REMARK SMILES O=C(Cn1nc(-c2ccccc2)ccc1=O)N[C@@H](C(=O)NCCCCNC(=O)c1ccc(-c2c3nc(c(-c4c(F)c(F)c(F)c(F)c4F)c4ccc([nH]4)c(-c4c(F)c(F)c(F)c(F)c4F)c4nc(c(-c5c(F)c(F)c(F)c(F)c5F)c5ccc2[nH]5)C=C4)C=C3)cc1)c1ccccc1
REMARK SMILES IDX 22 1 21 2 19 3 20 4 18 6 17 7 1 8 2 9 3 11 4 12 5 13 15 14
REMARK SMILES IDX 6 15 14 16 16 17 13 18 7 19 8 20 12 21 9 22 11 23 10 24
REMARK SMILES IDX 92 25 93 26 97 27 94 28 96 29 95 30 23 31 24 32 25 33 26 34
REMARK SMILES IDX 27 35 28 37 29 38 30 39 91 40 31 41 90 42 32 43 33 44 34 45
REMARK SMILES IDX 84 46 35 47 89 48 83 49 85 50 36 51 88 52 82 53 81 54 37 56
REMARK SMILES IDX 69 57 49 58 68 59 50 60 53 61 67 62 86 63 51 64 52 65 66 67
REMARK SMILES IDX 87 68 54 69 38 70 39 71 47 72 40 73 41 74 45 75 48 76 42 77
REMARK SMILES IDX 43 78 46 79 44 80 70 81 71 82 79 83 72 84 73 85 77 86 80 87
REMARK SMILES IDX 74 88 75 89 78 90 76 91 55 92 56 93 64 94 57 95 58 96 62 97
REMARK SMILES IDX 65 98 59 99 60 100 63 101 61 102
REMARK H PARENT 21 5 17 10 26 36 85 55 53 66
REMARK Flexibility Score: inf
ROOT
ATOM      1  C   UNL     1       1.509  -0.656   3.314  1.00  0.00     0.116 C 
ENDROOT
BRANCH   1   2
ATOM      2  N   UNL     1       2.286   0.436   3.868  1.00  0.00    -0.354 N 
ATOM      3  C   UNL     1       2.777   1.540   3.218  1.00  0.00     0.247 C 
ATOM      4  O   UNL     1       3.712   2.128   3.769  1.00  0.00    -0.272 OA
ATOM      5  H   UNL     1       2.485   0.378   4.830  1.00  0.00     0.163 HD
BRANCH   3   6
ATOM      6  C   UNL     1       2.218   1.928   1.819  1.00  0.00     0.202 C 
BRANCH   6   7
ATOM      7  N   UNL     1       2.954   1.112   0.856  1.00  0.00    -0.339 N 
ATOM      8  O   UNL     1       1.135  -0.011   0.035  1.00  0.00    -0.273 OA
ATOM      9  C   UNL     1       2.350   0.182   0.041  1.00  0.00     0.242 C 
ATOM     10  H   UNL     1       3.928   1.234   0.787  1.00  0.00     0.164 HD
BRANCH   9  11
ATOM     11  C   UNL     1       3.309  -0.691  -0.767  1.00  0.00     0.248 C 
BRANCH  11  12
ATOM     12  N   UNL     1       4.016  -0.032  -1.853  1.00  0.00    -0.220 N 
ATOM     13  N   UNL     1       4.122   1.338  -1.822  1.00  0.00    -0.169 NA
ATOM     14  C   UNL     1       4.572  -0.829  -2.846  1.00  0.00     0.267 A 
ATOM     15  C   UNL     1       4.683   1.917  -2.835  1.00  0.00     0.091 A 
ATOM     16  C   UNL     1       5.217  -0.115  -3.967  1.00  0.00     0.075 A 
ATOM     17  O   UNL     1       4.554  -2.057  -2.850  1.00  0.00    -0.268 OA
ATOM     18  C   UNL     1       5.268   1.217  -3.994  1.00  0.00     0.036 A 
BRANCH  15  19
ATOM     19  C   UNL     1       4.764   3.388  -2.864  1.00  0.00     0.002 A 
ATOM     20  C   UNL     1       5.500   4.049  -1.879  1.00  0.00     0.010 A 
ATOM     21  C   UNL     1       4.054   4.106  -3.831  1.00  0.00     0.010 A 
ATOM     22  C   UNL     1       5.546   5.442  -1.877  1.00  0.00     0.001 A 
ATOM     23  C   UNL     1       4.096   5.500  -3.817  1.00  0.00     0.001 A 
ATOM     24  C   UNL     1       4.845   6.166  -2.844  1.00  0.00     0.000 A 
ENDBRANCH  15  19
ENDBRANCH  11  12
ENDBRANCH   9  11
ENDBRANCH   6   7
BRANCH   6  25
ATOM     25  C   UNL     1       2.300   3.416   1.476  1.00  0.00    -0.016 A 
ATOM     26  C   UNL     1       2.311   4.417   2.463  1.00  0.00     0.006 A 
ATOM     27  C   UNL     1       2.251   3.831   0.133  1.00  0.00     0.006 A 
ATOM     28  C   UNL     1       2.341   5.772   2.121  1.00  0.00     0.000 A 
ATOM     29  C   UNL     1       2.269   5.184  -0.209  1.00  0.00     0.000 A 
ATOM     30  C   UNL     1       2.327   6.156   0.784  1.00  0.00     0.000 A 
ENDBRANCH   6  25
ENDBRANCH   3   6
ENDBRANCH   1   2
BRANCH   1  31
ATOM     31  C   UNL     1       2.424  -1.808   2.891  1.00  0.00     0.023 C 
BRANCH  31  32
ATOM     32  C   UNL     1       3.109  -2.535   4.052  1.00  0.00     0.023 C 
BRANCH  32  33
ATOM     33  C   UNL     1       2.162  -3.120   5.090  1.00  0.00     0.116 C 
BRANCH  33  34
ATOM     34  N   UNL     1       1.234  -4.099   4.544  1.00  0.00    -0.352 N 
ATOM     35  C   UNL     1       0.691  -5.196   5.175  1.00  0.00     0.251 C 
ATOM     36  H   UNL     1       0.962  -3.960   3.608  1.00  0.00     0.163 HD
ATOM     37  O   UNL     1       0.001  -5.998   4.564  1.00  0.00    -0.269 OA
BRANCH  35  38
ATOM     38  C   UNL     1       1.005  -5.417   6.603  1.00  0.00     0.039 A 
ATOM     39  C   UNL     1       0.871  -4.377   7.524  1.00  0.00     0.014 A 
ATOM     40  C   UNL     1       1.507  -6.658   7.002  1.00  0.00     0.014 A 
ATOM     41  C   UNL     1       1.395  -4.524   8.802  1.00  0.00     0.010 A 
ATOM     42  C   UNL     1       1.961  -6.828   8.312  1.00  0.00     0.010 A 
ATOM     43  C   UNL     1       1.957  -5.746   9.206  1.00  0.00    -0.014 A 
BRANCH  43  44
ATOM     44  C   UNL     1       2.554  -5.859  10.560  1.00  0.00     0.031 A 
ATOM     45  C   UNL     1       4.034  -6.064  10.732  1.00  0.00     0.074 A 
ATOM     46  C   UNL     1       1.764  -5.708  11.640  1.00  0.00     0.049 A 
ATOM     47  N   UNL     1       4.731  -6.165  11.837  1.00  0.00    -0.248 NA
ATOM     48  C   UNL     1       4.841  -6.173   9.506  1.00  0.00     0.031 C 
ATOM     49  C   UNL     1       0.318  -5.486  11.597  1.00  0.00     0.029 A 
ATOM     50  N   UNL     1       2.065  -5.690  12.977  1.00  0.00    -0.354 N 
ATOM     51  C   UNL     1       6.047  -6.365  11.441  1.00  0.00     0.074 A 
ATOM     52  C   UNL     1       6.053  -6.399   9.995  1.00  0.00     0.031 C 
ATOM     53  C   UNL     1      -0.133  -5.296  12.846  1.00  0.00     0.029 A 
ATOM     54  C   UNL     1       0.979  -5.445  13.780  1.00  0.00     0.049 A 
ATOM     55  H   UNL     1       2.973  -5.837  13.329  1.00  0.00     0.167 HD
ATOM     56  C   UNL     1       7.150  -6.494  12.216  1.00  0.00     0.037 A 
ATOM     57  C   UNL     1       0.884  -5.360  15.120  1.00  0.00     0.037 A 
ATOM     58  C   UNL     1       7.146  -6.432  13.654  1.00  0.00     0.049 A 
ATOM     59  C   UNL     1       2.118  -5.549  15.955  1.00  0.00     0.074 A 
ATOM     60  C   UNL     1       8.217  -6.532  14.525  1.00  0.00     0.029 A 
ATOM     61  N   UNL     1       6.013  -6.248  14.433  1.00  0.00    -0.354 N 
ATOM     62  N   UNL     1       3.354  -5.743  15.568  1.00  0.00    -0.248 NA
ATOM     63  C   UNL     1       1.940  -5.523  17.413  1.00  0.00     0.031 C 
ATOM     64  C   UNL     1       7.729  -6.447  15.832  1.00  0.00     0.029 A 
ATOM     65  C   UNL     1       6.358  -6.251  15.775  1.00  0.00     0.049 A 
ATOM     66  H   UNL     1       5.100  -6.132  14.085  1.00  0.00     0.167 HD
ATOM     67  C   UNL     1       4.103  -5.855  16.730  1.00  0.00     0.074 A 
ATOM     68  C   UNL     1       3.185  -5.685  17.838  1.00  0.00     0.031 C 
ATOM     69  C   UNL     1       5.431  -6.086  16.866  1.00  0.00     0.037 A 
BRANCH  56  70
ATOM     70  C   UNL     1       8.466  -6.721  11.530  1.00  0.00     0.064 A 
ATOM     71  C   UNL     1       9.127  -5.689  10.851  1.00  0.00     0.173 A 
ATOM     72  C   UNL     1       9.106  -7.968  11.616  1.00  0.00     0.173 A 
ATOM     73  F   UNL     1       8.552  -4.482  10.731  1.00  0.00    -0.203 F 
ATOM     74  C   UNL     1      10.376  -5.898  10.270  1.00  0.00     0.198 A 
ATOM     75  C   UNL     1      10.365  -8.167  11.055  1.00  0.00     0.198 A 
ATOM     76  F   UNL     1       8.518  -8.986  12.260  1.00  0.00    -0.203 F 
ATOM     77  F   UNL     1      10.977  -4.905   9.601  1.00  0.00    -0.200 F 
ATOM     78  C   UNL     1      10.997  -7.133  10.381  1.00  0.00     0.200 A 
ATOM     79  F   UNL     1      10.969  -9.357  11.174  1.00  0.00    -0.200 F 
ATOM     80  F   UNL     1      12.206  -7.328   9.835  1.00  0.00    -0.200 F 
ENDBRANCH  56  70
BRANCH  57  81
ATOM     81  C   UNL     1      -0.432  -5.074  15.742  1.00  0.00     0.064 A 
ATOM     82  C   UNL     1      -0.685  -3.838  16.350  1.00  0.00     0.173 A 
ATOM     83  C   UNL     1      -1.473  -6.013  15.709  1.00  0.00     0.173 A 
ATOM     84  F   UNL     1       0.286  -2.916  16.424  1.00  0.00    -0.203 F 
ATOM     85  C   UNL     1      -1.932  -3.551  16.902  1.00  0.00     0.198 A 
ATOM     86  C   UNL     1      -2.727  -5.716  16.237  1.00  0.00     0.198 A 
ATOM     87  F   UNL     1      -1.279  -7.210  15.135  1.00  0.00    -0.203 F 
ATOM     88  F   UNL     1      -2.142  -2.371  17.500  1.00  0.00    -0.200 F 
ATOM     89  C   UNL     1      -2.954  -4.487  16.837  1.00  0.00     0.200 A 
ATOM     90  F   UNL     1      -3.716  -6.617  16.157  1.00  0.00    -0.200 F 
ATOM     91  F   UNL     1      -4.158  -4.204  17.353  1.00  0.00    -0.200 F 
ENDBRANCH  57  81
BRANCH  69  92
ATOM     92  C   UNL     1       5.978  -6.166  18.259  1.00  0.00     0.064 A 
ATOM     93  C   UNL     1       5.756  -7.293  19.064  1.00  0.00     0.173 A 
ATOM     94  C   UNL     1       6.784  -5.138  18.770  1.00  0.00     0.173 A 
ATOM     95  F   UNL     1       4.980  -8.294  18.623  1.00  0.00    -0.203 F 
ATOM     96  C   UNL     1       6.311  -7.380  20.337  1.00  0.00     0.198 A 
ATOM     97  C   UNL     1       7.357  -5.240  20.034  1.00  0.00     0.198 A 
ATOM     98  F   UNL     1       7.030  -4.043  18.035  1.00  0.00    -0.203 F 
ATOM     99  F   UNL     1       6.060  -8.452  21.103  1.00  0.00    -0.200 F 
ATOM    100  C   UNL     1       7.117  -6.359  20.818  1.00  0.00     0.200 A 
ATOM    101  F   UNL     1       8.146  -4.258  20.492  1.00  0.00    -0.200 F 
ATOM    102  F   UNL     1       7.661  -6.452  22.039  1.00  0.00    -0.200 F 
ENDBRANCH  69  92
ENDBRANCH  43  44
ENDBRANCH  35  38
ENDBRANCH  33  34
ENDBRANCH  32  33
ENDBRANCH  31  32
ENDBRANCH   1  31
TORSDOF 16
