REMARK SMILES COc1ccc([C@@H]2[C@H](C(=O)NCCCCNC(=O)c3ccc(-c4c5nc(c(-c6c(F)c(F)c(F)c(F)c6F)c6ccc([nH]6)c(-c6c(F)c(F)c(F)c(F)c6F)c6nc(c(-c7c(F)c(F)c(F)c(F)c7F)c7ccc4[nH]7)C=C6)C=C5)cc3)c3ccccc3C(=O)N2C2CC2)cc1
REMARK SMILES IDX 13 1 12 2 11 3 9 4 10 5 8 7 7 8 90 9 82 10 88 11 83 12 87 13
REMARK SMILES IDX 89 14 84 15 86 16 85 17 6 18 3 19 4 20 95 21 5 22 94 23 2 24
REMARK SMILES IDX 1 25 91 26 92 27 93 28 14 29 15 30 16 31 17 32 18 34 19 35
REMARK SMILES IDX 20 36 81 37 21 38 80 39 22 40 23 41 24 42 74 43 25 44 79 45
REMARK SMILES IDX 73 46 75 47 26 48 78 49 72 50 71 51 27 53 59 54 39 55 58 56
REMARK SMILES IDX 40 57 43 58 57 59 76 60 41 61 42 62 56 64 77 65 44 66 28 67
REMARK SMILES IDX 29 68 37 69 30 70 31 71 35 72 38 73 32 74 33 75 36 76 34 77
REMARK SMILES IDX 60 78 61 79 69 80 62 81 63 82 67 83 70 84 64 85 65 86 68 87
REMARK SMILES IDX 66 88 45 89 46 90 54 91 47 92 48 93 52 94 55 95 49 96 50 97
REMARK SMILES IDX 53 98 51 99
REMARK H PARENT 11 6 16 33 75 52 43 63
REMARK Flexibility Score: inf
ROOT
ATOM      1  C   UNL     1      -3.126  -9.773   0.831  1.00  0.00     0.023 C 
ENDROOT
BRANCH   1   2
ATOM      2  C   UNL     1      -2.888  -8.336   0.385  1.00  0.00     0.116 C 
BRANCH   2   3
ATOM      3  N   UNL     1      -2.465  -7.487   1.483  1.00  0.00    -0.355 N 
ATOM      4  C   UNL     1      -1.525  -6.511   1.291  1.00  0.00     0.230 C 
ATOM      5  O   UNL     1      -1.961  -5.369   1.126  1.00  0.00    -0.274 OA
ATOM      6  H   UNL     1      -2.858  -7.615   2.377  1.00  0.00     0.163 HD
BRANCH   4   7
ATOM      7  C   UNL     1      -0.024  -6.824   1.268  1.00  0.00     0.136 C 
ATOM      8  C   UNL     1       0.726  -5.935   2.311  1.00  0.00     0.133 C 
ATOM      9  N   UNL     1       0.603  -6.501   3.657  1.00  0.00    -0.327 N 
ATOM     10  C   UNL     1       0.409  -8.286   1.500  1.00  0.00    -0.020 A 
ATOM     11  C   UNL     1       1.189  -7.753   3.860  1.00  0.00     0.254 C 
ATOM     12  C   UNL     1       0.257  -9.256   0.498  1.00  0.00     0.005 A 
ATOM     13  C   UNL     1       1.022  -8.690   2.710  1.00  0.00     0.044 A 
ATOM     14  O   UNL     1       1.649  -8.131   4.921  1.00  0.00    -0.269 OA
ATOM     15  C   UNL     1       0.587 -10.596   0.735  1.00  0.00     0.000 A 
ATOM     16  C   UNL     1       1.393 -10.026   2.925  1.00  0.00     0.014 A 
ATOM     17  C   UNL     1       1.150 -10.982   1.947  1.00  0.00     0.001 A 
BRANCH   8  18
ATOM     18  C   UNL     1       0.771  -4.414   2.143  1.00  0.00    -0.024 A 
ATOM     19  C   UNL     1       0.918  -1.619   1.672  1.00  0.00     0.118 A 
ATOM     20  C   UNL     1      -0.139  -2.157   2.392  1.00  0.00     0.047 A 
ATOM     21  C   UNL     1       1.937  -2.452   1.226  1.00  0.00     0.047 A 
ATOM     22  C   UNL     1      -0.214  -3.538   2.611  1.00  0.00     0.010 A 
ATOM     23  C   UNL     1       1.859  -3.833   1.454  1.00  0.00     0.010 A 
BRANCH  19  24
ATOM     24  O   UNL     1       0.902  -0.267   1.474  1.00  0.00    -0.497 OA
ATOM     25  C   UNL     1       1.124   0.091   0.111  1.00  0.00     0.278 C 
ENDBRANCH  19  24
ENDBRANCH   8  18
BRANCH   9  26
ATOM     26  C   UNL     1      -0.278  -6.052   4.705  1.00  0.00     0.086 C 
ATOM     27  C   UNL     1      -1.746  -5.727   4.634  1.00  0.00     0.027 C 
ATOM     28  C   UNL     1      -1.347  -7.068   5.125  1.00  0.00     0.027 C 
ENDBRANCH   9  26
ENDBRANCH   4   7
ENDBRANCH   2   3
ENDBRANCH   1   2
BRANCH   1  29
ATOM     29  C   UNL     1      -4.508 -10.036   1.433  1.00  0.00     0.023 C 
BRANCH  29  30
ATOM     30  C   UNL     1      -5.694  -9.859   0.485  1.00  0.00     0.116 C 
BRANCH  30  31
ATOM     31  N   UNL     1      -5.612 -10.678  -0.715  1.00  0.00    -0.352 N 
ATOM     32  C   UNL     1      -6.596 -11.374  -1.375  1.00  0.00     0.251 C 
ATOM     33  H   UNL     1      -4.715 -10.742  -1.115  1.00  0.00     0.163 HD
ATOM     34  O   UNL     1      -6.300 -12.079  -2.336  1.00  0.00    -0.269 OA
BRANCH  32  35
ATOM     35  C   UNL     1      -8.002 -11.317  -0.914  1.00  0.00     0.039 A 
ATOM     36  C   UNL     1      -8.737 -12.506  -0.866  1.00  0.00     0.014 A 
ATOM     37  C   UNL     1      -8.602 -10.113  -0.539  1.00  0.00     0.014 A 
ATOM     38  C   UNL     1     -10.043 -12.500  -0.368  1.00  0.00     0.010 A 
ATOM     39  C   UNL     1      -9.880 -10.117   0.018  1.00  0.00     0.010 A 
ATOM     40  C   UNL     1     -10.611 -11.311   0.117  1.00  0.00    -0.014 A 
BRANCH  40  41
ATOM     41  C   UNL     1     -11.958 -11.298   0.744  1.00  0.00     0.031 A 
ATOM     42  C   UNL     1     -13.084 -10.534   0.105  1.00  0.00     0.074 A 
ATOM     43  C   UNL     1     -12.151 -11.920   1.925  1.00  0.00     0.049 A 
ATOM     44  N   UNL     1     -14.296 -10.317   0.551  1.00  0.00    -0.248 NA
ATOM     45  C   UNL     1     -12.804  -9.912  -1.199  1.00  0.00     0.031 C 
ATOM     46  C   UNL     1     -11.132 -12.665   2.666  1.00  0.00     0.029 A 
ATOM     47  N   UNL     1     -13.269 -12.011   2.717  1.00  0.00    -0.354 N 
ATOM     48  C   UNL     1     -14.917  -9.531  -0.410  1.00  0.00     0.074 A 
ATOM     49  C   UNL     1     -13.936  -9.266  -1.440  1.00  0.00     0.031 C 
ATOM     50  C   UNL     1     -11.674 -13.148   3.796  1.00  0.00     0.029 A 
ATOM     51  C   UNL     1     -13.066 -12.717   3.879  1.00  0.00     0.049 A 
ATOM     52  H   UNL     1     -14.134 -11.610   2.475  1.00  0.00     0.167 HD
ATOM     53  C   UNL     1     -16.198  -9.090  -0.443  1.00  0.00     0.037 A 
ATOM     54  C   UNL     1     -13.904 -12.975   4.901  1.00  0.00     0.037 A 
ATOM     55  C   UNL     1     -17.182  -9.370   0.569  1.00  0.00     0.049 A 
ATOM     56  C   UNL     1     -15.317 -12.459   4.842  1.00  0.00     0.074 A 
ATOM     57  C   UNL     1     -18.511  -8.985   0.612  1.00  0.00     0.029 A 
ATOM     58  N   UNL     1     -16.945 -10.114   1.715  1.00  0.00    -0.354 N 
ATOM     59  N   UNL     1     -15.903 -11.752   3.907  1.00  0.00    -0.248 NA
ATOM     60  C   UNL     1     -16.189 -12.784   5.981  1.00  0.00     0.031 C 
ATOM     61  C   UNL     1     -19.072  -9.473   1.796  1.00  0.00     0.029 A 
ATOM     62  C   UNL     1     -18.102 -10.196   2.472  1.00  0.00     0.049 A 
ATOM     63  H   UNL     1     -16.082 -10.524   1.954  1.00  0.00     0.167 HD
ATOM     64  C   UNL     1     -17.215 -11.578   4.327  1.00  0.00     0.074 A 
ATOM     65  C   UNL     1     -17.344 -12.264   5.594  1.00  0.00     0.031 C 
ATOM     66  C   UNL     1     -18.221 -10.906   3.718  1.00  0.00     0.037 A 
BRANCH  53  67
ATOM     67  C   UNL     1     -16.621  -8.270  -1.626  1.00  0.00     0.064 A 
ATOM     68  C   UNL     1     -16.804  -8.855  -2.888  1.00  0.00     0.173 A 
ATOM     69  C   UNL     1     -16.906  -6.904  -1.487  1.00  0.00     0.173 A 
ATOM     70  F   UNL     1     -16.533 -10.156  -3.074  1.00  0.00    -0.203 F 
ATOM     71  C   UNL     1     -17.241  -8.099  -3.972  1.00  0.00     0.198 A 
ATOM     72  C   UNL     1     -17.367  -6.156  -2.567  1.00  0.00     0.198 A 
ATOM     73  F   UNL     1     -16.752  -6.298  -0.300  1.00  0.00    -0.203 F 
ATOM     74  F   UNL     1     -17.375  -8.672  -5.176  1.00  0.00    -0.200 F 
ATOM     75  C   UNL     1     -17.530  -6.753  -3.809  1.00  0.00     0.200 A 
ATOM     76  F   UNL     1     -17.659  -4.858  -2.406  1.00  0.00    -0.200 F 
ATOM     77  F   UNL     1     -17.963  -6.029  -4.850  1.00  0.00    -0.200 F 
ENDBRANCH  53  67
BRANCH  54  78
ATOM     78  C   UNL     1     -13.443 -13.772   6.068  1.00  0.00     0.064 A 
ATOM     79  C   UNL     1     -13.954 -15.055   6.309  1.00  0.00     0.173 A 
ATOM     80  C   UNL     1     -12.518 -13.255   6.986  1.00  0.00     0.173 A 
ATOM     81  F   UNL     1     -14.859 -15.583   5.471  1.00  0.00    -0.203 F 
ATOM     82  C   UNL     1     -13.583 -15.777   7.441  1.00  0.00     0.198 A 
ATOM     83  C   UNL     1     -12.125 -13.990   8.103  1.00  0.00     0.198 A 
ATOM     84  F   UNL     1     -11.996 -12.033   6.800  1.00  0.00    -0.203 F 
ATOM     85  F   UNL     1     -14.134 -16.976   7.678  1.00  0.00    -0.200 F 
ATOM     86  C   UNL     1     -12.667 -15.245   8.336  1.00  0.00     0.200 A 
ATOM     87  F   UNL     1     -11.231 -13.478   8.959  1.00  0.00    -0.200 F 
ATOM     88  F   UNL     1     -12.316 -15.937   9.429  1.00  0.00    -0.200 F 
ENDBRANCH  54  78
BRANCH  66  89
ATOM     89  C   UNL     1     -19.563 -10.923   4.388  1.00  0.00     0.064 A 
ATOM     90  C   UNL     1     -19.816 -10.182   5.551  1.00  0.00     0.173 A 
ATOM     91  C   UNL     1     -20.620 -11.663   3.836  1.00  0.00     0.173 A 
ATOM     92  F   UNL     1     -18.833  -9.472   6.125  1.00  0.00    -0.203 F 
ATOM     93  C   UNL     1     -21.071 -10.201   6.152  1.00  0.00     0.198 A 
ATOM     94  C   UNL     1     -21.881 -11.658   4.424  1.00  0.00     0.198 A 
ATOM     95  F   UNL     1     -20.430 -12.384   2.720  1.00  0.00    -0.203 F 
ATOM     96  F   UNL     1     -21.278  -9.521   7.288  1.00  0.00    -0.200 F 
ATOM     97  C   UNL     1     -22.104 -10.933   5.584  1.00  0.00     0.200 A 
ATOM     98  F   UNL     1     -22.881 -12.356   3.868  1.00  0.00    -0.200 F 
ATOM     99  F   UNL     1     -23.314 -10.945   6.161  1.00  0.00    -0.200 F 
ENDBRANCH  66  89
ENDBRANCH  40  41
ENDBRANCH  32  35
ENDBRANCH  30  31
ENDBRANCH  29  30
ENDBRANCH   1  29
TORSDOF 14
