REMARK SMILES COC(=O)C[C@H](NC(=O)N(C)C[C@@H]1CCC[N@H+]1C)C(=O)NCCCCNC(=O)c1ccc(-c2c3nc(c(-c4c(F)c(F)c(F)c(F)c4F)c4ccc([nH]4)c(-c4c(F)c(F)c(F)c(F)c4F)c4nc(c(-c5c(F)c(F)c(F)c(F)c5F)c5ccc2[nH]5)C=C4)C=C3)cc1
REMARK SMILES IDX 22 1 21 2 19 3 20 4 6 6 5 7 3 8 4 9 2 10 1 11 7 12 8 13 9 15
REMARK SMILES IDX 10 16 11 17 12 18 13 19 14 20 17 21 15 22 16 23 18 24 23 26
REMARK SMILES IDX 24 27 25 28 26 29 27 30 28 32 29 33 30 34 91 35 31 36 90 37
REMARK SMILES IDX 32 38 33 39 34 40 84 41 35 42 89 43 83 44 85 45 36 46 88 47
REMARK SMILES IDX 82 48 81 49 37 51 69 52 49 53 68 54 50 55 53 56 67 57 86 58
REMARK SMILES IDX 51 59 52 60 66 62 87 63 54 64 38 65 39 66 47 67 40 68 41 69
REMARK SMILES IDX 45 70 48 71 42 72 43 73 46 74 44 75 70 76 71 77 79 78 72 79
REMARK SMILES IDX 73 80 77 81 80 82 74 83 75 84 78 85 76 86 55 87 56 88 64 89
REMARK SMILES IDX 57 90 58 91 62 92 65 93 59 94 60 95 63 96 61 97
REMARK H PARENT 21 5 7 14 17 25 26 31 85 50 53 61
REMARK Flexibility Score: inf
ROOT
ATOM      1  C   UNL     1      -0.934  -0.764 -13.602  1.00  0.00     0.116 C 
ENDROOT
BRANCH   1   2
ATOM      2  N   UNL     1      -1.901  -1.413 -12.744  1.00  0.00    -0.354 N 
ATOM      3  C   UNL     1      -1.698  -2.501 -11.908  1.00  0.00     0.243 C 
ATOM      4  O   UNL     1      -2.585  -2.711 -11.072  1.00  0.00    -0.273 OA
ATOM      5  H   UNL     1      -2.812  -1.038 -12.755  1.00  0.00     0.163 HD
BRANCH   3   6
ATOM      6  C   UNL     1      -0.482  -3.518 -12.026  1.00  0.00     0.184 C 
BRANCH   6   7
ATOM      7  C   UNL     1       0.243  -3.965 -10.753  1.00  0.00     0.157 C 
BRANCH   7   8
ATOM      8  C   UNL     1      -0.492  -4.868  -9.804  1.00  0.00     0.308 C 
ATOM      9  O   UNL     1      -0.283  -6.064  -9.709  1.00  0.00    -0.252 OA
BRANCH   8  10
ATOM     10  O   UNL     1      -1.249  -4.121  -8.959  1.00  0.00    -0.469 OA
ATOM     11  C   UNL     1      -1.705  -4.797  -7.787  1.00  0.00     0.282 C 
ENDBRANCH   8  10
ENDBRANCH   7   8
ENDBRANCH   6   7
BRANCH   6  12
ATOM     12  N   UNL     1       0.510  -3.277 -13.077  1.00  0.00    -0.326 N 
ATOM     13  C   UNL     1       1.517  -2.425 -13.326  1.00  0.00     0.318 C 
ATOM     14  H   UNL     1       0.409  -3.926 -13.810  1.00  0.00     0.166 HD
ATOM     15  O   UNL     1       2.033  -2.593 -14.435  1.00  0.00    -0.249 OA
BRANCH  13  16
ATOM     16  N   UNL     1       1.834  -1.363 -12.523  1.00  0.00    -0.322 N 
ATOM     17  C   UNL     1       1.395  -1.074 -11.164  1.00  0.00     0.149 C 
BRANCH  16  18
ATOM     18  C   UNL     1       2.775  -0.379 -13.084  1.00  0.00     0.185 C 
BRANCH  18  19
ATOM     19  C   UNL     1       4.258  -0.796 -13.128  1.00  0.00     0.203 C 
ATOM     20  C   UNL     1       4.710  -1.220 -14.532  1.00  0.00     0.073 C 
ATOM     21  N   UNL     1       4.581  -1.927 -12.246  1.00  0.00    -0.333 N 
ATOM     22  C   UNL     1       5.383  -2.568 -14.344  1.00  0.00     0.068 C 
ATOM     23  C   UNL     1       5.702  -2.628 -12.861  1.00  0.00     0.262 C 
ATOM     24  C   UNL     1       4.838  -1.538 -10.870  1.00  0.00     0.333 C 
ATOM     25  H   UNL     1       3.774  -2.545 -12.162  1.00  0.00     0.348 HD
ENDBRANCH  18  19
ENDBRANCH  16  18
ENDBRANCH  13  16
ENDBRANCH   6  12
ENDBRANCH   3   6
ENDBRANCH   1   2
BRANCH   1  26
ATOM     26  C   UNL     1      -1.298   0.351 -14.575  1.00  0.00     0.023 C 
BRANCH  26  27
ATOM     27  C   UNL     1      -1.460   1.784 -14.056  1.00  0.00     0.023 C 
BRANCH  27  28
ATOM     28  C   UNL     1      -0.543   2.296 -12.943  1.00  0.00     0.116 C 
BRANCH  28  29
ATOM     29  N   UNL     1       0.833   2.599 -13.326  1.00  0.00    -0.352 N 
ATOM     30  C   UNL     1       1.557   3.773 -13.260  1.00  0.00     0.251 C 
ATOM     31  H   UNL     1       1.330   1.833 -13.696  1.00  0.00     0.163 HD
ATOM     32  O   UNL     1       2.760   3.773 -13.507  1.00  0.00    -0.269 OA
BRANCH  30  33
ATOM     33  C   UNL     1       0.864   5.056 -13.013  1.00  0.00     0.039 A 
ATOM     34  C   UNL     1       0.985   6.061 -13.979  1.00  0.00     0.014 A 
ATOM     35  C   UNL     1      -0.005   5.221 -11.937  1.00  0.00     0.014 A 
ATOM     36  C   UNL     1       0.098   7.138 -13.969  1.00  0.00     0.010 A 
ATOM     37  C   UNL     1      -0.951   6.242 -11.981  1.00  0.00     0.010 A 
ATOM     38  C   UNL     1      -0.943   7.178 -13.028  1.00  0.00    -0.014 A 
BRANCH  38  39
ATOM     39  C   UNL     1      -2.086   8.117 -13.180  1.00  0.00     0.031 A 
ATOM     40  C   UNL     1      -2.394   9.116 -12.104  1.00  0.00     0.074 A 
ATOM     41  C   UNL     1      -2.914   7.982 -14.238  1.00  0.00     0.049 A 
ATOM     42  N   UNL     1      -3.422   9.918 -11.991  1.00  0.00    -0.248 NA
ATOM     43  C   UNL     1      -1.437   9.206 -10.990  1.00  0.00     0.031 C 
ATOM     44  C   UNL     1      -2.754   7.010 -15.323  1.00  0.00     0.029 A 
ATOM     45  N   UNL     1      -4.074   8.645 -14.566  1.00  0.00    -0.354 N 
ATOM     46  C   UNL     1      -3.247  10.588 -10.788  1.00  0.00     0.074 A 
ATOM     47  C   UNL     1      -2.036  10.074 -10.188  1.00  0.00     0.031 C 
ATOM     48  C   UNL     1      -3.765   7.145 -16.195  1.00  0.00     0.029 A 
ATOM     49  C   UNL     1      -4.678   8.174 -15.709  1.00  0.00     0.049 A 
ATOM     50  H   UNL     1      -4.438   9.389 -14.033  1.00  0.00     0.167 HD
ATOM     51  C   UNL     1      -4.024  11.553 -10.245  1.00  0.00     0.037 A 
ATOM     52  C   UNL     1      -5.849   8.509 -16.285  1.00  0.00     0.037 A 
ATOM     53  C   UNL     1      -5.209  12.084 -10.866  1.00  0.00     0.049 A 
ATOM     54  C   UNL     1      -6.696   9.580 -15.646  1.00  0.00     0.074 A 
ATOM     55  C   UNL     1      -6.004  13.134 -10.442  1.00  0.00     0.029 A 
ATOM     56  N   UNL     1      -5.775  11.599 -12.035  1.00  0.00    -0.354 N 
ATOM     57  N   UNL     1      -6.465  10.277 -14.561  1.00  0.00    -0.248 NA
ATOM     58  C   UNL     1      -7.966   9.908 -16.309  1.00  0.00     0.031 C 
ATOM     59  C   UNL     1      -7.089  13.240 -11.316  1.00  0.00     0.029 A 
ATOM     60  C   UNL     1      -6.937  12.298 -12.320  1.00  0.00     0.049 A 
ATOM     61  H   UNL     1      -5.407  10.867 -12.581  1.00  0.00     0.167 HD
ATOM     62  C   UNL     1      -7.545  11.139 -14.424  1.00  0.00     0.074 A 
ATOM     63  C   UNL     1      -8.421  10.895 -15.550  1.00  0.00     0.031 C 
ATOM     64  C   UNL     1      -7.794  12.046 -13.449  1.00  0.00     0.037 A 
BRANCH  51  65
ATOM     65  C   UNL     1      -3.633  12.106  -8.906  1.00  0.00     0.064 A 
ATOM     66  C   UNL     1      -2.514  12.935  -8.747  1.00  0.00     0.173 A 
ATOM     67  C   UNL     1      -4.440  11.869  -7.783  1.00  0.00     0.173 A 
ATOM     68  F   UNL     1      -1.704  13.185  -9.787  1.00  0.00    -0.203 F 
ATOM     69  C   UNL     1      -2.209  13.497  -7.510  1.00  0.00     0.198 A 
ATOM     70  C   UNL     1      -4.150  12.456  -6.555  1.00  0.00     0.198 A 
ATOM     71  F   UNL     1      -5.525  11.086  -7.883  1.00  0.00    -0.203 F 
ATOM     72  F   UNL     1      -1.117  14.261  -7.373  1.00  0.00    -0.200 F 
ATOM     73  C   UNL     1      -3.034  13.266  -6.418  1.00  0.00     0.200 A 
ATOM     74  F   UNL     1      -4.956  12.243  -5.505  1.00  0.00    -0.200 F 
ATOM     75  F   UNL     1      -2.751  13.825  -5.233  1.00  0.00    -0.200 F 
ENDBRANCH  51  65
BRANCH  52  76
ATOM     76  C   UNL     1      -6.315   7.812 -17.517  1.00  0.00     0.064 A 
ATOM     77  C   UNL     1      -6.455   8.501 -18.731  1.00  0.00     0.173 A 
ATOM     78  C   UNL     1      -6.676   6.456 -17.496  1.00  0.00     0.173 A 
ATOM     79  F   UNL     1      -6.146   9.804 -18.801  1.00  0.00    -0.203 F 
ATOM     80  C   UNL     1      -6.972   7.871 -19.863  1.00  0.00     0.198 A 
ATOM     81  C   UNL     1      -7.158   5.819 -18.638  1.00  0.00     0.198 A 
ATOM     82  F   UNL     1      -6.560   5.747 -16.363  1.00  0.00    -0.203 F 
ATOM     83  F   UNL     1      -7.159   8.572 -20.989  1.00  0.00    -0.200 F 
ATOM     84  C   UNL     1      -7.319   6.530 -19.816  1.00  0.00     0.200 A 
ATOM     85  F   UNL     1      -7.477   4.518 -18.591  1.00  0.00    -0.200 F 
ATOM     86  F   UNL     1      -7.822   5.927 -20.902  1.00  0.00    -0.200 F 
ENDBRANCH  52  76
BRANCH  64  87
ATOM     87  C   UNL     1      -9.050  12.859 -13.563  1.00  0.00     0.064 A 
ATOM     88  C   UNL     1     -10.314  12.291 -13.347  1.00  0.00     0.173 A 
ATOM     89  C   UNL     1      -8.985  14.236 -13.831  1.00  0.00     0.173 A 
ATOM     90  F   UNL     1     -10.431  10.977 -13.104  1.00  0.00    -0.203 F 
ATOM     91  C   UNL     1     -11.468  13.068 -13.410  1.00  0.00     0.198 A 
ATOM     92  C   UNL     1     -10.137  15.015 -13.860  1.00  0.00     0.198 A 
ATOM     93  F   UNL     1      -7.800  14.829 -14.039  1.00  0.00    -0.203 F 
ATOM     94  F   UNL     1     -12.668  12.496 -13.241  1.00  0.00    -0.200 F 
ATOM     95  C   UNL     1     -11.378  14.430 -13.656  1.00  0.00     0.200 A 
ATOM     96  F   UNL     1     -10.046  16.334 -14.080  1.00  0.00    -0.200 F 
ATOM     97  F   UNL     1     -12.488  15.179 -13.699  1.00  0.00    -0.200 F 
ENDBRANCH  64  87
ENDBRANCH  38  39
ENDBRANCH  30  33
ENDBRANCH  28  29
ENDBRANCH  27  28
ENDBRANCH  26  27
ENDBRANCH   1  26
TORSDOF 18
