REMARK SMILES C[C@]1(C(=O)NCCCCNC(=O)c2ccc(-c3c4nc(c(-c5c(F)c(F)c(F)c(F)c5F)c5ccc([nH]5)c(-c5c(F)c(F)c(F)c(F)c5F)c5nc(c(-c6c(F)c(F)c(F)c(F)c6F)c6ccc3[nH]6)C=C5)C=C4)cc2)COC[C@H]1Nc1ccc2nnnn2n1
REMARK SMILES IDX 7 1 6 2 5 3 3 4 4 5 2 7 1 8 76 9 79 10 77 11 78 12 80 13
REMARK SMILES IDX 81 15 82 16 89 17 83 18 88 19 84 20 87 21 85 22 86 23 8 24
REMARK SMILES IDX 9 25 10 26 11 27 12 29 13 30 14 31 75 32 15 33 74 34 16 35
REMARK SMILES IDX 17 36 18 37 68 38 19 39 73 40 67 41 69 42 20 43 72 44 66 45
REMARK SMILES IDX 65 46 21 48 53 49 33 50 52 51 34 52 37 53 51 54 70 55 35 56
REMARK SMILES IDX 36 57 50 59 71 60 38 61 22 62 23 63 31 64 24 65 25 66 29 67
REMARK SMILES IDX 32 68 26 69 27 70 30 71 28 72 54 73 55 74 63 75 56 76 57 77
REMARK SMILES IDX 61 78 64 79 58 80 59 81 62 82 60 83 39 84 40 85 48 86 41 87
REMARK SMILES IDX 42 88 46 89 49 90 43 91 44 92 47 93 45 94
REMARK H PARENT 5 6 80 14 10 28 69 47 37 58
REMARK Flexibility Score: inf
ROOT
ATOM      1  C   UNL     1       1.690   0.376  -3.207  1.00  0.00     0.023 C 
ENDROOT
BRANCH   1   2
ATOM      2  C   UNL     1       0.898  -0.604  -2.355  1.00  0.00     0.116 C 
BRANCH   2   3
ATOM      3  N   UNL     1       1.350  -0.598  -0.974  1.00  0.00    -0.355 N 
ATOM      4  C   UNL     1       1.220   0.276   0.056  1.00  0.00     0.230 C 
ATOM      5  O   UNL     1       1.895  -0.001   1.054  1.00  0.00    -0.274 OA
ATOM      6  H   UNL     1       1.863  -1.403  -0.733  1.00  0.00     0.163 HD
BRANCH   4   7
ATOM      7  C   UNL     1       0.377   1.554   0.018  1.00  0.00     0.092 C 
ATOM      8  C   UNL     1      -0.900   1.447  -0.842  1.00  0.00     0.026 C 
ATOM      9  C   UNL     1      -0.096   1.840   1.459  1.00  0.00     0.179 C 
ATOM     10  C   UNL     1       1.111   2.867  -0.326  1.00  0.00     0.124 C 
ATOM     11  O   UNL     1      -0.305   3.255   1.536  1.00  0.00    -0.378 OA
ATOM     12  C   UNL     1       0.778   3.835   0.811  1.00  0.00     0.186 C 
BRANCH  10  13
ATOM     13  N   UNL     1       2.562   2.846  -0.600  1.00  0.00    -0.362 N 
ATOM     14  H   UNL     1       3.184   2.322  -0.045  1.00  0.00     0.162 HD
BRANCH  13  15
ATOM     15  C   UNL     1       3.005   3.595  -1.671  1.00  0.00     0.149 A 
ATOM     16  C   UNL     1       2.573   5.028  -1.782  1.00  0.00     0.053 A 
ATOM     17  N   UNL     1       3.633   2.976  -2.630  1.00  0.00    -0.129 NA
ATOM     18  C   UNL     1       2.245   5.464  -3.004  1.00  0.00     0.057 A 
ATOM     19  N   UNL     1       3.430   3.586  -3.835  1.00  0.00    -0.108 N 
ATOM     20  C   UNL     1       2.593   4.654  -4.098  1.00  0.00     0.200 A 
ATOM     21  N   UNL     1       3.757   3.003  -4.999  1.00  0.00    -0.022 NA
ATOM     22  N   UNL     1       2.333   4.682  -5.384  1.00  0.00    -0.107 NA
ATOM     23  N   UNL     1       3.066   3.651  -5.929  1.00  0.00    -0.022 NA
ENDBRANCH  13  15
ENDBRANCH  10  13
ENDBRANCH   4   7
ENDBRANCH   2   3
ENDBRANCH   1   2
BRANCH   1  24
ATOM     24  C   UNL     1       3.153  -0.042  -3.368  1.00  0.00     0.023 C 
BRANCH  24  25
ATOM     25  C   UNL     1       3.373  -1.153  -4.375  1.00  0.00     0.116 C 
BRANCH  25  26
ATOM     26  N   UNL     1       2.998  -0.770  -5.729  1.00  0.00    -0.352 N 
ATOM     27  C   UNL     1       3.657  -0.993  -6.917  1.00  0.00     0.251 C 
ATOM     28  H   UNL     1       2.149  -0.279  -5.806  1.00  0.00     0.163 HD
ATOM     29  O   UNL     1       3.244  -0.519  -7.957  1.00  0.00    -0.269 OA
BRANCH  27  30
ATOM     30  C   UNL     1       4.899  -1.796  -6.907  1.00  0.00     0.039 A 
ATOM     31  C   UNL     1       5.997  -1.345  -7.645  1.00  0.00     0.014 A 
ATOM     32  C   UNL     1       4.990  -2.962  -6.147  1.00  0.00     0.014 A 
ATOM     33  C   UNL     1       7.207  -2.034  -7.566  1.00  0.00     0.010 A 
ATOM     34  C   UNL     1       6.220  -3.581  -5.983  1.00  0.00     0.010 A 
ATOM     35  C   UNL     1       7.337  -3.135  -6.704  1.00  0.00    -0.014 A 
BRANCH  35  36
ATOM     36  C   UNL     1       8.619  -3.865  -6.560  1.00  0.00     0.031 A 
ATOM     37  C   UNL     1       8.684  -5.323  -6.922  1.00  0.00     0.074 A 
ATOM     38  C   UNL     1       9.690  -3.244  -6.030  1.00  0.00     0.049 A 
ATOM     39  N   UNL     1       9.665  -6.175  -6.765  1.00  0.00    -0.248 NA
ATOM     40  C   UNL     1       7.465  -5.915  -7.500  1.00  0.00     0.031 C 
ATOM     41  C   UNL     1       9.729  -1.849  -5.589  1.00  0.00     0.029 A 
ATOM     42  N   UNL     1      10.951  -3.713  -5.761  1.00  0.00    -0.354 N 
ATOM     43  C   UNL     1       9.171  -7.399  -7.196  1.00  0.00     0.074 A 
ATOM     44  C   UNL     1       7.787  -7.198  -7.559  1.00  0.00     0.031 C 
ATOM     45  C   UNL     1      10.959  -1.567  -5.130  1.00  0.00     0.029 A 
ATOM     46  C   UNL     1      11.781  -2.770  -5.206  1.00  0.00     0.049 A 
ATOM     47  H   UNL     1      11.234  -4.637  -5.948  1.00  0.00     0.167 HD
ATOM     48  C   UNL     1       9.823  -8.580  -7.307  1.00  0.00     0.037 A 
ATOM     49  C   UNL     1      13.061  -2.872  -4.800  1.00  0.00     0.037 A 
ATOM     50  C   UNL     1      11.214  -8.760  -6.987  1.00  0.00     0.049 A 
ATOM     51  C   UNL     1      13.770  -4.191  -4.952  1.00  0.00     0.074 A 
ATOM     52  C   UNL     1      11.993  -9.893  -7.131  1.00  0.00     0.029 A 
ATOM     53  N   UNL     1      12.034  -7.771  -6.463  1.00  0.00    -0.354 N 
ATOM     54  N   UNL     1      13.315  -5.326  -5.424  1.00  0.00    -0.248 NA
ATOM     55  C   UNL     1      15.174  -4.240  -4.521  1.00  0.00     0.031 C 
ATOM     56  C   UNL     1      13.275  -9.603  -6.652  1.00  0.00     0.029 A 
ATOM     57  C   UNL     1      13.308  -8.274  -6.259  1.00  0.00     0.049 A 
ATOM     58  H   UNL     1      11.752  -6.849  -6.265  1.00  0.00     0.167 HD
ATOM     59  C   UNL     1      14.379  -6.215  -5.374  1.00  0.00     0.074 A 
ATOM     60  C   UNL     1      15.509  -5.482  -4.840  1.00  0.00     0.031 C 
ATOM     61  C   UNL     1      14.420  -7.521  -5.737  1.00  0.00     0.037 A 
BRANCH  48  62
ATOM     62  C   UNL     1       9.042  -9.761  -7.806  1.00  0.00     0.064 A 
ATOM     63  C   UNL     1       8.582  -9.836  -9.130  1.00  0.00     0.173 A 
ATOM     64  C   UNL     1       8.768 -10.843  -6.957  1.00  0.00     0.173 A 
ATOM     65  F   UNL     1       8.805  -8.822  -9.981  1.00  0.00    -0.203 F 
ATOM     66  C   UNL     1       7.847 -10.932  -9.575  1.00  0.00     0.198 A 
ATOM     67  C   UNL     1       8.062 -11.954  -7.414  1.00  0.00     0.198 A 
ATOM     68  F   UNL     1       9.186 -10.827  -5.682  1.00  0.00    -0.203 F 
ATOM     69  F   UNL     1       7.369 -10.953 -10.826  1.00  0.00    -0.200 F 
ATOM     70  C   UNL     1       7.595 -11.993  -8.719  1.00  0.00     0.200 A 
ATOM     71  F   UNL     1       7.829 -12.984  -6.589  1.00  0.00    -0.200 F 
ATOM     72  F   UNL     1       6.892 -13.050  -9.149  1.00  0.00    -0.200 F 
ENDBRANCH  48  62
BRANCH  49  73
ATOM     73  C   UNL     1      13.761  -1.685  -4.243  1.00  0.00     0.064 A 
ATOM     74  C   UNL     1      14.796  -1.062  -4.955  1.00  0.00     0.173 A 
ATOM     75  C   UNL     1      13.417  -1.150  -2.993  1.00  0.00     0.173 A 
ATOM     76  F   UNL     1      15.175  -1.549  -6.146  1.00  0.00    -0.203 F 
ATOM     77  C   UNL     1      15.474   0.036  -4.430  1.00  0.00     0.198 A 
ATOM     78  C   UNL     1      14.076  -0.034  -2.481  1.00  0.00     0.198 A 
ATOM     79  F   UNL     1      12.431  -1.705  -2.273  1.00  0.00    -0.203 F 
ATOM     80  F   UNL     1      16.491   0.581  -5.111  1.00  0.00    -0.200 F 
ATOM     81  C   UNL     1      15.110   0.553  -3.196  1.00  0.00     0.200 A 
ATOM     82  F   UNL     1      13.713   0.471  -1.294  1.00  0.00    -0.200 F 
ATOM     83  F   UNL     1      15.761   1.610  -2.692  1.00  0.00    -0.200 F 
ENDBRANCH  49  73
BRANCH  61  84
ATOM     84  C   UNL     1      15.735  -8.230  -5.604  1.00  0.00     0.064 A 
ATOM     85  C   UNL     1      16.261  -8.579  -4.352  1.00  0.00     0.173 A 
ATOM     86  C   UNL     1      16.453  -8.609  -6.749  1.00  0.00     0.173 A 
ATOM     87  F   UNL     1      15.618  -8.226  -3.228  1.00  0.00    -0.203 F 
ATOM     88  C   UNL     1      17.470  -9.260  -4.250  1.00  0.00     0.198 A 
ATOM     89  C   UNL     1      17.646  -9.318  -6.644  1.00  0.00     0.198 A 
ATOM     90  F   UNL     1      15.988  -8.307  -7.971  1.00  0.00    -0.203 F 
ATOM     91  F   UNL     1      17.977  -9.543  -3.042  1.00  0.00    -0.200 F 
ATOM     92  C   UNL     1      18.157  -9.636  -5.395  1.00  0.00     0.200 A 
ATOM     93  F   UNL     1      18.299  -9.694  -7.752  1.00  0.00    -0.200 F 
ATOM     94  F   UNL     1      19.316 -10.301  -5.295  1.00  0.00    -0.200 F 
ENDBRANCH  61  84
ENDBRANCH  35  36
ENDBRANCH  27  30
ENDBRANCH  25  26
ENDBRANCH  24  25
ENDBRANCH   1  24
TORSDOF 13
