REMARK SMILES COc1cc([C@H]2C[C@@H](C(=O)NCCCCNC(=O)c3ccc(-c4c5nc(c(-c6c(F)c(F)c(F)c(F)c6F)c6ccc([nH]6)c(-c6c(F)c(F)c(F)c(F)c6F)c6nc(c(-c7c(F)c(F)c(F)c(F)c7F)c7ccc4[nH]7)C=C6)C=C5)cc3)C2)ccc1Br
REMARK SMILES IDX 13 1 12 2 11 3 9 4 10 5 8 7 6 8 7 9 82 10 5 11 3 12 4 13
REMARK SMILES IDX 85 14 84 15 86 16 83 17 2 18 1 19 14 20 15 21 16 22 17 23
REMARK SMILES IDX 18 25 19 26 20 27 81 28 21 29 80 30 22 31 23 32 24 33 74 34
REMARK SMILES IDX 25 35 79 36 73 37 75 38 26 39 78 40 72 41 71 42 27 44 59 45
REMARK SMILES IDX 39 46 58 47 40 48 43 49 57 50 76 51 41 52 42 53 56 55 77 56
REMARK SMILES IDX 44 57 28 58 29 59 37 60 30 61 31 62 35 63 38 64 32 65 33 66
REMARK SMILES IDX 36 67 34 68 60 69 61 70 69 71 62 72 63 73 67 74 70 75 64 76
REMARK SMILES IDX 65 77 68 78 66 79 45 80 46 81 54 82 47 83 48 84 52 85 55 86
REMARK SMILES IDX 49 87 50 88 53 89 51 90
REMARK H PARENT 11 6 16 24 75 43 43 54
REMARK Flexibility Score: inf
ROOT
ATOM      1  C   UNL     1       2.981  -5.380  -7.021  1.00  0.00     0.023 C 
ENDROOT
BRANCH   1   2
ATOM      2  C   UNL     1       2.034  -4.283  -7.492  1.00  0.00     0.116 C 
BRANCH   2   3
ATOM      3  N   UNL     1       0.920  -4.789  -8.261  1.00  0.00    -0.356 N 
ATOM      4  C   UNL     1      -0.433  -4.717  -8.022  1.00  0.00     0.223 C 
ATOM      5  O   UNL     1      -1.154  -5.220  -8.896  1.00  0.00    -0.275 OA
ATOM      6  H   UNL     1       1.169  -5.262  -9.087  1.00  0.00     0.163 HD
BRANCH   4   7
ATOM      7  C   UNL     1      -1.023  -4.048  -6.762  1.00  0.00     0.079 C 
ATOM      8  C   UNL     1      -0.682  -2.951  -4.917  1.00  0.00     0.021 C 
ATOM      9  C   UNL     1      -0.702  -2.574  -6.423  1.00  0.00     0.022 C 
ATOM     10  C   UNL     1      -0.555  -4.441  -5.345  1.00  0.00     0.022 C 
BRANCH   8  11
ATOM     11  C   UNL     1       0.439  -2.360  -3.942  1.00  0.00    -0.041 A 
ATOM     12  C   UNL     1       1.154  -1.696  -1.675  1.00  0.00     0.133 A 
ATOM     13  C   UNL     1       0.179  -2.166  -2.569  1.00  0.00     0.051 A 
ATOM     14  C   UNL     1       2.454  -1.465  -2.122  1.00  0.00     0.060 A 
ATOM     15  C   UNL     1       2.741  -1.613  -3.474  1.00  0.00     0.020 A 
ATOM     16  Br  UNL     1       3.879  -1.006  -0.962  1.00  0.00    -0.047 Br
ATOM     17  C   UNL     1       1.742  -2.030  -4.363  1.00  0.00     0.005 A 
BRANCH  12  18
ATOM     18  O   UNL     1       0.769  -1.555  -0.368  1.00  0.00    -0.496 OA
ATOM     19  C   UNL     1       0.659  -0.176  -0.004  1.00  0.00     0.278 C 
ENDBRANCH  12  18
ENDBRANCH   8  11
ENDBRANCH   4   7
ENDBRANCH   2   3
ENDBRANCH   1   2
BRANCH   1  20
ATOM     20  C   UNL     1       3.820  -6.020  -8.126  1.00  0.00     0.023 C 
BRANCH  20  21
ATOM     21  C   UNL     1       4.673  -5.055  -8.945  1.00  0.00     0.116 C 
BRANCH  21  22
ATOM     22  N   UNL     1       5.627  -4.300  -8.143  1.00  0.00    -0.352 N 
ATOM     23  C   UNL     1       6.968  -4.088  -8.363  1.00  0.00     0.251 C 
ATOM     24  H   UNL     1       5.260  -3.884  -7.330  1.00  0.00     0.163 HD
ATOM     25  O   UNL     1       7.651  -3.501  -7.530  1.00  0.00    -0.269 OA
BRANCH  23  26
ATOM     26  C   UNL     1       7.594  -4.613  -9.594  1.00  0.00     0.039 A 
ATOM     27  C   UNL     1       8.736  -5.410  -9.483  1.00  0.00     0.014 A 
ATOM     28  C   UNL     1       7.019  -4.371 -10.844  1.00  0.00     0.014 A 
ATOM     29  C   UNL     1       9.243  -6.051 -10.616  1.00  0.00     0.010 A 
ATOM     30  C   UNL     1       7.486  -5.059 -11.959  1.00  0.00     0.010 A 
ATOM     31  C   UNL     1       8.587  -5.926 -11.850  1.00  0.00    -0.014 A 
BRANCH  31  32
ATOM     32  C   UNL     1       8.986  -6.734 -13.030  1.00  0.00     0.031 A 
ATOM     33  C   UNL     1       9.498  -6.060 -14.270  1.00  0.00     0.074 A 
ATOM     34  C   UNL     1       8.771  -8.065 -13.023  1.00  0.00     0.049 A 
ATOM     35  N   UNL     1       9.751  -6.575 -15.447  1.00  0.00    -0.248 NA
ATOM     36  C   UNL     1       9.731  -4.609 -14.186  1.00  0.00     0.031 C 
ATOM     37  C   UNL     1       8.230  -8.829 -11.897  1.00  0.00     0.029 A 
ATOM     38  N   UNL     1       8.952  -9.008 -14.005  1.00  0.00    -0.354 N 
ATOM     39  C   UNL     1      10.143  -5.512 -16.248  1.00  0.00     0.074 A 
ATOM     40  C   UNL     1      10.071  -4.317 -15.434  1.00  0.00     0.031 C 
ATOM     41  C   UNL     1       8.120 -10.119 -12.252  1.00  0.00     0.029 A 
ATOM     42  C   UNL     1       8.540 -10.268 -13.642  1.00  0.00     0.049 A 
ATOM     43  H   UNL     1       9.338  -8.801 -14.887  1.00  0.00     0.167 HD
ATOM     44  C   UNL     1      10.539  -5.537 -17.542  1.00  0.00     0.037 A 
ATOM     45  C   UNL     1       8.481 -11.409 -14.355  1.00  0.00     0.037 A 
ATOM     46  C   UNL     1      10.656  -6.733 -18.333  1.00  0.00     0.049 A 
ATOM     47  C   UNL     1       8.926 -11.402 -15.793  1.00  0.00     0.074 A 
ATOM     48  C   UNL     1      11.165  -6.872 -19.613  1.00  0.00     0.029 A 
ATOM     49  N   UNL     1      10.254  -7.994 -17.922  1.00  0.00    -0.354 N 
ATOM     50  N   UNL     1       9.385 -10.407 -16.511  1.00  0.00    -0.248 NA
ATOM     51  C   UNL     1       8.839 -12.676 -16.521  1.00  0.00     0.031 C 
ATOM     52  C   UNL     1      11.025  -8.209 -19.996  1.00  0.00     0.029 A 
ATOM     53  C   UNL     1      10.467  -8.910 -18.939  1.00  0.00     0.049 A 
ATOM     54  H   UNL     1       9.874  -8.207 -17.039  1.00  0.00     0.167 HD
ATOM     55  C   UNL     1       9.660 -10.936 -17.764  1.00  0.00     0.074 A 
ATOM     56  C   UNL     1       9.332 -12.345 -17.706  1.00  0.00     0.031 C 
ATOM     57  C   UNL     1      10.138 -10.310 -18.865  1.00  0.00     0.037 A 
BRANCH  44  58
ATOM     58  C   UNL     1      10.882  -4.234 -18.198  1.00  0.00     0.064 A 
ATOM     59  C   UNL     1      12.069  -3.550 -17.899  1.00  0.00     0.173 A 
ATOM     60  C   UNL     1      10.050  -3.705 -19.197  1.00  0.00     0.173 A 
ATOM     61  F   UNL     1      12.892  -4.011 -16.946  1.00  0.00    -0.203 F 
ATOM     62  C   UNL     1      12.404  -2.375 -18.567  1.00  0.00     0.198 A 
ATOM     63  C   UNL     1      10.400  -2.543 -19.879  1.00  0.00     0.198 A 
ATOM     64  F   UNL     1       8.906  -4.326 -19.523  1.00  0.00    -0.203 F 
ATOM     65  F   UNL     1      13.530  -1.722 -18.247  1.00  0.00    -0.200 F 
ATOM     66  C   UNL     1      11.575  -1.878 -19.562  1.00  0.00     0.200 A 
ATOM     67  F   UNL     1       9.604  -2.071 -20.848  1.00  0.00    -0.200 F 
ATOM     68  F   UNL     1      11.908  -0.757 -20.215  1.00  0.00    -0.200 F 
ENDBRANCH  44  58
BRANCH  45  69
ATOM     69  C   UNL     1       7.966 -12.655 -13.731  1.00  0.00     0.064 A 
ATOM     70  C   UNL     1       8.819 -13.736 -13.470  1.00  0.00     0.173 A 
ATOM     71  C   UNL     1       6.609 -12.802 -13.409  1.00  0.00     0.173 A 
ATOM     72  F   UNL     1      10.120 -13.651 -13.783  1.00  0.00    -0.203 F 
ATOM     73  C   UNL     1       8.331 -14.925 -12.933  1.00  0.00     0.198 A 
ATOM     74  C   UNL     1       6.126 -13.982 -12.846  1.00  0.00     0.198 A 
ATOM     75  F   UNL     1       5.751 -11.797 -13.638  1.00  0.00    -0.203 F 
ATOM     76  F   UNL     1       9.159 -15.961 -12.741  1.00  0.00    -0.200 F 
ATOM     77  C   UNL     1       6.986 -15.046 -12.618  1.00  0.00     0.200 A 
ATOM     78  F   UNL     1       4.828 -14.091 -12.533  1.00  0.00    -0.200 F 
ATOM     79  F   UNL     1       6.516 -16.191 -12.104  1.00  0.00    -0.200 F 
ENDBRANCH  45  69
BRANCH  57  80
ATOM     80  C   UNL     1      10.352 -11.142 -20.094  1.00  0.00     0.064 A 
ATOM     81  C   UNL     1       9.274 -11.582 -20.874  1.00  0.00     0.173 A 
ATOM     82  C   UNL     1      11.650 -11.456 -20.524  1.00  0.00     0.173 A 
ATOM     83  F   UNL     1       8.014 -11.322 -20.492  1.00  0.00    -0.203 F 
ATOM     84  C   UNL     1       9.487 -12.320 -22.035  1.00  0.00     0.198 A 
ATOM     85  C   UNL     1      11.860 -12.171 -21.700  1.00  0.00     0.198 A 
ATOM     86  F   UNL     1      12.714 -11.053 -19.814  1.00  0.00    -0.203 F 
ATOM     87  F   UNL     1       8.441 -12.761 -22.747  1.00  0.00    -0.200 F 
ATOM     88  C   UNL     1      10.779 -12.605 -22.452  1.00  0.00     0.200 A 
ATOM     89  F   UNL     1      13.109 -12.436 -22.107  1.00  0.00    -0.200 F 
ATOM     90  F   UNL     1      10.982 -13.305 -23.577  1.00  0.00    -0.200 F 
ENDBRANCH  57  80
ENDBRANCH  31  32
ENDBRANCH  23  26
ENDBRANCH  21  22
ENDBRANCH  20  21
ENDBRANCH   1  20
TORSDOF 13
