REMARK SMILES O=C(CSc1cccs1)N[C@H]1CCCCC[C@H]1C(=O)NCCCCNC(=O)c1ccc(-c2c3nc(c(-c4c(F)c(F)c(F)c(F)c4F)c4ccc([nH]4)c(-c4c(F)c(F)c(F)c(F)c4F)c4nc(c(-c5c(F)c(F)c(F)c(F)c5F)c5ccc2[nH]5)C=C4)C=C3)cc1
REMARK SMILES IDX 21 1 20 2 18 3 19 4 17 6 11 7 10 9 1 10 2 11 3 13 4 14 5 15
REMARK SMILES IDX 6 16 9 17 7 18 8 19 16 20 15 21 14 22 13 23 12 24 22 26
REMARK SMILES IDX 23 27 24 28 25 29 26 30 27 32 28 33 29 34 90 35 30 36 89 37
REMARK SMILES IDX 31 38 32 39 33 40 83 41 34 42 88 43 82 44 84 45 35 46 87 47
REMARK SMILES IDX 81 48 80 49 36 51 68 52 48 53 67 54 49 55 52 56 66 57 85 58
REMARK SMILES IDX 50 59 51 60 65 62 86 63 53 64 37 65 38 66 46 67 39 68 40 69
REMARK SMILES IDX 44 70 47 71 41 72 42 73 45 74 43 75 69 76 70 77 78 78 71 79
REMARK SMILES IDX 72 80 76 81 79 82 73 83 74 84 77 85 75 86 54 87 55 88 63 89
REMARK SMILES IDX 56 90 57 91 61 92 64 93 58 94 59 95 62 96 60 97
REMARK H PARENT 20 5 10 12 25 31 84 50 52 61
REMARK Flexibility Score: 100.00
ROOT
ATOM      1  C   UNL     1       0.699   4.441   3.564  1.00  0.00     0.116 C 
ENDROOT
BRANCH   1   2
ATOM      2  N   UNL     1       0.268   3.097   3.857  1.00  0.00    -0.356 N 
ATOM      3  C   UNL     1       0.886   1.902   3.698  1.00  0.00     0.225 C 
ATOM      4  O   UNL     1       0.244   0.917   4.088  1.00  0.00    -0.275 OA
ATOM      5  H   UNL     1      -0.637   3.037   4.241  1.00  0.00     0.163 HD
BRANCH   3   6
ATOM      6  C   UNL     1       2.269   1.686   3.056  1.00  0.00     0.101 C 
BRANCH   6   7
ATOM      7  C   UNL     1       2.391   1.914   1.530  1.00  0.00     0.094 CG0
ATOM      8  G   UNL     1       3.566   2.768   1.023  1.00  0.00     0.000 G0
BRANCH   7   9
ATOM      9  N   UNL     1       1.085   2.058   0.878  1.00  0.00    -0.352 N 
ATOM     10  O   UNL     1       1.310   3.984  -0.369  1.00  0.00    -0.274 OA
ATOM     11  C   UNL     1       0.645   3.021   0.000  1.00  0.00     0.230 C 
ATOM     12  H   UNL     1       0.425   1.362   1.102  1.00  0.00     0.163 HD
BRANCH  11  13
ATOM     13  C   UNL     1      -0.822   2.868  -0.389  1.00  0.00     0.175 C 
BRANCH  13  14
ATOM     14  S   UNL     1      -1.114   1.359  -1.345  1.00  0.00    -0.105 SA
BRANCH  14  15
ATOM     15  C   UNL     1      -0.243   1.735  -2.819  1.00  0.00     0.060 A 
ATOM     16  C   UNL     1      -0.395   2.855  -3.609  1.00  0.00     0.027 A 
ATOM     17  S   UNL     1       0.929   0.664  -3.451  1.00  0.00    -0.137 S 
ATOM     18  C   UNL     1       0.487   2.846  -4.729  1.00  0.00     0.013 A 
ATOM     19  C   UNL     1       1.264   1.710  -4.762  1.00  0.00     0.066 A 
ENDBRANCH  14  15
ENDBRANCH  13  14
ENDBRANCH  11  13
ENDBRANCH   7   9
ENDBRANCH   6   7
BRANCH   6  20
ATOM     20  C   UNL     1       3.482   2.009   3.942  1.00  0.00     0.015 C 
BRANCH  20  21
ATOM     21  C   UNL     1       3.911   3.453   4.153  1.00  0.00     0.001 C 
BRANCH  21  22
ATOM     22  C   UNL     1       4.509   4.179   2.951  1.00  0.00     0.000 C 
BRANCH  22  23
ATOM     23  C   UNL     1       3.759   4.154   1.621  1.00  0.00     0.002 C 
BRANCH  23  24
ATOM     24  C   UNL     1       3.566   2.768   1.023  1.00  0.00     0.026 CG0
ATOM     25  G   UNL     1       2.391   1.914   1.530  1.00  0.00     0.000 G0
ENDBRANCH  23  24
ENDBRANCH  22  23
ENDBRANCH  21  22
ENDBRANCH  20  21
ENDBRANCH   6  20
ENDBRANCH   3   6
ENDBRANCH   1   2
BRANCH   1  26
ATOM     26  C   UNL     1      -0.080   5.097   2.432  1.00  0.00     0.023 C 
BRANCH  26  27
ATOM     27  C   UNL     1      -1.076   6.169   2.837  1.00  0.00     0.023 C 
BRANCH  27  28
ATOM     28  C   UNL     1      -0.527   7.297   3.693  1.00  0.00     0.116 C 
BRANCH  28  29
ATOM     29  N   UNL     1       0.609   8.015   3.132  1.00  0.00    -0.352 N 
ATOM     30  C   UNL     1       0.896   9.361   3.262  1.00  0.00     0.251 C 
ATOM     31  H   UNL     1       1.244   7.482   2.600  1.00  0.00     0.163 HD
ATOM     32  O   UNL     1       1.881   9.860   2.738  1.00  0.00    -0.269 OA
BRANCH  30  33
ATOM     33  C   UNL     1      -0.070  10.206   3.996  1.00  0.00     0.039 A 
ATOM     34  C   UNL     1      -0.670  11.274   3.326  1.00  0.00     0.014 A 
ATOM     35  C   UNL     1      -0.508   9.825   5.266  1.00  0.00     0.014 A 
ATOM     36  C   UNL     1      -1.798  11.881   3.880  1.00  0.00     0.010 A 
ATOM     37  C   UNL     1      -1.690  10.359   5.763  1.00  0.00     0.010 A 
ATOM     38  C   UNL     1      -2.359  11.379   5.066  1.00  0.00    -0.014 A 
BRANCH  38  39
ATOM     39  C   UNL     1      -3.661  11.876   5.583  1.00  0.00     0.031 A 
ATOM     40  C   UNL     1      -3.743  12.478   6.957  1.00  0.00     0.074 A 
ATOM     41  C   UNL     1      -4.786  11.688   4.864  1.00  0.00     0.049 A 
ATOM     42  N   UNL     1      -4.797  12.856   7.635  1.00  0.00    -0.248 NA
ATOM     43  C   UNL     1      -2.474  12.628   7.686  1.00  0.00     0.031 C 
ATOM     44  C   UNL     1      -4.861  11.036   3.554  1.00  0.00     0.029 A 
ATOM     45  N   UNL     1      -6.090  12.017   5.142  1.00  0.00    -0.354 N 
ATOM     46  C   UNL     1      -4.322  13.243   8.880  1.00  0.00     0.074 A 
ATOM     47  C   UNL     1      -2.894  13.009   8.882  1.00  0.00     0.031 C 
ATOM     48  C   UNL     1      -6.135  11.045   3.128  1.00  0.00     0.029 A 
ATOM     49  C   UNL     1      -6.971  11.674   4.145  1.00  0.00     0.049 A 
ATOM     50  H   UNL     1      -6.368  12.458   5.977  1.00  0.00     0.167 HD
ATOM     51  C   UNL     1      -5.009  13.770   9.921  1.00  0.00     0.037 A 
ATOM     52  C   UNL     1      -8.303  11.851   4.060  1.00  0.00     0.037 A 
ATOM     53  C   UNL     1      -6.414  14.071   9.893  1.00  0.00     0.049 A 
ATOM     54  C   UNL     1      -9.030  12.524   5.191  1.00  0.00     0.074 A 
ATOM     55  C   UNL     1      -7.183  14.699  10.857  1.00  0.00     0.029 A 
ATOM     56  N   UNL     1      -7.260  13.778   8.833  1.00  0.00    -0.354 N 
ATOM     57  N   UNL     1      -8.559  12.953   6.335  1.00  0.00    -0.248 NA
ATOM     58  C   UNL     1     -10.473  12.745   5.014  1.00  0.00     0.031 C 
ATOM     59  C   UNL     1      -8.500  14.769  10.388  1.00  0.00     0.029 A 
ATOM     60  C   UNL     1      -8.544  14.209   9.121  1.00  0.00     0.049 A 
ATOM     61  H   UNL     1      -6.987  13.331   8.000  1.00  0.00     0.167 HD
ATOM     62  C   UNL     1      -9.637  13.510   7.007  1.00  0.00     0.074 A 
ATOM     63  C   UNL     1     -10.787  13.379   6.136  1.00  0.00     0.031 C 
ATOM     64  C   UNL     1      -9.672  14.078   8.237  1.00  0.00     0.037 A 
BRANCH  51  65
ATOM     65  C   UNL     1      -4.237  14.069  11.171  1.00  0.00     0.064 A 
ATOM     66  C   UNL     1      -3.314  15.124  11.229  1.00  0.00     0.173 A 
ATOM     67  C   UNL     1      -4.422  13.292  12.324  1.00  0.00     0.173 A 
ATOM     68  F   UNL     1      -3.090  15.884  10.146  1.00  0.00    -0.203 F 
ATOM     69  C   UNL     1      -2.576  15.366  12.383  1.00  0.00     0.198 A 
ATOM     70  C   UNL     1      -3.703  13.556  13.486  1.00  0.00     0.198 A 
ATOM     71  F   UNL     1      -5.295  12.273  12.321  1.00  0.00    -0.203 F 
ATOM     72  F   UNL     1      -1.656  16.341  12.396  1.00  0.00    -0.200 F 
ATOM     73  C   UNL     1      -2.774  14.585  13.512  1.00  0.00     0.200 A 
ATOM     74  F   UNL     1      -3.900  12.806  14.579  1.00  0.00    -0.200 F 
ATOM     75  F   UNL     1      -2.060  14.818  14.622  1.00  0.00    -0.200 F 
ENDBRANCH  51  65
BRANCH  52  76
ATOM     76  C   UNL     1      -9.029  11.431   2.835  1.00  0.00     0.064 A 
ATOM     77  C   UNL     1      -9.479  12.386   1.911  1.00  0.00     0.173 A 
ATOM     78  C   UNL     1      -9.280  10.081   2.556  1.00  0.00     0.173 A 
ATOM     79  F   UNL     1      -9.277  13.690   2.147  1.00  0.00    -0.203 F 
ATOM     80  C   UNL     1     -10.167  12.005   0.761  1.00  0.00     0.198 A 
ATOM     81  C   UNL     1      -9.951   9.701   1.395  1.00  0.00     0.198 A 
ATOM     82  F   UNL     1      -8.864   9.132   3.407  1.00  0.00    -0.203 F 
ATOM     83  F   UNL     1     -10.615  12.940  -0.088  1.00  0.00    -0.200 F 
ATOM     84  C   UNL     1     -10.398  10.663   0.502  1.00  0.00     0.200 A 
ATOM     85  F   UNL     1     -10.165   8.402   1.142  1.00  0.00    -0.200 F 
ATOM     86  F   UNL     1     -11.057  10.297  -0.607  1.00  0.00    -0.200 F 
ENDBRANCH  52  76
BRANCH  64  87
ATOM     87  C   UNL     1     -10.988  14.621   8.703  1.00  0.00     0.064 A 
ATOM     88  C   UNL     1     -12.011  13.773   9.148  1.00  0.00     0.173 A 
ATOM     89  C   UNL     1     -11.209  16.005   8.748  1.00  0.00     0.173 A 
ATOM     90  F   UNL     1     -11.850  12.441   9.108  1.00  0.00    -0.203 F 
ATOM     91  C   UNL     1     -13.218  14.292   9.607  1.00  0.00     0.198 A 
ATOM     92  C   UNL     1     -12.409  16.521   9.227  1.00  0.00     0.198 A 
ATOM     93  F   UNL     1     -10.257  16.855   8.335  1.00  0.00    -0.203 F 
ATOM     94  F   UNL     1     -14.197  13.463   9.996  1.00  0.00    -0.200 F 
ATOM     95  C   UNL     1     -13.414  15.665   9.653  1.00  0.00     0.200 A 
ATOM     96  F   UNL     1     -12.594  17.848   9.278  1.00  0.00    -0.200 F 
ATOM     97  F   UNL     1     -14.574  16.163  10.101  1.00  0.00    -0.200 F 
ENDBRANCH  64  87
ENDBRANCH  38  39
ENDBRANCH  30  33
ENDBRANCH  28  29
ENDBRANCH  27  28
ENDBRANCH  26  27
ENDBRANCH   1  26
TORSDOF 15
