REMARK SMILES O=C(NCCCCNC(=O)c1cc(Cl)cc(Cl)c1NC(=S)NC(=O)c1cccc([N+](=O)[O-])c1)c1ccc(-c2c3nc(c(-c4c(F)c(F)c(F)c(F)c4F)c4ccc([nH]4)c(-c4c(F)c(F)c(F)c(F)c4F)c4nc(c(-c5c(F)c(F)c(F)c(F)c5F)c5ccc2[nH]5)C=C4)C=C3)cc1
REMARK SMILES IDX 7 1 6 2 5 3 4 4 3 5 1 6 2 7 34 9 35 10 96 11 36 12 95 13
REMARK SMILES IDX 37 14 38 15 39 16 89 17 40 18 94 19 88 20 90 21 41 22 93 23
REMARK SMILES IDX 87 24 86 25 42 27 74 28 54 29 73 30 55 31 58 32 72 33 91 34
REMARK SMILES IDX 56 35 57 36 71 38 92 39 59 40 43 41 44 42 52 43 45 44 46 45
REMARK SMILES IDX 50 46 53 47 47 48 48 49 51 50 49 51 75 52 76 53 84 54 77 55
REMARK SMILES IDX 78 56 82 57 85 58 79 59 80 60 83 61 81 62 60 63 61 64 69 65
REMARK SMILES IDX 62 66 63 67 67 68 70 69 64 70 65 71 68 72 66 73 8 74 9 75
REMARK SMILES IDX 10 77 11 78 12 79 18 80 13 81 16 82 14 83 15 84 17 85 19 86
REMARK SMILES IDX 20 88 21 89 22 90 23 91 24 93 25 94 26 95 33 96 27 97 29 98
REMARK SMILES IDX 28 99 30 100 31 101 32 102
REMARK H PARENT 3 8 90 26 58 37 8 76 19 87 22 92
REMARK Flexibility Score: inf
ROOT
ATOM      1  C   UNL     1       5.013   3.628   1.422  1.00  0.00     0.116 C 
ENDROOT
BRANCH   1   2
ATOM      2  C   UNL     1       4.466   3.580   0.002  1.00  0.00     0.023 C 
BRANCH   2   3
ATOM      3  C   UNL     1       4.839   2.307  -0.740  1.00  0.00     0.023 C 
BRANCH   3   4
ATOM      4  C   UNL     1       4.498   1.036   0.019  1.00  0.00     0.116 C 
BRANCH   4   5
ATOM      5  N   UNL     1       3.068   0.881   0.242  1.00  0.00    -0.352 N 
ATOM      6  O   UNL     1       1.068  -0.166   0.021  1.00  0.00    -0.269 OA
ATOM      7  C   UNL     1       2.288  -0.208  -0.068  1.00  0.00     0.251 C 
ATOM      8  H   UNL     1       2.606   1.642   0.663  1.00  0.00     0.163 HD
BRANCH   7   9
ATOM      9  C   UNL     1       2.972  -1.427  -0.535  1.00  0.00     0.039 A 
ATOM     10  C   UNL     1       4.064  -1.913   0.188  1.00  0.00     0.014 A 
ATOM     11  C   UNL     1       2.585  -2.021  -1.737  1.00  0.00     0.014 A 
ATOM     12  C   UNL     1       4.862  -2.898  -0.367  1.00  0.00     0.010 A 
ATOM     13  C   UNL     1       3.324  -3.096  -2.235  1.00  0.00     0.010 A 
ATOM     14  C   UNL     1       4.476  -3.532  -1.560  1.00  0.00    -0.014 A 
BRANCH  14  15
ATOM     15  C   UNL     1       5.222  -4.736  -1.994  1.00  0.00     0.031 A 
ATOM     16  C   UNL     1       5.967  -4.782  -3.295  1.00  0.00     0.074 A 
ATOM     17  C   UNL     1       5.218  -5.798  -1.163  1.00  0.00     0.049 A 
ATOM     18  N   UNL     1       6.649  -5.773  -3.812  1.00  0.00    -0.248 NA
ATOM     19  C   UNL     1       5.942  -3.572  -4.130  1.00  0.00     0.031 C 
ATOM     20  C   UNL     1       4.511  -5.858   0.121  1.00  0.00     0.029 A 
ATOM     21  N   UNL     1       5.831  -7.019  -1.257  1.00  0.00    -0.354 N 
ATOM     22  C   UNL     1       7.116  -5.318  -5.037  1.00  0.00     0.074 A 
ATOM     23  C   UNL     1       6.629  -3.964  -5.197  1.00  0.00     0.031 C 
ATOM     24  C   UNL     1       4.766  -7.030   0.713  1.00  0.00     0.029 A 
ATOM     25  C   UNL     1       5.576  -7.840  -0.185  1.00  0.00     0.049 A 
ATOM     26  H   UNL     1       6.398  -7.283  -2.018  1.00  0.00     0.167 HD
ATOM     27  C   UNL     1       7.883  -5.980  -5.937  1.00  0.00     0.037 A 
ATOM     28  C   UNL     1       5.920  -9.120   0.034  1.00  0.00     0.037 A 
ATOM     29  C   UNL     1       8.373  -7.323  -5.751  1.00  0.00     0.049 A 
ATOM     30  C   UNL     1       6.737  -9.830  -1.006  1.00  0.00     0.074 A 
ATOM     31  C   UNL     1       9.201  -8.060  -6.580  1.00  0.00     0.029 A 
ATOM     32  N   UNL     1       8.070  -8.136  -4.668  1.00  0.00    -0.354 N 
ATOM     33  N   UNL     1       7.217  -9.370  -2.135  1.00  0.00    -0.248 NA
ATOM     34  C   UNL     1       7.054 -11.238  -0.744  1.00  0.00     0.031 C 
ATOM     35  C   UNL     1       9.345  -9.338  -6.033  1.00  0.00     0.029 A 
ATOM     36  C   UNL     1       8.663  -9.379  -4.829  1.00  0.00     0.049 A 
ATOM     37  H   UNL     1       7.516  -7.869  -3.898  1.00  0.00     0.167 HD
ATOM     38  C   UNL     1       7.908 -10.426  -2.710  1.00  0.00     0.074 A 
ATOM     39  C   UNL     1       7.812 -11.539  -1.788  1.00  0.00     0.031 C 
ATOM     40  C   UNL     1       8.557 -10.474  -3.898  1.00  0.00     0.037 A 
BRANCH  27  41
ATOM     41  C   UNL     1       8.234  -5.287  -7.223  1.00  0.00     0.064 A 
ATOM     42  C   UNL     1       9.162  -4.238  -7.270  1.00  0.00     0.173 A 
ATOM     43  C   UNL     1       7.711  -5.755  -8.440  1.00  0.00     0.173 A 
ATOM     44  F   UNL     1       9.687  -3.748  -6.137  1.00  0.00    -0.203 F 
ATOM     45  C   UNL     1       9.551  -3.679  -8.487  1.00  0.00     0.198 A 
ATOM     46  C   UNL     1       8.122  -5.213  -9.655  1.00  0.00     0.198 A 
ATOM     47  F   UNL     1       6.824  -6.761  -8.453  1.00  0.00    -0.203 F 
ATOM     48  F   UNL     1      10.424  -2.663  -8.507  1.00  0.00    -0.200 F 
ATOM     49  C   UNL     1       9.040  -4.175  -9.678  1.00  0.00     0.200 A 
ATOM     50  F   UNL     1       7.640  -5.705 -10.805  1.00  0.00    -0.200 F 
ATOM     51  F   UNL     1       9.435  -3.652 -10.847  1.00  0.00    -0.200 F 
ENDBRANCH  27  41
BRANCH  28  52
ATOM     52  C   UNL     1       5.456  -9.819   1.260  1.00  0.00     0.064 A 
ATOM     53  C   UNL     1       6.365 -10.277   2.223  1.00  0.00     0.173 A 
ATOM     54  C   UNL     1       4.092 -10.064   1.484  1.00  0.00     0.173 A 
ATOM     55  F   UNL     1       7.680 -10.079   2.049  1.00  0.00    -0.203 F 
ATOM     56  C   UNL     1       5.932 -10.986   3.340  1.00  0.00     0.198 A 
ATOM     57  C   UNL     1       3.657 -10.736   2.622  1.00  0.00     0.198 A 
ATOM     58  F   UNL     1       3.177  -9.637   0.600  1.00  0.00    -0.203 F 
ATOM     59  F   UNL     1       6.828 -11.473   4.210  1.00  0.00    -0.200 F 
ATOM     60  C   UNL     1       4.578 -11.211   3.542  1.00  0.00     0.200 A 
ATOM     61  F   UNL     1       2.346 -10.929   2.823  1.00  0.00    -0.200 F 
ATOM     62  F   UNL     1       4.163 -11.896   4.616  1.00  0.00    -0.200 F 
ENDBRANCH  28  52
BRANCH  40  63
ATOM     63  C   UNL     1       9.236 -11.766  -4.249  1.00  0.00     0.064 A 
ATOM     64  C   UNL     1       8.503 -12.921  -4.564  1.00  0.00     0.173 A 
ATOM     65  C   UNL     1      10.636 -11.846  -4.285  1.00  0.00     0.173 A 
ATOM     66  F   UNL     1       7.162 -12.901  -4.524  1.00  0.00    -0.203 F 
ATOM     67  C   UNL     1       9.148 -14.116  -4.869  1.00  0.00     0.198 A 
ATOM     68  C   UNL     1      11.277 -13.033  -4.627  1.00  0.00     0.198 A 
ATOM     69  F   UNL     1      11.383 -10.770  -3.996  1.00  0.00    -0.203 F 
ATOM     70  F   UNL     1       8.428 -15.221  -5.105  1.00  0.00    -0.200 F 
ATOM     71  C   UNL     1      10.533 -14.169  -4.908  1.00  0.00     0.200 A 
ATOM     72  F   UNL     1      12.615 -13.078  -4.680  1.00  0.00    -0.200 F 
ATOM     73  F   UNL     1      11.152 -15.319  -5.207  1.00  0.00    -0.200 F 
ENDBRANCH  40  63
ENDBRANCH  14  15
ENDBRANCH   7   9
ENDBRANCH   4   5
ENDBRANCH   3   4
ENDBRANCH   2   3
ENDBRANCH   1   2
BRANCH   1  74
ATOM     74  N   UNL     1       6.476   3.592   1.440  1.00  0.00    -0.352 N 
ATOM     75  C   UNL     1       7.353   4.653   1.506  1.00  0.00     0.253 C 
ATOM     76  H   UNL     1       6.886   2.698   1.399  1.00  0.00     0.163 HD
ATOM     77  O   UNL     1       8.541   4.546   1.244  1.00  0.00    -0.269 OA
BRANCH  75  78
ATOM     78  C   UNL     1       6.805   5.936   1.949  1.00  0.00     0.066 A 
ATOM     79  C   UNL     1       6.043   5.970   3.118  1.00  0.00     0.036 A 
ATOM     80  C   UNL     1       7.036   7.137   1.325  1.00  0.00     0.072 A 
ATOM     81  C   UNL     1       5.463   7.209   3.601  1.00  0.00     0.043 A 
ATOM     82  C   UNL     1       5.923   7.918   1.236  1.00  0.00     0.066 A 
ATOM     83  Cl  UNL     1       5.511   8.140   5.889  1.00  0.00    -0.084 Cl
ATOM     84  C   UNL     1       5.056   7.883   2.324  1.00  0.00     0.043 A 
ATOM     85  Cl  UNL     1       5.700   9.034  -0.047  1.00  0.00    -0.082 Cl
BRANCH  80  86
ATOM     86  N   UNL     1       8.332   7.689   1.411  1.00  0.00    -0.330 N 
ATOM     87  H   UNL     1       9.061   7.045   1.259  1.00  0.00     0.169 HD
BRANCH  86  88
ATOM     88  C   UNL     1       8.744   8.956   1.667  1.00  0.00     0.177 C 
ATOM     89  S   UNL     1      10.273   9.395   1.139  1.00  0.00    -0.040 S 
BRANCH  88  90
ATOM     90  N   UNL     1       8.030   9.920   2.370  1.00  0.00    -0.299 N 
ATOM     91  C   UNL     1       6.940  10.185   3.237  1.00  0.00     0.257 C 
ATOM     92  H   UNL     1       8.465  10.784   2.189  1.00  0.00     0.172 HD
ATOM     93  O   UNL     1       6.445  11.308   3.289  1.00  0.00    -0.269 OA
BRANCH  91  94
ATOM     94  C   UNL     1       6.335   9.137   4.070  1.00  0.00     0.047 A 
ATOM     95  C   UNL     1       4.498   9.086   4.216  1.00  0.00     0.014 A 
ATOM     96  C   UNL     1       7.341   7.745   4.644  1.00  0.00     0.099 A 
ATOM     97  C   UNL     1       3.691   7.534   4.773  1.00  0.00     0.008 A 
ATOM     98  C   UNL     1       6.538   6.281   5.354  1.00  0.00     0.270 A 
ATOM     99  C   UNL     1       4.712   6.136   5.354  1.00  0.00     0.085 A 
BRANCH  98 100
ATOM    100  N   UNL     1       7.363   5.190   5.831  1.00  0.00     0.062 N 
ATOM    101  O   UNL     1       6.782   4.135   6.110  1.00  0.00    -0.258 OA
ATOM    102  O   UNL     1       8.583   5.377   5.854  1.00  0.00    -0.258 OA
ENDBRANCH  98 100
ENDBRANCH  91  94
ENDBRANCH  88  90
ENDBRANCH  86  88
ENDBRANCH  80  86
ENDBRANCH  75  78
ENDBRANCH   1  74
TORSDOF 16
