REMARK SMILES O=C(/C=C/c1ccc(O)c(O)c1)NCCCCNC(=O)c1ccc(-c2c3nc(c(-c4c(F)c(F)c(F)c(F)c4F)c4ccc([nH]4)c(-c4c(F)c(F)c(F)c(F)c4F)c4nc(c(-c5c(F)c(F)c(F)c(F)c5F)c5ccc2[nH]5)C=C4)C=C3)cc1
REMARK SMILES IDX 15 1 14 2 13 3 1 4 2 5 3 7 4 8 5 9 6 10 12 11 7 12 10 13
REMARK SMILES IDX 8 14 11 15 9 17 16 19 17 20 18 21 19 22 20 24 21 25 22 26
REMARK SMILES IDX 83 27 23 28 82 29 24 30 25 31 26 32 76 33 27 34 81 35 75 36
REMARK SMILES IDX 77 37 28 38 80 39 74 40 73 41 29 43 61 44 41 45 60 46 42 47
REMARK SMILES IDX 45 48 59 49 78 50 43 51 44 52 58 54 79 55 46 56 30 57 31 58
REMARK SMILES IDX 39 59 32 60 33 61 37 62 40 63 34 64 35 65 38 66 36 67 62 68
REMARK SMILES IDX 63 69 71 70 64 71 65 72 69 73 72 74 66 75 67 76 70 77 68 78
REMARK SMILES IDX 47 79 48 80 56 81 49 82 50 83 54 84 57 85 51 86 52 87 55 88
REMARK SMILES IDX 53 89
REMARK H PARENT 13 6 11 16 9 18 18 23 77 42 45 53
REMARK Flexibility Score: inf
ROOT
ATOM      1  C   UNL     1       2.412  -3.376  -0.846  1.00  0.00     0.023 C 
ENDROOT
BRANCH   1   2
ATOM      2  C   UNL     1       2.064  -2.445   0.316  1.00  0.00     0.116 C 
BRANCH   2   3
ATOM      3  N   UNL     1       2.786  -1.188   0.250  1.00  0.00    -0.353 N 
ATOM      4  O   UNL     1       0.940   0.117  -0.139  1.00  0.00    -0.270 OA
ATOM      5  C   UNL     1       2.152   0.002   0.007  1.00  0.00     0.243 C 
ATOM      6  H   UNL     1       3.761  -1.191   0.384  1.00  0.00     0.163 HD
BRANCH   5   7
ATOM      7  C   UNL     1       3.004   1.220  -0.050  1.00  0.00     0.072 C 
ATOM      8  C   UNL     1       4.344   1.272  -0.109  1.00  0.00     0.014 C 
BRANCH   8   9
ATOM      9  C   UNL     1       5.087   2.537  -0.233  1.00  0.00    -0.022 A 
ATOM     10  C   UNL     1       4.738   3.688   0.494  1.00  0.00     0.012 A 
ATOM     11  C   UNL     1       6.204   2.579  -1.078  1.00  0.00     0.058 A 
ATOM     12  C   UNL     1       5.469   4.875   0.356  1.00  0.00     0.051 A 
ATOM     13  C   UNL     1       6.923   3.760  -1.209  1.00  0.00     0.157 A 
ATOM     14  C   UNL     1       6.559   4.902  -0.503  1.00  0.00     0.157 A 
BRANCH  13  15
ATOM     15  O   UNL     1       8.000   3.792  -2.049  1.00  0.00    -0.504 OA
ATOM     16  H   UNL     1       8.494   4.582  -2.147  1.00  0.00     0.293 HD
ENDBRANCH  13  15
BRANCH  14  17
ATOM     17  O   UNL     1       7.309   6.030  -0.688  1.00  0.00    -0.504 OA
ATOM     18  H   UNL     1       7.092   6.817  -0.228  1.00  0.00     0.293 HD
ENDBRANCH  14  17
ENDBRANCH   8   9
ENDBRANCH   5   7
ENDBRANCH   2   3
ENDBRANCH   1   2
BRANCH   1  19
ATOM     19  C   UNL     1       3.889  -3.769  -0.944  1.00  0.00     0.023 C 
BRANCH  19  20
ATOM     20  C   UNL     1       4.481  -4.425   0.300  1.00  0.00     0.116 C 
BRANCH  20  21
ATOM     21  N   UNL     1       3.875  -5.709   0.612  1.00  0.00    -0.352 N 
ATOM     22  C   UNL     1       4.473  -6.919   0.871  1.00  0.00     0.251 C 
ATOM     23  H   UNL     1       2.891  -5.713   0.641  1.00  0.00     0.163 HD
ATOM     24  O   UNL     1       3.786  -7.932   0.983  1.00  0.00    -0.269 OA
BRANCH  22  25
ATOM     25  C   UNL     1       5.947  -7.022   0.982  1.00  0.00     0.039 A 
ATOM     26  C   UNL     1       6.596  -8.086   0.351  1.00  0.00     0.014 A 
ATOM     27  C   UNL     1       6.689  -6.084   1.705  1.00  0.00     0.014 A 
ATOM     28  C   UNL     1       7.991  -8.169   0.381  1.00  0.00     0.010 A 
ATOM     29  C   UNL     1       8.082  -6.124   1.670  1.00  0.00     0.010 A 
ATOM     30  C   UNL     1       8.749  -7.165   1.005  1.00  0.00    -0.014 A 
BRANCH  30  31
ATOM     31  C   UNL     1      10.236  -7.181   0.959  1.00  0.00     0.031 A 
ATOM     32  C   UNL     1      11.037  -7.302   2.226  1.00  0.00     0.074 A 
ATOM     33  C   UNL     1      10.868  -7.021  -0.220  1.00  0.00     0.049 A 
ATOM     34  N   UNL     1      12.336  -7.267   2.393  1.00  0.00    -0.248 NA
ATOM     35  C   UNL     1      10.278  -7.457   3.476  1.00  0.00     0.031 C 
ATOM     36  C   UNL     1      10.209  -6.850  -1.516  1.00  0.00     0.029 A 
ATOM     37  N   UNL     1      12.208  -6.964  -0.520  1.00  0.00    -0.354 N 
ATOM     38  C   UNL     1      12.547  -7.382   3.760  1.00  0.00     0.074 A 
ATOM     39  C   UNL     1      11.242  -7.432   4.384  1.00  0.00     0.031 C 
ATOM     40  C   UNL     1      11.143  -6.732  -2.473  1.00  0.00     0.029 A 
ATOM     41  C   UNL     1      12.466  -6.775  -1.857  1.00  0.00     0.049 A 
ATOM     42  H   UNL     1      12.916  -7.051   0.158  1.00  0.00     0.167 HD
ATOM     43  C   UNL     1      13.720  -7.461   4.433  1.00  0.00     0.037 A 
ATOM     44  C   UNL     1      13.635  -6.639  -2.511  1.00  0.00     0.037 A 
ATOM     45  C   UNL     1      15.018  -7.429   3.808  1.00  0.00     0.049 A 
ATOM     46  C   UNL     1      14.925  -6.708  -1.737  1.00  0.00     0.074 A 
ATOM     47  C   UNL     1      16.262  -7.564   4.398  1.00  0.00     0.029 A 
ATOM     48  N   UNL     1      15.238  -7.241   2.452  1.00  0.00    -0.354 N 
ATOM     49  N   UNL     1      15.111  -6.890  -0.453  1.00  0.00    -0.248 NA
ATOM     50  C   UNL     1      16.167  -6.557  -2.507  1.00  0.00     0.031 C 
ATOM     51  C   UNL     1      17.237  -7.398   3.409  1.00  0.00     0.029 A 
ATOM     52  C   UNL     1      16.600  -7.226   2.191  1.00  0.00     0.049 A 
ATOM     53  H   UNL     1      14.532  -7.135   1.774  1.00  0.00     0.167 HD
ATOM     54  C   UNL     1      16.487  -6.908  -0.265  1.00  0.00     0.074 A 
ATOM     55  C   UNL     1      17.088  -6.733  -1.570  1.00  0.00     0.031 C 
ATOM     56  C   UNL     1      17.188  -7.058   0.886  1.00  0.00     0.037 A 
BRANCH  43  57
ATOM     57  C   UNL     1      13.657  -7.584   5.930  1.00  0.00     0.064 A 
ATOM     58  C   UNL     1      13.171  -8.742   6.556  1.00  0.00     0.173 A 
ATOM     59  C   UNL     1      14.125  -6.546   6.750  1.00  0.00     0.173 A 
ATOM     60  F   UNL     1      12.703  -9.763   5.821  1.00  0.00    -0.203 F 
ATOM     61  C   UNL     1      13.122  -8.842   7.945  1.00  0.00     0.198 A 
ATOM     62  C   UNL     1      14.107  -6.662   8.138  1.00  0.00     0.198 A 
ATOM     63  F   UNL     1      14.608  -5.419   6.206  1.00  0.00    -0.203 F 
ATOM     64  F   UNL     1      12.602  -9.935   8.519  1.00  0.00    -0.200 F 
ATOM     65  C   UNL     1      13.598  -7.805   8.734  1.00  0.00     0.200 A 
ATOM     66  F   UNL     1      14.582  -5.666   8.898  1.00  0.00    -0.200 F 
ATOM     67  F   UNL     1      13.557  -7.905  10.070  1.00  0.00    -0.200 F 
ENDBRANCH  43  57
BRANCH  44  68
ATOM     68  C   UNL     1      13.644  -6.445  -3.986  1.00  0.00     0.064 A 
ATOM     69  C   UNL     1      14.140  -7.440  -4.840  1.00  0.00     0.173 A 
ATOM     70  C   UNL     1      13.168  -5.262  -4.571  1.00  0.00     0.173 A 
ATOM     71  F   UNL     1      14.626  -8.580  -4.327  1.00  0.00    -0.203 F 
ATOM     72  C   UNL     1      14.180  -7.251  -6.220  1.00  0.00     0.198 A 
ATOM     73  C   UNL     1      13.179  -5.087  -5.953  1.00  0.00     0.198 A 
ATOM     74  F   UNL     1      12.680  -4.280  -3.799  1.00  0.00    -0.203 F 
ATOM     75  F   UNL     1      14.706  -8.199  -7.008  1.00  0.00    -0.200 F 
ATOM     76  C   UNL     1      13.694  -6.078  -6.776  1.00  0.00     0.200 A 
ATOM     77  F   UNL     1      12.694  -3.958  -6.487  1.00  0.00    -0.200 F 
ATOM     78  F   UNL     1      13.729  -5.898  -8.103  1.00  0.00    -0.200 F 
ENDBRANCH  44  68
BRANCH  56  79
ATOM     79  C   UNL     1      18.688  -7.082   0.784  1.00  0.00     0.064 A 
ATOM     80  C   UNL     1      19.427  -5.931   0.471  1.00  0.00     0.173 A 
ATOM     81  C   UNL     1      19.396  -8.266   1.043  1.00  0.00     0.173 A 
ATOM     82  F   UNL     1      18.798  -4.777   0.200  1.00  0.00    -0.203 F 
ATOM     83  C   UNL     1      20.817  -5.973   0.392  1.00  0.00     0.198 A 
ATOM     84  C   UNL     1      20.787  -8.295   0.997  1.00  0.00     0.198 A 
ATOM     85  F   UNL     1      18.739  -9.393   1.354  1.00  0.00    -0.203 F 
ATOM     86  F   UNL     1      21.499  -4.874   0.038  1.00  0.00    -0.200 F 
ATOM     87  C   UNL     1      21.496  -7.151   0.663  1.00  0.00     0.200 A 
ATOM     88  F   UNL     1      21.441  -9.431   1.276  1.00  0.00    -0.200 F 
ATOM     89  F   UNL     1      22.834  -7.186   0.595  1.00  0.00    -0.200 F 
ENDBRANCH  56  79
ENDBRANCH  30  31
ENDBRANCH  22  25
ENDBRANCH  20  21
ENDBRANCH  19  20
ENDBRANCH   1  19
TORSDOF 14
