REMARK SMILES O=C(NCCCCNC(=O)[C@H](CCC(F)(F)F)Cc1ccccc1)c1ccc(-c2c3nc(c(-c4c(F)c(F)c(F)c(F)c4F)c4ccc([nH]4)c(-c4c(F)c(F)c(F)c(F)c4F)c4nc(c(-c5c(F)c(F)c(F)c(F)c5F)c5ccc2[nH]5)C=C4)C=C3)cc1
REMARK SMILES IDX 6 1 5 2 4 3 3 4 1 5 2 6 25 8 26 9 87 10 27 11 86 12 28 13
REMARK SMILES IDX 29 14 30 15 80 16 31 17 85 18 79 19 81 20 32 21 84 22 78 23
REMARK SMILES IDX 77 24 33 26 65 27 45 28 64 29 46 30 49 31 63 32 82 33 47 34
REMARK SMILES IDX 48 35 62 37 83 38 50 39 34 40 35 41 43 42 36 43 37 44 41 45
REMARK SMILES IDX 44 46 38 47 39 48 42 49 40 50 66 51 67 52 75 53 68 54 69 55
REMARK SMILES IDX 73 56 76 57 70 58 71 59 74 60 72 61 51 62 52 63 60 64 53 65
REMARK SMILES IDX 54 66 58 67 61 68 55 69 56 70 59 71 57 72 7 73 8 74 9 75
REMARK SMILES IDX 10 77 11 78 18 79 19 80 20 81 24 82 21 83 23 84 22 85 12 86
REMARK SMILES IDX 13 87 14 88 15 89 16 90 17 91
REMARK H PARENT 3 7 81 25 49 36 8 76
REMARK Flexibility Score: inf
ROOT
ATOM      1  C   UNL     1       6.901  10.166  -1.645  1.00  0.00     0.023 C 
ENDROOT
BRANCH   1   2
ATOM      2  C   UNL     1       6.294  10.524  -3.005  1.00  0.00     0.023 C 
BRANCH   2   3
ATOM      3  C   UNL     1       5.037  11.385  -2.955  1.00  0.00     0.116 C 
BRANCH   3   4
ATOM      4  N   UNL     1       5.250  12.664  -2.297  1.00  0.00    -0.352 N 
ATOM      5  O   UNL     1       5.237  14.909  -2.079  1.00  0.00    -0.269 OA
ATOM      6  C   UNL     1       4.862  13.918  -2.698  1.00  0.00     0.251 C 
ATOM      7  H   UNL     1       5.741  12.625  -1.444  1.00  0.00     0.163 HD
BRANCH   6   8
ATOM      8  C   UNL     1       4.013  14.077  -3.898  1.00  0.00     0.039 A 
ATOM      9  C   UNL     1       2.891  13.268  -4.092  1.00  0.00     0.014 A 
ATOM     10  C   UNL     1       4.345  15.056  -4.839  1.00  0.00     0.014 A 
ATOM     11  C   UNL     1       2.179  13.349  -5.284  1.00  0.00     0.010 A 
ATOM     12  C   UNL     1       3.583  15.187  -6.003  1.00  0.00     0.010 A 
ATOM     13  C   UNL     1       2.510  14.316  -6.247  1.00  0.00    -0.014 A 
BRANCH  13  14
ATOM     14  C   UNL     1       1.681  14.439  -7.471  1.00  0.00     0.031 A 
ATOM     15  C   UNL     1       2.246  14.130  -8.828  1.00  0.00     0.074 A 
ATOM     16  C   UNL     1       0.395  14.817  -7.342  1.00  0.00     0.049 A 
ATOM     17  N   UNL     1       1.657  14.179  -9.997  1.00  0.00    -0.248 NA
ATOM     18  C   UNL     1       3.656  13.718  -8.886  1.00  0.00     0.031 C 
ATOM     19  C   UNL     1      -0.258  15.156  -6.076  1.00  0.00     0.029 A 
ATOM     20  N   UNL     1      -0.596  14.968  -8.277  1.00  0.00    -0.354 N 
ATOM     21  C   UNL     1       2.623  13.822 -10.928  1.00  0.00     0.074 A 
ATOM     22  C   UNL     1       3.847  13.581 -10.192  1.00  0.00     0.031 C 
ATOM     23  C   UNL     1      -1.548  15.438  -6.307  1.00  0.00     0.029 A 
ATOM     24  C   UNL     1      -1.799  15.356  -7.742  1.00  0.00     0.049 A 
ATOM     25  H   UNL     1      -0.459  14.814  -9.240  1.00  0.00     0.167 HD
ATOM     26  C   UNL     1       2.495  13.699 -12.271  1.00  0.00     0.037 A 
ATOM     27  C   UNL     1      -2.972  15.633  -8.340  1.00  0.00     0.037 A 
ATOM     28  C   UNL     1       1.269  13.924 -12.995  1.00  0.00     0.049 A 
ATOM     29  C   UNL     1      -3.078  15.506  -9.832  1.00  0.00     0.074 A 
ATOM     30  C   UNL     1       1.030  13.788 -14.351  1.00  0.00     0.029 A 
ATOM     31  N   UNL     1       0.076  14.336 -12.419  1.00  0.00    -0.354 N 
ATOM     32  N   UNL     1      -2.166  15.132 -10.695  1.00  0.00    -0.248 NA
ATOM     33  C   UNL     1      -4.375  15.842 -10.433  1.00  0.00     0.031 C 
ATOM     34  C   UNL     1      -0.295  14.160 -14.604  1.00  0.00     0.029 A 
ATOM     35  C   UNL     1      -0.896  14.481 -13.398  1.00  0.00     0.049 A 
ATOM     36  H   UNL     1      -0.061  14.501 -11.459  1.00  0.00     0.167 HD
ATOM     37  C   UNL     1      -2.780  15.170 -11.938  1.00  0.00     0.074 A 
ATOM     38  C   UNL     1      -4.150  15.584 -11.714  1.00  0.00     0.031 C 
ATOM     39  C   UNL     1      -2.256  14.891 -13.156  1.00  0.00     0.037 A 
BRANCH  26  40
ATOM     40  C   UNL     1       3.714  13.315 -13.059  1.00  0.00     0.064 A 
ATOM     41  C   UNL     1       4.235  12.014 -13.024  1.00  0.00     0.173 A 
ATOM     42  C   UNL     1       4.330  14.245 -13.911  1.00  0.00     0.173 A 
ATOM     43  F   UNL     1       3.689  11.090 -12.219  1.00  0.00    -0.203 F 
ATOM     44  C   UNL     1       5.338  11.662 -13.799  1.00  0.00     0.198 A 
ATOM     45  C   UNL     1       5.417  13.883 -14.704  1.00  0.00     0.198 A 
ATOM     46  F   UNL     1       3.868  15.502 -13.988  1.00  0.00    -0.203 F 
ATOM     47  F   UNL     1       5.839  10.421 -13.724  1.00  0.00    -0.200 F 
ATOM     48  C   UNL     1       5.922  12.594 -14.644  1.00  0.00     0.200 A 
ATOM     49  F   UNL     1       5.972  14.782 -15.529  1.00  0.00    -0.200 F 
ATOM     50  F   UNL     1       6.976  12.249 -15.398  1.00  0.00    -0.200 F 
ENDBRANCH  26  40
BRANCH  27  51
ATOM     51  C   UNL     1      -4.134  16.059  -7.519  1.00  0.00     0.064 A 
ATOM     52  C   UNL     1      -5.251  15.228  -7.362  1.00  0.00     0.173 A 
ATOM     53  C   UNL     1      -4.145  17.300  -6.865  1.00  0.00     0.173 A 
ATOM     54  F   UNL     1      -5.294  14.040  -7.984  1.00  0.00    -0.203 F 
ATOM     55  C   UNL     1      -6.341  15.628  -6.593  1.00  0.00     0.198 A 
ATOM     56  C   UNL     1      -5.223  17.686  -6.072  1.00  0.00     0.198 A 
ATOM     57  F   UNL     1      -3.097  18.129  -6.979  1.00  0.00    -0.203 F 
ATOM     58  F   UNL     1      -7.414  14.832  -6.492  1.00  0.00    -0.200 F 
ATOM     59  C   UNL     1      -6.323  16.853  -5.943  1.00  0.00     0.200 A 
ATOM     60  F   UNL     1      -5.193  18.863  -5.432  1.00  0.00    -0.200 F 
ATOM     61  F   UNL     1      -7.369  17.233  -5.197  1.00  0.00    -0.200 F 
ENDBRANCH  27  51
BRANCH  39  62
ATOM     62  C   UNL     1      -3.177  14.999 -14.335  1.00  0.00     0.064 A 
ATOM     63  C   UNL     1      -3.600  16.243 -14.825  1.00  0.00     0.173 A 
ATOM     64  C   UNL     1      -3.620  13.844 -14.997  1.00  0.00     0.173 A 
ATOM     65  F   UNL     1      -3.217  17.374 -14.214  1.00  0.00    -0.203 F 
ATOM     66  C   UNL     1      -4.455  16.326 -15.920  1.00  0.00     0.198 A 
ATOM     67  C   UNL     1      -4.452  13.932 -16.109  1.00  0.00     0.198 A 
ATOM     68  F   UNL     1      -3.239  12.631 -14.570  1.00  0.00    -0.203 F 
ATOM     69  F   UNL     1      -4.886  17.523 -16.341  1.00  0.00    -0.200 F 
ATOM     70  C   UNL     1      -4.875  15.172 -16.564  1.00  0.00     0.200 A 
ATOM     71  F   UNL     1      -4.848  12.817 -16.737  1.00  0.00    -0.200 F 
ATOM     72  F   UNL     1      -5.696  15.254 -17.621  1.00  0.00    -0.200 F 
ENDBRANCH  39  62
ENDBRANCH  13  14
ENDBRANCH   6   8
ENDBRANCH   3   4
ENDBRANCH   2   3
ENDBRANCH   1   2
BRANCH   1  73
ATOM     73  C   UNL     1       5.922   9.542  -0.651  1.00  0.00     0.116 C 
BRANCH  73  74
ATOM     74  N   UNL     1       5.368   8.306  -1.162  1.00  0.00    -0.356 N 
ATOM     75  C   UNL     1       5.635   7.017  -0.817  1.00  0.00     0.223 C 
ATOM     76  H   UNL     1       4.693   8.415  -1.871  1.00  0.00     0.163 HD
ATOM     77  O   UNL     1       5.082   6.130  -1.468  1.00  0.00    -0.275 OA
BRANCH  75  78
ATOM     78  C   UNL     1       6.524   6.713   0.390  1.00  0.00     0.083 C 
BRANCH  78  79
ATOM     79  C   UNL     1       5.593   6.736   1.625  1.00  0.00     0.049 C 
BRANCH  79  80
ATOM     80  C   UNL     1       6.280   6.898   2.962  1.00  0.00    -0.047 A 
ATOM     81  C   UNL     1       6.127   5.921   3.957  1.00  0.00     0.004 A 
ATOM     82  C   UNL     1       7.081   8.015   3.239  1.00  0.00     0.004 A 
ATOM     83  C   UNL     1       6.823   6.014   5.162  1.00  0.00     0.000 A 
ATOM     84  C   UNL     1       7.765   8.116   4.453  1.00  0.00     0.000 A 
ATOM     85  C   UNL     1       7.649   7.107   5.407  1.00  0.00     0.000 A 
ENDBRANCH  79  80
ENDBRANCH  78  79
BRANCH  78  86
ATOM     86  C   UNL     1       7.261   5.378   0.114  1.00  0.00     0.023 C 
BRANCH  86  87
ATOM     87  C   UNL     1       8.136   4.824   1.241  1.00  0.00     0.116 C 
BRANCH  87  88
ATOM     88  C   UNL     1       7.586   3.526   1.802  1.00  0.00     0.389 C 
ATOM     89  F   UNL     1       7.725   2.522   0.908  1.00  0.00    -0.171 F 
ATOM     90  F   UNL     1       8.246   3.166   2.924  1.00  0.00    -0.171 F 
ATOM     91  F   UNL     1       6.275   3.617   2.106  1.00  0.00    -0.171 F 
ENDBRANCH  87  88
ENDBRANCH  86  87
ENDBRANCH  78  86
ENDBRANCH  75  78
ENDBRANCH  73  74
ENDBRANCH   1  73
TORSDOF 16
