REMARK SMILES C[C@H](NC(=O)N1CC[C@@H](C(=O)NCCCCNC(=O)c2ccc(-c3c4nc(c(-c5c(F)c(F)c(F)c(F)c5F)c5ccc([nH]5)c(-c5c(F)c(F)c(F)c(F)c5F)c5nc(c(-c6c(F)c(F)c(F)c(F)c6F)c6ccc3[nH]6)C=C5)C=C4)cc2)[C@H]1C)c1ccc(Cl)cc1
REMARK SMILES IDX 14 1 13 2 12 3 10 4 11 5 9 7 6 8 7 9 83 10 8 11 84 12 4 13
REMARK SMILES IDX 3 14 5 16 2 17 1 18 85 19 86 20 91 21 87 22 90 23 88 24
REMARK SMILES IDX 89 25 15 26 16 27 17 28 18 29 19 31 20 32 21 33 82 34 22 35
REMARK SMILES IDX 81 36 23 37 24 38 25 39 75 40 26 41 80 42 74 43 76 44 27 45
REMARK SMILES IDX 79 46 73 47 72 48 28 50 60 51 40 52 59 53 41 54 44 55 58 56
REMARK SMILES IDX 77 57 42 58 43 59 57 61 78 62 45 63 29 64 30 65 38 66 31 67
REMARK SMILES IDX 32 68 36 69 39 70 33 71 34 72 37 73 35 74 61 75 62 76 70 77
REMARK SMILES IDX 63 78 64 79 68 80 71 81 65 82 66 83 69 84 67 85 46 86 47 87
REMARK SMILES IDX 55 88 48 89 49 90 53 91 56 92 50 93 51 94 54 95 52 96
REMARK H PARENT 12 6 3 15 17 30 76 49 44 60
REMARK Flexibility Score: inf
ROOT
ATOM      1  C   UNL     1      -0.852   4.894   0.684  1.00  0.00     0.023 C 
ENDROOT
BRANCH   1   2
ATOM      2  C   UNL     1       0.625   5.197   0.914  1.00  0.00     0.116 C 
BRANCH   2   3
ATOM      3  N   UNL     1       0.944   5.380   2.313  1.00  0.00    -0.356 N 
ATOM      4  C   UNL     1       1.824   4.750   3.131  1.00  0.00     0.225 C 
ATOM      5  O   UNL     1       1.862   5.149   4.301  1.00  0.00    -0.275 OA
ATOM      6  H   UNL     1       0.427   6.093   2.753  1.00  0.00     0.163 HD
BRANCH   4   7
ATOM      7  C   UNL     1       2.733   3.604   2.704  1.00  0.00     0.102 C 
ATOM      8  N   UNL     1       2.470   1.899   1.060  1.00  0.00    -0.321 N 
ATOM      9  C   UNL     1       3.739   2.543   0.792  1.00  0.00     0.122 C 
ATOM     10  C   UNL     1       2.087   2.230   2.434  1.00  0.00     0.096 C 
ATOM     11  C   UNL     1       3.647   3.882   1.503  1.00  0.00     0.037 C 
ATOM     12  C   UNL     1       0.607   2.072   2.743  1.00  0.00     0.032 C 
BRANCH   8  13
ATOM     13  C   UNL     1       2.310   0.605   0.619  1.00  0.00     0.318 C 
ATOM     14  N   UNL     1       1.188   0.353  -0.110  1.00  0.00    -0.331 N 
ATOM     15  H   UNL     1       0.957  -0.594  -0.244  1.00  0.00     0.165 HD
ATOM     16  O   UNL     1       3.127  -0.286   0.825  1.00  0.00    -0.249 OA
BRANCH  14  17
ATOM     17  C   UNL     1       0.291   1.328  -0.711  1.00  0.00     0.111 C 
ATOM     18  C   UNL     1       0.672   1.526  -2.179  1.00  0.00     0.036 C 
BRANCH  17  19
ATOM     19  C   UNL     1      -1.187   1.009  -0.522  1.00  0.00    -0.026 A 
ATOM     20  C   UNL     1      -2.141   1.987  -0.861  1.00  0.00     0.007 A 
ATOM     21  C   UNL     1      -1.654  -0.188   0.043  1.00  0.00     0.007 A 
ATOM     22  C   UNL     1      -3.497   1.817  -0.575  1.00  0.00     0.021 A 
ATOM     23  C   UNL     1      -3.018  -0.375   0.304  1.00  0.00     0.021 A 
ATOM     24  C   UNL     1      -3.929   0.636   0.015  1.00  0.00     0.041 A 
ATOM     25  Cl  UNL     1      -5.593   0.433   0.397  1.00  0.00    -0.084 Cl
ENDBRANCH  17  19
ENDBRANCH  14  17
ENDBRANCH   8  13
ENDBRANCH   4   7
ENDBRANCH   2   3
ENDBRANCH   1   2
BRANCH   1  26
ATOM     26  C   UNL     1      -1.833   6.025   0.959  1.00  0.00     0.023 C 
BRANCH  26  27
ATOM     27  C   UNL     1      -1.708   7.217   0.024  1.00  0.00     0.116 C 
BRANCH  27  28
ATOM     28  N   UNL     1      -1.865   6.869  -1.384  1.00  0.00    -0.352 N 
ATOM     29  C   UNL     1      -2.688   7.415  -2.344  1.00  0.00     0.251 C 
ATOM     30  H   UNL     1      -1.294   6.130  -1.696  1.00  0.00     0.163 HD
ATOM     31  O   UNL     1      -2.763   6.902  -3.450  1.00  0.00    -0.269 OA
BRANCH  29  32
ATOM     32  C   UNL     1      -3.504   8.604  -2.017  1.00  0.00     0.039 A 
ATOM     33  C   UNL     1      -4.838   8.650  -2.433  1.00  0.00     0.014 A 
ATOM     34  C   UNL     1      -2.965   9.655  -1.274  1.00  0.00     0.014 A 
ATOM     35  C   UNL     1      -5.652   9.709  -2.023  1.00  0.00     0.010 A 
ATOM     36  C   UNL     1      -3.800  10.647  -0.779  1.00  0.00     0.010 A 
ATOM     37  C   UNL     1      -5.151  10.690  -1.153  1.00  0.00    -0.014 A 
BRANCH  37  38
ATOM     38  C   UNL     1      -6.006  11.785  -0.630  1.00  0.00     0.031 A 
ATOM     39  C   UNL     1      -5.643  13.216  -0.921  1.00  0.00     0.074 A 
ATOM     40  C   UNL     1      -7.041  11.498   0.183  1.00  0.00     0.049 A 
ATOM     41  N   UNL     1      -6.175  14.318  -0.457  1.00  0.00    -0.248 NA
ATOM     42  C   UNL     1      -4.497  13.438  -1.819  1.00  0.00     0.031 C 
ATOM     43  C   UNL     1      -7.447  10.155   0.602  1.00  0.00     0.029 A 
ATOM     44  N   UNL     1      -7.933  12.325   0.820  1.00  0.00    -0.354 N 
ATOM     45  C   UNL     1      -5.406  15.353  -0.973  1.00  0.00     0.074 A 
ATOM     46  C   UNL     1      -4.341  14.751  -1.742  1.00  0.00     0.031 C 
ATOM     47  C   UNL     1      -8.518  10.248   1.407  1.00  0.00     0.029 A 
ATOM     48  C   UNL     1      -8.855  11.656   1.588  1.00  0.00     0.049 A 
ATOM     49  H   UNL     1      -7.913  13.306   0.735  1.00  0.00     0.167 HD
ATOM     50  C   UNL     1      -5.590  16.688  -0.839  1.00  0.00     0.037 A 
ATOM     51  C   UNL     1      -9.857  12.129   2.353  1.00  0.00     0.037 A 
ATOM     52  C   UNL     1      -6.691  17.281  -0.131  1.00  0.00     0.049 A 
ATOM     53  C   UNL     1     -10.082  13.616   2.423  1.00  0.00     0.074 A 
ATOM     54  C   UNL     1      -7.021  18.619  -0.013  1.00  0.00     0.029 A 
ATOM     55  N   UNL     1      -7.652  16.566   0.568  1.00  0.00    -0.354 N 
ATOM     56  N   UNL     1      -9.394  14.584   1.868  1.00  0.00    -0.248 NA
ATOM     57  C   UNL     1     -11.231  14.076   3.216  1.00  0.00     0.031 C 
ATOM     58  C   UNL     1      -8.166  18.717   0.784  1.00  0.00     0.029 A 
ATOM     59  C   UNL     1      -8.572  17.437   1.127  1.00  0.00     0.049 A 
ATOM     60  H   UNL     1      -7.677  15.586   0.655  1.00  0.00     0.167 HD
ATOM     61  C   UNL     1     -10.041  15.761   2.217  1.00  0.00     0.074 A 
ATOM     62  C   UNL     1     -11.186  15.386   3.020  1.00  0.00     0.031 C 
ATOM     63  C   UNL     1      -9.716  17.039   1.904  1.00  0.00     0.037 A 
BRANCH  50  64
ATOM     64  C   UNL     1      -4.591  17.598  -1.491  1.00  0.00     0.064 A 
ATOM     65  C   UNL     1      -4.518  17.733  -2.886  1.00  0.00     0.173 A 
ATOM     66  C   UNL     1      -3.723  18.376  -0.710  1.00  0.00     0.173 A 
ATOM     67  F   UNL     1      -5.316  17.000  -3.677  1.00  0.00    -0.203 F 
ATOM     68  C   UNL     1      -3.597  18.594  -3.475  1.00  0.00     0.198 A 
ATOM     69  C   UNL     1      -2.823  19.259  -1.303  1.00  0.00     0.198 A 
ATOM     70  F   UNL     1      -3.753  18.288   0.628  1.00  0.00    -0.203 F 
ATOM     71  F   UNL     1      -3.514  18.670  -4.811  1.00  0.00    -0.200 F 
ATOM     72  C   UNL     1      -2.756  19.362  -2.684  1.00  0.00     0.200 A 
ATOM     73  F   UNL     1      -2.019  20.009  -0.536  1.00  0.00    -0.200 F 
ATOM     74  F   UNL     1      -1.877  20.198  -3.253  1.00  0.00    -0.200 F 
ENDBRANCH  50  64
BRANCH  51  75
ATOM     75  C   UNL     1     -10.748  11.191   3.085  1.00  0.00     0.064 A 
ATOM     76  C   UNL     1     -12.083  11.016   2.695  1.00  0.00     0.173 A 
ATOM     77  C   UNL     1     -10.292  10.465   4.194  1.00  0.00     0.173 A 
ATOM     78  F   UNL     1     -12.570  11.703   1.651  1.00  0.00    -0.203 F 
ATOM     79  C   UNL     1     -12.937  10.175   3.404  1.00  0.00     0.198 A 
ATOM     80  C   UNL     1     -11.140   9.601   4.886  1.00  0.00     0.198 A 
ATOM     81  F   UNL     1      -9.021  10.589   4.603  1.00  0.00    -0.203 F 
ATOM     82  F   UNL     1     -14.223  10.068   3.041  1.00  0.00    -0.200 F 
ATOM     83  C   UNL     1     -12.464   9.465   4.497  1.00  0.00     0.200 A 
ATOM     84  F   UNL     1     -10.676   8.907   5.934  1.00  0.00    -0.200 F 
ATOM     85  F   UNL     1     -13.287   8.658   5.181  1.00  0.00    -0.200 F 
ENDBRANCH  51  75
BRANCH  63  86
ATOM     86  C   UNL     1     -10.634  18.119   2.392  1.00  0.00     0.064 A 
ATOM     87  C   UNL     1     -10.676  18.494   3.742  1.00  0.00     0.173 A 
ATOM     88  C   UNL     1     -11.448  18.817   1.487  1.00  0.00     0.173 A 
ATOM     89  F   UNL     1      -9.926  17.846   4.646  1.00  0.00    -0.203 F 
ATOM     90  C   UNL     1     -11.521  19.512   4.174  1.00  0.00     0.198 A 
ATOM     91  C   UNL     1     -12.270  19.853   1.918  1.00  0.00     0.198 A 
ATOM     92  F   UNL     1     -11.436  18.500   0.184  1.00  0.00    -0.203 F 
ATOM     93  F   UNL     1     -11.580  19.824   5.476  1.00  0.00    -0.200 F 
ATOM     94  C   UNL     1     -12.311  20.195   3.261  1.00  0.00     0.200 A 
ATOM     95  F   UNL     1     -13.023  20.521   1.033  1.00  0.00    -0.200 F 
ATOM     96  F   UNL     1     -13.118  21.180   3.678  1.00  0.00    -0.200 F 
ENDBRANCH  63  86
ENDBRANCH  37  38
ENDBRANCH  29  32
ENDBRANCH  27  28
ENDBRANCH  26  27
ENDBRANCH   1  26
TORSDOF 14
