REMARK SMILES O=C(NCCCCNC(=O)c1ccc(F)c(S(=O)(=O)N2CCOc3ccccc32)c1)c1ccc(-c2c3nc(c(-c4c(F)c(F)c(F)c(F)c4F)c4ccc([nH]4)c(-c4c(F)c(F)c(F)c(F)c4F)c4nc(c(-c5c(F)c(F)c(F)c(F)c5F)c5ccc2[nH]5)C=C4)C=C3)cc1
REMARK SMILES IDX 5 1 4 2 3 3 1 4 2 5 31 7 32 8 93 9 33 10 92 11 34 12 35 13
REMARK SMILES IDX 36 14 86 15 37 16 91 17 85 18 87 19 38 20 90 21 84 22 83 23
REMARK SMILES IDX 39 25 71 26 51 27 70 28 52 29 55 30 69 31 88 32 53 33 54 34
REMARK SMILES IDX 68 36 89 37 56 38 40 39 41 40 49 41 42 42 43 43 47 44 50 45
REMARK SMILES IDX 44 46 45 47 48 48 46 49 72 50 73 51 81 52 74 53 75 54 79 55
REMARK SMILES IDX 82 56 76 57 77 58 80 59 78 60 57 61 58 62 66 63 59 64 60 65
REMARK SMILES IDX 64 66 67 67 61 68 62 69 65 70 63 71 6 72 7 73 8 74 9 75
REMARK SMILES IDX 10 77 11 78 12 79 30 80 13 81 16 82 14 83 15 84 17 85 18 86
REMARK SMILES IDX 19 87 20 88 21 89 29 90 22 91 24 92 28 93 23 94 25 95 27 96
REMARK SMILES IDX 26 97
REMARK H PARENT 3 6 87 24 55 35 8 76
REMARK Flexibility Score: inf
ROOT
ATOM      1  C   UNL     1       4.930   2.660   0.482  1.00  0.00     0.023 C 
ENDROOT
BRANCH   1   2
ATOM      2  C   UNL     1       4.566   1.205   0.741  1.00  0.00     0.116 C 
BRANCH   2   3
ATOM      3  N   UNL     1       3.130   0.974   0.747  1.00  0.00    -0.352 N 
ATOM      4  O   UNL     1       1.170   0.113   0.034  1.00  0.00    -0.269 OA
ATOM      5  C   UNL     1       2.396   0.079   0.007  1.00  0.00     0.251 C 
ATOM      6  H   UNL     1       2.613   1.537   1.367  1.00  0.00     0.163 HD
BRANCH   5   7
ATOM      7  C   UNL     1       3.088  -0.917  -0.838  1.00  0.00     0.039 A 
ATOM      8  C   UNL     1       4.165  -1.653  -0.336  1.00  0.00     0.014 A 
ATOM      9  C   UNL     1       2.635  -1.133  -2.143  1.00  0.00     0.014 A 
ATOM     10  C   UNL     1       4.858  -2.522  -1.171  1.00  0.00     0.010 A 
ATOM     11  C   UNL     1       3.285  -2.064  -2.958  1.00  0.00     0.010 A 
ATOM     12  C   UNL     1       4.408  -2.757  -2.479  1.00  0.00    -0.014 A 
BRANCH  12  13
ATOM     13  C   UNL     1       5.045  -3.827  -3.284  1.00  0.00     0.031 A 
ATOM     14  C   UNL     1       5.826  -3.517  -4.525  1.00  0.00     0.074 A 
ATOM     15  C   UNL     1       4.898  -5.101  -2.868  1.00  0.00     0.049 A 
ATOM     16  N   UNL     1       6.417  -4.346  -5.349  1.00  0.00    -0.248 NA
ATOM     17  C   UNL     1       5.966  -2.100  -4.898  1.00  0.00     0.031 C 
ATOM     18  C   UNL     1       4.144  -5.513  -1.681  1.00  0.00     0.029 A 
ATOM     19  N   UNL     1       5.372  -6.279  -3.385  1.00  0.00    -0.354 N 
ATOM     20  C   UNL     1       6.984  -3.558  -6.341  1.00  0.00     0.074 A 
ATOM     21  C   UNL     1       6.658  -2.183  -6.029  1.00  0.00     0.031 C 
ATOM     22  C   UNL     1       4.226  -6.843  -1.547  1.00  0.00     0.029 A 
ATOM     23  C   UNL     1       4.981  -7.385  -2.670  1.00  0.00     0.049 A 
ATOM     24  H   UNL     1       5.936  -6.328  -4.189  1.00  0.00     0.167 HD
ATOM     25  C   UNL     1       7.715  -3.958  -7.407  1.00  0.00     0.037 A 
ATOM     26  C   UNL     1       5.178  -8.695  -2.907  1.00  0.00     0.037 A 
ATOM     27  C   UNL     1       8.058  -5.328  -7.689  1.00  0.00     0.049 A 
ATOM     28  C   UNL     1       5.961  -9.105  -4.120  1.00  0.00     0.074 A 
ATOM     29  C   UNL     1       8.863  -5.820  -8.702  1.00  0.00     0.029 A 
ATOM     30  N   UNL     1       7.611  -6.423  -6.965  1.00  0.00    -0.354 N 
ATOM     31  N   UNL     1       6.535  -8.346  -5.021  1.00  0.00    -0.248 NA
ATOM     32  C   UNL     1       6.112 -10.546  -4.360  1.00  0.00     0.031 C 
ATOM     33  C   UNL     1       8.861  -7.215  -8.623  1.00  0.00     0.029 A 
ATOM     34  C   UNL     1       8.091  -7.591  -7.535  1.00  0.00     0.049 A 
ATOM     35  H   UNL     1       7.038  -6.377  -6.166  1.00  0.00     0.167 HD
ATOM     36  C   UNL     1       7.115  -9.214  -5.934  1.00  0.00     0.074 A 
ATOM     37  C   UNL     1       6.846 -10.557  -5.465  1.00  0.00     0.031 C 
ATOM     38  C   UNL     1       7.801  -8.920  -7.063  1.00  0.00     0.037 A 
BRANCH  25  39
ATOM     39  C   UNL     1       8.212  -2.921  -8.369  1.00  0.00     0.064 A 
ATOM     40  C   UNL     1       7.665  -2.835  -9.658  1.00  0.00     0.173 A 
ATOM     41  C   UNL     1       9.324  -2.122  -8.070  1.00  0.00     0.173 A 
ATOM     42  F   UNL     1       6.607  -3.588  -9.994  1.00  0.00    -0.203 F 
ATOM     43  C   UNL     1       8.230  -2.005 -10.622  1.00  0.00     0.198 A 
ATOM     44  C   UNL     1       9.876  -1.279  -9.032  1.00  0.00     0.198 A 
ATOM     45  F   UNL     1       9.880  -2.168  -6.851  1.00  0.00    -0.203 F 
ATOM     46  F   UNL     1       7.718  -1.972 -11.861  1.00  0.00    -0.200 F 
ATOM     47  C   UNL     1       9.337  -1.231 -10.310  1.00  0.00     0.200 A 
ATOM     48  F   UNL     1      10.941  -0.524  -8.727  1.00  0.00    -0.200 F 
ATOM     49  F   UNL     1       9.891  -0.444 -11.243  1.00  0.00    -0.200 F 
ENDBRANCH  25  39
BRANCH  26  50
ATOM     50  C   UNL     1       4.589  -9.700  -1.987  1.00  0.00     0.064 A 
ATOM     51  C   UNL     1       3.199  -9.875  -1.902  1.00  0.00     0.173 A 
ATOM     52  C   UNL     1       5.398 -10.477  -1.150  1.00  0.00     0.173 A 
ATOM     53  F   UNL     1       2.382  -9.150  -2.679  1.00  0.00    -0.203 F 
ATOM     54  C   UNL     1       2.640 -10.772  -0.995  1.00  0.00     0.198 A 
ATOM     55  C   UNL     1       4.839 -11.396  -0.264  1.00  0.00     0.198 A 
ATOM     56  F   UNL     1       6.733 -10.359  -1.209  1.00  0.00    -0.203 F 
ATOM     57  F   UNL     1       1.309 -10.888  -0.905  1.00  0.00    -0.200 F 
ATOM     58  C   UNL     1       3.461 -11.536  -0.180  1.00  0.00     0.200 A 
ATOM     59  F   UNL     1       5.636 -12.150   0.507  1.00  0.00    -0.200 F 
ATOM     60  F   UNL     1       2.925 -12.407   0.684  1.00  0.00    -0.200 F 
ENDBRANCH  26  50
BRANCH  38  61
ATOM     61  C   UNL     1       8.300 -10.067  -7.887  1.00  0.00     0.064 A 
ATOM     62  C   UNL     1       9.668 -10.373  -7.934  1.00  0.00     0.173 A 
ATOM     63  C   UNL     1       7.428 -10.805  -8.699  1.00  0.00     0.173 A 
ATOM     64  F   UNL     1      10.540  -9.688  -7.179  1.00  0.00    -0.203 F 
ATOM     65  C   UNL     1      10.148 -11.364  -8.784  1.00  0.00     0.198 A 
ATOM     66  C   UNL     1       7.909 -11.812  -9.530  1.00  0.00     0.198 A 
ATOM     67  F   UNL     1       6.110 -10.557  -8.674  1.00  0.00    -0.203 F 
ATOM     68  F   UNL     1      11.463 -11.615  -8.842  1.00  0.00    -0.200 F 
ATOM     69  C   UNL     1       9.269 -12.083  -9.580  1.00  0.00     0.200 A 
ATOM     70  F   UNL     1       7.056 -12.521 -10.283  1.00  0.00    -0.200 F 
ATOM     71  F   UNL     1       9.732 -13.039 -10.397  1.00  0.00    -0.200 F 
ENDBRANCH  38  61
ENDBRANCH  12  13
ENDBRANCH   5   7
ENDBRANCH   2   3
ENDBRANCH   1   2
BRANCH   1  72
ATOM     72  C   UNL     1       4.441   3.650   1.535  1.00  0.00     0.023 C 
BRANCH  72  73
ATOM     73  C   UNL     1       4.811   3.308   2.974  1.00  0.00     0.116 C 
BRANCH  73  74
ATOM     74  N   UNL     1       6.247   3.215   3.188  1.00  0.00    -0.352 N 
ATOM     75  C   UNL     1       7.037   3.869   4.102  1.00  0.00     0.251 C 
ATOM     76  H   UNL     1       6.721   2.593   2.591  1.00  0.00     0.163 HD
ATOM     77  O   UNL     1       8.257   3.756   4.064  1.00  0.00    -0.269 OA
BRANCH  75  78
ATOM     78  C   UNL     1       6.412   4.738   5.120  1.00  0.00     0.041 A 
ATOM     79  C   UNL     1       5.345   4.273   5.896  1.00  0.00     0.017 A 
ATOM     80  C   UNL     1       6.895   6.039   5.289  1.00  0.00     0.039 A 
ATOM     81  C   UNL     1       4.668   5.156   6.731  1.00  0.00     0.041 A 
ATOM     82  C   UNL     1       6.233   6.910   6.166  1.00  0.00     0.124 A 
ATOM     83  C   UNL     1       5.094   6.478   6.837  1.00  0.00     0.143 A 
ATOM     84  F   UNL     1       4.349   7.288   7.594  1.00  0.00    -0.205 F 
BRANCH  82  85
ATOM     85  S   UNL     1       6.910   8.536   6.362  1.00  0.00     0.267 S 
ATOM     86  O   UNL     1       8.233   8.337   6.921  1.00  0.00    -0.201 OA
ATOM     87  O   UNL     1       6.750   9.169   5.070  1.00  0.00    -0.201 OA
BRANCH  85  88
ATOM     88  N   UNL     1       5.974   9.282   7.546  1.00  0.00    -0.259 N 
ATOM     89  C   UNL     1       6.197   8.888   8.959  1.00  0.00     0.177 C 
ATOM     90  C   UNL     1       5.283  10.534   7.356  1.00  0.00     0.094 A 
ATOM     91  C   UNL     1       6.606  10.121   9.746  1.00  0.00     0.252 C 
ATOM     92  C   UNL     1       5.082  11.370   8.474  1.00  0.00     0.143 A 
ATOM     93  C   UNL     1       4.684  10.897   6.146  1.00  0.00     0.031 A 
ATOM     94  O   UNL     1       5.568  11.108   9.736  1.00  0.00    -0.489 OA
ATOM     95  C   UNL     1       4.317  12.535   8.371  1.00  0.00     0.049 A 
ATOM     96  C   UNL     1       3.948  12.082   6.036  1.00  0.00     0.002 A 
ATOM     97  C   UNL     1       3.761  12.899   7.148  1.00  0.00     0.004 A 
ENDBRANCH  85  88
ENDBRANCH  82  85
ENDBRANCH  75  78
ENDBRANCH  73  74
ENDBRANCH  72  73
ENDBRANCH   1  72
TORSDOF 13
