REMARK SMILES CC(C)[N@@H+]1CC[C@@H]([N@@H+]2CC[C@@H](C(=O)NCCCCNC(=O)c3ccc(-c4c5nc(c(-c6c(F)c(F)c(F)c(F)c6F)c6ccc([nH]6)c(-c6c(F)c(F)c(F)c(F)c6F)c6nc(c(-c7c(F)c(F)c(F)c(F)c7F)c7ccc4[nH]7)C=C6)C=C5)cc3)[C@H]2C)C1
REMARK SMILES IDX 16 1 15 2 14 3 12 4 13 5 11 7 8 8 9 9 85 10 10 12 86 13 7 14
REMARK SMILES IDX 4 15 5 16 87 17 6 19 2 20 1 21 3 22 17 23 18 24 19 25 20 26
REMARK SMILES IDX 21 28 22 29 23 30 84 31 24 32 83 33 25 34 26 35 27 36 77 37
REMARK SMILES IDX 28 38 82 39 76 40 78 41 29 42 81 43 75 44 74 45 30 47 62 48
REMARK SMILES IDX 42 49 61 50 43 51 46 52 60 53 79 54 44 55 45 56 59 58 80 59
REMARK SMILES IDX 47 60 31 61 32 62 40 63 33 64 34 65 38 66 41 67 35 68 36 69
REMARK SMILES IDX 39 70 37 71 63 72 64 73 72 74 65 75 66 76 70 77 73 78 67 79
REMARK SMILES IDX 68 80 71 81 69 82 48 83 49 84 57 85 50 86 51 87 55 88 58 89
REMARK SMILES IDX 52 90 53 91 56 92 54 93
REMARK H PARENT 14 6 8 11 4 18 19 27 78 46 46 57
REMARK Flexibility Score: inf
ROOT
ATOM      1  C   UNL     1      -5.873   6.058   1.540  1.00  0.00     0.023 C 
ENDROOT
BRANCH   1   2
ATOM      2  C   UNL     1      -5.703   5.400   2.911  1.00  0.00     0.116 C 
BRANCH   2   3
ATOM      3  N   UNL     1      -6.551   4.231   3.049  1.00  0.00    -0.356 N 
ATOM      4  C   UNL     1      -6.275   2.916   2.822  1.00  0.00     0.229 C 
ATOM      5  O   UNL     1      -7.218   2.124   2.831  1.00  0.00    -0.275 OA
ATOM      6  H   UNL     1      -7.469   4.417   3.353  1.00  0.00     0.163 HD
BRANCH   4   7
ATOM      7  C   UNL     1      -4.842   2.478   2.588  1.00  0.00     0.142 C 
ATOM      8  N   UNL     1      -3.562   0.529   3.248  1.00  0.00    -0.325 N 
ATOM      9  C   UNL     1      -4.314   0.191   2.038  1.00  0.00     0.263 C 
ATOM     10  C   UNL     1      -4.178   1.763   3.786  1.00  0.00     0.194 C 
ATOM     11  H   UNL     1      -3.643  -0.253   3.898  1.00  0.00     0.348 HD
ATOM     12  C   UNL     1      -4.747   1.502   1.419  1.00  0.00     0.081 C 
ATOM     13  C   UNL     1      -5.096   1.384   4.950  1.00  0.00     0.076 C 
BRANCH   8  14
ATOM     14  C   UNL     1      -2.091   0.588   3.144  1.00  0.00     0.245 C 
ATOM     15  N   UNL     1      -0.679  -0.263   1.330  1.00  0.00    -0.328 N 
ATOM     16  C   UNL     1      -1.073   1.111   1.028  1.00  0.00     0.269 C 
ATOM     17  C   UNL     1      -1.406  -0.672   2.550  1.00  0.00     0.328 C 
ATOM     18  H   UNL     1      -0.950  -0.853   0.543  1.00  0.00     0.348 HD
ATOM     19  C   UNL     1      -1.472   1.733   2.348  1.00  0.00     0.132 C 
BRANCH  15  20
ATOM     20  C   UNL     1       0.766  -0.530   1.368  1.00  0.00     0.177 C 
ATOM     21  C   UNL     1       1.366  -0.394  -0.040  1.00  0.00     0.075 C 
ATOM     22  C   UNL     1       1.568   0.321   2.360  1.00  0.00     0.075 C 
ENDBRANCH  15  20
ENDBRANCH   8  14
ENDBRANCH   4   7
ENDBRANCH   2   3
ENDBRANCH   1   2
BRANCH   1  23
ATOM     23  C   UNL     1      -7.298   6.529   1.226  1.00  0.00     0.023 C 
BRANCH  23  24
ATOM     24  C   UNL     1      -7.954   7.393   2.298  1.00  0.00     0.116 C 
BRANCH  24  25
ATOM     25  N   UNL     1      -7.220   8.617   2.575  1.00  0.00    -0.352 N 
ATOM     26  C   UNL     1      -7.716   9.874   2.827  1.00  0.00     0.251 C 
ATOM     27  H   UNL     1      -6.239   8.535   2.583  1.00  0.00     0.163 HD
ATOM     28  O   UNL     1      -6.958  10.832   2.936  1.00  0.00    -0.269 OA
BRANCH  26  29
ATOM     29  C   UNL     1      -9.178  10.072   2.926  1.00  0.00     0.039 A 
ATOM     30  C   UNL     1      -9.771  11.095   2.182  1.00  0.00     0.014 A 
ATOM     31  C   UNL     1      -9.961   9.232   3.722  1.00  0.00     0.014 A 
ATOM     32  C   UNL     1     -11.160  11.232   2.181  1.00  0.00     0.010 A 
ATOM     33  C   UNL     1     -11.348   9.327   3.667  1.00  0.00     0.010 A 
ATOM     34  C   UNL     1     -11.962  10.325   2.894  1.00  0.00    -0.014 A 
BRANCH  34  35
ATOM     35  C   UNL     1     -13.444  10.401   2.846  1.00  0.00     0.031 A 
ATOM     36  C   UNL     1     -14.221  10.710   4.094  1.00  0.00     0.074 A 
ATOM     37  C   UNL     1     -14.092  10.122   1.698  1.00  0.00     0.049 A 
ATOM     38  N   UNL     1     -15.516  10.723   4.284  1.00  0.00    -0.248 NA
ATOM     39  C   UNL     1     -13.435  11.021   5.299  1.00  0.00     0.031 C 
ATOM     40  C   UNL     1     -13.453   9.771   0.429  1.00  0.00     0.029 A 
ATOM     41  N   UNL     1     -15.435  10.073   1.417  1.00  0.00    -0.354 N 
ATOM     42  C   UNL     1     -15.698  11.030   5.625  1.00  0.00     0.074 A 
ATOM     43  C   UNL     1     -14.383  11.142   6.216  1.00  0.00     0.031 C 
ATOM     44  C   UNL     1     -14.401   9.560  -0.498  1.00  0.00     0.029 A 
ATOM     45  C   UNL     1     -15.714   9.720   0.119  1.00  0.00     0.049 A 
ATOM     46  H   UNL     1     -16.132  10.274   2.083  1.00  0.00     0.167 HD
ATOM     47  C   UNL     1     -16.858  11.227   6.297  1.00  0.00     0.037 A 
ATOM     48  C   UNL     1     -16.897   9.533  -0.498  1.00  0.00     0.037 A 
ATOM     49  C   UNL     1     -18.165  11.134   5.702  1.00  0.00     0.049 A 
ATOM     50  C   UNL     1     -18.171   9.736   0.279  1.00  0.00     0.074 A 
ATOM     51  C   UNL     1     -19.398  11.354   6.289  1.00  0.00     0.029 A 
ATOM     52  N   UNL     1     -18.406  10.792   4.380  1.00  0.00    -0.354 N 
ATOM     53  N   UNL     1     -18.330  10.082   1.533  1.00  0.00    -0.248 NA
ATOM     54  C   UNL     1     -19.430   9.525  -0.449  1.00  0.00     0.031 C 
ATOM     55  C   UNL     1     -20.388  11.107   5.333  1.00  0.00     0.029 A 
ATOM     56  C   UNL     1     -19.770  10.781   4.136  1.00  0.00     0.049 A 
ATOM     57  H   UNL     1     -17.711  10.588   3.713  1.00  0.00     0.167 HD
ATOM     58  C   UNL     1     -19.701  10.164   1.735  1.00  0.00     0.074 A 
ATOM     59  C   UNL     1     -20.330   9.842   0.472  1.00  0.00     0.031 C 
ATOM     60  C   UNL     1     -20.379  10.477   2.867  1.00  0.00     0.037 A 
BRANCH  47  61
ATOM     61  C   UNL     1     -16.762  11.573   7.755  1.00  0.00     0.064 A 
ATOM     62  C   UNL     1     -16.272  12.816   8.182  1.00  0.00     0.173 A 
ATOM     63  C   UNL     1     -17.197  10.668   8.735  1.00  0.00     0.173 A 
ATOM     64  F   UNL     1     -15.833  13.713   7.286  1.00  0.00    -0.203 F 
ATOM     65  C   UNL     1     -16.193  13.129   9.537  1.00  0.00     0.198 A 
ATOM     66  C   UNL     1     -17.145  10.996  10.087  1.00  0.00     0.198 A 
ATOM     67  F   UNL     1     -17.679   9.467   8.381  1.00  0.00    -0.203 F 
ATOM     68  F   UNL     1     -15.675  14.304   9.922  1.00  0.00    -0.200 F 
ATOM     69  C   UNL     1     -16.637  12.222  10.487  1.00  0.00     0.200 A 
ATOM     70  F   UNL     1     -17.586  10.124  11.004  1.00  0.00    -0.200 F 
ATOM     71  F   UNL     1     -16.567  12.528  11.790  1.00  0.00    -0.200 F 
ENDBRANCH  47  61
BRANCH  48  72
ATOM     72  C   UNL     1     -16.938   9.150  -1.934  1.00  0.00     0.064 A 
ATOM     73  C   UNL     1     -17.414  10.046  -2.902  1.00  0.00     0.173 A 
ATOM     74  C   UNL     1     -16.524   7.882  -2.365  1.00  0.00     0.173 A 
ATOM     75  F   UNL     1     -17.842  11.263  -2.535  1.00  0.00    -0.203 F 
ATOM     76  C   UNL     1     -17.499   9.678  -4.243  1.00  0.00     0.198 A 
ATOM     77  C   UNL     1     -16.581   7.526  -3.711  1.00  0.00     0.198 A 
ATOM     78  F   UNL     1     -16.056   6.990  -1.480  1.00  0.00    -0.203 F 
ATOM     79  F   UNL     1     -18.007  10.535  -5.140  1.00  0.00    -0.200 F 
ATOM     80  C   UNL     1     -17.078   8.420  -4.648  1.00  0.00     0.200 A 
ATOM     81  F   UNL     1     -16.161   6.314  -4.100  1.00  0.00    -0.200 F 
ATOM     82  F   UNL     1     -17.160   8.067  -5.938  1.00  0.00    -0.200 F 
ENDBRANCH  48  72
BRANCH  60  83
ATOM     83  C   UNL     1     -21.876  10.536   2.780  1.00  0.00     0.064 A 
ATOM     84  C   UNL     1     -22.654   9.376   2.666  1.00  0.00     0.173 A 
ATOM     85  C   UNL     1     -22.540  11.770   2.860  1.00  0.00     0.173 A 
ATOM     86  F   UNL     1     -22.065   8.174   2.570  1.00  0.00    -0.203 F 
ATOM     87  C   UNL     1     -24.044   9.450   2.612  1.00  0.00     0.198 A 
ATOM     88  C   UNL     1     -23.930  11.838   2.836  1.00  0.00     0.198 A 
ATOM     89  F   UNL     1     -21.841  12.909   2.977  1.00  0.00    -0.203 F 
ATOM     90  F   UNL     1     -24.767   8.332   2.458  1.00  0.00    -0.200 F 
ATOM     91  C   UNL     1     -24.680  10.679   2.705  1.00  0.00     0.200 A 
ATOM     92  F   UNL     1     -24.544  13.024   2.940  1.00  0.00    -0.200 F 
ATOM     93  F   UNL     1     -26.018  10.747   2.663  1.00  0.00    -0.200 F 
ENDBRANCH  60  83
ENDBRANCH  34  35
ENDBRANCH  26  29
ENDBRANCH  24  25
ENDBRANCH  23  24
ENDBRANCH   1  23
TORSDOF 13
