REMARK SMILES CSC[C@H](C(=O)NCCCCNC(=O)c1ccc(-c2c3nc(c(-c4c(F)c(F)c(F)c(F)c4F)c4ccc([nH]4)c(-c4c(F)c(F)c(F)c(F)c4F)c4nc(c(-c5c(F)c(F)c(F)c(F)c5F)c5ccc2[nH]5)C=C4)C=C3)cc1)c1ccccc1
REMARK SMILES IDX 9 1 8 2 7 3 5 4 6 5 4 7 3 8 2 9 1 10 78 11 79 12 83 13 80 14
REMARK SMILES IDX 82 15 81 16 10 17 11 18 12 19 13 20 14 22 15 23 16 24 77 25
REMARK SMILES IDX 17 26 76 27 18 28 19 29 20 30 70 31 21 32 75 33 69 34 71 35
REMARK SMILES IDX 22 36 74 37 68 38 67 39 23 41 55 42 35 43 54 44 36 45 39 46
REMARK SMILES IDX 53 47 72 48 37 49 38 50 52 52 73 53 40 54 24 55 25 56 33 57
REMARK SMILES IDX 26 58 27 59 31 60 34 61 28 62 29 63 32 64 30 65 56 66 57 67
REMARK SMILES IDX 65 68 58 69 59 70 63 71 66 72 60 73 61 74 64 75 62 76 41 77
REMARK SMILES IDX 42 78 50 79 43 80 44 81 48 82 51 83 45 84 46 85 49 86 47 87
REMARK H PARENT 7 6 12 21 71 40 39 51
REMARK Flexibility Score: inf
ROOT
ATOM      1  C   UNL     1      -2.494   1.606  -0.223  1.00  0.00     0.023 C 
ENDROOT
BRANCH   1   2
ATOM      2  C   UNL     1      -1.227   1.287   0.566  1.00  0.00     0.116 C 
BRANCH   2   3
ATOM      3  N   UNL     1      -0.370   2.445   0.734  1.00  0.00    -0.356 N 
ATOM      4  C   UNL     1       0.540   2.727   1.715  1.00  0.00     0.228 C 
ATOM      5  O   UNL     1       1.255   3.712   1.520  1.00  0.00    -0.274 OA
ATOM      6  H   UNL     1      -0.457   3.133   0.035  1.00  0.00     0.163 HD
BRANCH   4   7
ATOM      7  C   UNL     1       0.646   1.813   2.943  1.00  0.00     0.118 C 
BRANCH   7   8
ATOM      8  C   UNL     1       1.438   0.539   2.560  1.00  0.00     0.087 C 
BRANCH   8   9
ATOM      9  S   UNL     1       3.163   0.759   1.990  1.00  0.00    -0.164 SA
ATOM     10  C   UNL     1       2.885   0.854   0.198  1.00  0.00     0.085 C 
ENDBRANCH   8   9
ENDBRANCH   7   8
BRANCH   7  11
ATOM     11  C   UNL     1       1.026   2.497   4.266  1.00  0.00    -0.035 A 
ATOM     12  C   UNL     1       1.376   1.733   5.396  1.00  0.00     0.004 A 
ATOM     13  C   UNL     1       0.882   3.883   4.455  1.00  0.00     0.004 A 
ATOM     14  C   UNL     1       1.603   2.330   6.641  1.00  0.00     0.000 A 
ATOM     15  C   UNL     1       1.117   4.482   5.697  1.00  0.00     0.000 A 
ATOM     16  C   UNL     1       1.477   3.705   6.791  1.00  0.00     0.000 A 
ENDBRANCH   7  11
ENDBRANCH   4   7
ENDBRANCH   2   3
ENDBRANCH   1   2
BRANCH   1  17
ATOM     17  C   UNL     1      -2.266   2.155  -1.634  1.00  0.00     0.023 C 
BRANCH  17  18
ATOM     18  C   UNL     1      -1.409   1.279  -2.542  1.00  0.00     0.116 C 
BRANCH  18  19
ATOM     19  N   UNL     1      -2.042   0.003  -2.839  1.00  0.00    -0.352 N 
ATOM     20  C   UNL     1      -2.500  -0.490  -4.036  1.00  0.00     0.251 C 
ATOM     21  H   UNL     1      -2.161  -0.595  -2.067  1.00  0.00     0.163 HD
ATOM     22  O   UNL     1      -3.190  -1.508  -4.056  1.00  0.00    -0.269 OA
BRANCH  20  23
ATOM     23  C   UNL     1      -2.188   0.206  -5.302  1.00  0.00     0.039 A 
ATOM     24  C   UNL     1      -3.206   0.395  -6.241  1.00  0.00     0.014 A 
ATOM     25  C   UNL     1      -0.894   0.658  -5.575  1.00  0.00     0.014 A 
ATOM     26  C   UNL     1      -2.943   1.098  -7.420  1.00  0.00     0.010 A 
ATOM     27  C   UNL     1      -0.650   1.421  -6.715  1.00  0.00     0.010 A 
ATOM     28  C   UNL     1      -1.672   1.649  -7.649  1.00  0.00    -0.014 A 
BRANCH  28  29
ATOM     29  C   UNL     1      -1.392   2.471  -8.855  1.00  0.00     0.031 A 
ATOM     30  C   UNL     1      -0.391   2.005  -9.875  1.00  0.00     0.074 A 
ATOM     31  C   UNL     1      -1.985   3.673  -8.995  1.00  0.00     0.049 A 
ATOM     32  N   UNL     1       0.049   2.618 -10.946  1.00  0.00    -0.248 NA
ATOM     33  C   UNL     1       0.218   0.685  -9.647  1.00  0.00     0.031 C 
ATOM     34  C   UNL     1      -2.938   4.261  -8.053  1.00  0.00     0.029 A 
ATOM     35  N   UNL     1      -1.862   4.623  -9.979  1.00  0.00    -0.354 N 
ATOM     36  C   UNL     1       0.995   1.769 -11.505  1.00  0.00     0.074 A 
ATOM     37  C   UNL     1       1.102   0.621 -10.632  1.00  0.00     0.031 C 
ATOM     38  C   UNL     1      -3.325   5.462  -8.510  1.00  0.00     0.029 A 
ATOM     39  C   UNL     1      -2.622   5.746  -9.758  1.00  0.00     0.049 A 
ATOM     40  H   UNL     1      -1.283   4.511 -10.767  1.00  0.00     0.167 HD
ATOM     41  C   UNL     1       1.695   1.924 -12.655  1.00  0.00     0.037 A 
ATOM     42  C   UNL     1      -2.732   6.881 -10.474  1.00  0.00     0.037 A 
ATOM     43  C   UNL     1       1.566   3.054 -13.538  1.00  0.00     0.049 A 
ATOM     44  C   UNL     1      -1.946   7.027 -11.749  1.00  0.00     0.074 A 
ATOM     45  C   UNL     1       2.182   3.271 -14.758  1.00  0.00     0.029 A 
ATOM     46  N   UNL     1       0.765   4.160 -13.293  1.00  0.00    -0.354 N 
ATOM     47  N   UNL     1      -1.107   6.187 -12.304  1.00  0.00    -0.248 NA
ATOM     48  C   UNL     1      -2.128   8.277 -12.500  1.00  0.00     0.031 C 
ATOM     49  C   UNL     1       1.789   4.527 -15.230  1.00  0.00     0.029 A 
ATOM     50  C   UNL     1       0.888   5.072 -14.330  1.00  0.00     0.049 A 
ATOM     51  H   UNL     1       0.193   4.279 -12.500  1.00  0.00     0.167 HD
ATOM     52  C   UNL     1      -0.684   6.790 -13.481  1.00  0.00     0.074 A 
ATOM     53  C   UNL     1      -1.369   8.063 -13.566  1.00  0.00     0.031 C 
ATOM     54  C   UNL     1       0.192   6.330 -14.407  1.00  0.00     0.037 A 
BRANCH  41  55
ATOM     55  C   UNL     1       2.665   0.841 -13.028  1.00  0.00     0.064 A 
ATOM     56  C   UNL     1       2.229  -0.428 -13.441  1.00  0.00     0.173 A 
ATOM     57  C   UNL     1       4.047   1.085 -13.011  1.00  0.00     0.173 A 
ATOM     58  F   UNL     1       0.919  -0.716 -13.465  1.00  0.00    -0.203 F 
ATOM     59  C   UNL     1       3.141  -1.420 -13.792  1.00  0.00     0.198 A 
ATOM     60  C   UNL     1       4.954   0.100 -13.393  1.00  0.00     0.198 A 
ATOM     61  F   UNL     1       4.518   2.283 -12.632  1.00  0.00    -0.203 F 
ATOM     62  F   UNL     1       2.702  -2.639 -14.135  1.00  0.00    -0.200 F 
ATOM     63  C   UNL     1       4.501  -1.153 -13.775  1.00  0.00     0.200 A 
ATOM     64  F   UNL     1       6.269   0.364 -13.388  1.00  0.00    -0.200 F 
ATOM     65  F   UNL     1       5.377  -2.107 -14.120  1.00  0.00    -0.200 F 
ENDBRANCH  41  55
BRANCH  42  66
ATOM     66  C   UNL     1      -3.644   7.961 -10.015  1.00  0.00     0.064 A 
ATOM     67  C   UNL     1      -4.825   8.249 -10.713  1.00  0.00     0.173 A 
ATOM     68  C   UNL     1      -3.355   8.726  -8.876  1.00  0.00     0.173 A 
ATOM     69  F   UNL     1      -5.133   7.558 -11.820  1.00  0.00    -0.203 F 
ATOM     70  C   UNL     1      -5.674   9.273 -10.300  1.00  0.00     0.198 A 
ATOM     71  C   UNL     1      -4.219   9.732  -8.448  1.00  0.00     0.198 A 
ATOM     72  F   UNL     1      -2.240   8.487  -8.171  1.00  0.00    -0.203 F 
ATOM     73  F   UNL     1      -6.775   9.556 -11.010  1.00  0.00    -0.200 F 
ATOM     74  C   UNL     1      -5.373  10.010  -9.164  1.00  0.00     0.200 A 
ATOM     75  F   UNL     1      -3.933  10.432  -7.342  1.00  0.00    -0.200 F 
ATOM     76  F   UNL     1      -6.193  10.992  -8.764  1.00  0.00    -0.200 F 
ENDBRANCH  42  66
BRANCH  54  77
ATOM     77  C   UNL     1       0.432   7.188 -15.615  1.00  0.00     0.064 A 
ATOM     78  C   UNL     1       1.169   8.378 -15.539  1.00  0.00     0.173 A 
ATOM     79  C   UNL     1      -0.048   6.790 -16.872  1.00  0.00     0.173 A 
ATOM     80  F   UNL     1       1.636   8.809 -14.358  1.00  0.00    -0.203 F 
ATOM     81  C   UNL     1       1.399   9.150 -16.675  1.00  0.00     0.198 A 
ATOM     82  C   UNL     1       0.208   7.550 -18.010  1.00  0.00     0.198 A 
ATOM     83  F   UNL     1      -0.754   5.657 -16.999  1.00  0.00    -0.203 F 
ATOM     84  F   UNL     1       2.068  10.307 -16.572  1.00  0.00    -0.200 F 
ATOM     85  C   UNL     1       0.925   8.732 -17.910  1.00  0.00     0.200 A 
ATOM     86  F   UNL     1      -0.238   7.137 -19.204  1.00  0.00    -0.200 F 
ATOM     87  F   UNL     1       1.155   9.473 -19.003  1.00  0.00    -0.200 F 
ENDBRANCH  54  77
ENDBRANCH  28  29
ENDBRANCH  20  23
ENDBRANCH  18  19
ENDBRANCH  17  18
ENDBRANCH   1  17
TORSDOF 14
