REMARK SMILES CCC[C@@]1(C(=O)NCCCCNC(=O)c2ccc(-c3c4nc(c(-c5c(F)c(F)c(F)c(F)c5F)c5ccc([nH]5)c(-c5c(F)c(F)c(F)c(F)c5F)c5nc(c(-c6c(F)c(F)c(F)c(F)c6F)c6ccc3[nH]6)C=C5)C=C4)cc2)CCN(C(=O)NC[C@]2(C)CCCO2)C1
REMARK SMILES IDX 9 1 8 2 7 3 5 4 6 5 4 7 78 8 91 9 79 10 80 11 3 12 2 13 1 14
REMARK SMILES IDX 81 15 82 16 83 17 84 19 85 20 87 21 90 22 86 23 88 24 89 25
REMARK SMILES IDX 10 26 11 27 12 28 13 29 14 31 15 32 16 33 77 34 17 35 76 36
REMARK SMILES IDX 18 37 19 38 20 39 70 40 21 41 75 42 69 43 71 44 22 45 74 46
REMARK SMILES IDX 68 47 67 48 23 50 55 51 35 52 54 53 36 54 39 55 53 56 72 57
REMARK SMILES IDX 37 58 38 59 52 61 73 62 40 63 24 64 25 65 33 66 26 67 27 68
REMARK SMILES IDX 31 69 34 70 28 71 29 72 32 73 30 74 56 75 57 76 65 77 58 78
REMARK SMILES IDX 59 79 63 80 66 81 60 82 61 83 64 84 62 85 41 86 42 87 50 88
REMARK SMILES IDX 43 89 44 90 48 91 51 92 45 93 46 94 49 95 47 96
REMARK H PARENT 7 6 83 18 12 30 71 49 39 60
REMARK Flexibility Score: inf
ROOT
ATOM      1  C   UNL     1      -2.338 -11.445  -3.469  1.00  0.00     0.023 C 
ENDROOT
BRANCH   1   2
ATOM      2  C   UNL     1      -1.014 -11.367  -4.219  1.00  0.00     0.116 C 
BRANCH   2   3
ATOM      3  N   UNL     1      -1.088 -10.517  -5.392  1.00  0.00    -0.356 N 
ATOM      4  C   UNL     1      -0.346  -9.456  -5.816  1.00  0.00     0.228 C 
ATOM      5  O   UNL     1      -0.538  -9.120  -6.989  1.00  0.00    -0.274 OA
ATOM      6  H   UNL     1      -1.821 -10.755  -6.005  1.00  0.00     0.163 HD
BRANCH   4   7
ATOM      7  C   UNL     1       0.697  -8.742  -4.935  1.00  0.00     0.068 C 
ATOM      8  C   UNL     1       0.203  -8.471  -3.501  1.00  0.00     0.040 C 
ATOM      9  C   UNL     1       0.860  -7.258  -5.452  1.00  0.00     0.138 C 
ATOM     10  C   UNL     1      -0.674  -7.246  -3.674  1.00  0.00     0.122 C 
ATOM     11  N   UNL     1       0.144  -6.408  -4.497  1.00  0.00    -0.324 N 
BRANCH   7  12
ATOM     12  C   UNL     1       2.100  -9.403  -5.035  1.00  0.00     0.018 C 
BRANCH  12  13
ATOM     13  C   UNL     1       2.318 -10.819  -4.499  1.00  0.00    -0.002 C 
ATOM     14  C   UNL     1       2.077 -11.908  -5.537  1.00  0.00     0.004 C 
ENDBRANCH  12  13
ENDBRANCH   7  12
BRANCH  11  15
ATOM     15  C   UNL     1       0.492  -5.106  -4.353  1.00  0.00     0.317 C 
ATOM     16  O   UNL     1       1.363  -4.590  -5.061  1.00  0.00    -0.249 OA
ATOM     17  N   UNL     1      -0.044  -4.307  -3.414  1.00  0.00    -0.335 N 
ATOM     18  H   UNL     1       0.484  -3.486  -3.290  1.00  0.00     0.165 HD
BRANCH  17  19
ATOM     19  C   UNL     1      -1.203  -4.339  -2.531  1.00  0.00     0.152 C 
BRANCH  19  20
ATOM     20  C   UNL     1      -0.895  -4.393  -0.999  1.00  0.00     0.083 C 
ATOM     21  C   UNL     1      -0.789  -5.787  -0.380  1.00  0.00     0.039 C 
ATOM     22  O   UNL     1      -2.049  -3.815  -0.330  1.00  0.00    -0.373 OA
ATOM     23  C   UNL     1       0.331  -3.555  -0.635  1.00  0.00     0.044 C 
ATOM     24  C   UNL     1      -2.237  -6.185  -0.222  1.00  0.00     0.031 C 
ATOM     25  C   UNL     1      -2.869  -4.873   0.194  1.00  0.00     0.161 C 
ENDBRANCH  19  20
ENDBRANCH  17  19
ENDBRANCH  11  15
ENDBRANCH   4   7
ENDBRANCH   2   3
ENDBRANCH   1   2
BRANCH   1  26
ATOM     26  C   UNL     1      -3.380 -12.344  -4.134  1.00  0.00     0.023 C 
BRANCH  26  27
ATOM     27  C   UNL     1      -2.901 -13.753  -4.476  1.00  0.00     0.116 C 
BRANCH  27  28
ATOM     28  N   UNL     1      -2.305 -14.459  -3.348  1.00  0.00    -0.352 N 
ATOM     29  C   UNL     1      -2.460 -15.778  -2.988  1.00  0.00     0.251 C 
ATOM     30  H   UNL     1      -1.717 -13.922  -2.769  1.00  0.00     0.163 HD
ATOM     31  O   UNL     1      -1.951 -16.222  -1.968  1.00  0.00    -0.269 OA
BRANCH  29  32
ATOM     32  C   UNL     1      -3.302 -16.636  -3.841  1.00  0.00     0.039 A 
ATOM     33  C   UNL     1      -4.441 -17.220  -3.286  1.00  0.00     0.014 A 
ATOM     34  C   UNL     1      -3.028 -16.742  -5.207  1.00  0.00     0.014 A 
ATOM     35  C   UNL     1      -5.373 -17.828  -4.127  1.00  0.00     0.010 A 
ATOM     36  C   UNL     1      -3.985 -17.296  -6.048  1.00  0.00     0.010 A 
ATOM     37  C   UNL     1      -5.178 -17.814  -5.518  1.00  0.00    -0.014 A 
BRANCH  37  38
ATOM     38  C   UNL     1      -6.237 -18.269  -6.449  1.00  0.00     0.031 A 
ATOM     39  C   UNL     1      -6.007 -19.466  -7.322  1.00  0.00     0.074 A 
ATOM     40  C   UNL     1      -7.359 -17.535  -6.580  1.00  0.00     0.049 A 
ATOM     41  N   UNL     1      -6.750 -19.936  -8.290  1.00  0.00    -0.248 NA
ATOM     42  C   UNL     1      -4.764 -20.218  -7.093  1.00  0.00     0.031 C 
ATOM     43  C   UNL     1      -7.673 -16.324  -5.819  1.00  0.00     0.029 A 
ATOM     44  N   UNL     1      -8.434 -17.685  -7.420  1.00  0.00    -0.354 N 
ATOM     45  C   UNL     1      -6.060 -21.027  -8.796  1.00  0.00     0.074 A 
ATOM     46  C   UNL     1      -4.821 -21.128  -8.055  1.00  0.00     0.031 C 
ATOM     47  C   UNL     1      -8.862 -15.848  -6.219  1.00  0.00     0.029 A 
ATOM     48  C   UNL     1      -9.375 -16.693  -7.293  1.00  0.00     0.049 A 
ATOM     49  H   UNL     1      -8.522 -18.433  -8.054  1.00  0.00     0.167 HD
ATOM     50  C   UNL     1      -6.438 -21.878  -9.778  1.00  0.00     0.037 A 
ATOM     51  C   UNL     1     -10.513 -16.478  -7.979  1.00  0.00     0.037 A 
ATOM     52  C   UNL     1      -7.684 -21.791 -10.491  1.00  0.00     0.049 A 
ATOM     53  C   UNL     1     -10.895 -17.425  -9.082  1.00  0.00     0.074 A 
ATOM     54  C   UNL     1      -8.197 -22.658 -11.440  1.00  0.00     0.029 A 
ATOM     55  N   UNL     1      -8.611 -20.773 -10.336  1.00  0.00    -0.354 N 
ATOM     56  N   UNL     1     -10.268 -18.494  -9.506  1.00  0.00    -0.248 NA
ATOM     57  C   UNL     1     -12.139 -17.130  -9.808  1.00  0.00     0.031 C 
ATOM     58  C   UNL     1      -9.418 -22.143 -11.887  1.00  0.00     0.029 A 
ATOM     59  C   UNL     1      -9.681 -20.973 -11.193  1.00  0.00     0.049 A 
ATOM     60  H   UNL     1      -8.523 -20.018  -9.709  1.00  0.00     0.167 HD
ATOM     61  C   UNL     1     -11.042 -19.006 -10.537  1.00  0.00     0.074 A 
ATOM     62  C   UNL     1     -12.196 -18.140 -10.665  1.00  0.00     0.031 C 
ATOM     63  C   UNL     1     -10.816 -20.095 -11.311  1.00  0.00     0.037 A 
BRANCH  50  64
ATOM     64  C   UNL     1      -5.495 -22.986 -10.134  1.00  0.00     0.064 A 
ATOM     65  C   UNL     1      -5.309 -24.088  -9.286  1.00  0.00     0.173 A 
ATOM     66  C   UNL     1      -4.801 -22.967 -11.352  1.00  0.00     0.173 A 
ATOM     67  F   UNL     1      -5.941 -24.144  -8.104  1.00  0.00    -0.203 F 
ATOM     68  C   UNL     1      -4.447 -25.123  -9.637  1.00  0.00     0.198 A 
ATOM     69  C   UNL     1      -3.956 -24.015 -11.710  1.00  0.00     0.198 A 
ATOM     70  F   UNL     1      -4.946 -21.936 -12.197  1.00  0.00    -0.203 F 
ATOM     71  F   UNL     1      -4.255 -26.148  -8.796  1.00  0.00    -0.200 F 
ATOM     72  C   UNL     1      -3.776 -25.088 -10.851  1.00  0.00     0.200 A 
ATOM     73  F   UNL     1      -3.315 -23.985 -12.887  1.00  0.00    -0.200 F 
ATOM     74  F   UNL     1      -2.951 -26.088 -11.190  1.00  0.00    -0.200 F 
ENDBRANCH  50  64
BRANCH  51  75
ATOM     75  C   UNL     1     -11.374 -15.315  -7.644  1.00  0.00     0.064 A 
ATOM     76  C   UNL     1     -12.609 -15.499  -7.008  1.00  0.00     0.173 A 
ATOM     77  C   UNL     1     -10.984 -14.004  -7.952  1.00  0.00     0.173 A 
ATOM     78  F   UNL     1     -13.032 -16.737  -6.714  1.00  0.00    -0.203 F 
ATOM     79  C   UNL     1     -13.429 -14.415  -6.705  1.00  0.00     0.198 A 
ATOM     80  C   UNL     1     -11.795 -12.919  -7.627  1.00  0.00     0.198 A 
ATOM     81  F   UNL     1      -9.809 -13.777  -8.558  1.00  0.00    -0.203 F 
ATOM     82  F   UNL     1     -14.622 -14.620  -6.129  1.00  0.00    -0.200 F 
ATOM     83  C   UNL     1     -13.020 -13.125  -7.010  1.00  0.00     0.200 A 
ATOM     84  F   UNL     1     -11.391 -11.674  -7.913  1.00  0.00    -0.200 F 
ATOM     85  F   UNL     1     -13.807 -12.082  -6.714  1.00  0.00    -0.200 F 
ENDBRANCH  51  75
BRANCH  63  86
ATOM     86  C   UNL     1     -11.836 -20.413 -12.360  1.00  0.00     0.064 A 
ATOM     87  C   UNL     1     -11.913 -19.671 -13.547  1.00  0.00     0.173 A 
ATOM     88  C   UNL     1     -12.712 -21.496 -12.200  1.00  0.00     0.173 A 
ATOM     89  F   UNL     1     -11.108 -18.614 -13.736  1.00  0.00    -0.203 F 
ATOM     90  C   UNL     1     -12.840 -19.996 -14.533  1.00  0.00     0.198 A 
ATOM     91  C   UNL     1     -13.623 -21.832 -13.197  1.00  0.00     0.198 A 
ATOM     92  F   UNL     1     -12.674 -22.236 -11.081  1.00  0.00    -0.203 F 
ATOM     93  F   UNL     1     -12.919 -19.255 -15.647  1.00  0.00    -0.200 F 
ATOM     94  C   UNL     1     -13.688 -21.081 -14.361  1.00  0.00     0.200 A 
ATOM     95  F   UNL     1     -14.435 -22.885 -13.033  1.00  0.00    -0.200 F 
ATOM     96  F   UNL     1     -14.574 -21.398 -15.315  1.00  0.00    -0.200 F 
ENDBRANCH  63  86
ENDBRANCH  37  38
ENDBRANCH  29  32
ENDBRANCH  27  28
ENDBRANCH  26  27
ENDBRANCH   1  26
TORSDOF 16
