REMARK SMILES C[NH+](C)Cc1noc(CCCCC(=O)NCCCCNC(=O)c2ccc(-c3c4nc(c(-c5c(F)c(F)c(F)c(F)c5F)c5ccc([nH]5)c(-c5c(F)c(F)c(F)c(F)c5F)c5nc(c(-c6c(F)c(F)c(F)c(F)c6F)c6ccc3[nH]6)C=C5)C=C4)cc2)n1
REMARK SMILES IDX 13 1 14 2 15 3 12 5 11 6 10 7 9 8 8 9 5 10 6 11 86 12 7 13
REMARK SMILES IDX 4 14 2 15 1 16 3 17 16 19 17 20 18 21 19 22 20 23 21 24
REMARK SMILES IDX 22 26 23 27 24 28 85 29 25 30 84 31 26 32 27 33 28 34 78 35
REMARK SMILES IDX 29 36 83 37 77 38 79 39 30 40 82 41 76 42 75 43 31 45 63 46
REMARK SMILES IDX 43 47 62 48 44 49 47 50 61 51 80 52 45 53 46 54 60 56 81 57
REMARK SMILES IDX 48 58 32 59 33 60 41 61 34 62 35 63 39 64 42 65 36 66 37 67
REMARK SMILES IDX 40 68 38 69 64 70 65 71 73 72 66 73 67 74 71 75 74 76 68 77
REMARK SMILES IDX 69 78 72 79 70 80 49 81 50 82 58 83 51 84 52 85 56 86 59 87
REMARK SMILES IDX 53 88 54 89 57 90 55 91
REMARK H PARENT 15 4 2 18 20 25 79 44 47 55
REMARK Flexibility Score: inf
ROOT
ATOM      1  C   UNL     1      -1.535  -5.713  -6.130  1.00  0.00     0.219 C 
ATOM      2  O   UNL     1      -2.391  -5.515  -6.993  1.00  0.00    -0.275 OA
ATOM      3  N   UNL     1      -1.096  -6.989  -5.945  1.00  0.00    -0.356 N 
ATOM      4  H   UNL     1      -1.432  -7.643  -6.600  1.00  0.00     0.163 HD
ENDROOT
BRANCH   1   5
ATOM      5  C   UNL     1      -0.970  -4.567  -5.311  1.00  0.00     0.100 C 
BRANCH   5   6
ATOM      6  C   UNL     1      -1.888  -4.094  -4.180  1.00  0.00     0.010 C 
BRANCH   6   7
ATOM      7  C   UNL     1      -1.827  -4.871  -2.860  1.00  0.00     0.010 C 
BRANCH   7   8
ATOM      8  C   UNL     1      -0.452  -5.010  -2.211  1.00  0.00     0.100 C 
BRANCH   8   9
ATOM      9  C   UNL     1      -0.003  -3.793  -1.504  1.00  0.00     0.226 A 
ATOM     10  C   UNL     1       0.674  -2.342  -0.160  1.00  0.00     0.226 A 
ATOM     11  N   UNL     1       1.038  -1.852  -1.356  1.00  0.00    -0.056 NA
ATOM     12  N   UNL     1       0.020  -3.551  -0.214  1.00  0.00    -0.191 NA
ATOM     13  O   UNL     1       0.575  -2.813  -2.254  1.00  0.00    -0.339 OA
BRANCH  10  14
ATOM     14  C   UNL     1       1.030  -1.698   1.146  1.00  0.00     0.344 C 
BRANCH  14  15
ATOM     15  N   UNL     1       0.383  -0.400   1.427  1.00  0.00    -0.333 N 
ATOM     16  C   UNL     1       0.865   0.672   0.561  1.00  0.00     0.332 C 
ATOM     17  C   UNL     1      -1.074  -0.482   1.415  1.00  0.00     0.332 C 
ATOM     18  H   UNL     1       0.660  -0.158   2.378  1.00  0.00     0.348 HD
ENDBRANCH  14  15
ENDBRANCH  10  14
ENDBRANCH   8   9
ENDBRANCH   7   8
ENDBRANCH   6   7
ENDBRANCH   5   6
ENDBRANCH   1   5
BRANCH   3  19
ATOM     19  C   UNL     1      -0.212  -7.532  -4.935  1.00  0.00     0.116 C 
BRANCH  19  20
ATOM     20  C   UNL     1      -1.016  -8.174  -3.802  1.00  0.00     0.023 C 
BRANCH  20  21
ATOM     21  C   UNL     1      -1.194  -9.682  -3.927  1.00  0.00     0.023 C 
BRANCH  21  22
ATOM     22  C   UNL     1       0.091 -10.477  -3.773  1.00  0.00     0.116 C 
BRANCH  22  23
ATOM     23  N   UNL     1       0.710 -10.363  -2.459  1.00  0.00    -0.352 N 
ATOM     24  C   UNL     1       1.435 -11.327  -1.790  1.00  0.00     0.251 C 
ATOM     25  H   UNL     1       0.597  -9.501  -1.997  1.00  0.00     0.163 HD
ATOM     26  O   UNL     1       1.858 -11.138  -0.661  1.00  0.00    -0.269 OA
BRANCH  24  27
ATOM     27  C   UNL     1       1.635 -12.627  -2.463  1.00  0.00     0.039 A 
ATOM     28  C   UNL     1       1.178 -13.788  -1.836  1.00  0.00     0.014 A 
ATOM     29  C   UNL     1       2.134 -12.665  -3.766  1.00  0.00     0.014 A 
ATOM     30  C   UNL     1       1.133 -14.981  -2.559  1.00  0.00     0.010 A 
ATOM     31  C   UNL     1       2.004 -13.830  -4.509  1.00  0.00     0.010 A 
ATOM     32  C   UNL     1       1.494 -14.997  -3.916  1.00  0.00    -0.014 A 
BRANCH  32  33
ATOM     33  C   UNL     1       1.353 -16.218  -4.748  1.00  0.00     0.031 A 
ATOM     34  C   UNL     1       2.574 -16.829  -5.376  1.00  0.00     0.074 A 
ATOM     35  C   UNL     1       0.130 -16.712  -5.021  1.00  0.00     0.049 A 
ATOM     36  N   UNL     1       2.660 -17.799  -6.249  1.00  0.00    -0.248 NA
ATOM     37  C   UNL     1       3.869 -16.238  -5.004  1.00  0.00     0.031 C 
ATOM     38  C   UNL     1      -1.136 -16.174  -4.521  1.00  0.00     0.029 A 
ATOM     39  N   UNL     1      -0.250 -17.774  -5.805  1.00  0.00    -0.354 N 
ATOM     40  C   UNL     1       4.010 -17.908  -6.555  1.00  0.00     0.074 A 
ATOM     41  C   UNL     1       4.699 -16.875  -5.815  1.00  0.00     0.031 C 
ATOM     42  C   UNL     1      -2.149 -16.920  -4.991  1.00  0.00     0.029 A 
ATOM     43  C   UNL     1      -1.609 -17.966  -5.854  1.00  0.00     0.049 A 
ATOM     44  H   UNL     1       0.392 -18.344  -6.287  1.00  0.00     0.167 HD
ATOM     45  C   UNL     1       4.622 -18.806  -7.362  1.00  0.00     0.037 A 
ATOM     46  C   UNL     1      -2.335 -18.880  -6.525  1.00  0.00     0.037 A 
ATOM     47  C   UNL     1       3.940 -19.866  -8.052  1.00  0.00     0.049 A 
ATOM     48  C   UNL     1      -1.626 -19.896  -7.380  1.00  0.00     0.074 A 
ATOM     49  C   UNL     1       4.477 -20.871  -8.837  1.00  0.00     0.029 A 
ATOM     50  N   UNL     1       2.568 -20.065  -8.028  1.00  0.00    -0.354 N 
ATOM     51  N   UNL     1      -0.344 -20.026  -7.617  1.00  0.00    -0.248 NA
ATOM     52  C   UNL     1      -2.465 -20.897  -8.055  1.00  0.00     0.031 C 
ATOM     53  C   UNL     1       3.426 -21.664  -9.309  1.00  0.00     0.029 A 
ATOM     54  C   UNL     1       2.239 -21.174  -8.789  1.00  0.00     0.049 A 
ATOM     55  H   UNL     1       1.923 -19.501  -7.542  1.00  0.00     0.167 HD
ATOM     56  C   UNL     1      -0.218 -21.136  -8.441  1.00  0.00     0.074 A 
ATOM     57  C   UNL     1      -1.555 -21.649  -8.657  1.00  0.00     0.031 C 
ATOM     58  C   UNL     1       0.903 -21.681  -8.971  1.00  0.00     0.037 A 
BRANCH  45  59
ATOM     59  C   UNL     1       6.107 -18.683  -7.527  1.00  0.00     0.064 A 
ATOM     60  C   UNL     1       6.991 -18.991  -6.482  1.00  0.00     0.173 A 
ATOM     61  C   UNL     1       6.656 -18.267  -8.750  1.00  0.00     0.173 A 
ATOM     62  F   UNL     1       6.514 -19.377  -5.288  1.00  0.00    -0.203 F 
ATOM     63  C   UNL     1       8.367 -18.857  -6.643  1.00  0.00     0.198 A 
ATOM     64  C   UNL     1       8.034 -18.163  -8.917  1.00  0.00     0.198 A 
ATOM     65  F   UNL     1       5.855 -17.962  -9.782  1.00  0.00    -0.203 F 
ATOM     66  F   UNL     1       9.187 -19.103  -5.613  1.00  0.00    -0.200 F 
ATOM     67  C   UNL     1       8.887 -18.449  -7.862  1.00  0.00     0.200 A 
ATOM     68  F   UNL     1       8.537 -17.777 -10.098  1.00  0.00    -0.200 F 
ATOM     69  F   UNL     1      10.212 -18.322  -8.016  1.00  0.00    -0.200 F 
ENDBRANCH  45  59
BRANCH  46  70
ATOM     70  C   UNL     1      -3.814 -18.903  -6.388  1.00  0.00     0.064 A 
ATOM     71  C   UNL     1      -4.449 -19.927  -5.671  1.00  0.00     0.173 A 
ATOM     72  C   UNL     1      -4.620 -17.914  -6.966  1.00  0.00     0.173 A 
ATOM     73  F   UNL     1      -3.720 -20.907  -5.117  1.00  0.00    -0.203 F 
ATOM     74  C   UNL     1      -5.837 -19.972  -5.555  1.00  0.00     0.198 A 
ATOM     75  C   UNL     1      -6.007 -17.946  -6.829  1.00  0.00     0.198 A 
ATOM     76  F   UNL     1      -4.061 -16.910  -7.657  1.00  0.00    -0.203 F 
ATOM     77  F   UNL     1      -6.420 -20.985  -4.900  1.00  0.00    -0.200 F 
ATOM     78  C   UNL     1      -6.614 -18.979  -6.130  1.00  0.00     0.200 A 
ATOM     79  F   UNL     1      -6.755 -16.978  -7.377  1.00  0.00    -0.200 F 
ATOM     80  F   UNL     1      -7.949 -19.020  -6.017  1.00  0.00    -0.200 F 
ENDBRANCH  46  70
BRANCH  58  81
ATOM     81  C   UNL     1       0.742 -22.921  -9.798  1.00  0.00     0.064 A 
ATOM     82  C   UNL     1       0.225 -22.873 -11.100  1.00  0.00     0.173 A 
ATOM     83  C   UNL     1       1.162 -24.162  -9.298  1.00  0.00     0.173 A 
ATOM     84  F   UNL     1      -0.203 -21.710 -11.614  1.00  0.00    -0.203 F 
ATOM     85  C   UNL     1       0.119 -24.030 -11.867  1.00  0.00     0.198 A 
ATOM     86  C   UNL     1       1.077 -25.312 -10.077  1.00  0.00     0.198 A 
ATOM     87  F   UNL     1       1.668 -24.256  -8.059  1.00  0.00    -0.203 F 
ATOM     88  F   UNL     1      -0.410 -23.969 -13.097  1.00  0.00    -0.200 F 
ATOM     89  C   UNL     1       0.552 -25.246 -11.359  1.00  0.00     0.200 A 
ATOM     90  F   UNL     1       1.506 -26.484  -9.588  1.00  0.00    -0.200 F 
ATOM     91  F   UNL     1       0.458 -26.356 -12.103  1.00  0.00    -0.200 F 
ENDBRANCH  58  81
ENDBRANCH  32  33
ENDBRANCH  24  27
ENDBRANCH  22  23
ENDBRANCH  21  22
ENDBRANCH  20  21
ENDBRANCH  19  20
ENDBRANCH   3  19
TORSDOF 17
