REMARK SMILES C[C@]1(O)CC[C@H]2[C@H]3CCC4=C/C(=N/OCC(=O)N[C@@H](CO)C(=O)NCCCCNC(=O)c5ccc(-c6c7nc(c(-c8c(F)c(F)c(F)c(F)c8F)c8ccc([nH]8)c(-c8c(F)c(F)c(F)c(F)c8F)c8nc(c(-c9c(F)c(F)c(F)c(F)c9F)c9ccc6[nH]9)C=C8)C=C7)cc5)CC[C@@]4(C)[C@@H]3CC[C@]21C
REMARK SMILES IDX 25 1 24 2 22 3 23 4 19 6 18 7 16 8 17 9 15 11 14 12 13 13
REMARK SMILES IDX 98 14 97 15 96 16 10 17 99 18 95 19 11 20 9 21 7 22 100 23
REMARK SMILES IDX 12 24 8 25 6 26 101 27 102 28 5 29 2 30 103 31 4 32 1 33
REMARK SMILES IDX 3 34 20 36 21 37 26 39 27 40 28 41 29 42 30 43 31 45 32 46
REMARK SMILES IDX 33 47 94 48 34 49 93 50 35 51 36 52 37 53 87 54 38 55 92 56
REMARK SMILES IDX 86 57 88 58 39 59 91 60 85 61 84 62 40 64 72 65 52 66 71 67
REMARK SMILES IDX 53 68 56 69 70 70 89 71 54 72 55 73 69 75 90 76 57 77 41 78
REMARK SMILES IDX 42 79 50 80 43 81 44 82 48 83 51 84 45 85 46 86 49 87 47 88
REMARK SMILES IDX 73 89 74 90 82 91 75 92 76 93 80 94 83 95 77 96 78 97 81 98
REMARK SMILES IDX 79 99 58 100 59 101 67 102 60 103 61 104 65 105 68 106
REMARK SMILES IDX 62 107 63 108 66 109 64 110
REMARK H PARENT 24 5 18 10 3 35 21 38 29 44 88 63 56 74
REMARK Flexibility Score: inf
ROOT
ATOM      1  C   UNL     1      -3.996   5.516  -0.386  1.00  0.00     0.116 C 
ENDROOT
BRANCH   1   2
ATOM      2  N   UNL     1      -4.264   5.287  -1.795  1.00  0.00    -0.354 N 
ATOM      3  C   UNL     1      -4.170   4.160  -2.555  1.00  0.00     0.244 C 
ATOM      4  O   UNL     1      -4.707   4.193  -3.668  1.00  0.00    -0.273 OA
ATOM      5  H   UNL     1      -4.566   6.085  -2.286  1.00  0.00     0.163 HD
BRANCH   3   6
ATOM      6  C   UNL     1      -3.490   2.866  -2.067  1.00  0.00     0.197 C 
BRANCH   6   7
ATOM      7  N   UNL     1      -2.121   3.121  -1.633  1.00  0.00    -0.339 N 
ATOM      8  C   UNL     1      -0.988   2.475  -2.028  1.00  0.00     0.261 C 
ATOM      9  O   UNL     1       0.075   3.077  -1.850  1.00  0.00    -0.271 OA
ATOM     10  H   UNL     1      -2.001   3.845  -0.976  1.00  0.00     0.164 HD
BRANCH   8  11
ATOM     11  C   UNL     1      -1.043   1.094  -2.708  1.00  0.00     0.363 C 
BRANCH  11  12
ATOM     12  O   UNL     1      -1.777   0.111  -1.972  1.00  0.00    -0.385 OA
BRANCH  12  13
ATOM     13  N   UNL     1      -0.988  -1.057  -1.785  1.00  0.00    -0.091 NA
ATOM     14  C   UNL     1       1.180   0.476  -0.102  1.00  0.00     0.016 C 
ATOM     15  C   UNL     1       0.504  -0.168   1.154  1.00  0.00    -0.008 C 
ATOM     16  C   UNL     1      -1.045   0.153   1.206  1.00  0.00     0.018 C 
ATOM     17  C   UNL     1       0.739  -1.683   0.985  1.00  0.00    -0.062 C 
ATOM     18  C   UNL     1       1.135   0.465   2.435  1.00  0.00     0.002 C 
ATOM     19  C   UNL     1      -1.934  -0.855   0.493  1.00  0.00     0.061 C 
ATOM     20  C   UNL     1      -0.008  -2.349   0.065  1.00  0.00     0.027 C 
ATOM     21  C   UNL     1       1.940  -2.306   1.668  1.00  0.00     0.032 C 
ATOM     22  C   UNL     1       2.590  -0.018   2.598  1.00  0.00    -0.003 C 
ATOM     23  C   UNL     1       0.939   1.994   2.419  1.00  0.00     0.005 C 
ATOM     24  C   UNL     1      -1.057  -1.471  -0.551  1.00  0.00     0.080 C 
ATOM     25  C   UNL     1       2.534  -1.532   2.872  1.00  0.00     0.008 C 
ATOM     26  C   UNL     1       3.461   0.826   3.546  1.00  0.00     0.001 C 
ATOM     27  C   UNL     1       1.771   2.728   3.438  1.00  0.00     0.010 C 
ATOM     28  C   UNL     1       3.274   2.364   3.378  1.00  0.00    -0.001 C 
ATOM     29  C   UNL     1       3.315   0.633   5.049  1.00  0.00     0.007 C 
ATOM     30  C   UNL     1       4.008   2.966   4.632  1.00  0.00     0.068 C 
ATOM     31  C   UNL     1       3.862   2.820   2.025  1.00  0.00     0.015 C 
ATOM     32  C   UNL     1       4.183   1.772   5.601  1.00  0.00     0.036 C 
ATOM     33  C   UNL     1       5.337   3.664   4.338  1.00  0.00     0.042 C 
BRANCH  30  34
ATOM     34  O   UNL     1       3.183   3.948   5.273  1.00  0.00    -0.390 OA
ATOM     35  H   UNL     1       2.320   3.558   5.484  1.00  0.00     0.211 HD
ENDBRANCH  30  34
ENDBRANCH  12  13
ENDBRANCH  11  12
ENDBRANCH   8  11
ENDBRANCH   6   7
BRANCH   6  36
ATOM     36  C   UNL     1      -4.350   2.110  -1.050  1.00  0.00     0.191 C 
BRANCH  36  37
ATOM     37  O   UNL     1      -4.224   2.601   0.283  1.00  0.00    -0.394 OA
ATOM     38  H   UNL     1      -3.308   2.493   0.582  1.00  0.00     0.210 HD
ENDBRANCH  36  37
ENDBRANCH   6  36
ENDBRANCH   3   6
ENDBRANCH   1   2
BRANCH   1  39
ATOM     39  C   UNL     1      -3.380   6.889  -0.120  1.00  0.00     0.023 C 
BRANCH  39  40
ATOM     40  C   UNL     1      -4.251   8.087  -0.497  1.00  0.00     0.023 C 
BRANCH  40  41
ATOM     41  C   UNL     1      -5.647   8.102   0.116  1.00  0.00     0.116 C 
BRANCH  41  42
ATOM     42  N   UNL     1      -5.634   8.131   1.571  1.00  0.00    -0.352 N 
ATOM     43  C   UNL     1      -6.229   9.021   2.437  1.00  0.00     0.251 C 
ATOM     44  H   UNL     1      -5.123   7.407   2.000  1.00  0.00     0.163 HD
ATOM     45  O   UNL     1      -6.005   8.964   3.636  1.00  0.00    -0.269 OA
BRANCH  43  46
ATOM     46  C   UNL     1      -7.117  10.076   1.901  1.00  0.00     0.039 A 
ATOM     47  C   UNL     1      -6.926  11.396   2.319  1.00  0.00     0.014 A 
ATOM     48  C   UNL     1      -8.109   9.770   0.967  1.00  0.00     0.014 A 
ATOM     49  C   UNL     1      -7.668  12.422   1.730  1.00  0.00     0.010 A 
ATOM     50  C   UNL     1      -8.791  10.799   0.325  1.00  0.00     0.010 A 
ATOM     51  C   UNL     1      -8.570  12.136   0.692  1.00  0.00    -0.014 A 
BRANCH  51  52
ATOM     52  C   UNL     1      -9.275  13.218  -0.042  1.00  0.00     0.031 A 
ATOM     53  C   UNL     1     -10.774  13.307  -0.000  1.00  0.00     0.074 A 
ATOM     54  C   UNL     1      -8.571  14.069  -0.814  1.00  0.00     0.049 A 
ATOM     55  N   UNL     1     -11.576  14.112  -0.650  1.00  0.00    -0.248 NA
ATOM     56  C   UNL     1     -11.467  12.341   0.867  1.00  0.00     0.031 C 
ATOM     57  C   UNL     1      -7.116  14.057  -0.976  1.00  0.00     0.029 A 
ATOM     58  N   UNL     1      -8.985  15.099  -1.622  1.00  0.00    -0.354 N 
ATOM     59  C   UNL     1     -12.862  13.741  -0.283  1.00  0.00     0.074 A 
ATOM     60  C   UNL     1     -12.738  12.604   0.603  1.00  0.00     0.031 C 
ATOM     61  C   UNL     1      -6.758  15.046  -1.811  1.00  0.00     0.029 A 
ATOM     62  C   UNL     1      -7.958  15.733  -2.278  1.00  0.00     0.049 A 
ATOM     63  H   UNL     1      -9.930  15.359  -1.721  1.00  0.00     0.167 HD
ATOM     64  C   UNL     1     -14.039  14.312  -0.635  1.00  0.00     0.037 A 
ATOM     65  C   UNL     1      -7.983  16.745  -3.166  1.00  0.00     0.037 A 
ATOM     66  C   UNL     1     -14.158  15.456  -1.500  1.00  0.00     0.049 A 
ATOM     67  C   UNL     1      -9.305  17.349  -3.555  1.00  0.00     0.074 A 
ATOM     68  C   UNL     1     -15.300  16.145  -1.869  1.00  0.00     0.029 A 
ATOM     69  N   UNL     1     -13.093  16.078  -2.136  1.00  0.00    -0.354 N 
ATOM     70  N   UNL     1     -10.511  17.034  -3.149  1.00  0.00    -0.248 NA
ATOM     71  C   UNL     1      -9.268  18.453  -4.525  1.00  0.00     0.031 C 
ATOM     72  C   UNL     1     -14.933  17.154  -2.765  1.00  0.00     0.029 A 
ATOM     73  C   UNL     1     -13.555  17.128  -2.915  1.00  0.00     0.049 A 
ATOM     74  H   UNL     1     -12.149  15.814  -2.048  1.00  0.00     0.167 HD
ATOM     75  C   UNL     1     -11.372  17.915  -3.789  1.00  0.00     0.074 A 
ATOM     76  C   UNL     1     -10.549  18.787  -4.601  1.00  0.00     0.031 C 
ATOM     77  C   UNL     1     -12.723  17.993  -3.711  1.00  0.00     0.037 A 
BRANCH  64  78
ATOM     78  C   UNL     1     -15.296  13.706  -0.080  1.00  0.00     0.064 A 
ATOM     79  C   UNL     1     -15.617  13.800   1.284  1.00  0.00     0.173 A 
ATOM     80  C   UNL     1     -16.204  13.049  -0.923  1.00  0.00     0.173 A 
ATOM     81  F   UNL     1     -14.777  14.408   2.135  1.00  0.00    -0.203 F 
ATOM     82  C   UNL     1     -16.784  13.229   1.786  1.00  0.00     0.198 A 
ATOM     83  C   UNL     1     -17.386  12.508  -0.422  1.00  0.00     0.198 A 
ATOM     84  F   UNL     1     -15.950  12.936  -2.235  1.00  0.00    -0.203 F 
ATOM     85  F   UNL     1     -17.042  13.285   3.100  1.00  0.00    -0.200 F 
ATOM     86  C   UNL     1     -17.670  12.591   0.933  1.00  0.00     0.200 A 
ATOM     87  F   UNL     1     -18.248  11.903  -1.250  1.00  0.00    -0.200 F 
ATOM     88  F   UNL     1     -18.795  12.047   1.418  1.00  0.00    -0.200 F 
ENDBRANCH  64  78
BRANCH  65  89
ATOM     89  C   UNL     1      -6.712  17.269  -3.731  1.00  0.00     0.064 A 
ATOM     90  C   UNL     1      -6.244  18.544  -3.384  1.00  0.00     0.173 A 
ATOM     91  C   UNL     1      -5.942  16.513  -4.628  1.00  0.00     0.173 A 
ATOM     92  F   UNL     1      -6.956  19.312  -2.547  1.00  0.00    -0.203 F 
ATOM     93  C   UNL     1      -5.065  19.051  -3.926  1.00  0.00     0.198 A 
ATOM     94  C   UNL     1      -4.749  17.011  -5.148  1.00  0.00     0.198 A 
ATOM     95  F   UNL     1      -6.343  15.286  -4.989  1.00  0.00    -0.203 F 
ATOM     96  F   UNL     1      -4.665  20.291  -3.612  1.00  0.00    -0.200 F 
ATOM     97  C   UNL     1      -4.315  18.282  -4.803  1.00  0.00     0.200 A 
ATOM     98  F   UNL     1      -4.020  16.259  -5.984  1.00  0.00    -0.200 F 
ATOM     99  F   UNL     1      -3.179  18.768  -5.321  1.00  0.00    -0.200 F 
ENDBRANCH  65  89
BRANCH  77 100
ATOM    100  C   UNL     1     -13.397  19.081  -4.495  1.00  0.00     0.064 A 
ATOM    101  C   UNL     1     -13.499  19.026  -5.893  1.00  0.00     0.173 A 
ATOM    102  C   UNL     1     -13.988  20.169  -3.835  1.00  0.00     0.173 A 
ATOM    103  F   UNL     1     -12.936  18.016  -6.572  1.00  0.00    -0.203 F 
ATOM    104  C   UNL     1     -14.150  20.032  -6.602  1.00  0.00     0.198 A 
ATOM    105  C   UNL     1     -14.665  21.157  -4.544  1.00  0.00     0.198 A 
ATOM    106  F   UNL     1     -13.923  20.265  -2.498  1.00  0.00    -0.203 F 
ATOM    107  F   UNL     1     -14.198  19.983  -7.941  1.00  0.00    -0.200 F 
ATOM    108  C   UNL     1     -14.740  21.091  -5.927  1.00  0.00     0.200 A 
ATOM    109  F   UNL     1     -15.245  22.172  -3.889  1.00  0.00    -0.200 F 
ATOM    110  F   UNL     1     -15.375  22.053  -6.611  1.00  0.00    -0.200 F 
ENDBRANCH  77 100
ENDBRANCH  51  52
ENDBRANCH  43  46
ENDBRANCH  41  42
ENDBRANCH  40  41
ENDBRANCH  39  40
ENDBRANCH   1  39
TORSDOF 18
