REMARK SMILES O=C(NCCCCNC(=O)c1ccc(Cl)nc1NC[C@@H]1C[N@@H+]2CCC[C@@H]2CO1)c1ccc(-c2c3nc(c(-c4c(F)c(F)c(F)c(F)c4F)c4ccc([nH]4)c(-c4c(F)c(F)c(F)c(F)c4F)c4nc(c(-c5c(F)c(F)c(F)c(F)c5F)c5ccc2[nH]5)C=C4)C=C3)cc1
REMARK SMILES IDX 6 1 5 2 4 3 3 4 1 5 2 6 29 8 30 9 91 10 31 11 90 12 32 13
REMARK SMILES IDX 33 14 34 15 84 16 35 17 89 18 83 19 85 20 36 21 88 22 82 23
REMARK SMILES IDX 81 24 37 26 69 27 49 28 68 29 50 30 53 31 67 32 86 33 51 34
REMARK SMILES IDX 52 35 66 37 87 38 54 39 38 40 39 41 47 42 40 43 41 44 45 45
REMARK SMILES IDX 48 46 42 47 43 48 46 49 44 50 70 51 71 52 79 53 72 54 73 55
REMARK SMILES IDX 77 56 80 57 74 58 75 59 78 60 76 61 55 62 56 63 64 64 57 65
REMARK SMILES IDX 58 66 62 67 65 68 59 69 60 70 63 71 61 72 7 73 8 74 9 75
REMARK SMILES IDX 10 77 11 78 12 79 17 80 13 81 16 82 14 83 15 84 18 85 19 87
REMARK SMILES IDX 20 88 21 89 28 90 22 91 27 92 23 93 26 94 24 96 25 97
REMARK H PARENT 3 7 85 25 53 36 8 76 18 86 22 95
REMARK Flexibility Score: inf
ROOT
ATOM      1  C   UNL     1       8.289  12.305   1.128  1.00  0.00     0.023 C 
ENDROOT
BRANCH   1   2
ATOM      2  C   UNL     1       7.761  13.715   0.874  1.00  0.00     0.023 C 
BRANCH   2   3
ATOM      3  C   UNL     1       6.420  14.036   1.519  1.00  0.00     0.116 C 
BRANCH   3   4
ATOM      4  N   UNL     1       6.448  13.962   2.972  1.00  0.00    -0.352 N 
ATOM      5  O   UNL     1       6.245  14.714   5.092  1.00  0.00    -0.269 OA
ATOM      6  C   UNL     1       6.040  14.896   3.895  1.00  0.00     0.251 C 
ATOM      7  H   UNL     1       6.811  13.127   3.346  1.00  0.00     0.163 HD
BRANCH   6   8
ATOM      8  C   UNL     1       5.378  16.137   3.439  1.00  0.00     0.039 A 
ATOM      9  C   UNL     1       4.370  16.091   2.475  1.00  0.00     0.014 A 
ATOM     10  C   UNL     1       5.780  17.363   3.978  1.00  0.00     0.014 A 
ATOM     11  C   UNL     1       3.876  17.274   1.939  1.00  0.00     0.010 A 
ATOM     12  C   UNL     1       5.214  18.550   3.502  1.00  0.00     0.010 A 
ATOM     13  C   UNL     1       4.279  18.516   2.457  1.00  0.00    -0.014 A 
BRANCH  13  14
ATOM     14  C   UNL     1       3.646  19.751   1.929  1.00  0.00     0.031 A 
ATOM     15  C   UNL     1       4.438  20.780   1.173  1.00  0.00     0.074 A 
ATOM     16  C   UNL     1       2.319  19.909   2.102  1.00  0.00     0.049 A 
ATOM     17  N   UNL     1       4.021  21.886   0.608  1.00  0.00    -0.248 NA
ATOM     18  C   UNL     1       5.883  20.546   1.036  1.00  0.00     0.031 C 
ATOM     19  C   UNL     1       1.452  18.983   2.836  1.00  0.00     0.029 A 
ATOM     20  N   UNL     1       1.462  20.881   1.655  1.00  0.00    -0.354 N 
ATOM     21  C   UNL     1       5.149  22.484   0.060  1.00  0.00     0.074 A 
ATOM     22  C   UNL     1       6.274  21.632   0.382  1.00  0.00     0.031 C 
ATOM     23  C   UNL     1       0.183  19.401   2.744  1.00  0.00     0.029 A 
ATOM     24  C   UNL     1       0.151  20.654   1.998  1.00  0.00     0.049 A 
ATOM     25  H   UNL     1       1.757  21.666   1.139  1.00  0.00     0.167 HD
ATOM     26  C   UNL     1       5.231  23.634  -0.652  1.00  0.00     0.037 A 
ATOM     27  C   UNL     1      -0.954  21.379   1.751  1.00  0.00     0.037 A 
ATOM     28  C   UNL     1       4.103  24.470  -0.982  1.00  0.00     0.049 A 
ATOM     29  C   UNL     1      -0.827  22.652   0.967  1.00  0.00     0.074 A 
ATOM     30  C   UNL     1       4.082  25.640  -1.722  1.00  0.00     0.029 A 
ATOM     31  N   UNL     1       2.795  24.222  -0.593  1.00  0.00    -0.354 N 
ATOM     32  N   UNL     1       0.242  23.190   0.433  1.00  0.00    -0.248 NA
ATOM     33  C   UNL     1      -2.060  23.421   0.754  1.00  0.00     0.031 C 
ATOM     34  C   UNL     1       2.768  26.121  -1.746  1.00  0.00     0.029 A 
ATOM     35  C   UNL     1       1.963  25.228  -1.060  1.00  0.00     0.049 A 
ATOM     36  H   UNL     1       2.500  23.447  -0.062  1.00  0.00     0.167 HD
ATOM     37  C   UNL     1      -0.188  24.355  -0.184  1.00  0.00     0.074 A 
ATOM     38  C   UNL     1      -1.621  24.428   0.014  1.00  0.00     0.031 C 
ATOM     39  C   UNL     1       0.540  25.287  -0.846  1.00  0.00     0.037 A 
BRANCH  26  40
ATOM     40  C   UNL     1       6.586  24.072  -1.126  1.00  0.00     0.064 A 
ATOM     41  C   UNL     1       7.238  23.426  -2.187  1.00  0.00     0.173 A 
ATOM     42  C   UNL     1       7.207  25.198  -0.562  1.00  0.00     0.173 A 
ATOM     43  F   UNL     1       6.691  22.340  -2.753  1.00  0.00    -0.203 F 
ATOM     44  C   UNL     1       8.466  23.884  -2.658  1.00  0.00     0.198 A 
ATOM     45  C   UNL     1       8.423  25.667  -1.052  1.00  0.00     0.198 A 
ATOM     46  F   UNL     1       6.623  25.856   0.450  1.00  0.00    -0.203 F 
ATOM     47  F   UNL     1       9.083  23.236  -3.655  1.00  0.00    -0.200 F 
ATOM     48  C   UNL     1       9.053  25.009  -2.097  1.00  0.00     0.200 A 
ATOM     49  F   UNL     1       8.983  26.761  -0.517  1.00  0.00    -0.200 F 
ATOM     50  F   UNL     1      10.227  25.457  -2.563  1.00  0.00    -0.200 F 
ENDBRANCH  26  40
BRANCH  27  51
ATOM     51  C   UNL     1      -2.269  20.918   2.262  1.00  0.00     0.064 A 
ATOM     52  C   UNL     1      -3.273  20.482   1.387  1.00  0.00     0.173 A 
ATOM     53  C   UNL     1      -2.547  20.899   3.637  1.00  0.00     0.173 A 
ATOM     54  F   UNL     1      -3.061  20.500   0.063  1.00  0.00    -0.203 F 
ATOM     55  C   UNL     1      -4.511  20.061   1.867  1.00  0.00     0.198 A 
ATOM     56  C   UNL     1      -3.773  20.448   4.118  1.00  0.00     0.198 A 
ATOM     57  F   UNL     1      -1.616  21.300   4.516  1.00  0.00    -0.203 F 
ATOM     58  F   UNL     1      -5.470  19.691   1.008  1.00  0.00    -0.200 F 
ATOM     59  C   UNL     1      -4.758  20.038   3.232  1.00  0.00     0.200 A 
ATOM     60  F   UNL     1      -3.999  20.410   5.438  1.00  0.00    -0.200 F 
ATOM     61  F   UNL     1      -5.946  19.626   3.694  1.00  0.00    -0.200 F 
ENDBRANCH  27  51
BRANCH  39  62
ATOM     62  C   UNL     1      -0.212  26.456  -1.410  1.00  0.00     0.064 A 
ATOM     63  C   UNL     1      -0.732  27.459  -0.578  1.00  0.00     0.173 A 
ATOM     64  C   UNL     1      -0.410  26.576  -2.793  1.00  0.00     0.173 A 
ATOM     65  F   UNL     1      -0.584  27.377   0.753  1.00  0.00    -0.203 F 
ATOM     66  C   UNL     1      -1.451  28.526  -1.110  1.00  0.00     0.198 A 
ATOM     67  C   UNL     1      -1.106  27.659  -3.323  1.00  0.00     0.198 A 
ATOM     68  F   UNL     1       0.071  25.645  -3.629  1.00  0.00    -0.203 F 
ATOM     69  F   UNL     1      -1.986  29.443  -0.293  1.00  0.00    -0.200 F 
ATOM     70  C   UNL     1      -1.633  28.627  -2.481  1.00  0.00     0.200 A 
ATOM     71  F   UNL     1      -1.274  27.761  -4.648  1.00  0.00    -0.200 F 
ATOM     72  F   UNL     1      -2.329  29.653  -2.991  1.00  0.00    -0.200 F 
ENDBRANCH  39  62
ENDBRANCH  13  14
ENDBRANCH   6   8
ENDBRANCH   3   4
ENDBRANCH   2   3
ENDBRANCH   1   2
BRANCH   1  73
ATOM     73  C   UNL     1       7.304  11.176   0.836  1.00  0.00     0.116 C 
BRANCH  73  74
ATOM     74  N   UNL     1       6.836  11.182  -0.540  1.00  0.00    -0.352 N 
ATOM     75  C   UNL     1       6.950  10.201  -1.495  1.00  0.00     0.255 C 
ATOM     76  H   UNL     1       6.374  12.002  -0.828  1.00  0.00     0.163 HD
ATOM     77  O   UNL     1       6.621  10.429  -2.655  1.00  0.00    -0.269 OA
BRANCH  75  78
ATOM     78  C   UNL     1       7.465   8.873  -1.121  1.00  0.00     0.082 A 
ATOM     79  C   UNL     1       6.837   8.152  -0.097  1.00  0.00     0.021 A 
ATOM     80  C   UNL     1       8.559   8.319  -1.797  1.00  0.00     0.140 A 
ATOM     81  C   UNL     1       7.372   6.936   0.301  1.00  0.00     0.042 A 
ATOM     82  N   UNL     1       9.078   7.135  -1.397  1.00  0.00    -0.219 NA
ATOM     83  C   UNL     1       8.491   6.488  -0.370  1.00  0.00     0.131 A 
ATOM     84  Cl  UNL     1       9.264   5.027   0.085  1.00  0.00    -0.062 Cl
BRANCH  80  85
ATOM     85  N   UNL     1       9.200   9.008  -2.815  1.00  0.00    -0.367 N 
ATOM     86  H   UNL     1       8.908   9.918  -3.052  1.00  0.00     0.162 HD
BRANCH  85  87
ATOM     87  C   UNL     1      10.306   8.391  -3.535  1.00  0.00     0.152 C 
BRANCH  87  88
ATOM     88  C   UNL     1       9.927   8.099  -5.010  1.00  0.00     0.192 C 
ATOM     89  C   UNL     1      10.782   6.909  -5.536  1.00  0.00     0.296 C 
ATOM     90  O   UNL     1      10.056   9.317  -5.775  1.00  0.00    -0.364 OA
ATOM     91  N   UNL     1      11.267   6.984  -6.918  1.00  0.00    -0.328 N 
ATOM     92  C   UNL     1      11.363   9.460  -6.332  1.00  0.00     0.225 C 
ATOM     93  C   UNL     1      12.427   6.110  -7.145  1.00  0.00     0.262 C 
ATOM     94  C   UNL     1      11.618   8.350  -7.355  1.00  0.00     0.210 C 
ATOM     95  H   UNL     1      10.476   6.667  -7.477  1.00  0.00     0.348 HD
ATOM     96  C   UNL     1      13.257   6.833  -8.189  1.00  0.00     0.068 C 
ATOM     97  C   UNL     1      13.074   8.288  -7.805  1.00  0.00     0.073 C 
ENDBRANCH  87  88
ENDBRANCH  85  87
ENDBRANCH  80  85
ENDBRANCH  75  78
ENDBRANCH  73  74
ENDBRANCH   1  73
TORSDOF 14
