REMARK SMILES CC(C)(CCc1ccc(Cl)c2ccccc12)C(=O)NCCCCNC(=O)c1ccc(-c2c3nc(c(-c4c(F)c(F)c(F)c(F)c4F)c4ccc([nH]4)c(-c4c(F)c(F)c(F)c(F)c4F)c4nc(c(-c5c(F)c(F)c(F)c(F)c5F)c5ccc2[nH]5)C=C4)C=C3)cc1
REMARK SMILES IDX 21 1 20 2 19 3 17 4 18 5 2 7 1 8 3 9 4 10 5 11 6 12 7 13
REMARK SMILES IDX 16 14 8 15 11 16 15 17 9 18 12 19 14 20 10 21 13 22 22 23
REMARK SMILES IDX 23 24 24 25 25 26 26 28 27 29 28 30 89 31 29 32 88 33 30 34
REMARK SMILES IDX 31 35 32 36 82 37 33 38 87 39 81 40 83 41 34 42 86 43 80 44
REMARK SMILES IDX 79 45 35 47 67 48 47 49 66 50 48 51 51 52 65 53 84 54 49 55
REMARK SMILES IDX 50 56 64 58 85 59 52 60 36 61 37 62 45 63 38 64 39 65 43 66
REMARK SMILES IDX 46 67 40 68 41 69 44 70 42 71 68 72 69 73 77 74 70 75 71 76
REMARK SMILES IDX 75 77 78 78 72 79 73 80 76 81 74 82 53 83 54 84 62 85 55 86
REMARK SMILES IDX 56 87 60 88 63 89 57 90 58 91 61 92 59 93
REMARK H PARENT 19 6 24 27 83 46 51 57
REMARK Flexibility Score: inf
ROOT
ATOM      1  C   UNL     1      -1.383  -1.276   4.774  1.00  0.00     0.023 C 
ENDROOT
BRANCH   1   2
ATOM      2  C   UNL     1      -0.181  -0.334   4.615  1.00  0.00     0.116 C 
BRANCH   2   3
ATOM      3  N   UNL     1       0.931  -0.852   3.834  1.00  0.00    -0.356 N 
ATOM      4  C   UNL     1       1.318  -0.725   2.530  1.00  0.00     0.225 C 
ATOM      5  O   UNL     1       2.369  -1.306   2.235  1.00  0.00    -0.275 OA
ATOM      6  H   UNL     1       1.538  -1.420   4.362  1.00  0.00     0.163 HD
BRANCH   4   7
ATOM      7  C   UNL     1       0.523   0.067   1.468  1.00  0.00     0.044 C 
ATOM      8  C   UNL     1       1.194  -0.101   0.085  1.00  0.00     0.021 C 
ATOM      9  C   UNL     1       0.705   1.559   1.843  1.00  0.00     0.021 C 
BRANCH   7  10
ATOM     10  C   UNL     1      -0.990  -0.293   1.339  1.00  0.00     0.021 C 
BRANCH  10  11
ATOM     11  C   UNL     1      -1.491  -1.541   0.532  1.00  0.00     0.037 C 
BRANCH  11  12
ATOM     12  C   UNL     1      -1.286  -2.998   0.947  1.00  0.00    -0.040 A 
ATOM     13  C   UNL     1      -0.419  -3.325   1.981  1.00  0.00     0.006 A 
ATOM     14  C   UNL     1      -1.945  -4.085   0.288  1.00  0.00    -0.014 A 
ATOM     15  C   UNL     1      -0.120  -4.628   2.354  1.00  0.00     0.021 A 
ATOM     16  C   UNL     1      -1.675  -5.436   0.688  1.00  0.00     0.001 A 
ATOM     17  C   UNL     1      -2.882  -3.896  -0.753  1.00  0.00     0.009 A 
ATOM     18  C   UNL     1      -0.740  -5.681   1.712  1.00  0.00     0.048 A 
ATOM     19  C   UNL     1      -2.356  -6.496   0.052  1.00  0.00     0.010 A 
ATOM     20  C   UNL     1      -3.546  -4.967  -1.359  1.00  0.00     0.001 A 
ATOM     21  Cl  UNL     1      -0.310  -7.268   2.260  1.00  0.00    -0.084 Cl
ATOM     22  C   UNL     1      -3.286  -6.266  -0.954  1.00  0.00     0.001 A 
ENDBRANCH  11  12
ENDBRANCH  10  11
ENDBRANCH   7  10
ENDBRANCH   4   7
ENDBRANCH   2   3
ENDBRANCH   1   2
BRANCH   1  23
ATOM     23  C   UNL     1      -1.137  -2.620   5.450  1.00  0.00     0.023 C 
BRANCH  23  24
ATOM     24  C   UNL     1      -0.452  -2.569   6.801  1.00  0.00     0.116 C 
BRANCH  24  25
ATOM     25  N   UNL     1      -1.138  -1.715   7.751  1.00  0.00    -0.352 N 
ATOM     26  C   UNL     1      -1.442  -1.938   9.070  1.00  0.00     0.251 C 
ATOM     27  H   UNL     1      -1.430  -0.845   7.396  1.00  0.00     0.163 HD
ATOM     28  O   UNL     1      -2.148  -1.135   9.670  1.00  0.00    -0.269 OA
BRANCH  26  29
ATOM     29  C   UNL     1      -0.955  -3.154   9.759  1.00  0.00     0.039 A 
ATOM     30  C   UNL     1      -1.817  -3.794  10.654  1.00  0.00     0.014 A 
ATOM     31  C   UNL     1       0.330  -3.661   9.546  1.00  0.00     0.014 A 
ATOM     32  C   UNL     1      -1.408  -4.966  11.290  1.00  0.00     0.010 A 
ATOM     33  C   UNL     1       0.701  -4.880  10.108  1.00  0.00     0.010 A 
ATOM     34  C   UNL     1      -0.160  -5.539  10.995  1.00  0.00    -0.014 A 
BRANCH  34  35
ATOM     35  C   UNL     1       0.233  -6.834  11.605  1.00  0.00     0.031 A 
ATOM     36  C   UNL     1       1.412  -6.923  12.532  1.00  0.00     0.074 A 
ATOM     37  C   UNL     1      -0.469  -7.942  11.298  1.00  0.00     0.049 A 
ATOM     38  N   UNL     1       1.866  -7.957  13.195  1.00  0.00    -0.248 NA
ATOM     39  C   UNL     1       2.204  -5.698  12.721  1.00  0.00     0.031 C 
ATOM     40  C   UNL     1      -1.585  -7.996  10.351  1.00  0.00     0.029 A 
ATOM     41  N   UNL     1      -0.355  -9.231  11.751  1.00  0.00    -0.354 N 
ATOM     42  C   UNL     1       2.994  -7.510  13.871  1.00  0.00     0.074 A 
ATOM     43  C   UNL     1       3.194  -6.129  13.489  1.00  0.00     0.031 C 
ATOM     44  C   UNL     1      -2.080  -9.242  10.326  1.00  0.00     0.029 A 
ATOM     45  C   UNL     1      -1.298 -10.082  11.228  1.00  0.00     0.049 A 
ATOM     46  H   UNL     1       0.336  -9.519  12.389  1.00  0.00     0.167 HD
ATOM     47  C   UNL     1       3.776  -8.183  14.749  1.00  0.00     0.037 A 
ATOM     48  C   UNL     1      -1.514 -11.390  11.458  1.00  0.00     0.037 A 
ATOM     49  C   UNL     1       3.563  -9.555  15.133  1.00  0.00     0.049 A 
ATOM     50  C   UNL     1      -0.648 -12.108  12.455  1.00  0.00     0.074 A 
ATOM     51  C   UNL     1       4.256 -10.310  16.062  1.00  0.00     0.029 A 
ATOM     52  N   UNL     1       2.586 -10.383  14.595  1.00  0.00    -0.354 N 
ATOM     53  N   UNL     1       0.357 -11.650  13.162  1.00  0.00    -0.248 NA
ATOM     54  C   UNL     1      -0.959 -13.522  12.700  1.00  0.00     0.031 C 
ATOM     55  C   UNL     1       3.737 -11.610  16.046  1.00  0.00     0.029 A 
ATOM     56  C   UNL     1       2.677 -11.649  15.155  1.00  0.00     0.049 A 
ATOM     57  H   UNL     1       1.927 -10.112  13.917  1.00  0.00     0.167 HD
ATOM     58  C   UNL     1       0.782 -12.709  13.953  1.00  0.00     0.074 A 
ATOM     59  C   UNL     1      -0.092 -13.825  13.655  1.00  0.00     0.031 C 
ATOM     60  C   UNL     1       1.804 -12.754  14.844  1.00  0.00     0.037 A 
BRANCH  47  61
ATOM     61  C   UNL     1       4.937  -7.444  15.354  1.00  0.00     0.064 A 
ATOM     62  C   UNL     1       4.751  -6.379  16.250  1.00  0.00     0.173 A 
ATOM     63  C   UNL     1       6.255  -7.824  15.058  1.00  0.00     0.173 A 
ATOM     64  F   UNL     1       3.513  -5.966  16.561  1.00  0.00    -0.203 F 
ATOM     65  C   UNL     1       5.838  -5.702  16.798  1.00  0.00     0.198 A 
ATOM     66  C   UNL     1       7.339  -7.167  15.635  1.00  0.00     0.198 A 
ATOM     67  F   UNL     1       6.494  -8.838  14.213  1.00  0.00    -0.203 F 
ATOM     68  F   UNL     1       5.633  -4.651  17.605  1.00  0.00    -0.200 F 
ATOM     69  C   UNL     1       7.130  -6.101  16.496  1.00  0.00     0.200 A 
ATOM     70  F   UNL     1       8.588  -7.564  15.354  1.00  0.00    -0.200 F 
ATOM     71  F   UNL     1       8.175  -5.453  17.029  1.00  0.00    -0.200 F 
ENDBRANCH  47  61
BRANCH  48  72
ATOM     72  C   UNL     1      -2.623 -12.090  10.758  1.00  0.00     0.064 A 
ATOM     73  C   UNL     1      -3.758 -12.528  11.456  1.00  0.00     0.173 A 
ATOM     74  C   UNL     1      -2.577 -12.325   9.376  1.00  0.00     0.173 A 
ATOM     75  F   UNL     1      -3.842 -12.341  12.781  1.00  0.00    -0.203 F 
ATOM     76  C   UNL     1      -4.793 -13.193  10.802  1.00  0.00     0.198 A 
ATOM     77  C   UNL     1      -3.627 -12.962   8.718  1.00  0.00     0.198 A 
ATOM     78  F   UNL     1      -1.518 -11.918   8.660  1.00  0.00    -0.203 F 
ATOM     79  F   UNL     1      -5.844 -13.643  11.502  1.00  0.00    -0.200 F 
ATOM     80  C   UNL     1      -4.730 -13.404   9.433  1.00  0.00     0.200 A 
ATOM     81  F   UNL     1      -3.571 -13.147   7.392  1.00  0.00    -0.200 F 
ATOM     82  F   UNL     1      -5.730 -14.036   8.804  1.00  0.00    -0.200 F 
ENDBRANCH  48  72
BRANCH  60  83
ATOM     83  C   UNL     1       2.008 -14.047  15.582  1.00  0.00     0.064 A 
ATOM     84  C   UNL     1       2.457 -15.208  14.934  1.00  0.00     0.173 A 
ATOM     85  C   UNL     1       1.753 -14.124  16.960  1.00  0.00     0.173 A 
ATOM     86  F   UNL     1       2.703 -15.192  13.615  1.00  0.00    -0.203 F 
ATOM     87  C   UNL     1       2.596 -16.407  15.627  1.00  0.00     0.198 A 
ATOM     88  C   UNL     1       1.931 -15.315  17.658  1.00  0.00     0.198 A 
ATOM     89  F   UNL     1       1.332 -13.042  17.633  1.00  0.00    -0.203 F 
ATOM     90  F   UNL     1       2.956 -17.519  14.972  1.00  0.00    -0.200 F 
ATOM     91  C   UNL     1       2.338 -16.459  16.989  1.00  0.00     0.200 A 
ATOM     92  F   UNL     1       1.697 -15.359  18.977  1.00  0.00    -0.200 F 
ATOM     93  F   UNL     1       2.470 -17.615  17.654  1.00  0.00    -0.200 F 
ENDBRANCH  60  83
ENDBRANCH  34  35
ENDBRANCH  26  29
ENDBRANCH  24  25
ENDBRANCH  23  24
ENDBRANCH   1  23
TORSDOF 14
