REMARK SMILES O=C(NCCCCNC(=O)c1cccn2c(=O)c3ccc(Cl)cc3nc12)c1ccc(-c2c3nc(c(-c4c(F)c(F)c(F)c(F)c4F)c4ccc([nH]4)c(-c4c(F)c(F)c(F)c(F)c4F)c4nc(c(-c5c(F)c(F)c(F)c(F)c5F)c5ccc2[nH]5)C=C4)C=C3)cc1
REMARK SMILES IDX 4 1 3 2 1 3 2 4 27 6 28 7 89 8 29 9 88 10 30 11 31 12 32 13
REMARK SMILES IDX 82 14 33 15 87 16 81 17 83 18 34 19 86 20 80 21 79 22 35 24
REMARK SMILES IDX 67 25 47 26 66 27 48 28 51 29 65 30 84 31 49 32 50 33 64 35
REMARK SMILES IDX 85 36 52 37 36 38 37 39 45 40 38 41 39 42 43 43 46 44 40 45
REMARK SMILES IDX 41 46 44 47 42 48 68 49 69 50 77 51 70 52 71 53 75 54 78 55
REMARK SMILES IDX 72 56 73 57 76 58 74 59 53 60 54 61 62 62 55 63 56 64 60 65
REMARK SMILES IDX 63 66 57 67 58 68 61 69 59 70 5 71 6 72 7 73 8 74 9 75 10 77
REMARK SMILES IDX 11 78 12 79 26 80 13 81 15 82 25 83 14 84 16 85 24 86 17 87
REMARK SMILES IDX 18 88 23 89 19 90 21 91 20 92 22 93
REMARK H PARENT 3 5 83 23 51 34 8 76
REMARK Flexibility Score: inf
ROOT
ATOM      1  C   UNL     1       4.607  -0.992  -0.776  1.00  0.00     0.116 C 
ENDROOT
BRANCH   1   2
ATOM      2  N   UNL     1       3.182  -0.716  -0.815  1.00  0.00    -0.352 N 
ATOM      3  O   UNL     1       1.171  -0.009  -0.099  1.00  0.00    -0.269 OA
ATOM      4  C   UNL     1       2.392  -0.006   0.055  1.00  0.00     0.251 C 
ATOM      5  H   UNL     1       2.707  -1.098  -1.588  1.00  0.00     0.163 HD
BRANCH   4   6
ATOM      6  C   UNL     1       2.984   0.748   1.183  1.00  0.00     0.039 A 
ATOM      7  C   UNL     1       2.299   0.778   2.401  1.00  0.00     0.014 A 
ATOM      8  C   UNL     1       4.171   1.469   1.040  1.00  0.00     0.014 A 
ATOM      9  C   UNL     1       2.812   1.511   3.473  1.00  0.00     0.010 A 
ATOM     10  C   UNL     1       4.737   2.111   2.137  1.00  0.00     0.010 A 
ATOM     11  C   UNL     1       4.041   2.179   3.352  1.00  0.00    -0.014 A 
BRANCH  11  12
ATOM     12  C   UNL     1       4.551   3.044   4.446  1.00  0.00     0.031 A 
ATOM     13  C   UNL     1       4.681   4.527   4.220  1.00  0.00     0.074 A 
ATOM     14  C   UNL     1       4.903   2.509   5.630  1.00  0.00     0.049 A 
ATOM     15  N   UNL     1       5.103   5.457   5.039  1.00  0.00    -0.248 NA
ATOM     16  C   UNL     1       4.319   5.032   2.885  1.00  0.00     0.031 C 
ATOM     17  C   UNL     1       4.862   1.085   5.958  1.00  0.00     0.029 A 
ATOM     18  N   UNL     1       5.354   3.105   6.782  1.00  0.00    -0.354 N 
ATOM     19  C   UNL     1       5.067   6.641   4.314  1.00  0.00     0.074 A 
ATOM     20  C   UNL     1       4.661   6.307   2.970  1.00  0.00     0.031 C 
ATOM     21  C   UNL     1       5.226   0.920   7.241  1.00  0.00     0.029 A 
ATOM     22  C   UNL     1       5.554   2.223   7.816  1.00  0.00     0.049 A 
ATOM     23  H   UNL     1       5.518   4.072   6.859  1.00  0.00     0.167 HD
ATOM     24  C   UNL     1       5.306   7.903   4.741  1.00  0.00     0.037 A 
ATOM     25  C   UNL     1       5.945   2.444   9.086  1.00  0.00     0.037 A 
ATOM     26  C   UNL     1       5.654   8.241   6.093  1.00  0.00     0.049 A 
ATOM     27  C   UNL     1       6.223   3.853   9.537  1.00  0.00     0.074 A 
ATOM     28  C   UNL     1       5.833   9.494   6.648  1.00  0.00     0.029 A 
ATOM     29  N   UNL     1       5.873   7.316   7.103  1.00  0.00    -0.354 N 
ATOM     30  N   UNL     1       6.109   4.973   8.864  1.00  0.00    -0.248 NA
ATOM     31  C   UNL     1       6.687   4.031  10.921  1.00  0.00     0.031 C 
ATOM     32  C   UNL     1       6.205   9.327   7.984  1.00  0.00     0.029 A 
ATOM     33  C   UNL     1       6.219   7.970   8.272  1.00  0.00     0.049 A 
ATOM     34  H   UNL     1       5.793   6.339   7.003  1.00  0.00     0.167 HD
ATOM     35  C   UNL     1       6.474   5.985   9.741  1.00  0.00     0.074 A 
ATOM     36  C   UNL     1       6.797   5.351  11.002  1.00  0.00     0.031 C 
ATOM     37  C   UNL     1       6.539   7.320   9.517  1.00  0.00     0.037 A 
BRANCH  24  38
ATOM     38  C   UNL     1       5.170   9.012   3.740  1.00  0.00     0.064 A 
ATOM     39  C   UNL     1       3.919   9.387   3.226  1.00  0.00     0.173 A 
ATOM     40  C   UNL     1       6.297   9.729   3.311  1.00  0.00     0.173 A 
ATOM     41  F   UNL     1       2.812   8.725   3.596  1.00  0.00    -0.203 F 
ATOM     42  C   UNL     1       3.805  10.414   2.294  1.00  0.00     0.198 A 
ATOM     43  C   UNL     1       6.175  10.777   2.402  1.00  0.00     0.198 A 
ATOM     44  F   UNL     1       7.516   9.415   3.775  1.00  0.00    -0.203 F 
ATOM     45  F   UNL     1       2.606  10.717   1.776  1.00  0.00    -0.200 F 
ATOM     46  C   UNL     1       4.931  11.113   1.888  1.00  0.00     0.200 A 
ATOM     47  F   UNL     1       7.263  11.460   2.020  1.00  0.00    -0.200 F 
ATOM     48  F   UNL     1       4.819  12.106   0.995  1.00  0.00    -0.200 F 
ENDBRANCH  24  38
BRANCH  25  49
ATOM     49  C   UNL     1       6.044   1.301  10.029  1.00  0.00     0.064 A 
ATOM     50  C   UNL     1       5.101   1.137  11.053  1.00  0.00     0.173 A 
ATOM     51  C   UNL     1       7.048   0.331   9.904  1.00  0.00     0.173 A 
ATOM     52  F   UNL     1       4.133   2.050  11.225  1.00  0.00    -0.203 F 
ATOM     53  C   UNL     1       5.158   0.044  11.915  1.00  0.00     0.198 A 
ATOM     54  C   UNL     1       7.091  -0.774  10.753  1.00  0.00     0.198 A 
ATOM     55  F   UNL     1       7.972   0.442   8.938  1.00  0.00    -0.203 F 
ATOM     56  F   UNL     1       4.256  -0.079  12.899  1.00  0.00    -0.200 F 
ATOM     57  C   UNL     1       6.147  -0.916  11.759  1.00  0.00     0.200 A 
ATOM     58  F   UNL     1       8.040  -1.706  10.589  1.00  0.00    -0.200 F 
ATOM     59  F   UNL     1       6.191  -1.976  12.577  1.00  0.00    -0.200 F 
ENDBRANCH  25  49
BRANCH  37  60
ATOM     60  C   UNL     1       6.987   8.201  10.644  1.00  0.00     0.064 A 
ATOM     61  C   UNL     1       8.339   8.279  11.005  1.00  0.00     0.173 A 
ATOM     62  C   UNL     1       6.083   9.067  11.278  1.00  0.00     0.173 A 
ATOM     63  F   UNL     1       9.238   7.463  10.434  1.00  0.00    -0.203 F 
ATOM     64  C   UNL     1       8.772   9.198  11.957  1.00  0.00     0.198 A 
ATOM     65  C   UNL     1       6.523  10.001  12.210  1.00  0.00     0.198 A 
ATOM     66  F   UNL     1       4.780   9.036  10.957  1.00  0.00    -0.203 F 
ATOM     67  F   UNL     1      10.067   9.249  12.296  1.00  0.00    -0.200 F 
ATOM     68  C   UNL     1       7.866  10.067  12.548  1.00  0.00     0.200 A 
ATOM     69  F   UNL     1       5.650  10.853  12.766  1.00  0.00    -0.200 F 
ATOM     70  F   UNL     1       8.290  10.973  13.440  1.00  0.00    -0.200 F 
ENDBRANCH  37  60
ENDBRANCH  11  12
ENDBRANCH   4   6
ENDBRANCH   1   2
BRANCH   1  71
ATOM     71  C   UNL     1       4.929  -2.480  -0.796  1.00  0.00     0.023 C 
BRANCH  71  72
ATOM     72  C   UNL     1       4.426  -3.244  -2.017  1.00  0.00     0.023 C 
BRANCH  72  73
ATOM     73  C   UNL     1       4.792  -2.636  -3.366  1.00  0.00     0.116 C 
BRANCH  73  74
ATOM     74  N   UNL     1       6.227  -2.525  -3.572  1.00  0.00    -0.352 N 
ATOM     75  C   UNL     1       6.991  -2.999  -4.606  1.00  0.00     0.255 C 
ATOM     76  H   UNL     1       6.720  -2.041  -2.870  1.00  0.00     0.163 HD
ATOM     77  O   UNL     1       8.200  -2.781  -4.625  1.00  0.00    -0.269 OA
BRANCH  75  78
ATOM     78  C   UNL     1       6.311  -3.732  -5.696  1.00  0.00     0.083 A 
ATOM     79  C   UNL     1       5.435  -3.056  -6.459  1.00  0.00     0.019 A 
ATOM     80  C   UNL     1       6.587  -5.176  -5.981  1.00  0.00     0.153 A 
ATOM     81  C   UNL     1       4.654  -3.736  -7.454  1.00  0.00     0.019 A 
ATOM     82  N   UNL     1       5.786  -5.779  -6.958  1.00  0.00    -0.267 N 
ATOM     83  N   UNL     1       7.512  -5.811  -5.329  1.00  0.00    -0.229 NA
ATOM     84  C   UNL     1       4.831  -5.046  -7.655  1.00  0.00     0.096 A 
ATOM     85  C   UNL     1       5.919  -7.138  -7.255  1.00  0.00     0.265 A 
ATOM     86  C   UNL     1       7.777  -7.145  -5.651  1.00  0.00     0.080 A 
ATOM     87  O   UNL     1       5.197  -7.760  -8.034  1.00  0.00    -0.268 OA
ATOM     88  C   UNL     1       7.016  -7.851  -6.579  1.00  0.00     0.066 A 
ATOM     89  C   UNL     1       8.854  -7.786  -5.034  1.00  0.00     0.049 A 
ATOM     90  C   UNL     1       7.305  -9.187  -6.887  1.00  0.00     0.017 A 
ATOM     91  C   UNL     1       9.155  -9.113  -5.344  1.00  0.00     0.043 A 
ATOM     92  C   UNL     1       8.382  -9.818  -6.265  1.00  0.00     0.021 A 
ATOM     93  Cl  UNL     1      10.495  -9.886  -4.591  1.00  0.00    -0.084 Cl
ENDBRANCH  75  78
ENDBRANCH  73  74
ENDBRANCH  72  73
ENDBRANCH  71  72
ENDBRANCH   1  71
TORSDOF 11
