REMARK SMILES N#C[C@H]1CN(c2cc(C(=O)NCCCCNC(=O)c3ccc(-c4c5nc(c(-c6c(F)c(F)c(F)c(F)c6F)c6ccc([nH]6)c(-c6c(F)c(F)c(F)c(F)c6F)c6nc(c(-c7c(F)c(F)c(F)c(F)c7F)c7ccc4[nH]7)C=C6)C=C5)cc3)c(N)cc2F)CCO1
REMARK SMILES IDX 13 1 12 2 11 3 9 4 10 5 8 7 6 8 7 9 85 10 84 11 86 12 82 13
REMARK SMILES IDX 5 14 3 15 4 16 89 17 88 18 87 19 2 20 1 21 83 22 14 25 15 26
REMARK SMILES IDX 16 27 17 28 18 30 19 31 20 32 81 33 21 34 80 35 22 36 23 37
REMARK SMILES IDX 24 38 74 39 25 40 79 41 73 42 75 43 26 44 78 45 72 46 71 47
REMARK SMILES IDX 27 49 59 50 39 51 58 52 40 53 43 54 57 55 76 56 41 57 42 58
REMARK SMILES IDX 56 60 77 61 44 62 28 63 29 64 37 65 30 66 31 67 35 68 38 69
REMARK SMILES IDX 32 70 33 71 36 72 34 73 60 74 61 75 69 76 62 77 63 78 67 79
REMARK SMILES IDX 70 80 64 81 65 82 68 83 66 84 45 85 46 86 54 87 47 88 48 89
REMARK SMILES IDX 52 90 55 91 49 92 50 93 53 94 51 95
REMARK H PARENT 11 6 83 23 83 24 16 29 75 48 43 59
REMARK Flexibility Score: inf
ROOT
ATOM      1  C   UNL     1       0.291   6.756  -5.852  1.00  0.00     0.023 C 
ENDROOT
BRANCH   1   2
ATOM      2  C   UNL     1       1.073   5.463  -6.033  1.00  0.00     0.116 C 
BRANCH   2   3
ATOM      3  N   UNL     1       2.482   5.514  -5.696  1.00  0.00    -0.352 N 
ATOM      4  C   UNL     1       3.310   4.508  -5.237  1.00  0.00     0.253 C 
ATOM      5  O   UNL     1       4.501   4.780  -5.077  1.00  0.00    -0.269 OA
ATOM      6  H   UNL     1       2.911   6.392  -5.812  1.00  0.00     0.163 HD
BRANCH   4   7
ATOM      7  C   UNL     1       2.817   3.144  -4.854  1.00  0.00     0.065 A 
ATOM      8  C   UNL     1       3.129   1.266  -3.295  1.00  0.00     0.074 A 
ATOM      9  C   UNL     1       3.483   2.539  -3.759  1.00  0.00     0.045 A 
ATOM     10  C   UNL     1       1.974   0.694  -3.841  1.00  0.00     0.148 A 
ATOM     11  C   UNL     1       1.319   1.256  -4.927  1.00  0.00     0.067 A 
ATOM     12  F   UNL     1       1.506  -0.467  -3.356  1.00  0.00    -0.205 F 
ATOM     13  C   UNL     1       1.817   2.414  -5.527  1.00  0.00     0.047 A 
BRANCH   8  14
ATOM     14  N   UNL     1       3.938   0.569  -2.424  1.00  0.00    -0.363 N 
ATOM     15  C   UNL     1       3.768  -0.022  -0.036  1.00  0.00     0.240 C 
ATOM     16  C   UNL     1       4.266   1.024  -1.069  1.00  0.00     0.164 C 
ATOM     17  O   UNL     1       4.255  -1.351  -0.354  1.00  0.00    -0.360 OA
ATOM     18  C   UNL     1       3.806  -1.761  -1.657  1.00  0.00     0.183 C 
ATOM     19  C   UNL     1       4.327  -0.813  -2.742  1.00  0.00     0.145 C 
BRANCH  15  20
ATOM     20  C   UNL     1       4.217   0.361   1.316  1.00  0.00     0.096 C 
ATOM     21  N   UNL     1       4.559   0.680   2.376  1.00  0.00    -0.195 NA
ENDBRANCH  15  20
ENDBRANCH   8  14
BRANCH  13  22
ATOM     22  N   UNL     1       1.300   2.750  -6.773  1.00  0.00    -0.398 N 
ATOM     23  H   UNL     1       1.619   3.557  -7.237  1.00  0.00     0.156 HD
ATOM     24  H   UNL     1       0.614   2.180  -7.192  1.00  0.00     0.156 HD
ENDBRANCH  13  22
ENDBRANCH   4   7
ENDBRANCH   2   3
ENDBRANCH   1   2
BRANCH   1  25
ATOM     25  C   UNL     1       0.745   7.945  -6.691  1.00  0.00     0.023 C 
BRANCH  25  26
ATOM     26  C   UNL     1       0.955   7.677  -8.177  1.00  0.00     0.116 C 
BRANCH  26  27
ATOM     27  N   UNL     1      -0.255   7.266  -8.879  1.00  0.00    -0.352 N 
ATOM     28  C   UNL     1      -0.942   7.895  -9.894  1.00  0.00     0.251 C 
ATOM     29  H   UNL     1      -0.639   6.409  -8.583  1.00  0.00     0.163 HD
ATOM     30  O   UNL     1      -2.014   7.449 -10.289  1.00  0.00    -0.269 OA
BRANCH  28  31
ATOM     31  C   UNL     1      -0.399   9.137 -10.482  1.00  0.00     0.039 A 
ATOM     32  C   UNL     1      -1.234  10.247 -10.629  1.00  0.00     0.014 A 
ATOM     33  C   UNL     1       0.947   9.220 -10.843  1.00  0.00     0.014 A 
ATOM     34  C   UNL     1      -0.694  11.468 -11.043  1.00  0.00     0.010 A 
ATOM     35  C   UNL     1       1.501  10.457 -11.149  1.00  0.00     0.010 A 
ATOM     36  C   UNL     1       0.688  11.597 -11.255  1.00  0.00    -0.014 A 
BRANCH  36  37
ATOM     37  C   UNL     1       1.311  12.900 -11.608  1.00  0.00     0.031 A 
ATOM     38  C   UNL     1       2.064  13.038 -12.905  1.00  0.00     0.074 A 
ATOM     39  C   UNL     1       1.264  13.933 -10.742  1.00  0.00     0.049 A 
ATOM     40  N   UNL     1       2.778  14.042 -13.347  1.00  0.00    -0.248 NA
ATOM     41  C   UNL     1       2.036  11.879 -13.814  1.00  0.00     0.031 C 
ATOM     42  C   UNL     1       0.598  13.919  -9.438  1.00  0.00     0.029 A 
ATOM     43  N   UNL     1       1.803  15.195 -10.821  1.00  0.00    -0.354 N 
ATOM     44  C   UNL     1       3.284  13.632 -14.574  1.00  0.00     0.074 A 
ATOM     45  C   UNL     1       2.859  12.266 -14.776  1.00  0.00     0.031 C 
ATOM     46  C   UNL     1       0.748  15.118  -8.852  1.00  0.00     0.029 A 
ATOM     47  C   UNL     1       1.565  15.970  -9.710  1.00  0.00     0.049 A 
ATOM     48  H   UNL     1       2.312  15.514 -11.601  1.00  0.00     0.167 HD
ATOM     49  C   UNL     1       4.011  14.342 -15.469  1.00  0.00     0.037 A 
ATOM     50  C   UNL     1       1.978  17.218  -9.411  1.00  0.00     0.037 A 
ATOM     51  C   UNL     1       4.419  15.708 -15.275  1.00  0.00     0.049 A 
ATOM     52  C   UNL     1       2.832  17.965 -10.406  1.00  0.00     0.074 A 
ATOM     53  C   UNL     1       5.133  16.523 -16.136  1.00  0.00     0.029 A 
ATOM     54  N   UNL     1       4.148  16.460 -14.142  1.00  0.00    -0.354 N 
ATOM     55  N   UNL     1       3.256  17.584 -11.587  1.00  0.00    -0.248 NA
ATOM     56  C   UNL     1       3.259  19.320 -10.029  1.00  0.00     0.031 C 
ATOM     57  C   UNL     1       5.345  17.749 -15.500  1.00  0.00     0.029 A 
ATOM     58  C   UNL     1       4.697  17.724 -14.276  1.00  0.00     0.049 A 
ATOM     59  H   UNL     1       3.641  16.142 -13.360  1.00  0.00     0.167 HD
ATOM     60  C   UNL     1       3.952  18.667 -12.110  1.00  0.00     0.074 A 
ATOM     61  C   UNL     1       3.886  19.723 -11.124  1.00  0.00     0.031 C 
ATOM     62  C   UNL     1       4.590  18.778 -13.301  1.00  0.00     0.037 A 
BRANCH  49  63
ATOM     63  C   UNL     1       4.400  13.665 -16.751  1.00  0.00     0.064 A 
ATOM     64  C   UNL     1       3.446  13.340 -17.727  1.00  0.00     0.173 A 
ATOM     65  C   UNL     1       5.747  13.398 -17.037  1.00  0.00     0.173 A 
ATOM     66  F   UNL     1       2.142  13.562 -17.499  1.00  0.00    -0.203 F 
ATOM     67  C   UNL     1       3.824  12.758 -18.934  1.00  0.00     0.198 A 
ATOM     68  C   UNL     1       6.125  12.848 -18.259  1.00  0.00     0.198 A 
ATOM     69  F   UNL     1       6.701  13.693 -16.141  1.00  0.00    -0.203 F 
ATOM     70  F   UNL     1       2.890  12.418 -19.833  1.00  0.00    -0.200 F 
ATOM     71  C   UNL     1       5.163  12.523 -19.203  1.00  0.00     0.200 A 
ATOM     72  F   UNL     1       7.422  12.639 -18.525  1.00  0.00    -0.200 F 
ATOM     73  F   UNL     1       5.527  11.981 -20.374  1.00  0.00    -0.200 F 
ENDBRANCH  49  63
BRANCH  50  74
ATOM     74  C   UNL     1       1.605  17.854  -8.116  1.00  0.00     0.064 A 
ATOM     75  C   UNL     1       0.810  19.011  -8.081  1.00  0.00     0.173 A 
ATOM     76  C   UNL     1       2.088  17.365  -6.894  1.00  0.00     0.173 A 
ATOM     77  F   UNL     1       0.336  19.532  -9.222  1.00  0.00    -0.203 F 
ATOM     78  C   UNL     1       0.560  19.680  -6.884  1.00  0.00     0.198 A 
ATOM     79  C   UNL     1       1.802  18.011  -5.692  1.00  0.00     0.198 A 
ATOM     80  F   UNL     1       2.846  16.259  -6.864  1.00  0.00    -0.203 F 
ATOM     81  F   UNL     1      -0.130  20.828  -6.894  1.00  0.00    -0.200 F 
ATOM     82  C   UNL     1       1.054  19.178  -5.690  1.00  0.00     0.200 A 
ATOM     83  F   UNL     1       2.266  17.512  -4.539  1.00  0.00    -0.200 F 
ATOM     84  F   UNL     1       0.824  19.828  -4.541  1.00  0.00    -0.200 F 
ENDBRANCH  50  74
BRANCH  62  85
ATOM     85  C   UNL     1       5.196  20.108 -13.649  1.00  0.00     0.064 A 
ATOM     86  C   UNL     1       6.327  20.609 -12.988  1.00  0.00     0.173 A 
ATOM     87  C   UNL     1       4.664  20.867 -14.704  1.00  0.00     0.173 A 
ATOM     88  F   UNL     1       6.868  19.930 -11.966  1.00  0.00    -0.203 F 
ATOM     89  C   UNL     1       6.884  21.833 -13.351  1.00  0.00     0.198 A 
ATOM     90  C   UNL     1       5.247  22.070 -15.090  1.00  0.00     0.198 A 
ATOM     91  F   UNL     1       3.588  20.430 -15.377  1.00  0.00    -0.203 F 
ATOM     92  F   UNL     1       7.932  22.317 -12.671  1.00  0.00    -0.200 F 
ATOM     93  C   UNL     1       6.351  22.556 -14.408  1.00  0.00     0.200 A 
ATOM     94  F   UNL     1       4.743  22.755 -16.125  1.00  0.00    -0.200 F 
ATOM     95  F   UNL     1       6.899  23.726 -14.765  1.00  0.00    -0.200 F 
ENDBRANCH  62  85
ENDBRANCH  36  37
ENDBRANCH  28  31
ENDBRANCH  26  27
ENDBRANCH  25  26
ENDBRANCH   1  25
TORSDOF 14
