REMARK SMILES COc1cc([C@H]2[NH2+][C@@H](C(=O)NCCCCNC(=O)c3ccc(-c4c5nc(c(-c6c(F)c(F)c(F)c(F)c6F)c6ccc([nH]6)c(-c6c(F)c(F)c(F)c(F)c6F)c6nc(c(-c7c(F)c(F)c(F)c(F)c7F)c7ccc4[nH]7)C=C6)C=C5)cc3)CS2)cc([N+](=O)[O-])c1OC
REMARK SMILES IDX 13 1 12 2 11 3 9 4 10 5 8 7 6 8 7 9 83 10 82 13 5 14 3 15
REMARK SMILES IDX 4 16 89 17 85 18 84 19 2 20 1 21 90 22 91 23 86 24 87 25
REMARK SMILES IDX 88 26 14 27 15 28 16 29 17 30 18 32 19 33 20 34 81 35 21 36
REMARK SMILES IDX 80 37 22 38 23 39 24 40 74 41 25 42 79 43 73 44 75 45 26 46
REMARK SMILES IDX 78 47 72 48 71 49 27 51 59 52 39 53 58 54 40 55 43 56 57 57
REMARK SMILES IDX 76 58 41 59 42 60 56 62 77 63 44 64 28 65 29 66 37 67 30 68
REMARK SMILES IDX 31 69 35 70 38 71 32 72 33 73 36 74 34 75 60 76 61 77 69 78
REMARK SMILES IDX 62 79 63 80 67 81 70 82 64 83 65 84 68 85 66 86 45 87 46 88
REMARK SMILES IDX 54 89 47 90 48 91 52 92 55 93 49 94 50 95 53 96 51 97
REMARK H PARENT 11 6 7 11 7 12 16 31 75 50 43 61
REMARK Flexibility Score: inf
ROOT
ATOM      1  C   UNL     1      -0.484  12.203   1.374  1.00  0.00     0.023 C 
ENDROOT
BRANCH   1   2
ATOM      2  C   UNL     1      -1.074  10.846   1.002  1.00  0.00     0.116 C 
BRANCH   2   3
ATOM      3  N   UNL     1      -0.744  10.435  -0.349  1.00  0.00    -0.351 N 
ATOM      4  C   UNL     1      -0.329   9.270  -0.910  1.00  0.00     0.279 C 
ATOM      5  O   UNL     1      -0.284   9.288  -2.149  1.00  0.00    -0.268 OA
ATOM      6  H   UNL     1      -0.841  11.162  -1.005  1.00  0.00     0.163 HD
BRANCH   4   7
ATOM      7  C   UNL     1       0.130   8.008  -0.134  1.00  0.00     0.283 C 
ATOM      8  C   UNL     1      -0.014   5.624  -0.032  1.00  0.00     0.274 C 
ATOM      9  N   UNL     1      -0.386   6.787  -0.834  1.00  0.00    -0.321 N 
ATOM     10  S   UNL     1       0.088   6.139   1.708  1.00  0.00    -0.088 SA
ATOM     11  H   UNL     1      -1.401   6.840  -0.920  1.00  0.00     0.348 HD
ATOM     12  H   UNL     1       0.011   6.717  -1.771  1.00  0.00     0.348 HD
ATOM     13  C   UNL     1      -0.274   7.857   1.319  1.00  0.00     0.151 C 
BRANCH   8  14
ATOM     14  C   UNL     1      -0.958   4.446  -0.188  1.00  0.00     0.031 A 
ATOM     15  C   UNL     1      -1.277   2.071  -0.688  1.00  0.00     0.168 A 
ATOM     16  C   UNL     1      -0.493   3.239  -0.727  1.00  0.00     0.061 A 
ATOM     17  C   UNL     1      -2.545   2.069  -0.085  1.00  0.00     0.239 A 
ATOM     18  C   UNL     1      -3.041   3.302   0.372  1.00  0.00     0.315 A 
ATOM     19  C   UNL     1      -2.272   4.480   0.304  1.00  0.00     0.101 A 
BRANCH  15  20
ATOM     20  O   UNL     1      -0.694   0.906  -1.117  1.00  0.00    -0.493 OA
ATOM     21  C   UNL     1      -0.548   0.875  -2.538  1.00  0.00     0.278 C 
ENDBRANCH  15  20
BRANCH  17  22
ATOM     22  O   UNL     1      -3.298   0.961   0.190  1.00  0.00    -0.488 OA
ATOM     23  C   UNL     1      -3.126  -0.206  -0.599  1.00  0.00     0.279 C 
ENDBRANCH  17  22
BRANCH  18  24
ATOM     24  N   UNL     1      -4.371   3.404   0.981  1.00  0.00     0.066 N 
ATOM     25  O   UNL     1      -4.517   4.255   1.873  1.00  0.00    -0.258 OA
ATOM     26  O   UNL     1      -5.286   2.702   0.531  1.00  0.00    -0.258 OA
ENDBRANCH  18  24
ENDBRANCH   8  14
ENDBRANCH   4   7
ENDBRANCH   2   3
ENDBRANCH   1   2
BRANCH   1  27
ATOM     27  C   UNL     1      -1.034  13.396   0.598  1.00  0.00     0.023 C 
BRANCH  27  28
ATOM     28  C   UNL     1      -2.553  13.519   0.572  1.00  0.00     0.116 C 
BRANCH  28  29
ATOM     29  N   UNL     1      -3.153  13.563   1.898  1.00  0.00    -0.352 N 
ATOM     30  C   UNL     1      -4.021  14.482   2.437  1.00  0.00     0.251 C 
ATOM     31  H   UNL     1      -2.899  12.825   2.498  1.00  0.00     0.163 HD
ATOM     32  O   UNL     1      -4.337  14.416   3.621  1.00  0.00    -0.269 OA
BRANCH  30  33
ATOM     33  C   UNL     1      -4.543  15.578   1.595  1.00  0.00     0.039 A 
ATOM     34  C   UNL     1      -4.507  16.885   2.088  1.00  0.00     0.014 A 
ATOM     35  C   UNL     1      -5.028  15.322   0.311  1.00  0.00     0.014 A 
ATOM     36  C   UNL     1      -4.873  17.945   1.258  1.00  0.00     0.010 A 
ATOM     37  C   UNL     1      -5.307  16.384  -0.542  1.00  0.00     0.010 A 
ATOM     38  C   UNL     1      -5.230  17.706  -0.079  1.00  0.00    -0.014 A 
BRANCH  38  39
ATOM     39  C   UNL     1      -5.518  18.823  -1.014  1.00  0.00     0.031 A 
ATOM     40  C   UNL     1      -6.880  18.955  -1.634  1.00  0.00     0.074 A 
ATOM     41  C   UNL     1      -4.531  19.668  -1.367  1.00  0.00     0.049 A 
ATOM     42  N   UNL     1      -7.305  19.812  -2.527  1.00  0.00    -0.248 NA
ATOM     43  C   UNL     1      -7.890  17.968  -1.221  1.00  0.00     0.031 C 
ATOM     44  C   UNL     1      -3.153  19.612  -0.877  1.00  0.00     0.029 A 
ATOM     45  N   UNL     1      -4.533  20.736  -2.229  1.00  0.00    -0.354 N 
ATOM     46  C   UNL     1      -8.620  19.456  -2.796  1.00  0.00     0.074 A 
ATOM     47  C   UNL     1      -8.903  18.269  -2.018  1.00  0.00     0.031 C 
ATOM     48  C   UNL     1      -2.452  20.620  -1.419  1.00  0.00     0.029 A 
ATOM     49  C   UNL     1      -3.318  21.369  -2.325  1.00  0.00     0.049 A 
ATOM     50  H   UNL     1      -5.330  21.021  -2.732  1.00  0.00     0.167 HD
ATOM     51  C   UNL     1      -9.517  20.076  -3.599  1.00  0.00     0.037 A 
ATOM     52  C   UNL     1      -2.945  22.433  -3.061  1.00  0.00     0.037 A 
ATOM     53  C   UNL     1      -9.238  21.271  -4.349  1.00  0.00     0.049 A 
ATOM     54  C   UNL     1      -3.957  23.102  -3.949  1.00  0.00     0.074 A 
ATOM     55  C   UNL     1     -10.098  22.021  -5.131  1.00  0.00     0.029 A 
ATOM     56  N   UNL     1      -7.997  21.890  -4.414  1.00  0.00    -0.354 N 
ATOM     57  N   UNL     1      -5.220  22.805  -4.136  1.00  0.00    -0.248 NA
ATOM     58  C   UNL     1      -3.492  24.260  -4.726  1.00  0.00     0.031 C 
ATOM     59  C   UNL     1      -9.366  23.063  -5.711  1.00  0.00     0.029 A 
ATOM     60  C   UNL     1      -8.062  22.996  -5.246  1.00  0.00     0.049 A 
ATOM     61  H   UNL     1      -7.190  21.588  -3.938  1.00  0.00     0.167 HD
ATOM     62  C   UNL     1      -5.708  23.752  -5.026  1.00  0.00     0.074 A 
ATOM     63  C   UNL     1      -4.606  24.641  -5.334  1.00  0.00     0.031 C 
ATOM     64  C   UNL     1      -6.957  23.874  -5.540  1.00  0.00     0.037 A 
BRANCH  51  65
ATOM     65  C   UNL     1     -10.884  19.461  -3.705  1.00  0.00     0.064 A 
ATOM     66  C   UNL     1     -11.775  19.446  -2.620  1.00  0.00     0.173 A 
ATOM     67  C   UNL     1     -11.311  18.881  -4.909  1.00  0.00     0.173 A 
ATOM     68  F   UNL     1     -11.412  19.977  -1.442  1.00  0.00    -0.203 F 
ATOM     69  C   UNL     1     -13.021  18.834  -2.722  1.00  0.00     0.198 A 
ATOM     70  C   UNL     1     -12.572  18.300  -5.018  1.00  0.00     0.198 A 
ATOM     71  F   UNL     1     -10.504  18.872  -5.981  1.00  0.00    -0.203 F 
ATOM     72  F   UNL     1     -13.825  18.772  -1.652  1.00  0.00    -0.200 F 
ATOM     73  C   UNL     1     -13.420  18.265  -3.922  1.00  0.00     0.200 A 
ATOM     74  F   UNL     1     -12.962  17.763  -6.183  1.00  0.00    -0.200 F 
ATOM     75  F   UNL     1     -14.619  17.674  -4.019  1.00  0.00    -0.200 F 
ENDBRANCH  51  65
BRANCH  52  76
ATOM     76  C   UNL     1      -1.559  22.956  -2.951  1.00  0.00     0.064 A 
ATOM     77  C   UNL     1      -1.307  24.177  -2.310  1.00  0.00     0.173 A 
ATOM     78  C   UNL     1      -0.462  22.247  -3.461  1.00  0.00     0.173 A 
ATOM     79  F   UNL     1      -2.326  24.901  -1.824  1.00  0.00    -0.203 F 
ATOM     80  C   UNL     1      -0.011  24.675  -2.193  1.00  0.00     0.198 A 
ATOM     81  C   UNL     1       0.836  22.734  -3.321  1.00  0.00     0.198 A 
ATOM     82  F   UNL     1      -0.650  21.072  -4.078  1.00  0.00    -0.203 F 
ATOM     83  F   UNL     1       0.198  25.861  -1.606  1.00  0.00    -0.200 F 
ATOM     84  C   UNL     1       1.060  23.950  -2.692  1.00  0.00     0.200 A 
ATOM     85  F   UNL     1       1.870  22.023  -3.791  1.00  0.00    -0.200 F 
ATOM     86  F   UNL     1       2.308  24.423  -2.570  1.00  0.00    -0.200 F 
ENDBRANCH  52  76
BRANCH  64  87
ATOM     87  C   UNL     1      -7.210  25.030  -6.463  1.00  0.00     0.064 A 
ATOM     88  C   UNL     1      -6.684  25.066  -7.763  1.00  0.00     0.173 A 
ATOM     89  C   UNL     1      -8.025  26.098  -6.055  1.00  0.00     0.173 A 
ATOM     90  F   UNL     1      -5.886  24.078  -8.195  1.00  0.00    -0.203 F 
ATOM     91  C   UNL     1      -6.944  26.140  -8.611  1.00  0.00     0.198 A 
ATOM     92  C   UNL     1      -8.308  27.154  -6.916  1.00  0.00     0.198 A 
ATOM     93  F   UNL     1      -8.558  26.109  -4.824  1.00  0.00    -0.203 F 
ATOM     94  F   UNL     1      -6.391  26.176  -9.831  1.00  0.00    -0.200 F 
ATOM     95  C   UNL     1      -7.761  27.178  -8.190  1.00  0.00     0.200 A 
ATOM     96  F   UNL     1      -9.110  28.149  -6.513  1.00  0.00    -0.200 F 
ATOM     97  F   UNL     1      -8.017  28.206  -9.011  1.00  0.00    -0.200 F 
ENDBRANCH  64  87
ENDBRANCH  38  39
ENDBRANCH  30  33
ENDBRANCH  28  29
ENDBRANCH  27  28
ENDBRANCH   1  27
TORSDOF 15
