REMARK SMILES C=C(C)COc1cc2oc(=O)c(CC(=O)N3CCC[C@H](C(=O)NCCCCNC(=O)c4ccc(-c5c6nc(c(-c7c(F)c(F)c(F)c(F)c7F)c7ccc([nH]7)c(-c7c(F)c(F)c(F)c(F)c7F)c7nc(c(-c8c(F)c(F)c(F)c(F)c8F)c8ccc5[nH]8)C=C7)C=C6)cc4)C3)c(C)c2cc1Cl
REMARK SMILES IDX 21 1 22 2 23 3 20 5 16 6 17 7 94 8 18 9 19 10 14 11 15 12
REMARK SMILES IDX 13 13 12 14 6 15 7 16 99 17 8 18 98 19 100 20 9 21 97 22
REMARK SMILES IDX 10 23 95 24 11 25 96 26 5 27 4 28 2 29 1 30 3 31 24 32 25 33
REMARK SMILES IDX 26 34 27 35 28 36 29 37 30 39 31 40 32 41 93 42 33 43 92 44
REMARK SMILES IDX 34 45 35 46 36 47 86 48 37 49 91 50 85 51 87 52 38 53 90 54
REMARK SMILES IDX 84 55 83 56 39 58 71 59 51 60 70 61 52 62 55 63 69 64 88 65
REMARK SMILES IDX 53 66 54 67 68 69 89 70 56 71 40 72 41 73 49 74 42 75 43 76
REMARK SMILES IDX 47 77 50 78 44 79 45 80 48 81 46 82 72 83 73 84 81 85 74 86
REMARK SMILES IDX 75 87 79 88 82 89 76 90 77 91 80 92 78 93 57 94 58 95 66 96
REMARK SMILES IDX 59 97 60 98 64 99 67 100 61 101 62 102 65 103 63 104
REMARK H PARENT 23 4 28 38 87 57 55 68
REMARK Flexibility Score: inf
ROOT
ATOM      1  C   UNL     1      -4.175   5.304  -1.116  1.00  0.00     0.224 C 
ATOM      2  O   UNL     1      -3.639   4.225  -1.399  1.00  0.00    -0.275 OA
ATOM      3  N   UNL     1      -4.945   5.310   0.001  1.00  0.00    -0.356 N 
ATOM      4  H   UNL     1      -5.123   4.417   0.375  1.00  0.00     0.163 HD
ENDROOT
BRANCH   1   5
ATOM      5  C   UNL     1      -3.913   6.525  -2.010  1.00  0.00     0.098 C 
ATOM      6  N   UNL     1      -3.513   8.636  -0.721  1.00  0.00    -0.342 N 
ATOM      7  C   UNL     1      -4.538   9.350  -1.486  1.00  0.00     0.119 C 
ATOM      8  C   UNL     1      -2.904   7.516  -1.425  1.00  0.00     0.133 C 
ATOM      9  C   UNL     1      -5.646   8.442  -2.008  1.00  0.00     0.022 C 
ATOM     10  C   UNL     1      -5.138   7.162  -2.664  1.00  0.00     0.017 C 
BRANCH   6  11
ATOM     11  C   UNL     1      -3.261   9.035   0.585  1.00  0.00     0.227 C 
ATOM     12  O   UNL     1      -4.153   9.597   1.236  1.00  0.00    -0.275 OA
BRANCH  11  13
ATOM     13  C   UNL     1      -1.865   8.946   1.234  1.00  0.00     0.143 C 
BRANCH  13  14
ATOM     14  C   UNL     1      -0.978   7.758   0.987  1.00  0.00     0.051 A 
ATOM     15  C   UNL     1       1.292   3.335   0.089  1.00  0.00     0.142 A 
ATOM     16  C   UNL     1       1.354   4.601  -0.488  1.00  0.00     0.096 A 
ATOM     17  C   UNL     1       0.567   3.147   1.268  1.00  0.00     0.083 A 
ATOM     18  C   UNL     1       0.610   5.638   0.074  1.00  0.00     0.142 A 
ATOM     19  C   UNL     1      -0.196   4.195   1.798  1.00  0.00     0.036 A 
ATOM     20  Cl  UNL     1       0.574   1.644   2.115  1.00  0.00    -0.080 Cl
ATOM     21  O   UNL     1       0.737   6.892  -0.538  1.00  0.00    -0.422 OA
ATOM     22  C   UNL     1      -0.210   5.456   1.186  1.00  0.00     0.023 A 
ATOM     23  C   UNL     1       0.053   7.997  -0.065  1.00  0.00     0.340 A 
ATOM     24  C   UNL     1      -1.083   6.566   1.617  1.00  0.00    -0.029 A 
ATOM     25  O   UNL     1       0.235   9.104  -0.558  1.00  0.00    -0.246 OA
ATOM     26  C   UNL     1      -2.122   6.259   2.666  1.00  0.00     0.046 C 
BRANCH  15  27
ATOM     27  O   UNL     1       2.006   2.314  -0.479  1.00  0.00    -0.488 OA
BRANCH  27  28
ATOM     28  C   UNL     1       1.317   1.748  -1.609  1.00  0.00     0.260 C 
BRANCH  28  29
ATOM     29  C   UNL     1       0.542   0.521  -1.191  1.00  0.00    -0.043 C 
ATOM     30  C   UNL     1       1.159  -0.588  -0.749  1.00  0.00     0.011 C 
ATOM     31  C   UNL     1      -0.955   0.615  -1.269  1.00  0.00     0.042 C 
ENDBRANCH  28  29
ENDBRANCH  27  28
ENDBRANCH  15  27
ENDBRANCH  13  14
ENDBRANCH  11  13
ENDBRANCH   6  11
ENDBRANCH   1   5
BRANCH   3  32
ATOM     32  C   UNL     1      -5.551   6.394   0.740  1.00  0.00     0.116 C 
BRANCH  32  33
ATOM     33  C   UNL     1      -7.075   6.404   0.666  1.00  0.00     0.023 C 
BRANCH  33  34
ATOM     34  C   UNL     1      -7.779   5.700   1.823  1.00  0.00     0.023 C 
BRANCH  34  35
ATOM     35  C   UNL     1      -7.457   6.240   3.213  1.00  0.00     0.116 C 
BRANCH  35  36
ATOM     36  N   UNL     1      -7.733   7.658   3.412  1.00  0.00    -0.352 N 
ATOM     37  C   UNL     1      -8.069   8.290   4.595  1.00  0.00     0.251 C 
ATOM     38  H   UNL     1      -7.673   8.230   2.613  1.00  0.00     0.163 HD
ATOM     39  O   UNL     1      -8.350   9.480   4.628  1.00  0.00    -0.269 OA
BRANCH  37  40
ATOM     40  C   UNL     1      -8.143   7.471   5.824  1.00  0.00     0.039 A 
ATOM     41  C   UNL     1      -7.083   6.630   6.158  1.00  0.00     0.014 A 
ATOM     42  C   UNL     1      -9.333   7.440   6.555  1.00  0.00     0.014 A 
ATOM     43  C   UNL     1      -7.296   5.602   7.066  1.00  0.00     0.010 A 
ATOM     44  C   UNL     1      -9.509   6.463   7.540  1.00  0.00     0.010 A 
ATOM     45  C   UNL     1      -8.523   5.486   7.745  1.00  0.00    -0.014 A 
BRANCH  45  46
ATOM     46  C   UNL     1      -8.755   4.292   8.601  1.00  0.00     0.031 A 
ATOM     47  C   UNL     1      -9.803   3.272   8.236  1.00  0.00     0.074 A 
ATOM     48  C   UNL     1      -7.935   4.065   9.646  1.00  0.00     0.049 A 
ATOM     49  N   UNL     1     -10.074   2.125   8.811  1.00  0.00    -0.248 NA
ATOM     50  C   UNL     1     -10.660   3.571   7.077  1.00  0.00     0.031 C 
ATOM     51  C   UNL     1      -6.872   4.968  10.088  1.00  0.00     0.029 A 
ATOM     52  N   UNL     1      -7.829   2.986  10.486  1.00  0.00    -0.354 N 
ATOM     53  C   UNL     1     -11.142   1.585   8.105  1.00  0.00     0.074 A 
ATOM     54  C   UNL     1     -11.488   2.535   7.071  1.00  0.00     0.031 C 
ATOM     55  C   UNL     1      -6.165   4.370  11.057  1.00  0.00     0.029 A 
ATOM     56  C   UNL     1      -6.763   3.070  11.348  1.00  0.00     0.049 A 
ATOM     57  H   UNL     1      -8.455   2.227  10.474  1.00  0.00     0.167 HD
ATOM     58  C   UNL     1     -11.768   0.399   8.293  1.00  0.00     0.037 A 
ATOM     59  C   UNL     1      -6.311   2.197  12.267  1.00  0.00     0.037 A 
ATOM     60  C   UNL     1     -11.397  -0.569   9.292  1.00  0.00     0.049 A 
ATOM     61  C   UNL     1      -7.036   0.899  12.470  1.00  0.00     0.074 A 
ATOM     62  C   UNL     1     -11.954  -1.812   9.536  1.00  0.00     0.029 A 
ATOM     63  N   UNL     1     -10.368  -0.405  10.205  1.00  0.00    -0.354 N 
ATOM     64  N   UNL     1      -8.050   0.409  11.801  1.00  0.00    -0.248 NA
ATOM     65  C   UNL     1      -6.569   0.044  13.570  1.00  0.00     0.031 C 
ATOM     66  C   UNL     1     -11.283  -2.388  10.619  1.00  0.00     0.029 A 
ATOM     67  C   UNL     1     -10.287  -1.517  11.028  1.00  0.00     0.049 A 
ATOM     68  H   UNL     1      -9.781   0.384  10.261  1.00  0.00     0.167 HD
ATOM     69  C   UNL     1      -8.348  -0.807  12.399  1.00  0.00     0.074 A 
ATOM     70  C   UNL     1      -7.389  -0.994  13.469  1.00  0.00     0.031 C 
ATOM     71  C   UNL     1      -9.335  -1.682  12.095  1.00  0.00     0.037 A 
BRANCH  58  72
ATOM     72  C   UNL     1     -12.930   0.070   7.403  1.00  0.00     0.064 A 
ATOM     73  C   UNL     1     -12.745  -0.326   6.071  1.00  0.00     0.173 A 
ATOM     74  C   UNL     1     -14.238   0.083   7.911  1.00  0.00     0.173 A 
ATOM     75  F   UNL     1     -11.515  -0.343   5.536  1.00  0.00    -0.203 F 
ATOM     76  C   UNL     1     -13.830  -0.686   5.275  1.00  0.00     0.198 A 
ATOM     77  C   UNL     1     -15.318  -0.298   7.119  1.00  0.00     0.198 A 
ATOM     78  F   UNL     1     -14.466   0.447   9.181  1.00  0.00    -0.203 F 
ATOM     79  F   UNL     1     -13.633  -1.034   3.996  1.00  0.00    -0.200 F 
ATOM     80  C   UNL     1     -15.113  -0.680   5.801  1.00  0.00     0.200 A 
ATOM     81  F   UNL     1     -16.556  -0.303   7.632  1.00  0.00    -0.200 F 
ATOM     82  F   UNL     1     -16.154  -1.039   5.037  1.00  0.00    -0.200 F 
ENDBRANCH  58  72
BRANCH  59  83
ATOM     83  C   UNL     1      -5.095   2.528  13.051  1.00  0.00     0.064 A 
ATOM     84  C   UNL     1      -3.888   1.857  12.818  1.00  0.00     0.173 A 
ATOM     85  C   UNL     1      -5.104   3.550  14.012  1.00  0.00     0.173 A 
ATOM     86  F   UNL     1      -3.838   0.861  11.921  1.00  0.00    -0.203 F 
ATOM     87  C   UNL     1      -2.731   2.200  13.514  1.00  0.00     0.198 A 
ATOM     88  C   UNL     1      -3.941   3.907  14.690  1.00  0.00     0.198 A 
ATOM     89  F   UNL     1      -6.236   4.221  14.267  1.00  0.00    -0.203 F 
ATOM     90  F   UNL     1      -1.592   1.532  13.286  1.00  0.00    -0.200 F 
ATOM     91  C   UNL     1      -2.756   3.231  14.442  1.00  0.00     0.200 A 
ATOM     92  F   UNL     1      -3.966   4.914  15.573  1.00  0.00    -0.200 F 
ATOM     93  F   UNL     1      -1.639   3.572  15.097  1.00  0.00    -0.200 F 
ENDBRANCH  59  83
BRANCH  71  94
ATOM     94  C   UNL     1      -9.445  -2.917  12.936  1.00  0.00     0.064 A 
ATOM     95  C   UNL     1     -10.004  -2.868  14.221  1.00  0.00     0.173 A 
ATOM     96  C   UNL     1      -9.056  -4.165  12.430  1.00  0.00     0.173 A 
ATOM     97  F   UNL     1     -10.377  -1.693  14.750  1.00  0.00    -0.203 F 
ATOM     98  C   UNL     1     -10.164  -4.027  14.973  1.00  0.00     0.198 A 
ATOM     99  C   UNL     1      -9.236  -5.325  13.178  1.00  0.00     0.198 A 
ATOM    100  F   UNL     1      -8.522  -4.261  11.203  1.00  0.00    -0.203 F 
ATOM    101  F   UNL     1     -10.679  -3.957  16.208  1.00  0.00    -0.200 F 
ATOM    102  C   UNL     1      -9.788  -5.255  14.448  1.00  0.00     0.200 A 
ATOM    103  F   UNL     1      -8.882  -6.512  12.666  1.00  0.00    -0.200 F 
ATOM    104  F   UNL     1      -9.955  -6.372  15.169  1.00  0.00    -0.200 F 
ENDBRANCH  71  94
ENDBRANCH  45  46
ENDBRANCH  37  40
ENDBRANCH  35  36
ENDBRANCH  34  35
ENDBRANCH  33  34
ENDBRANCH  32  33
ENDBRANCH   3  32
TORSDOF 17
