REMARK SMILES CC1(C)[C@H](C(=O)NCCCCNC(=O)c2ccc(-c3c4nc(c(-c5c(F)c(F)c(F)c(F)c5F)c5ccc([nH]5)c(-c5c(F)c(F)c(F)c(F)c5F)c5nc(c(-c6c(F)c(F)c(F)c(F)c6F)c6ccc3[nH]6)C=C5)C=C4)cc2)[C@@H]1c1nc2ccc(F)cc2s1
REMARK SMILES IDX 10 1 9 2 8 3 7 4 5 5 6 6 4 8 1 9 2 10 3 11 78 12 79 13 80 14
REMARK SMILES IDX 88 15 81 16 87 17 82 18 86 19 83 20 84 21 85 22 11 23 12 24
REMARK SMILES IDX 13 25 14 27 15 28 16 29 77 30 17 31 76 32 18 33 19 34 20 35
REMARK SMILES IDX 70 36 21 37 75 38 69 39 71 40 22 41 74 42 68 43 67 44 23 46
REMARK SMILES IDX 55 47 35 48 54 49 36 50 39 51 53 52 72 53 37 54 38 55 52 57
REMARK SMILES IDX 73 58 40 59 24 60 25 61 33 62 26 63 27 64 31 65 34 66 28 67
REMARK SMILES IDX 29 68 32 69 30 70 56 71 57 72 65 73 58 74 59 75 63 76 66 77
REMARK SMILES IDX 60 78 61 79 64 80 62 81 41 82 42 83 50 84 43 85 44 86 48 87
REMARK SMILES IDX 51 88 45 89 46 90 49 91 47 92
REMARK H PARENT 7 7 12 26 71 45 39 56
REMARK Flexibility Score: inf
ROOT
ATOM      1  C   UNL     1      -0.473   5.224  -1.888  1.00  0.00     0.023 C 
ENDROOT
BRANCH   1   2
ATOM      2  C   UNL     1       0.050   4.036  -1.091  1.00  0.00     0.023 C 
BRANCH   2   3
ATOM      3  C   UNL     1      -1.025   3.094  -0.564  1.00  0.00     0.116 C 
BRANCH   3   4
ATOM      4  N   UNL     1      -1.461   2.130  -1.535  1.00  0.00    -0.356 N 
ATOM      5  C   UNL     1      -1.508   0.764  -1.544  1.00  0.00     0.224 C 
ATOM      6  O   UNL     1      -1.969   0.271  -2.577  1.00  0.00    -0.275 OA
ATOM      7  H   UNL     1      -1.796   2.537  -2.366  1.00  0.00     0.163 HD
BRANCH   5   8
ATOM      8  C   UNL     1      -1.071  -0.197  -0.493  1.00  0.00     0.095 C 
ATOM      9  C   UNL     1       0.947  -1.579   0.315  1.00  0.00     0.013 C 
ATOM     10  C   UNL     1       0.255  -0.229   0.286  1.00  0.00    -0.013 C 
ATOM     11  C   UNL     1       1.248   0.895   0.151  1.00  0.00     0.013 C 
ATOM     12  C   UNL     1      -1.086  -0.131   1.001  1.00  0.00     0.068 C 
BRANCH  12  13
ATOM     13  C   UNL     1      -1.754   0.985   1.782  1.00  0.00     0.098 A 
ATOM     14  N   UNL     1      -3.067   1.040   1.787  1.00  0.00    -0.241 NA
ATOM     15  S   UNL     1      -0.972   2.103   2.818  1.00  0.00    -0.118 S 
ATOM     16  C   UNL     1      -3.487   2.172   2.456  1.00  0.00     0.082 A 
ATOM     17  C   UNL     1      -2.468   2.943   3.021  1.00  0.00     0.057 A 
ATOM     18  C   UNL     1      -4.823   2.609   2.574  1.00  0.00     0.033 A 
ATOM     19  C   UNL     1      -2.729   4.175   3.640  1.00  0.00     0.060 A 
ATOM     20  C   UNL     1      -5.096   3.830   3.195  1.00  0.00     0.041 A 
ATOM     21  C   UNL     1      -4.056   4.599   3.698  1.00  0.00     0.124 A 
ATOM     22  F   UNL     1      -4.337   5.783   4.259  1.00  0.00    -0.207 F 
ENDBRANCH  12  13
ENDBRANCH   5   8
ENDBRANCH   3   4
ENDBRANCH   2   3
ENDBRANCH   1   2
BRANCH   1  23
ATOM     23  C   UNL     1      -1.491   6.101  -1.165  1.00  0.00     0.116 C 
BRANCH  23  24
ATOM     24  N   UNL     1      -1.047   6.572   0.142  1.00  0.00    -0.352 N 
ATOM     25  C   UNL     1      -1.119   7.840   0.676  1.00  0.00     0.251 C 
ATOM     26  H   UNL     1      -0.639   5.889   0.722  1.00  0.00     0.163 HD
ATOM     27  O   UNL     1      -0.637   8.091   1.768  1.00  0.00    -0.269 OA
BRANCH  25  28
ATOM     28  C   UNL     1      -1.746   8.908  -0.130  1.00  0.00     0.039 A 
ATOM     29  C   UNL     1      -1.000  10.050  -0.430  1.00  0.00     0.014 A 
ATOM     30  C   UNL     1      -3.017   8.720  -0.676  1.00  0.00     0.014 A 
ATOM     31  C   UNL     1      -1.483  10.952  -1.379  1.00  0.00     0.010 A 
ATOM     32  C   UNL     1      -3.464   9.582  -1.670  1.00  0.00     0.010 A 
ATOM     33  C   UNL     1      -2.687  10.688  -2.051  1.00  0.00    -0.014 A 
BRANCH  33  34
ATOM     34  C   UNL     1      -3.129  11.510  -3.204  1.00  0.00     0.031 A 
ATOM     35  C   UNL     1      -4.409  12.288  -3.127  1.00  0.00     0.074 A 
ATOM     36  C   UNL     1      -2.436  11.459  -4.359  1.00  0.00     0.049 A 
ATOM     37  N   UNL     1      -5.039  12.939  -4.070  1.00  0.00    -0.248 NA
ATOM     38  C   UNL     1      -5.085  12.311  -1.821  1.00  0.00     0.031 C 
ATOM     39  C   UNL     1      -1.202  10.700  -4.574  1.00  0.00     0.029 A 
ATOM     40  N   UNL     1      -2.684  12.039  -5.578  1.00  0.00    -0.354 N 
ATOM     41  C   UNL     1      -6.194  13.431  -3.480  1.00  0.00     0.074 A 
ATOM     42  C   UNL     1      -6.198  12.970  -2.107  1.00  0.00     0.031 C 
ATOM     43  C   UNL     1      -0.795  10.871  -5.842  1.00  0.00     0.029 A 
ATOM     44  C   UNL     1      -1.760  11.714  -6.541  1.00  0.00     0.049 A 
ATOM     45  H   UNL     1      -3.451  12.632  -5.747  1.00  0.00     0.167 HD
ATOM     46  C   UNL     1      -7.154  14.210  -4.030  1.00  0.00     0.037 A 
ATOM     47  C   UNL     1      -1.707  12.042  -7.846  1.00  0.00     0.037 A 
ATOM     48  C   UNL     1      -7.130  14.695  -5.383  1.00  0.00     0.049 A 
ATOM     49  C   UNL     1      -2.795  12.894  -8.436  1.00  0.00     0.074 A 
ATOM     50  C   UNL     1      -8.008  15.565  -6.005  1.00  0.00     0.029 A 
ATOM     51  N   UNL     1      -6.175  14.347  -6.327  1.00  0.00    -0.354 N 
ATOM     52  N   UNL     1      -3.850  13.406  -7.851  1.00  0.00    -0.248 NA
ATOM     53  C   UNL     1      -2.691  13.206  -9.868  1.00  0.00     0.031 C 
ATOM     54  C   UNL     1      -7.606  15.714  -7.337  1.00  0.00     0.029 A 
ATOM     55  C   UNL     1      -6.459  14.963  -7.535  1.00  0.00     0.049 A 
ATOM     56  H   UNL     1      -5.409  13.750  -6.164  1.00  0.00     0.167 HD
ATOM     57  C   UNL     1      -4.527  14.110  -8.836  1.00  0.00     0.074 A 
ATOM     58  C   UNL     1      -3.757  13.971 -10.055  1.00  0.00     0.031 C 
ATOM     59  C   UNL     1      -5.684  14.808  -8.739  1.00  0.00     0.037 A 
BRANCH  46  60
ATOM     60  C   UNL     1      -8.312  14.593  -3.159  1.00  0.00     0.064 A 
ATOM     61  C   UNL     1      -8.170  15.527  -2.122  1.00  0.00     0.173 A 
ATOM     62  C   UNL     1      -9.582  14.043  -3.382  1.00  0.00     0.173 A 
ATOM     63  F   UNL     1      -6.972  16.070  -1.862  1.00  0.00    -0.203 F 
ATOM     64  C   UNL     1      -9.254  15.876  -1.322  1.00  0.00     0.198 A 
ATOM     65  C   UNL     1     -10.670  14.413  -2.595  1.00  0.00     0.198 A 
ATOM     66  F   UNL     1      -9.770  13.148  -4.364  1.00  0.00    -0.203 F 
ATOM     67  F   UNL     1      -9.087  16.737  -0.308  1.00  0.00    -0.200 F 
ATOM     68  C   UNL     1     -10.504  15.324  -1.562  1.00  0.00     0.200 A 
ATOM     69  F   UNL     1     -11.878  13.885  -2.833  1.00  0.00    -0.200 F 
ATOM     70  F   UNL     1     -11.547  15.664  -0.793  1.00  0.00    -0.200 F 
ENDBRANCH  46  60
BRANCH  47  71
ATOM     71  C   UNL     1      -0.576  11.567  -8.682  1.00  0.00     0.064 A 
ATOM     72  C   UNL     1       0.420  12.456  -9.109  1.00  0.00     0.173 A 
ATOM     73  C   UNL     1      -0.463  10.223  -9.065  1.00  0.00     0.173 A 
ATOM     74  F   UNL     1       0.340  13.754  -8.785  1.00  0.00    -0.203 F 
ATOM     75  C   UNL     1       1.483  12.019  -9.896  1.00  0.00     0.198 A 
ATOM     76  C   UNL     1       0.613   9.784  -9.834  1.00  0.00     0.198 A 
ATOM     77  F   UNL     1      -1.390   9.334  -8.680  1.00  0.00    -0.203 F 
ATOM     78  F   UNL     1       2.405  12.895 -10.317  1.00  0.00    -0.200 F 
ATOM     79  C   UNL     1       1.582  10.683 -10.253  1.00  0.00     0.200 A 
ATOM     80  F   UNL     1       0.711   8.490 -10.169  1.00  0.00    -0.200 F 
ATOM     81  F   UNL     1       2.608  10.263 -11.005  1.00  0.00    -0.200 F 
ENDBRANCH  47  71
BRANCH  59  82
ATOM     82  C   UNL     1      -6.184  15.482  -9.980  1.00  0.00     0.064 A 
ATOM     83  C   UNL     1      -6.803  14.753 -11.005  1.00  0.00     0.173 A 
ATOM     84  C   UNL     1      -6.091  16.874 -10.123  1.00  0.00     0.173 A 
ATOM     85  F   UNL     1      -6.898  13.417 -10.920  1.00  0.00    -0.203 F 
ATOM     86  C   UNL     1      -7.301  15.393 -12.136  1.00  0.00     0.198 A 
ATOM     87  C   UNL     1      -6.609  17.514 -11.245  1.00  0.00     0.198 A 
ATOM     88  F   UNL     1      -5.509  17.614  -9.166  1.00  0.00    -0.203 F 
ATOM     89  F   UNL     1      -7.861  14.675 -13.119  1.00  0.00    -0.200 F 
ATOM     90  C   UNL     1      -7.211  16.773 -12.251  1.00  0.00     0.200 A 
ATOM     91  F   UNL     1      -6.529  18.847 -11.351  1.00  0.00    -0.200 F 
ATOM     92  F   UNL     1      -7.700  17.389 -13.336  1.00  0.00    -0.200 F 
ENDBRANCH  59  82
ENDBRANCH  33  34
ENDBRANCH  25  28
ENDBRANCH  23  24
ENDBRANCH   1  23
TORSDOF 12
