REMARK SMILES O=C(NCCCCNC(=O)c1cc(N2C(=O)C[C@H](Nc3ccccc3O)C2=O)ccc1O)c1ccc(-c2c3nc(c(-c4c(F)c(F)c(F)c(F)c4F)c4ccc([nH]4)c(-c4c(F)c(F)c(F)c(F)c4F)c4nc(c(-c5c(F)c(F)c(F)c(F)c5F)c5ccc2[nH]5)C=C4)C=C3)cc1
REMARK SMILES IDX 6 1 5 2 4 3 3 4 1 5 2 6 33 8 34 9 95 10 35 11 94 12 36 13
REMARK SMILES IDX 37 14 38 15 88 16 39 17 93 18 87 19 89 20 40 21 92 22 86 23
REMARK SMILES IDX 85 24 41 26 73 27 53 28 72 29 54 30 57 31 71 32 90 33 55 34
REMARK SMILES IDX 56 35 70 37 91 38 58 39 42 40 43 41 51 42 44 43 45 44 49 45
REMARK SMILES IDX 52 46 46 47 47 48 50 49 48 50 74 51 75 52 83 53 76 54 77 55
REMARK SMILES IDX 81 56 84 57 78 58 79 59 82 60 80 61 59 62 60 63 68 64 61 65
REMARK SMILES IDX 62 66 66 67 69 68 63 69 64 70 67 71 65 72 7 73 8 74 9 75
REMARK SMILES IDX 10 77 11 78 12 79 31 80 13 81 30 82 29 83 32 84 14 86 15 87
REMARK SMILES IDX 27 88 16 89 17 90 18 91 28 92 19 93 20 95 21 96 25 97 22 98
REMARK SMILES IDX 24 99 23 100 26 101
REMARK H PARENT 3 7 89 25 57 36 8 76 32 85 19 94 26 102
REMARK Flexibility Score: inf
ROOT
ATOM      1  C   UNL     1       4.301   2.467  -3.175  1.00  0.00     0.023 C 
ENDROOT
BRANCH   1   2
ATOM      2  C   UNL     1       4.814   1.173  -2.548  1.00  0.00     0.023 C 
BRANCH   2   3
ATOM      3  C   UNL     1       4.518   1.011  -1.065  1.00  0.00     0.116 C 
BRANCH   3   4
ATOM      4  N   UNL     1       3.094   0.970  -0.764  1.00  0.00    -0.352 N 
ATOM      5  O   UNL     1       1.165   0.089   0.023  1.00  0.00    -0.269 OA
ATOM      6  C   UNL     1       2.390   0.039  -0.038  1.00  0.00     0.251 C 
ATOM      7  H   UNL     1       2.562   1.712  -1.131  1.00  0.00     0.163 HD
BRANCH   6   8
ATOM      8  C   UNL     1       3.119  -1.049   0.648  1.00  0.00     0.039 A 
ATOM      9  C   UNL     1       4.270  -0.769   1.385  1.00  0.00     0.014 A 
ATOM     10  C   UNL     1       2.664  -2.366   0.527  1.00  0.00     0.014 A 
ATOM     11  C   UNL     1       5.054  -1.812   1.856  1.00  0.00     0.010 A 
ATOM     12  C   UNL     1       3.403  -3.410   1.092  1.00  0.00     0.010 A 
ATOM     13  C   UNL     1       4.622  -3.145   1.731  1.00  0.00    -0.014 A 
BRANCH  13  14
ATOM     14  C   UNL     1       5.443  -4.216   2.350  1.00  0.00     0.031 A 
ATOM     15  C   UNL     1       6.119  -5.272   1.521  1.00  0.00     0.074 A 
ATOM     16  C   UNL     1       5.628  -4.180   3.685  1.00  0.00     0.049 A 
ATOM     17  N   UNL     1       6.923  -6.231   1.909  1.00  0.00    -0.248 NA
ATOM     18  C   UNL     1       5.856  -5.261   0.074  1.00  0.00     0.031 C 
ATOM     19  C   UNL     1       5.002  -3.213   4.591  1.00  0.00     0.029 A 
ATOM     20  N   UNL     1       6.413  -4.944   4.507  1.00  0.00    -0.354 N 
ATOM     21  C   UNL     1       7.254  -6.941   0.762  1.00  0.00     0.074 A 
ATOM     22  C   UNL     1       6.542  -6.321  -0.336  1.00  0.00     0.031 C 
ATOM     23  C   UNL     1       5.477  -3.399   5.830  1.00  0.00     0.029 A 
ATOM     24  C   UNL     1       6.388  -4.537   5.819  1.00  0.00     0.049 A 
ATOM     25  H   UNL     1       6.944  -5.710   4.189  1.00  0.00     0.167 HD
ATOM     26  C   UNL     1       8.084  -8.006   0.640  1.00  0.00     0.037 A 
ATOM     27  C   UNL     1       7.019  -5.031   6.898  1.00  0.00     0.037 A 
ATOM     28  C   UNL     1       8.800  -8.609   1.736  1.00  0.00     0.049 A 
ATOM     29  C   UNL     1       7.934  -6.208   6.728  1.00  0.00     0.074 A 
ATOM     30  C   UNL     1       9.673  -9.684   1.711  1.00  0.00     0.029 A 
ATOM     31  N   UNL     1       8.729  -8.186   3.056  1.00  0.00    -0.354 N 
ATOM     32  N   UNL     1       8.249  -6.857   5.634  1.00  0.00    -0.248 NA
ATOM     33  C   UNL     1       8.578  -6.724   7.942  1.00  0.00     0.031 C 
ATOM     34  C   UNL     1      10.102  -9.933   3.020  1.00  0.00     0.029 A 
ATOM     35  C   UNL     1       9.531  -8.987   3.855  1.00  0.00     0.049 A 
ATOM     36  H   UNL     1       8.188  -7.429   3.378  1.00  0.00     0.167 HD
ATOM     37  C   UNL     1       9.127  -7.856   6.025  1.00  0.00     0.074 A 
ATOM     38  C   UNL     1       9.325  -7.702   7.452  1.00  0.00     0.031 C 
ATOM     39  C   UNL     1       9.706  -8.824   5.274  1.00  0.00     0.037 A 
BRANCH  26  40
ATOM     40  C   UNL     1       8.268  -8.601  -0.726  1.00  0.00     0.064 A 
ATOM     41  C   UNL     1       9.031  -7.956  -1.710  1.00  0.00     0.173 A 
ATOM     42  C   UNL     1       7.741  -9.866  -1.029  1.00  0.00     0.173 A 
ATOM     43  F   UNL     1       9.549  -6.741  -1.474  1.00  0.00    -0.203 F 
ATOM     44  C   UNL     1       9.252  -8.551  -2.950  1.00  0.00     0.198 A 
ATOM     45  C   UNL     1       7.983 -10.468  -2.261  1.00  0.00     0.198 A 
ATOM     46  F   UNL     1       7.009 -10.528  -0.121  1.00  0.00    -0.203 F 
ATOM     47  F   UNL     1       9.964  -7.905  -3.884  1.00  0.00    -0.200 F 
ATOM     48  C   UNL     1       8.736  -9.809  -3.221  1.00  0.00     0.200 A 
ATOM     49  F   UNL     1       7.494 -11.690  -2.517  1.00  0.00    -0.200 F 
ATOM     50  F   UNL     1       8.964 -10.387  -4.409  1.00  0.00    -0.200 F 
ENDBRANCH  26  40
BRANCH  27  51
ATOM     51  C   UNL     1       6.794  -4.417   8.231  1.00  0.00     0.064 A 
ATOM     52  C   UNL     1       7.816  -3.727   8.895  1.00  0.00     0.173 A 
ATOM     53  C   UNL     1       5.545  -4.503   8.866  1.00  0.00     0.173 A 
ATOM     54  F   UNL     1       9.033  -3.632   8.337  1.00  0.00    -0.203 F 
ATOM     55  C   UNL     1       7.605  -3.164  10.152  1.00  0.00     0.198 A 
ATOM     56  C   UNL     1       5.325  -3.911  10.106  1.00  0.00     0.198 A 
ATOM     57  F   UNL     1       4.531  -5.147   8.268  1.00  0.00    -0.203 F 
ATOM     58  F   UNL     1       8.613  -2.550  10.786  1.00  0.00    -0.200 F 
ATOM     59  C   UNL     1       6.357  -3.250  10.753  1.00  0.00     0.200 A 
ATOM     60  F   UNL     1       4.113  -3.982  10.674  1.00  0.00    -0.200 F 
ATOM     61  F   UNL     1       6.153  -2.703  11.958  1.00  0.00    -0.200 F 
ENDBRANCH  27  51
BRANCH  39  62
ATOM     62  C   UNL     1      10.610  -9.781   5.993  1.00  0.00     0.064 A 
ATOM     63  C   UNL     1      10.096 -10.755   6.862  1.00  0.00     0.173 A 
ATOM     64  C   UNL     1      11.999  -9.724   5.813  1.00  0.00     0.173 A 
ATOM     65  F   UNL     1       8.775 -10.837   7.080  1.00  0.00    -0.203 F 
ATOM     66  C   UNL     1      10.945 -11.614   7.554  1.00  0.00     0.198 A 
ATOM     67  C   UNL     1      12.843 -10.603   6.485  1.00  0.00     0.198 A 
ATOM     68  F   UNL     1      12.537  -8.813   4.989  1.00  0.00    -0.203 F 
ATOM     69  F   UNL     1      10.438 -12.498   8.424  1.00  0.00    -0.200 F 
ATOM     70  C   UNL     1      12.317 -11.540   7.362  1.00  0.00     0.200 A 
ATOM     71  F   UNL     1      14.168 -10.537   6.292  1.00  0.00    -0.200 F 
ATOM     72  F   UNL     1      13.133 -12.364   8.032  1.00  0.00    -0.200 F 
ENDBRANCH  39  62
ENDBRANCH  13  14
ENDBRANCH   6   8
ENDBRANCH   3   4
ENDBRANCH   2   3
ENDBRANCH   1   2
BRANCH   1  73
ATOM     73  C   UNL     1       4.683   3.741  -2.429  1.00  0.00     0.116 C 
BRANCH  73  74
ATOM     74  N   UNL     1       6.120   3.887  -2.296  1.00  0.00    -0.352 N 
ATOM     75  C   UNL     1       6.910   4.918  -2.729  1.00  0.00     0.255 C 
ATOM     76  H   UNL     1       6.585   3.152  -1.836  1.00  0.00     0.163 HD
ATOM     77  O   UNL     1       8.131   4.856  -2.618  1.00  0.00    -0.269 OA
BRANCH  75  78
ATOM     78  C   UNL     1       6.301   6.082  -3.394  1.00  0.00     0.083 A 
ATOM     79  C   UNL     1       6.666   6.316  -4.725  1.00  0.00     0.044 A 
ATOM     80  C   UNL     1       5.451   6.968  -2.729  1.00  0.00     0.128 A 
ATOM     81  C   UNL     1       6.204   7.452  -5.403  1.00  0.00     0.053 A 
ATOM     82  C   UNL     1       4.963   8.086  -3.399  1.00  0.00     0.049 A 
ATOM     83  C   UNL     1       5.354   8.335  -4.721  1.00  0.00     0.031 A 
BRANCH  80  84
ATOM     84  O   UNL     1       5.092   6.742  -1.431  1.00  0.00    -0.507 OA
ATOM     85  H   UNL     1       5.419   5.989  -0.979  1.00  0.00     0.293 HD
ENDBRANCH  80  84
BRANCH  81  86
ATOM     86  N   UNL     1       6.627   7.702  -6.734  1.00  0.00    -0.249 N 
ATOM     87  C   UNL     1       6.832   8.948  -7.268  1.00  0.00     0.236 C 
ATOM     88  C   UNL     1       6.841   6.706  -7.656  1.00  0.00     0.256 C 
ATOM     89  O   UNL     1       6.666  10.037  -6.732  1.00  0.00    -0.274 OA
ATOM     90  C   UNL     1       7.401   8.814  -8.649  1.00  0.00     0.136 C 
ATOM     91  C   UNL     1       7.386   7.325  -8.937  1.00  0.00     0.179 C 
ATOM     92  O   UNL     1       6.543   5.523  -7.533  1.00  0.00    -0.272 OA
BRANCH  91  93
ATOM     93  N   UNL     1       6.510   7.035 -10.086  1.00  0.00    -0.370 N 
ATOM     94  H   UNL     1       5.541   7.207 -10.065  1.00  0.00     0.161 HD
BRANCH  93  95
ATOM     95  C   UNL     1       7.152   6.494 -11.215  1.00  0.00     0.077 A 
ATOM     96  C   UNL     1       7.271   7.253 -12.381  1.00  0.00     0.029 A 
ATOM     97  C   UNL     1       7.636   5.175 -11.223  1.00  0.00     0.138 A 
ATOM     98  C   UNL     1       7.853   6.702 -13.527  1.00  0.00     0.002 A 
ATOM     99  C   UNL     1       8.223   4.621 -12.358  1.00  0.00     0.048 A 
ATOM    100  C   UNL     1       8.327   5.389 -13.515  1.00  0.00     0.004 A 
BRANCH  97 101
ATOM    101  O   UNL     1       7.505   4.430 -10.084  1.00  0.00    -0.506 OA
ATOM    102  H   UNL     1       7.110   4.805  -9.321  1.00  0.00     0.293 HD
ENDBRANCH  97 101
ENDBRANCH  93  95
ENDBRANCH  91  93
ENDBRANCH  81  86
ENDBRANCH  75  78
ENDBRANCH  73  74
ENDBRANCH   1  73
TORSDOF 16
