REMARK SMILES Cc1cn2c(CC(=O)N[C@@H](C(=O)NCCCCNC(=O)c3ccc(-c4c5nc(c(-c6c(F)c(F)c(F)c(F)c6F)c6ccc([nH]6)c(-c6c(F)c(F)c(F)c(F)c6F)c6nc(c(-c7c(F)c(F)c(F)c(F)c7F)c7ccc4[nH]7)C=C6)C=C5)cc3)[C@H](C)O)csc2n1
REMARK SMILES IDX 15 1 14 2 13 3 11 4 12 5 10 7 9 8 7 9 8 10 6 12 5 13 1 14
REMARK SMILES IDX 2 15 3 16 90 17 4 18 89 19 88 20 87 21 84 22 85 23 86 24
REMARK SMILES IDX 16 26 17 27 18 28 19 29 20 31 21 32 22 33 83 34 23 35 82 36
REMARK SMILES IDX 24 37 25 38 26 39 76 40 27 41 81 42 75 43 77 44 28 45 80 46
REMARK SMILES IDX 74 47 73 48 29 50 61 51 41 52 60 53 42 54 45 55 59 56 78 57
REMARK SMILES IDX 43 58 44 59 58 61 79 62 46 63 30 64 31 65 39 66 32 67 33 68
REMARK SMILES IDX 37 69 40 70 34 71 35 72 38 73 36 74 62 75 63 76 71 77 64 78
REMARK SMILES IDX 65 79 69 80 72 81 66 82 67 83 70 84 68 85 47 86 48 87 56 88
REMARK SMILES IDX 49 89 50 90 54 91 57 92 51 93 52 94 55 95 53 96
REMARK H PARENT 13 6 9 11 86 25 18 30 77 49 45 60
REMARK Flexibility Score: inf
ROOT
ATOM      1  C   UNL     1       2.317  -8.431   2.478  1.00  0.00     0.023 C 
ENDROOT
BRANCH   1   2
ATOM      2  C   UNL     1       1.072  -7.561   2.369  1.00  0.00     0.116 C 
BRANCH   2   3
ATOM      3  N   UNL     1       0.697  -6.939   3.618  1.00  0.00    -0.354 N 
ATOM      4  C   UNL     1       0.510  -5.612   3.896  1.00  0.00     0.245 C 
ATOM      5  O   UNL     1      -0.157  -5.357   4.901  1.00  0.00    -0.273 OA
ATOM      6  H   UNL     1       0.557  -7.555   4.373  1.00  0.00     0.163 HD
BRANCH   4   7
ATOM      7  C   UNL     1       0.947  -4.507   2.884  1.00  0.00     0.200 C 
BRANCH   7   8
ATOM      8  N   UNL     1       2.310  -4.739   2.356  1.00  0.00    -0.342 N 
ATOM      9  C   UNL     1       2.771  -4.829   1.074  1.00  0.00     0.226 C 
ATOM     10  O   UNL     1       3.906  -5.272   0.899  1.00  0.00    -0.275 OA
ATOM     11  H   UNL     1       3.002  -4.847   3.048  1.00  0.00     0.164 HD
BRANCH   9  12
ATOM     12  C   UNL     1       1.903  -4.406  -0.111  1.00  0.00     0.155 C 
BRANCH  12  13
ATOM     13  C   UNL     1       1.031  -5.515  -0.606  1.00  0.00     0.044 A 
ATOM     14  C   UNL     1      -3.850  -4.619  -0.048  1.00  0.00     0.068 C 
ATOM     15  C   UNL     1      -2.498  -5.148  -0.340  1.00  0.00     0.057 A 
ATOM     16  C   UNL     1      -1.282  -4.489  -0.240  1.00  0.00     0.117 A 
ATOM     17  N   UNL     1      -2.321  -6.455  -0.766  1.00  0.00    -0.224 NA
ATOM     18  N   UNL     1      -0.351  -5.425  -0.576  1.00  0.00    -0.294 N 
ATOM     19  C   UNL     1      -1.031  -6.550  -0.931  1.00  0.00     0.194 A 
ATOM     20  S   UNL     1       0.055  -7.812  -1.413  1.00  0.00    -0.105 S 
ATOM     21  C   UNL     1       1.417  -6.726  -1.066  1.00  0.00     0.091 A 
ENDBRANCH  12  13
ENDBRANCH   9  12
ENDBRANCH   7   8
BRANCH   7  22
ATOM     22  C   UNL     1       0.825  -3.096   3.534  1.00  0.00     0.143 C 
ATOM     23  C   UNL     1      -0.248  -2.253   2.853  1.00  0.00     0.041 C 
BRANCH  22  24
ATOM     24  O   UNL     1       2.054  -2.359   3.470  1.00  0.00    -0.391 OA
ATOM     25  H   UNL     1       2.286  -2.197   2.542  1.00  0.00     0.211 HD
ENDBRANCH  22  24
ENDBRANCH   7  22
ENDBRANCH   4   7
ENDBRANCH   2   3
ENDBRANCH   1   2
BRANCH   1  26
ATOM     26  C   UNL     1       2.034  -9.864   2.925  1.00  0.00     0.023 C 
BRANCH  26  27
ATOM     27  C   UNL     1       1.111 -10.663   2.006  1.00  0.00     0.116 C 
BRANCH  27  28
ATOM     28  N   UNL     1       1.613 -10.807   0.648  1.00  0.00    -0.352 N 
ATOM     29  C   UNL     1       1.526 -11.897  -0.190  1.00  0.00     0.251 C 
ATOM     30  H   UNL     1       2.076 -10.021   0.279  1.00  0.00     0.163 HD
ATOM     31  O   UNL     1       2.086 -11.891  -1.276  1.00  0.00    -0.269 OA
BRANCH  29  32
ATOM     32  C   UNL     1       0.791 -13.101   0.261  1.00  0.00     0.039 A 
ATOM     33  C   UNL     1       1.405 -14.348   0.131  1.00  0.00     0.014 A 
ATOM     34  C   UNL     1      -0.474 -12.997   0.845  1.00  0.00     0.014 A 
ATOM     35  C   UNL     1       0.783 -15.482   0.658  1.00  0.00     0.010 A 
ATOM     36  C   UNL     1      -1.055 -14.114   1.440  1.00  0.00     0.010 A 
ATOM     37  C   UNL     1      -0.432 -15.368   1.355  1.00  0.00    -0.014 A 
BRANCH  37  38
ATOM     38  C   UNL     1      -1.048 -16.552   2.010  1.00  0.00     0.031 A 
ATOM     39  C   UNL     1      -2.391 -17.058   1.562  1.00  0.00     0.074 A 
ATOM     40  C   UNL     1      -0.419 -17.140   3.047  1.00  0.00     0.049 A 
ATOM     41  N   UNL     1      -3.092 -18.065   2.023  1.00  0.00    -0.248 NA
ATOM     42  C   UNL     1      -3.049 -16.322   0.471  1.00  0.00     0.031 C 
ATOM     43  C   UNL     1       0.853 -16.701   3.625  1.00  0.00     0.029 A 
ATOM     44  N   UNL     1      -0.766 -18.231   3.805  1.00  0.00    -0.354 N 
ATOM     45  C   UNL     1      -4.272 -18.072   1.291  1.00  0.00     0.074 A 
ATOM     46  C   UNL     1      -4.219 -16.938   0.394  1.00  0.00     0.031 C 
ATOM     47  C   UNL     1       1.192 -17.530   4.625  1.00  0.00     0.029 A 
ATOM     48  C   UNL     1       0.150 -18.540   4.781  1.00  0.00     0.049 A 
ATOM     49  H   UNL     1      -1.594 -18.744   3.663  1.00  0.00     0.167 HD
ATOM     50  C   UNL     1      -5.295 -18.958   1.343  1.00  0.00     0.037 A 
ATOM     51  C   UNL     1       0.151 -19.527   5.697  1.00  0.00     0.037 A 
ATOM     52  C   UNL     1      -5.332 -20.103   2.214  1.00  0.00     0.049 A 
ATOM     53  C   UNL     1      -0.983 -20.517   5.710  1.00  0.00     0.074 A 
ATOM     54  C   UNL     1      -6.290 -21.099   2.291  1.00  0.00     0.029 A 
ATOM     55  N   UNL     1      -4.365 -20.406   3.162  1.00  0.00    -0.354 N 
ATOM     56  N   UNL     1      -2.050 -20.564   4.950  1.00  0.00    -0.248 NA
ATOM     57  C   UNL     1      -0.902 -21.602   6.698  1.00  0.00     0.031 C 
ATOM     58  C   UNL     1      -5.928 -21.979   3.316  1.00  0.00     0.029 A 
ATOM     59  C   UNL     1      -4.715 -21.563   3.841  1.00  0.00     0.049 A 
ATOM     60  H   UNL     1      -3.552 -19.877   3.329  1.00  0.00     0.167 HD
ATOM     61  C   UNL     1      -2.751 -21.696   5.346  1.00  0.00     0.074 A 
ATOM     62  C   UNL     1      -1.976 -22.318   6.400  1.00  0.00     0.031 C 
ATOM     63  C   UNL     1      -3.930 -22.175   4.882  1.00  0.00     0.037 A 
BRANCH  50  64
ATOM     64  C   UNL     1      -6.460 -18.733   0.423  1.00  0.00     0.064 A 
ATOM     65  C   UNL     1      -6.349 -18.918  -0.963  1.00  0.00     0.173 A 
ATOM     66  C   UNL     1      -7.716 -18.380   0.939  1.00  0.00     0.173 A 
ATOM     67  F   UNL     1      -5.167 -19.245  -1.508  1.00  0.00    -0.203 F 
ATOM     68  C   UNL     1      -7.445 -18.736  -1.802  1.00  0.00     0.198 A 
ATOM     69  C   UNL     1      -8.818 -18.228   0.101  1.00  0.00     0.198 A 
ATOM     70  F   UNL     1      -7.880 -18.196   2.257  1.00  0.00    -0.203 F 
ATOM     71  F   UNL     1      -7.304 -18.877  -3.127  1.00  0.00    -0.200 F 
ATOM     72  C   UNL     1      -8.681 -18.400  -1.268  1.00  0.00     0.200 A 
ATOM     73  F   UNL     1     -10.014 -17.918   0.619  1.00  0.00    -0.200 F 
ATOM     74  F   UNL     1      -9.738 -18.238  -2.075  1.00  0.00    -0.200 F 
ENDBRANCH  50  64
BRANCH  51  75
ATOM     75  C   UNL     1       1.278 -19.653   6.659  1.00  0.00     0.064 A 
ATOM     76  C   UNL     1       2.175 -20.728   6.584  1.00  0.00     0.173 A 
ATOM     77  C   UNL     1       1.468 -18.716   7.685  1.00  0.00     0.173 A 
ATOM     78  F   UNL     1       2.023 -21.662   5.633  1.00  0.00    -0.203 F 
ATOM     79  C   UNL     1       3.200 -20.878   7.516  1.00  0.00     0.198 A 
ATOM     80  C   UNL     1       2.512 -18.850   8.598  1.00  0.00     0.198 A 
ATOM     81  F   UNL     1       0.642 -17.666   7.797  1.00  0.00    -0.203 F 
ATOM     82  F   UNL     1       4.007 -21.946   7.455  1.00  0.00    -0.200 F 
ATOM     83  C   UNL     1       3.370 -19.937   8.520  1.00  0.00     0.200 A 
ATOM     84  F   UNL     1       2.683 -17.931   9.557  1.00  0.00    -0.200 F 
ATOM     85  F   UNL     1       4.355 -20.082   9.417  1.00  0.00    -0.200 F 
ENDBRANCH  51  75
BRANCH  63  86
ATOM     86  C   UNL     1      -4.434 -23.456   5.482  1.00  0.00     0.064 A 
ATOM     87  C   UNL     1      -4.910 -23.517   6.801  1.00  0.00     0.173 A 
ATOM     88  C   UNL     1      -4.457 -24.635   4.721  1.00  0.00     0.173 A 
ATOM     89  F   UNL     1      -4.896 -22.421   7.575  1.00  0.00    -0.203 F 
ATOM     90  C   UNL     1      -5.354 -24.719   7.346  1.00  0.00     0.198 A 
ATOM     91  C   UNL     1      -4.934 -25.827   5.259  1.00  0.00     0.198 A 
ATOM     92  F   UNL     1      -4.022 -24.630   3.452  1.00  0.00    -0.203 F 
ATOM     93  F   UNL     1      -5.747 -24.766   8.627  1.00  0.00    -0.200 F 
ATOM     94  C   UNL     1      -5.372 -25.870   6.574  1.00  0.00     0.200 A 
ATOM     95  F   UNL     1      -4.964 -26.935   4.506  1.00  0.00    -0.200 F 
ATOM     96  F   UNL     1      -5.801 -27.025   7.100  1.00  0.00    -0.200 F 
ENDBRANCH  63  86
ENDBRANCH  37  38
ENDBRANCH  29  32
ENDBRANCH  27  28
ENDBRANCH  26  27
ENDBRANCH   1  26
TORSDOF 16
