REMARK SMILES Cc1ccc(N2C(=O)S/C(=C/c3cccc(O[C@H](C)C(=O)NCCCCNC(=O)c4ccc(-c5c6nc(c(-c7c(F)c(F)c(F)c(F)c7F)c7ccc([nH]7)c(-c7c(F)c(F)c(F)c(F)c7F)c7nc(c(-c8c(F)c(F)c(F)c(F)c8F)c8ccc5[nH]8)C=C7)C=C6)cc4)c3)C2=O)c(C)c1
REMARK SMILES IDX 23 1 22 2 20 3 21 4 18 6 19 7 17 8 16 9 12 10 13 11 93 12
REMARK SMILES IDX 14 13 15 14 11 15 6 16 7 17 94 18 8 19 9 20 10 21 95 22 5 23
REMARK SMILES IDX 1 24 2 25 3 26 98 27 4 28 96 29 97 30 24 31 25 32 26 33
REMARK SMILES IDX 27 34 28 35 29 37 30 38 31 39 92 40 32 41 91 42 33 43 34 44
REMARK SMILES IDX 35 45 85 46 36 47 90 48 84 49 86 50 37 51 89 52 83 53 82 54
REMARK SMILES IDX 38 56 70 57 50 58 69 59 51 60 54 61 68 62 87 63 52 64 53 65
REMARK SMILES IDX 67 67 88 68 55 69 39 70 40 71 48 72 41 73 42 74 46 75 49 76
REMARK SMILES IDX 43 77 44 78 47 79 45 80 71 81 72 82 80 83 73 84 74 85 78 86
REMARK SMILES IDX 81 87 75 88 76 89 79 90 77 91 56 92 57 93 65 94 58 95 59 96
REMARK SMILES IDX 63 97 66 98 60 99 61 100 64 101 62 102
REMARK H PARENT 22 5 27 36 86 55 54 66
REMARK Flexibility Score: inf
ROOT
ATOM      1  C   UNL     1      -4.824  -2.504  -3.574  1.00  0.00     0.116 C 
ENDROOT
BRANCH   1   2
ATOM      2  N   UNL     1      -4.758  -3.479  -4.645  1.00  0.00    -0.353 N 
ATOM      3  C   UNL     1      -3.863  -3.573  -5.664  1.00  0.00     0.260 C 
ATOM      4  O   UNL     1      -4.029  -4.471  -6.495  1.00  0.00    -0.271 OA
ATOM      5  H   UNL     1      -5.460  -4.170  -4.633  1.00  0.00     0.163 HD
BRANCH   3   6
ATOM      6  C   UNL     1      -2.671  -2.598  -5.772  1.00  0.00     0.258 C 
ATOM      7  C   UNL     1      -3.214  -1.220  -6.189  1.00  0.00     0.064 C 
BRANCH   6   8
ATOM      8  O   UNL     1      -1.773  -2.374  -4.695  1.00  0.00    -0.481 OA
BRANCH   8   9
ATOM      9  C   UNL     1      -1.460  -3.344  -3.790  1.00  0.00     0.121 A 
ATOM     10  C   UNL     1      -0.479  -3.693  -1.581  1.00  0.00    -0.021 A 
ATOM     11  C   UNL     1      -0.870  -5.031  -1.622  1.00  0.00     0.008 A 
ATOM     12  C   UNL     1      -0.769  -2.863  -2.673  1.00  0.00     0.054 A 
ATOM     13  C   UNL     1      -1.507  -5.532  -2.757  1.00  0.00     0.004 A 
ATOM     14  C   UNL     1      -1.773  -4.698  -3.849  1.00  0.00     0.046 A 
BRANCH  10  15
ATOM     15  C   UNL     1       0.253  -3.175  -0.422  1.00  0.00     0.029 C 
ATOM     16  N   UNL     1      -1.516  -0.537   1.383  1.00  0.00    -0.236 N 
ATOM     17  C   UNL     1      -0.366  -0.359   2.118  1.00  0.00     0.298 C 
ATOM     18  C   UNL     1      -1.473  -1.486   0.374  1.00  0.00     0.272 C 
ATOM     19  O   UNL     1      -0.126   0.469   2.982  1.00  0.00    -0.260 OA
ATOM     20  S   UNL     1       0.820  -1.579   1.672  1.00  0.00    -0.022 SA
ATOM     21  C   UNL     1      -0.163  -2.202   0.402  1.00  0.00     0.083 C 
ATOM     22  O   UNL     1      -2.341  -1.698  -0.463  1.00  0.00    -0.268 OA
BRANCH  16  23
ATOM     23  C   UNL     1      -2.663   0.282   1.560  1.00  0.00     0.056 A 
ATOM     24  C   UNL     1      -6.118   2.871   1.682  1.00  0.00     0.044 C 
ATOM     25  C   UNL     1      -4.908   1.987   1.658  1.00  0.00    -0.051 A 
ATOM     26  C   UNL     1      -3.620   2.521   1.623  1.00  0.00     0.005 A 
ATOM     27  C   UNL     1      -5.066   0.597   1.695  1.00  0.00     0.009 A 
ATOM     28  C   UNL     1      -2.507   1.678   1.582  1.00  0.00     0.027 A 
ATOM     29  C   UNL     1      -3.958  -0.267   1.666  1.00  0.00    -0.026 A 
ATOM     30  C   UNL     1      -4.233  -1.742   1.792  1.00  0.00     0.046 C 
ENDBRANCH  16  23
ENDBRANCH  10  15
ENDBRANCH   8   9
ENDBRANCH   6   8
ENDBRANCH   3   6
ENDBRANCH   1   2
BRANCH   1  31
ATOM     31  C   UNL     1      -6.237  -1.937  -3.466  1.00  0.00     0.023 C 
BRANCH  31  32
ATOM     32  C   UNL     1      -7.292  -2.965  -3.045  1.00  0.00     0.023 C 
BRANCH  32  33
ATOM     33  C   UNL     1      -7.034  -3.614  -1.691  1.00  0.00     0.116 C 
BRANCH  33  34
ATOM     34  N   UNL     1      -7.064  -2.649  -0.603  1.00  0.00    -0.352 N 
ATOM     35  C   UNL     1      -7.783  -2.692   0.565  1.00  0.00     0.251 C 
ATOM     36  H   UNL     1      -6.491  -1.858  -0.720  1.00  0.00     0.163 HD
ATOM     37  O   UNL     1      -7.832  -1.718   1.308  1.00  0.00    -0.269 OA
BRANCH  35  38
ATOM     38  C   UNL     1      -8.519  -3.923   0.916  1.00  0.00     0.039 A 
ATOM     39  C   UNL     1      -9.846  -3.823   1.337  1.00  0.00     0.014 A 
ATOM     40  C   UNL     1      -7.901  -5.173   0.811  1.00  0.00     0.014 A 
ATOM     41  C   UNL     1     -10.575  -4.985   1.597  1.00  0.00     0.010 A 
ATOM     42  C   UNL     1      -8.651  -6.329   0.992  1.00  0.00     0.010 A 
ATOM     43  C   UNL     1      -9.993  -6.247   1.394  1.00  0.00    -0.014 A 
BRANCH  43  44
ATOM     44  C   UNL     1     -10.769  -7.495   1.610  1.00  0.00     0.031 A 
ATOM     45  C   UNL     1     -10.351  -8.464   2.681  1.00  0.00     0.074 A 
ATOM     46  C   UNL     1     -11.809  -7.784   0.806  1.00  0.00     0.049 A 
ATOM     47  N   UNL     1     -10.855  -9.634   2.983  1.00  0.00    -0.248 NA
ATOM     48  C   UNL     1      -9.192  -8.080   3.502  1.00  0.00     0.031 C 
ATOM     49  C   UNL     1     -12.284  -6.947  -0.297  1.00  0.00     0.029 A 
ATOM     50  N   UNL     1     -12.650  -8.869   0.785  1.00  0.00    -0.354 N 
ATOM     51  C   UNL     1     -10.069 -10.127   4.016  1.00  0.00     0.074 A 
ATOM     52  C   UNL     1      -9.018  -9.161   4.247  1.00  0.00     0.031 C 
ATOM     53  C   UNL     1     -13.347  -7.535  -0.869  1.00  0.00     0.029 A 
ATOM     54  C   UNL     1     -13.603  -8.808  -0.202  1.00  0.00     0.049 A 
ATOM     55  H   UNL     1     -12.578  -9.619   1.419  1.00  0.00     0.167 HD
ATOM     56  C   UNL     1     -10.226 -11.270   4.726  1.00  0.00     0.037 A 
ATOM     57  C   UNL     1     -14.570  -9.684  -0.535  1.00  0.00     0.037 A 
ATOM     58  C   UNL     1     -11.285 -12.219   4.505  1.00  0.00     0.049 A 
ATOM     59  C   UNL     1     -14.713 -10.956   0.258  1.00  0.00     0.074 A 
ATOM     60  C   UNL     1     -11.563 -13.380   5.205  1.00  0.00     0.029 A 
ATOM     61  N   UNL     1     -12.239 -12.118   3.502  1.00  0.00    -0.354 N 
ATOM     62  N   UNL     1     -14.007 -11.380   1.278  1.00  0.00    -0.248 NA
ATOM     63  C   UNL     1     -15.793 -11.867  -0.143  1.00  0.00     0.031 C 
ATOM     64  C   UNL     1     -12.652 -14.009   4.592  1.00  0.00     0.029 A 
ATOM     65  C   UNL     1     -13.092 -13.210   3.550  1.00  0.00     0.049 A 
ATOM     66  H   UNL     1     -12.300 -11.381   2.854  1.00  0.00     0.167 HD
ATOM     67  C   UNL     1     -14.576 -12.587   1.662  1.00  0.00     0.074 A 
ATOM     68  C   UNL     1     -15.694 -12.822   0.772  1.00  0.00     0.031 C 
ATOM     69  C   UNL     1     -14.207 -13.425   2.662  1.00  0.00     0.037 A 
BRANCH  56  70
ATOM     70  C   UNL     1      -9.223 -11.556   5.809  1.00  0.00     0.064 A 
ATOM     71  C   UNL     1      -9.155 -10.777   6.975  1.00  0.00     0.173 A 
ATOM     72  C   UNL     1      -8.335 -12.635   5.691  1.00  0.00     0.173 A 
ATOM     73  F   UNL     1      -9.973  -9.725   7.134  1.00  0.00    -0.203 F 
ATOM     74  C   UNL     1      -8.210 -11.044   7.963  1.00  0.00     0.198 A 
ATOM     75  C   UNL     1      -7.415 -12.921   6.697  1.00  0.00     0.198 A 
ATOM     76  F   UNL     1      -8.360 -13.416   4.601  1.00  0.00    -0.203 F 
ATOM     77  F   UNL     1      -8.124 -10.249   9.038  1.00  0.00    -0.200 F 
ATOM     78  C   UNL     1      -7.346 -12.120   7.826  1.00  0.00     0.200 A 
ATOM     79  F   UNL     1      -6.590 -13.970   6.569  1.00  0.00    -0.200 F 
ATOM     80  F   UNL     1      -6.441 -12.379   8.779  1.00  0.00    -0.200 F 
ENDBRANCH  56  70
BRANCH  57  81
ATOM     81  C   UNL     1     -15.498  -9.376  -1.655  1.00  0.00     0.064 A 
ATOM     82  C   UNL     1     -16.851  -9.100  -1.413  1.00  0.00     0.173 A 
ATOM     83  C   UNL     1     -15.056  -9.354  -2.986  1.00  0.00     0.173 A 
ATOM     84  F   UNL     1     -17.325  -9.129  -0.159  1.00  0.00    -0.203 F 
ATOM     85  C   UNL     1     -17.730  -8.834  -2.460  1.00  0.00     0.198 A 
ATOM     86  C   UNL     1     -15.930  -9.058  -4.030  1.00  0.00     0.198 A 
ATOM     87  F   UNL     1     -13.770  -9.606  -3.272  1.00  0.00    -0.203 F 
ATOM     88  F   UNL     1     -19.028  -8.620  -2.204  1.00  0.00    -0.200 F 
ATOM     89  C   UNL     1     -17.268  -8.807  -3.767  1.00  0.00     0.200 A 
ATOM     90  F   UNL     1     -15.476  -9.018  -5.290  1.00  0.00    -0.200 F 
ATOM     91  F   UNL     1     -18.113  -8.546  -4.774  1.00  0.00    -0.200 F 
ENDBRANCH  57  81
BRANCH  69  92
ATOM     92  C   UNL     1     -15.045 -14.652   2.880  1.00  0.00     0.064 A 
ATOM     93  C   UNL     1     -15.038 -15.724   1.974  1.00  0.00     0.173 A 
ATOM     94  C   UNL     1     -15.836 -14.773   4.033  1.00  0.00     0.173 A 
ATOM     95  F   UNL     1     -14.311 -15.652   0.849  1.00  0.00    -0.203 F 
ATOM     96  C   UNL     1     -15.813 -16.858   2.203  1.00  0.00     0.198 A 
ATOM     97  C   UNL     1     -16.582 -15.923   4.275  1.00  0.00     0.198 A 
ATOM     98  F   UNL     1     -15.873 -13.781   4.935  1.00  0.00    -0.203 F 
ATOM     99  F   UNL     1     -15.830 -17.848   1.299  1.00  0.00    -0.200 F 
ATOM    100  C   UNL     1     -16.577 -16.961   3.355  1.00  0.00     0.200 A 
ATOM    101  F   UNL     1     -17.307 -16.026   5.397  1.00  0.00    -0.200 F 
ATOM    102  F   UNL     1     -17.314 -18.057   3.577  1.00  0.00    -0.200 F 
ENDBRANCH  69  92
ENDBRANCH  43  44
ENDBRANCH  35  38
ENDBRANCH  33  34
ENDBRANCH  32  33
ENDBRANCH  31  32
ENDBRANCH   1  31
TORSDOF 15
