REMARK SMILES Cn1cc([C@H]([NH3+])CC(=O)NCCCCNC(=O)c2ccc(-c3c4nc(c(-c5c(F)c(F)c(F)c(F)c5F)c5ccc([nH]5)c(-c5c(F)c(F)c(F)c(F)c5F)c5nc(c(-c6c(F)c(F)c(F)c(F)c6F)c6ccc3[nH]6)C=C5)C=C4)cc2)c2ccccc21
REMARK SMILES IDX 12 1 11 2 10 3 8 4 9 5 7 7 5 8 4 9 1 10 2 11 3 12 86 13
REMARK SMILES IDX 81 14 85 15 82 16 84 17 83 18 6 19 13 23 14 24 15 25 16 26
REMARK SMILES IDX 17 28 18 29 19 30 80 31 20 32 79 33 21 34 22 35 23 36 73 37
REMARK SMILES IDX 24 38 78 39 72 40 74 41 25 42 77 43 71 44 70 45 26 47 58 48
REMARK SMILES IDX 38 49 57 50 39 51 42 52 56 53 75 54 40 55 41 56 55 58 76 59
REMARK SMILES IDX 43 60 27 61 28 62 36 63 29 64 30 65 34 66 37 67 31 68 32 69
REMARK SMILES IDX 35 70 33 71 59 72 60 73 68 74 61 75 62 76 66 77 69 78 63 79
REMARK SMILES IDX 64 80 67 81 65 82 44 83 45 84 53 85 46 86 47 87 51 88 54 89
REMARK SMILES IDX 48 90 49 91 52 92 50 93
REMARK H PARENT 10 6 6 20 6 21 6 22 15 27 74 46 42 57
REMARK Flexibility Score: inf
ROOT
ATOM      1  C   UNL     1       1.412   0.133  -1.215  1.00  0.00     0.023 C 
ENDROOT
BRANCH   1   2
ATOM      2  C   UNL     1       0.327  -0.776  -1.792  1.00  0.00     0.116 C 
BRANCH   2   3
ATOM      3  N   UNL     1       0.888  -1.883  -2.547  1.00  0.00    -0.356 N 
ATOM      4  C   UNL     1       0.887  -3.211  -2.233  1.00  0.00     0.226 C 
ATOM      5  O   UNL     1       1.512  -3.990  -2.955  1.00  0.00    -0.275 OA
ATOM      6  H   UNL     1       1.326  -1.644  -3.395  1.00  0.00     0.163 HD
BRANCH   4   7
ATOM      7  C   UNL     1       0.138  -3.697  -1.017  1.00  0.00     0.170 C 
BRANCH   7   8
ATOM      8  C   UNL     1       1.044  -3.835   0.208  1.00  0.00     0.223 C 
BRANCH   8   9
ATOM      9  C   UNL     1       0.258  -4.278   1.410  1.00  0.00     0.035 A 
ATOM     10  C   UNL     1      -1.770  -3.802   4.380  1.00  0.00     0.149 C 
ATOM     11  N   UNL     1      -0.988  -4.282   3.263  1.00  0.00    -0.350 N 
ATOM     12  C   UNL     1      -0.493  -3.490   2.266  1.00  0.00     0.096 A 
ATOM     13  C   UNL     1      -0.614  -5.593   3.060  1.00  0.00     0.048 A 
ATOM     14  C   UNL     1       0.155  -5.620   1.893  1.00  0.00     0.009 A 
ATOM     15  C   UNL     1      -0.878  -6.754   3.802  1.00  0.00     0.027 A 
ATOM     16  C   UNL     1       0.666  -6.854   1.442  1.00  0.00     0.011 A 
ATOM     17  C   UNL     1      -0.354  -7.964   3.336  1.00  0.00     0.002 A 
ATOM     18  C   UNL     1       0.404  -8.017   2.170  1.00  0.00     0.001 A 
ENDBRANCH   8   9
BRANCH   8  19
ATOM     19  N   UNL     1       1.741  -2.603   0.595  1.00  0.00    -0.351 N 
ATOM     20  H   UNL     1       1.059  -1.903   0.883  1.00  0.00     0.345 HD
ATOM     21  H   UNL     1       2.276  -2.251  -0.200  1.00  0.00     0.345 HD
ATOM     22  H   UNL     1       2.375  -2.800   1.370  1.00  0.00     0.345 HD
ENDBRANCH   8  19
ENDBRANCH   7   8
ENDBRANCH   4   7
ENDBRANCH   2   3
ENDBRANCH   1   2
BRANCH   1  23
ATOM     23  C   UNL     1       2.183   0.943  -2.250  1.00  0.00     0.023 C 
BRANCH  23  24
ATOM     24  C   UNL     1       1.326   1.887  -3.076  1.00  0.00     0.116 C 
BRANCH  24  25
ATOM     25  N   UNL     1       0.603   2.858  -2.264  1.00  0.00    -0.352 N 
ATOM     26  C   UNL     1       0.510   4.218  -2.437  1.00  0.00     0.251 C 
ATOM     27  H   UNL     1       0.116   2.491  -1.491  1.00  0.00     0.163 HD
ATOM     28  O   UNL     1      -0.035   4.928  -1.600  1.00  0.00    -0.269 OA
BRANCH  26  29
ATOM     29  C   UNL     1       1.117   4.817  -3.640  1.00  0.00     0.039 A 
ATOM     30  C   UNL     1       2.015   5.876  -3.494  1.00  0.00     0.014 A 
ATOM     31  C   UNL     1       0.860   4.265  -4.897  1.00  0.00     0.014 A 
ATOM     32  C   UNL     1       2.724   6.330  -4.607  1.00  0.00     0.010 A 
ATOM     33  C   UNL     1       1.627   4.658  -5.983  1.00  0.00     0.010 A 
ATOM     34  C   UNL     1       2.567   5.693  -5.849  1.00  0.00    -0.014 A 
BRANCH  34  35
ATOM     35  C   UNL     1       3.358   6.092  -7.038  1.00  0.00     0.031 A 
ATOM     36  C   UNL     1       2.647   6.624  -8.249  1.00  0.00     0.074 A 
ATOM     37  C   UNL     1       4.687   5.881  -7.064  1.00  0.00     0.049 A 
ATOM     38  N   UNL     1       3.119   6.882  -9.442  1.00  0.00    -0.248 NA
ATOM     39  C   UNL     1       1.200   6.859  -8.112  1.00  0.00     0.031 C 
ATOM     40  C   UNL     1       5.481   5.323  -5.968  1.00  0.00     0.029 A 
ATOM     41  N   UNL     1       5.605   6.095  -8.062  1.00  0.00    -0.354 N 
ATOM     42  C   UNL     1       2.025   7.273 -10.201  1.00  0.00     0.074 A 
ATOM     43  C   UNL     1       0.859   7.174  -9.351  1.00  0.00     0.031 C 
ATOM     44  C   UNL     1       6.768   5.256  -6.347  1.00  0.00     0.029 A 
ATOM     45  C   UNL     1       6.884   5.728  -7.723  1.00  0.00     0.049 A 
ATOM     46  H   UNL     1       5.368   6.476  -8.939  1.00  0.00     0.167 HD
ATOM     47  C   UNL     1       2.000   7.698 -11.485  1.00  0.00     0.037 A 
ATOM     48  C   UNL     1       8.018   5.760  -8.448  1.00  0.00     0.037 A 
ATOM     49  C   UNL     1       3.169   7.844 -12.308  1.00  0.00     0.049 A 
ATOM     50  C   UNL     1       7.967   6.265  -9.864  1.00  0.00     0.074 A 
ATOM     51  C   UNL     1       3.262   8.333 -13.598  1.00  0.00     0.029 A 
ATOM     52  N   UNL     1       4.456   7.508 -11.911  1.00  0.00    -0.354 N 
ATOM     53  N   UNL     1       6.936   6.683 -10.556  1.00  0.00    -0.248 NA
ATOM     54  C   UNL     1       9.239   6.306 -10.600  1.00  0.00     0.031 C 
ATOM     55  C   UNL     1       4.602   8.268 -13.994  1.00  0.00     0.029 A 
ATOM     56  C   UNL     1       5.348   7.773 -12.936  1.00  0.00     0.049 A 
ATOM     57  H   UNL     1       4.698   7.138 -11.032  1.00  0.00     0.167 HD
ATOM     58  C   UNL     1       7.435   7.062 -11.795  1.00  0.00     0.074 A 
ATOM     59  C   UNL     1       8.865   6.833 -11.757  1.00  0.00     0.031 C 
ATOM     60  C   UNL     1       6.770   7.555 -12.867  1.00  0.00     0.037 A 
BRANCH  47  61
ATOM     61  C   UNL     1       0.664   8.048 -12.071  1.00  0.00     0.064 A 
ATOM     62  C   UNL     1      -0.038   9.192 -11.664  1.00  0.00     0.173 A 
ATOM     63  C   UNL     1       0.090   7.242 -13.065  1.00  0.00     0.173 A 
ATOM     64  F   UNL     1       0.462   9.986 -10.706  1.00  0.00    -0.203 F 
ATOM     65  C   UNL     1      -1.281   9.501 -12.210  1.00  0.00     0.198 A 
ATOM     66  C   UNL     1      -1.140   7.569 -13.629  1.00  0.00     0.198 A 
ATOM     67  F   UNL     1       0.722   6.138 -13.490  1.00  0.00    -0.203 F 
ATOM     68  F   UNL     1      -1.957  10.570 -11.769  1.00  0.00    -0.200 F 
ATOM     69  C   UNL     1      -1.828   8.693 -13.195  1.00  0.00     0.200 A 
ATOM     70  F   UNL     1      -1.664   6.794 -14.588  1.00  0.00    -0.200 F 
ATOM     71  F   UNL     1      -3.023   8.994 -13.723  1.00  0.00    -0.200 F 
ENDBRANCH  47  61
BRANCH  48  72
ATOM     72  C   UNL     1       9.302   5.327  -7.840  1.00  0.00     0.064 A 
ATOM     73  C   UNL     1      10.294   6.266  -7.523  1.00  0.00     0.173 A 
ATOM     74  C   UNL     1       9.568   3.978  -7.567  1.00  0.00     0.173 A 
ATOM     75  F   UNL     1      10.093   7.566  -7.785  1.00  0.00    -0.203 F 
ATOM     76  C   UNL     1      11.511   5.870  -6.973  1.00  0.00     0.198 A 
ATOM     77  C   UNL     1      10.776   3.586  -6.994  1.00  0.00     0.198 A 
ATOM     78  F   UNL     1       8.649   3.043  -7.847  1.00  0.00    -0.203 F 
ATOM     79  F   UNL     1      12.457   6.783  -6.718  1.00  0.00    -0.200 F 
ATOM     80  C   UNL     1      11.749   4.531  -6.704  1.00  0.00     0.200 A 
ATOM     81  F   UNL     1      10.999   2.292  -6.725  1.00  0.00    -0.200 F 
ATOM     82  F   UNL     1      12.919   4.150  -6.174  1.00  0.00    -0.200 F 
ENDBRANCH  48  72
BRANCH  60  83
ATOM     83  C   UNL     1       7.582   7.918 -14.073  1.00  0.00     0.064 A 
ATOM     84  C   UNL     1       8.102   6.938 -14.929  1.00  0.00     0.173 A 
ATOM     85  C   UNL     1       7.792   9.265 -14.404  1.00  0.00     0.173 A 
ATOM     86  F   UNL     1       7.939   5.638 -14.644  1.00  0.00    -0.203 F 
ATOM     87  C   UNL     1       8.818   7.294 -16.069  1.00  0.00     0.198 A 
ATOM     88  C   UNL     1       8.487   9.618 -15.557  1.00  0.00     0.198 A 
ATOM     89  F   UNL     1       7.309  10.238 -13.617  1.00  0.00    -0.203 F 
ATOM     90  F   UNL     1       9.336   6.342 -16.857  1.00  0.00    -0.200 F 
ATOM     91  C   UNL     1       9.002   8.633 -16.386  1.00  0.00     0.200 A 
ATOM     92  F   UNL     1       8.655  10.910 -15.867  1.00  0.00    -0.200 F 
ATOM     93  F   UNL     1       9.682   8.973 -17.489  1.00  0.00    -0.200 F 
ENDBRANCH  60  83
ENDBRANCH  34  35
ENDBRANCH  26  29
ENDBRANCH  24  25
ENDBRANCH  23  24
ENDBRANCH   1  23
TORSDOF 14
