REMARK SMILES COc1ccc(N2C(=O)S[C@@H](CC(=O)Nc3nc(CC(=O)NCCCCNC(=O)c4ccc(-c5c6nc(c(-c7c(F)c(F)c(F)c(F)c7F)c7ccc([nH]7)c(-c7c(F)c(F)c(F)c(F)c7F)c7nc(c(-c8c(F)c(F)c(F)c(F)c8F)c8ccc5[nH]8)C=C7)C=C6)cc4)cs3)C2=O)cc1
REMARK SMILES IDX 20 1 21 2 22 3 19 5 18 6 16 7 17 8 94 9 93 10 15 11 13 12
REMARK SMILES IDX 14 13 12 15 11 16 7 17 8 18 95 19 9 20 10 21 96 22 6 23 3 24
REMARK SMILES IDX 4 25 98 26 5 27 97 28 2 29 1 30 23 31 24 32 25 33 26 34
REMARK SMILES IDX 27 35 28 36 29 38 30 39 31 40 92 41 32 42 91 43 33 44 34 45
REMARK SMILES IDX 35 46 85 47 36 48 90 49 84 50 86 51 37 52 89 53 83 54 82 55
REMARK SMILES IDX 38 57 70 58 50 59 69 60 51 61 54 62 68 63 87 64 52 65 53 66
REMARK SMILES IDX 67 68 88 69 55 70 39 71 40 72 48 73 41 74 42 75 46 76 49 77
REMARK SMILES IDX 43 78 44 79 47 80 45 81 71 82 72 83 80 84 73 85 74 86 78 87
REMARK SMILES IDX 81 88 75 89 76 90 79 91 77 92 56 93 57 94 65 95 58 96 59 97
REMARK SMILES IDX 63 98 66 99 60 100 61 101 64 102 62 103
REMARK H PARENT 22 4 15 14 27 37 86 56 54 67
REMARK Flexibility Score: inf
ROOT
ATOM      1  C   UNL     1       4.604 -10.110   3.478  1.00  0.00     0.226 C 
ATOM      2  O   UNL     1       4.862 -11.012   2.679  1.00  0.00    -0.275 OA
ATOM      3  N   UNL     1       5.647  -9.448   4.062  1.00  0.00    -0.356 N 
ATOM      4  H   UNL     1       6.541  -9.695   3.731  1.00  0.00     0.163 HD
ENDROOT
BRANCH   1   5
ATOM      5  C   UNL     1       3.171  -9.710   3.774  1.00  0.00     0.157 C 
BRANCH   5   6
ATOM      6  C   UNL     1       2.755 -10.036   5.170  1.00  0.00     0.063 A 
ATOM      7  C   UNL     1       2.089  -9.411   7.177  1.00  0.00     0.189 A 
ATOM      8  N   UNL     1       2.250  -9.006   5.948  1.00  0.00    -0.224 NA
ATOM      9  S   UNL     1       2.408 -11.055   7.478  1.00  0.00    -0.105 S 
ATOM     10  C   UNL     1       2.830 -11.255   5.821  1.00  0.00     0.093 A 
BRANCH   7  11
ATOM     11  N   UNL     1       1.767  -8.662   8.265  1.00  0.00    -0.302 N 
ATOM     12  C   UNL     1       1.349  -7.368   8.258  1.00  0.00     0.227 C 
ATOM     13  O   UNL     1       1.302  -6.765   9.336  1.00  0.00    -0.275 OA
ATOM     14  H   UNL     1       1.845  -9.099   9.144  1.00  0.00     0.172 HD
BRANCH  12  15
ATOM     15  C   UNL     1       0.832  -6.699   7.000  1.00  0.00     0.125 C 
BRANCH  15  16
ATOM     16  C   UNL     1       1.841  -6.102   6.030  1.00  0.00     0.156 C 
ATOM     17  N   UNL     1       2.015  -4.012   4.852  1.00  0.00    -0.240 N 
ATOM     18  C   UNL     1       3.238  -4.016   5.492  1.00  0.00     0.293 C 
ATOM     19  C   UNL     1       1.165  -5.065   5.155  1.00  0.00     0.248 C 
ATOM     20  O   UNL     1       4.199  -3.292   5.327  1.00  0.00    -0.261 OA
ATOM     21  S   UNL     1       3.277  -5.269   6.725  1.00  0.00    -0.050 SA
ATOM     22  O   UNL     1       0.041  -5.261   4.697  1.00  0.00    -0.273 OA
BRANCH  17  23
ATOM     23  C   UNL     1       1.648  -2.998   3.914  1.00  0.00     0.053 A 
ATOM     24  C   UNL     1       0.898  -1.006   2.047  1.00  0.00     0.119 A 
ATOM     25  C   UNL     1      -0.049  -1.571   2.897  1.00  0.00     0.048 A 
ATOM     26  C   UNL     1       2.225  -1.416   2.142  1.00  0.00     0.048 A 
ATOM     27  C   UNL     1       0.317  -2.568   3.805  1.00  0.00     0.031 A 
ATOM     28  C   UNL     1       2.598  -2.394   3.076  1.00  0.00     0.031 A 
BRANCH  24  29
ATOM     29  O   UNL     1       0.429  -0.035   1.210  1.00  0.00    -0.497 OA
ATOM     30  C   UNL     1       1.099   0.072  -0.041  1.00  0.00     0.278 C 
ENDBRANCH  24  29
ENDBRANCH  17  23
ENDBRANCH  15  16
ENDBRANCH  12  15
ENDBRANCH   7  11
ENDBRANCH   5   6
ENDBRANCH   1   5
BRANCH   3  31
ATOM     31  C   UNL     1       5.627  -8.434   5.101  1.00  0.00     0.116 C 
BRANCH  31  32
ATOM     32  C   UNL     1       5.939  -9.023   6.479  1.00  0.00     0.023 C 
BRANCH  32  33
ATOM     33  C   UNL     1       7.339  -9.624   6.626  1.00  0.00     0.023 C 
BRANCH  33  34
ATOM     34  C   UNL     1       8.490  -8.660   6.373  1.00  0.00     0.116 C 
BRANCH  34  35
ATOM     35  N   UNL     1       8.495  -7.531   7.287  1.00  0.00    -0.352 N 
ATOM     36  C   UNL     1       9.549  -6.944   7.943  1.00  0.00     0.251 C 
ATOM     37  H   UNL     1       7.614  -7.127   7.461  1.00  0.00     0.163 HD
ATOM     38  O   UNL     1       9.335  -6.082   8.790  1.00  0.00    -0.269 OA
BRANCH  36  39
ATOM     39  C   UNL     1      10.941  -7.361   7.659  1.00  0.00     0.039 A 
ATOM     40  C   UNL     1      11.838  -7.460   8.726  1.00  0.00     0.014 A 
ATOM     41  C   UNL     1      11.378  -7.622   6.357  1.00  0.00     0.014 A 
ATOM     42  C   UNL     1      13.158  -7.851   8.492  1.00  0.00     0.010 A 
ATOM     43  C   UNL     1      12.670  -8.095   6.136  1.00  0.00     0.010 A 
ATOM     44  C   UNL     1      13.581  -8.192   7.197  1.00  0.00    -0.014 A 
BRANCH  44  45
ATOM     45  C   UNL     1      14.984  -8.608   6.941  1.00  0.00     0.031 A 
ATOM     46  C   UNL     1      15.876  -7.765   6.069  1.00  0.00     0.074 A 
ATOM     47  C   UNL     1      15.450  -9.756   7.469  1.00  0.00     0.049 A 
ATOM     48  N   UNL     1      17.127  -7.957   5.730  1.00  0.00    -0.248 NA
ATOM     49  C   UNL     1      15.276  -6.560   5.475  1.00  0.00     0.031 C 
ATOM     50  C   UNL     1      14.670 -10.689   8.283  1.00  0.00     0.029 A 
ATOM     51  N   UNL     1      16.694 -10.332   7.402  1.00  0.00    -0.354 N 
ATOM     52  C   UNL     1      17.454  -6.908   4.880  1.00  0.00     0.074 A 
ATOM     53  C   UNL     1      16.255  -6.120   4.700  1.00  0.00     0.031 C 
ATOM     54  C   UNL     1      15.462 -11.703   8.669  1.00  0.00     0.029 A 
ATOM     55  C   UNL     1      16.794 -11.507   8.106  1.00  0.00     0.049 A 
ATOM     56  H   UNL     1      17.443  -9.941   6.897  1.00  0.00     0.167 HD
ATOM     57  C   UNL     1      18.654  -6.608   4.326  1.00  0.00     0.037 A 
ATOM     58  C   UNL     1      17.846 -12.329   8.282  1.00  0.00     0.037 A 
ATOM     59  C   UNL     1      19.853  -7.379   4.527  1.00  0.00     0.049 A 
ATOM     60  C   UNL     1      19.171 -11.967   7.665  1.00  0.00     0.074 A 
ATOM     61  C   UNL     1      21.130  -7.131   4.054  1.00  0.00     0.029 A 
ATOM     62  N   UNL     1      19.920  -8.554   5.263  1.00  0.00    -0.354 N 
ATOM     63  N   UNL     1      19.488 -10.931   6.927  1.00  0.00    -0.248 NA
ATOM     64  C   UNL     1      20.290 -12.884   7.922  1.00  0.00     0.031 C 
ATOM     65  C   UNL     1      21.960  -8.181   4.464  1.00  0.00     0.029 A 
ATOM     66  C   UNL     1      21.214  -9.052   5.241  1.00  0.00     0.049 A 
ATOM     67  H   UNL     1      19.162  -8.971   5.731  1.00  0.00     0.167 HD
ATOM     68  C   UNL     1      20.845 -11.053   6.659  1.00  0.00     0.074 A 
ATOM     69  C   UNL     1      21.295 -12.254   7.333  1.00  0.00     0.031 C 
ATOM     70  C   UNL     1      21.647 -10.246   5.921  1.00  0.00     0.037 A 
BRANCH  57  71
ATOM     71  C   UNL     1      18.727  -5.387   3.452  1.00  0.00     0.064 A 
ATOM     72  C   UNL     1      18.591  -4.093   3.980  1.00  0.00     0.173 A 
ATOM     73  C   UNL     1      18.962  -5.509   2.074  1.00  0.00     0.173 A 
ATOM     74  F   UNL     1      18.352  -3.920   5.288  1.00  0.00    -0.203 F 
ATOM     75  C   UNL     1      18.651  -2.972   3.157  1.00  0.00     0.198 A 
ATOM     76  C   UNL     1      19.057  -4.383   1.259  1.00  0.00     0.198 A 
ATOM     77  F   UNL     1      19.106  -6.721   1.516  1.00  0.00    -0.203 F 
ATOM     78  F   UNL     1      18.460  -1.751   3.676  1.00  0.00    -0.200 F 
ATOM     79  C   UNL     1      18.892  -3.117   1.799  1.00  0.00     0.200 A 
ATOM     80  F   UNL     1      19.303  -4.525  -0.051  1.00  0.00    -0.200 F 
ATOM     81  F   UNL     1      18.955  -2.036   1.009  1.00  0.00    -0.200 F 
ENDBRANCH  57  71
BRANCH  58  82
ATOM     82  C   UNL     1      17.704 -13.555   9.112  1.00  0.00     0.064 A 
ATOM     83  C   UNL     1      18.353 -13.668  10.350  1.00  0.00     0.173 A 
ATOM     84  C   UNL     1      16.932 -14.643   8.680  1.00  0.00     0.173 A 
ATOM     85  F   UNL     1      19.119 -12.662  10.797  1.00  0.00    -0.203 F 
ATOM     86  C   UNL     1      18.259 -14.831  11.110  1.00  0.00     0.198 A 
ATOM     87  C   UNL     1      16.813 -15.794   9.456  1.00  0.00     0.198 A 
ATOM     88  F   UNL     1      16.285 -14.584   7.507  1.00  0.00    -0.203 F 
ATOM     89  F   UNL     1      18.935 -14.932  12.262  1.00  0.00    -0.200 F 
ATOM     90  C   UNL     1      17.485 -15.892  10.665  1.00  0.00     0.200 A 
ATOM     91  F   UNL     1      16.051 -16.811   9.030  1.00  0.00    -0.200 F 
ATOM     92  F   UNL     1      17.394 -17.011  11.396  1.00  0.00    -0.200 F 
ENDBRANCH  58  82
BRANCH  70  93
ATOM     93  C   UNL     1      23.102 -10.617   5.839  1.00  0.00     0.064 A 
ATOM     94  C   UNL     1      23.538 -11.752   5.140  1.00  0.00     0.173 A 
ATOM     95  C   UNL     1      24.072  -9.817   6.462  1.00  0.00     0.173 A 
ATOM     96  F   UNL     1      22.650 -12.557   4.537  1.00  0.00    -0.203 F 
ATOM     97  C   UNL     1      24.887 -12.097   5.105  1.00  0.00     0.198 A 
ATOM     98  C   UNL     1      25.424 -10.145   6.394  1.00  0.00     0.198 A 
ATOM     99  F   UNL     1      23.711  -8.714   7.135  1.00  0.00    -0.203 F 
ATOM    100  F   UNL     1      25.273 -13.223   4.489  1.00  0.00    -0.200 F 
ATOM    101  C   UNL     1      25.828 -11.291   5.727  1.00  0.00     0.200 A 
ATOM    102  F   UNL     1      26.333  -9.356   6.982  1.00  0.00    -0.200 F 
ATOM    103  F   UNL     1      27.126 -11.625   5.694  1.00  0.00    -0.200 F 
ENDBRANCH  70  93
ENDBRANCH  44  45
ENDBRANCH  36  39
ENDBRANCH  34  35
ENDBRANCH  33  34
ENDBRANCH  32  33
ENDBRANCH  31  32
ENDBRANCH   3  31
TORSDOF 17
