REMARK SMILES NC(=O)c1cc(-c2cc(C(=O)NCCCCNC(=O)c3ccc(-c4c5nc(c(-c6c(F)c(F)c(F)c(F)c6F)c6ccc([nH]6)c(-c6c(F)c(F)c(F)c(F)c6F)c6nc(c(-c7c(F)c(F)c(F)c(F)c7F)c7ccc4[nH]7)C=C6)C=C5)cc3)cc([N+](=O)[O-])c2)ccc1Cl
REMARK SMILES IDX 14 1 13 2 12 3 10 4 11 5 9 7 7 8 8 9 88 10 84 11 83 12 6 13
REMARK SMILES IDX 4 14 5 15 91 16 90 17 92 18 89 19 2 20 1 21 3 24 85 25 86 26
REMARK SMILES IDX 87 27 15 28 16 29 17 30 18 31 19 33 20 34 21 35 82 36 22 37
REMARK SMILES IDX 81 38 23 39 24 40 25 41 75 42 26 43 80 44 74 45 76 46 27 47
REMARK SMILES IDX 79 48 73 49 72 50 28 52 60 53 40 54 59 55 41 56 44 57 58 58
REMARK SMILES IDX 77 59 42 60 43 61 57 63 78 64 45 65 29 66 30 67 38 68 31 69
REMARK SMILES IDX 32 70 36 71 39 72 33 73 34 74 37 75 35 76 61 77 62 78 70 79
REMARK SMILES IDX 63 80 64 81 68 82 71 83 65 84 66 85 69 86 67 87 46 88 47 89
REMARK SMILES IDX 55 90 48 91 49 92 53 93 56 94 50 95 51 96 54 97 52 98
REMARK H PARENT 12 6 1 22 1 23 17 32 76 51 44 62
REMARK Flexibility Score: inf
ROOT
ATOM      1  C   UNL     1      -4.050  -6.682   7.009  1.00  0.00     0.023 C 
ENDROOT
BRANCH   1   2
ATOM      2  C   UNL     1      -2.537  -6.638   7.177  1.00  0.00     0.116 C 
BRANCH   2   3
ATOM      3  N   UNL     1      -1.778  -7.025   5.996  1.00  0.00    -0.352 N 
ATOM      4  C   UNL     1      -0.689  -6.432   5.394  1.00  0.00     0.251 C 
ATOM      5  O   UNL     1      -0.203  -6.940   4.387  1.00  0.00    -0.269 OA
ATOM      6  H   UNL     1      -2.095  -7.847   5.555  1.00  0.00     0.163 HD
BRANCH   4   7
ATOM      7  C   UNL     1      -0.130  -5.154   5.905  1.00  0.00     0.047 A 
ATOM      8  C   UNL     1       0.694  -2.902   5.402  1.00  0.00    -0.011 A 
ATOM      9  C   UNL     1       0.291  -4.183   4.980  1.00  0.00     0.023 A 
ATOM     10  C   UNL     1       0.596  -2.600   6.772  1.00  0.00     0.094 A 
ATOM     11  C   UNL     1       0.226  -3.587   7.691  1.00  0.00     0.270 A 
ATOM     12  C   UNL     1      -0.046  -4.887   7.269  1.00  0.00     0.099 A 
BRANCH   8  13
ATOM     13  C   UNL     1       1.194  -1.885   4.459  1.00  0.00    -0.017 A 
ATOM     14  C   UNL     1       1.002  -0.593   2.378  1.00  0.00     0.058 A 
ATOM     15  C   UNL     1       0.528  -1.588   3.260  1.00  0.00     0.024 A 
ATOM     16  C   UNL     1       2.151   0.133   2.714  1.00  0.00     0.053 A 
ATOM     17  C   UNL     1       2.830  -0.161   3.898  1.00  0.00     0.022 A 
ATOM     18  Cl  UNL     1       2.782   1.435   1.768  1.00  0.00    -0.083 Cl
ATOM     19  C   UNL     1       2.361  -1.161   4.753  1.00  0.00     0.010 A 
BRANCH  14  20
ATOM     20  C   UNL     1       0.199  -0.383   1.144  1.00  0.00     0.250 C 
ATOM     21  N   UNL     1       0.860  -0.040  -0.000  1.00  0.00    -0.366 N 
ATOM     22  H   UNL     1       0.357   0.105  -0.834  1.00  0.00     0.159 HD
ATOM     23  H   UNL     1       1.839   0.061   0.008  1.00  0.00     0.159 HD
ATOM     24  O   UNL     1      -1.008  -0.567   1.140  1.00  0.00    -0.269 OA
ENDBRANCH  14  20
ENDBRANCH   8  13
BRANCH  11  25
ATOM     25  N   UNL     1       0.029  -3.239   9.101  1.00  0.00     0.062 N 
ATOM     26  O   UNL     1      -0.554  -4.068   9.816  1.00  0.00    -0.258 OA
ATOM     27  O   UNL     1       0.426  -2.131   9.482  1.00  0.00    -0.258 OA
ENDBRANCH  11  25
ENDBRANCH   4   7
ENDBRANCH   2   3
ENDBRANCH   1   2
BRANCH   1  28
ATOM     28  C   UNL     1      -4.651  -8.040   6.682  1.00  0.00     0.023 C 
BRANCH  28  29
ATOM     29  C   UNL     1      -4.199  -9.194   7.565  1.00  0.00     0.116 C 
BRANCH  29  30
ATOM     30  N   UNL     1      -4.500  -9.010   8.979  1.00  0.00    -0.352 N 
ATOM     31  C   UNL     1      -5.184  -9.843   9.836  1.00  0.00     0.251 C 
ATOM     32  H   UNL     1      -4.168  -8.173   9.377  1.00  0.00     0.163 HD
ATOM     33  O   UNL     1      -5.418  -9.502  10.990  1.00  0.00    -0.269 OA
BRANCH  31  34
ATOM     34  C   UNL     1      -5.676 -11.142   9.336  1.00  0.00     0.039 A 
ATOM     35  C   UNL     1      -7.022 -11.473   9.510  1.00  0.00     0.014 A 
ATOM     36  C   UNL     1      -4.822 -11.993   8.633  1.00  0.00     0.014 A 
ATOM     37  C   UNL     1      -7.538 -12.613   8.888  1.00  0.00     0.010 A 
ATOM     38  C   UNL     1      -5.354 -13.074   7.943  1.00  0.00     0.010 A 
ATOM     39  C   UNL     1      -6.718 -13.392   8.058  1.00  0.00    -0.014 A 
BRANCH  39  40
ATOM     40  C   UNL     1      -7.233 -14.563   7.305  1.00  0.00     0.031 A 
ATOM     41  C   UNL     1      -6.658 -15.922   7.583  1.00  0.00     0.074 A 
ATOM     42  C   UNL     1      -8.118 -14.393   6.304  1.00  0.00     0.049 A 
ATOM     43  N   UNL     1      -6.797 -17.038   6.914  1.00  0.00    -0.248 NA
ATOM     44  C   UNL     1      -5.771 -16.027   8.752  1.00  0.00     0.031 C 
ATOM     45  C   UNL     1      -8.737 -13.124   5.922  1.00  0.00     0.029 A 
ATOM     46  N   UNL     1      -8.634 -15.297   5.408  1.00  0.00    -0.354 N 
ATOM     47  C   UNL     1      -5.990 -17.964   7.561  1.00  0.00     0.074 A 
ATOM     48  C   UNL     1      -5.325 -17.268   8.641  1.00  0.00     0.031 C 
ATOM     49  C   UNL     1      -9.560 -13.332   4.881  1.00  0.00     0.029 A 
ATOM     50  C   UNL     1      -9.488 -14.736   4.489  1.00  0.00     0.049 A 
ATOM     51  H   UNL     1      -8.413 -16.256   5.422  1.00  0.00     0.167 HD
ATOM     52  C   UNL     1      -5.832 -19.281   7.290  1.00  0.00     0.037 A 
ATOM     53  C   UNL     1     -10.124 -15.291   3.439  1.00  0.00     0.037 A 
ATOM     54  C   UNL     1      -6.522 -19.974   6.235  1.00  0.00     0.049 A 
ATOM     55  C   UNL     1      -9.917 -16.753   3.143  1.00  0.00     0.074 A 
ATOM     56  C   UNL     1      -6.466 -21.315   5.902  1.00  0.00     0.029 A 
ATOM     57  N   UNL     1      -7.401 -19.375   5.345  1.00  0.00    -0.354 N 
ATOM     58  N   UNL     1      -9.176 -17.628   3.777  1.00  0.00    -0.248 NA
ATOM     59  C   UNL     1     -10.633 -17.302   1.983  1.00  0.00     0.031 C 
ATOM     60  C   UNL     1      -7.284 -21.521   4.786  1.00  0.00     0.029 A 
ATOM     61  C   UNL     1      -7.887 -20.318   4.455  1.00  0.00     0.049 A 
ATOM     62  H   UNL     1      -7.644 -18.420   5.345  1.00  0.00     0.167 HD
ATOM     63  C   UNL     1      -9.370 -18.838   3.123  1.00  0.00     0.074 A 
ATOM     64  C   UNL     1     -10.294 -18.583   2.038  1.00  0.00     0.031 C 
ATOM     65  C   UNL     1      -8.834 -20.051   3.402  1.00  0.00     0.037 A 
BRANCH  52  66
ATOM     66  C   UNL     1      -4.871 -20.049   8.150  1.00  0.00     0.064 A 
ATOM     67  C   UNL     1      -5.139 -20.306   9.504  1.00  0.00     0.173 A 
ATOM     68  C   UNL     1      -3.668 -20.534   7.617  1.00  0.00     0.173 A 
ATOM     69  F   UNL     1      -6.269 -19.852  10.067  1.00  0.00    -0.203 F 
ATOM     70  C   UNL     1      -4.218 -20.981  10.301  1.00  0.00     0.198 A 
ATOM     71  C   UNL     1      -2.765 -21.239   8.408  1.00  0.00     0.198 A 
ATOM     72  F   UNL     1      -3.364 -20.321   6.327  1.00  0.00    -0.203 F 
ATOM     73  F   UNL     1      -4.466 -21.154  11.607  1.00  0.00    -0.200 F 
ATOM     74  C   UNL     1      -3.035 -21.451   9.752  1.00  0.00     0.200 A 
ATOM     75  F   UNL     1      -1.628 -21.703   7.873  1.00  0.00    -0.200 F 
ATOM     76  F   UNL     1      -2.149 -22.098  10.521  1.00  0.00    -0.200 F 
ENDBRANCH  52  66
BRANCH  53  77
ATOM     77  C   UNL     1     -11.041 -14.469   2.608  1.00  0.00     0.064 A 
ATOM     78  C   UNL     1     -12.427 -14.674   2.663  1.00  0.00     0.173 A 
ATOM     79  C   UNL     1     -10.563 -13.467   1.751  1.00  0.00     0.173 A 
ATOM     80  F   UNL     1     -12.930 -15.636   3.451  1.00  0.00    -0.203 F 
ATOM     81  C   UNL     1     -13.299 -13.918   1.882  1.00  0.00     0.198 A 
ATOM     82  C   UNL     1     -11.438 -12.694   0.990  1.00  0.00     0.198 A 
ATOM     83  F   UNL     1      -9.246 -13.229   1.665  1.00  0.00    -0.203 F 
ATOM     84  F   UNL     1     -14.616 -14.161   1.926  1.00  0.00    -0.200 F 
ATOM     85  C   UNL     1     -12.805 -12.924   1.052  1.00  0.00     0.200 A 
ATOM     86  F   UNL     1     -10.958 -11.726   0.198  1.00  0.00    -0.200 F 
ATOM     87  F   UNL     1     -13.644 -12.193   0.305  1.00  0.00    -0.200 F 
ENDBRANCH  53  77
BRANCH  65  88
ATOM     88  C   UNL     1      -9.282 -21.217   2.573  1.00  0.00     0.064 A 
ATOM     89  C   UNL     1      -8.833 -21.407   1.259  1.00  0.00     0.173 A 
ATOM     90  C   UNL     1     -10.109 -22.201   3.136  1.00  0.00     0.173 A 
ATOM     91  F   UNL     1      -8.053 -20.486   0.673  1.00  0.00    -0.203 F 
ATOM     92  C   UNL     1      -9.204 -22.537   0.535  1.00  0.00     0.198 A 
ATOM     93  C   UNL     1     -10.456 -23.342   2.419  1.00  0.00     0.198 A 
ATOM     94  F   UNL     1     -10.559 -22.067   4.393  1.00  0.00    -0.203 F 
ATOM     95  F   UNL     1      -8.787 -22.686  -0.730  1.00  0.00    -0.200 F 
ATOM     96  C   UNL     1     -10.006 -23.508   1.118  1.00  0.00     0.200 A 
ATOM     97  F   UNL     1     -11.219 -24.285   2.990  1.00  0.00    -0.200 F 
ATOM     98  F   UNL     1     -10.345 -24.603   0.426  1.00  0.00    -0.200 F 
ENDBRANCH  65  88
ENDBRANCH  39  40
ENDBRANCH  31  34
ENDBRANCH  29  30
ENDBRANCH  28  29
ENDBRANCH   1  28
TORSDOF 14
