REMARK SMILES Cc1cccc(NS(=O)(=O)c2ccc(Br)c(C(=O)NCCCCNC(=O)c3ccc(-c4c5nc(c(-c6c(F)c(F)c(F)c(F)c6F)c6ccc([nH]6)c(-c6c(F)c(F)c(F)c(F)c6F)c6nc(c(-c7c(F)c(F)c(F)c(F)c7F)c7ccc4[nH]7)C=C6)C=C5)cc3)c2)c1
REMARK SMILES IDX 21 1 20 2 19 3 17 4 18 5 16 7 11 8 12 9 90 10 13 11 14 12
REMARK SMILES IDX 15 13 8 14 9 15 10 16 7 17 6 19 1 20 2 21 3 22 91 23 4 24
REMARK SMILES IDX 5 25 22 26 23 27 24 28 25 29 26 31 27 32 28 33 89 34 29 35
REMARK SMILES IDX 88 36 30 37 31 38 32 39 82 40 33 41 87 42 81 43 83 44 34 45
REMARK SMILES IDX 86 46 80 47 79 48 35 50 67 51 47 52 66 53 48 54 51 55 65 56
REMARK SMILES IDX 84 57 49 58 50 59 64 61 85 62 52 63 36 64 37 65 45 66 38 67
REMARK SMILES IDX 39 68 43 69 46 70 40 71 41 72 44 73 42 74 68 75 69 76 77 77
REMARK SMILES IDX 70 78 71 79 75 80 78 81 72 82 73 83 76 84 74 85 53 86 54 87
REMARK SMILES IDX 62 88 55 89 56 90 60 91 63 92 57 93 58 94 61 95 59 96
REMARK H PARENT 19 6 7 18 24 30 83 49 51 60
REMARK Flexibility Score: inf
ROOT
ATOM      1  C   UNL     1      -7.678  -4.058   2.110  1.00  0.00     0.023 C 
ENDROOT
BRANCH   1   2
ATOM      2  C   UNL     1      -7.172  -3.666   0.726  1.00  0.00     0.116 C 
BRANCH   2   3
ATOM      3  N   UNL     1      -7.753  -2.473   0.121  1.00  0.00    -0.352 N 
ATOM      4  C   UNL     1      -7.164  -1.342  -0.418  1.00  0.00     0.252 C 
ATOM      5  O   UNL     1      -7.883  -0.526  -0.994  1.00  0.00    -0.269 OA
ATOM      6  H   UNL     1      -8.737  -2.471   0.091  1.00  0.00     0.163 HD
BRANCH   4   7
ATOM      7  C   UNL     1      -5.731  -1.009  -0.193  1.00  0.00     0.055 A 
ATOM      8  C   UNL     1      -4.118   0.660   0.523  1.00  0.00     0.088 A 
ATOM      9  C   UNL     1      -3.259  -0.349   0.940  1.00  0.00     0.023 A 
ATOM     10  C   UNL     1      -5.400   0.331   0.057  1.00  0.00     0.037 A 
ATOM     11  C   UNL     1      -3.509  -1.646   0.494  1.00  0.00     0.018 A 
ATOM     12  C   UNL     1      -4.687  -1.930  -0.200  1.00  0.00     0.030 A 
ATOM     13  Br  UNL     1      -4.654  -3.411  -1.403  1.00  0.00    -0.050 Br
BRANCH   8  14
ATOM     14  S   UNL     1      -3.536   2.326   0.257  1.00  0.00     0.261 S 
ATOM     15  O   UNL     1      -3.812   3.053   1.463  1.00  0.00    -0.201 OA
ATOM     16  O   UNL     1      -4.086   2.753  -1.025  1.00  0.00    -0.201 OA
BRANCH  14  17
ATOM     17  N   UNL     1      -1.865   2.347   0.098  1.00  0.00    -0.280 N 
ATOM     18  H   UNL     1      -1.419   3.174   0.393  1.00  0.00     0.180 HD
BRANCH  17  19
ATOM     19  C   UNL     1      -1.004   1.330  -0.409  1.00  0.00     0.049 A 
ATOM     20  C   UNL     1       2.602   0.333   0.349  1.00  0.00     0.044 C 
ATOM     21  C   UNL     1       1.202   0.298  -0.188  1.00  0.00    -0.049 A 
ATOM     22  C   UNL     1       0.740  -0.807  -0.905  1.00  0.00     0.003 A 
ATOM     23  C   UNL     1       0.315   1.352   0.069  1.00  0.00     0.030 A 
ATOM     24  C   UNL     1      -0.534  -0.785  -1.475  1.00  0.00     0.002 A 
ATOM     25  C   UNL     1      -1.382   0.316  -1.284  1.00  0.00     0.027 A 
ENDBRANCH  17  19
ENDBRANCH  14  17
ENDBRANCH   8  14
ENDBRANCH   4   7
ENDBRANCH   2   3
ENDBRANCH   1   2
BRANCH   1  26
ATOM     26  C   UNL     1      -9.143  -4.448   2.222  1.00  0.00     0.023 C 
BRANCH  26  27
ATOM     27  C   UNL     1      -9.585  -5.630   1.369  1.00  0.00     0.116 C 
BRANCH  27  28
ATOM     28  N   UNL     1      -9.348  -6.952   1.941  1.00  0.00    -0.352 N 
ATOM     29  C   UNL     1      -9.667  -8.196   1.409  1.00  0.00     0.251 C 
ATOM     30  H   UNL     1      -8.902  -6.964   2.819  1.00  0.00     0.163 HD
ATOM     31  O   UNL     1      -9.400  -9.222   2.021  1.00  0.00    -0.269 OA
BRANCH  29  32
ATOM     32  C   UNL     1     -10.211  -8.276   0.029  1.00  0.00     0.039 A 
ATOM     33  C   UNL     1      -9.585  -9.133  -0.881  1.00  0.00     0.014 A 
ATOM     34  C   UNL     1     -11.151  -7.353  -0.417  1.00  0.00     0.014 A 
ATOM     35  C   UNL     1      -9.684  -8.863  -2.244  1.00  0.00     0.010 A 
ATOM     36  C   UNL     1     -11.161  -7.008  -1.755  1.00  0.00     0.010 A 
ATOM     37  C   UNL     1     -10.365  -7.716  -2.658  1.00  0.00    -0.014 A 
BRANCH  37  38
ATOM     38  C   UNL     1     -10.141  -7.101  -3.961  1.00  0.00     0.031 A 
ATOM     39  C   UNL     1     -11.173  -7.128  -5.016  1.00  0.00     0.074 A 
ATOM     40  C   UNL     1      -8.973  -6.461  -4.201  1.00  0.00     0.049 A 
ATOM     41  N   UNL     1     -10.896  -7.200  -6.276  1.00  0.00    -0.248 NA
ATOM     42  C   UNL     1     -12.605  -7.090  -4.738  1.00  0.00     0.031 C 
ATOM     43  C   UNL     1      -8.642  -5.638  -5.362  1.00  0.00     0.029 A 
ATOM     44  N   UNL     1      -7.756  -6.591  -3.507  1.00  0.00    -0.354 N 
ATOM     45  C   UNL     1     -12.056  -6.948  -6.964  1.00  0.00     0.074 A 
ATOM     46  C   UNL     1     -13.107  -6.961  -5.971  1.00  0.00     0.031 C 
ATOM     47  C   UNL     1      -7.307  -5.594  -5.491  1.00  0.00     0.029 A 
ATOM     48  C   UNL     1      -6.744  -6.478  -4.487  1.00  0.00     0.049 A 
ATOM     49  H   UNL     1      -7.635  -6.732  -2.540  1.00  0.00     0.167 HD
ATOM     50  C   UNL     1     -12.010  -6.605  -8.281  1.00  0.00     0.037 A 
ATOM     51  C   UNL     1      -5.863  -7.488  -4.731  1.00  0.00     0.037 A 
ATOM     52  C   UNL     1     -10.645  -6.530  -8.781  1.00  0.00     0.049 A 
ATOM     53  C   UNL     1      -5.890  -7.996  -6.152  1.00  0.00     0.074 A 
ATOM     54  C   UNL     1      -9.777  -5.464  -8.953  1.00  0.00     0.029 A 
ATOM     55  N   UNL     1      -9.873  -7.683  -8.866  1.00  0.00    -0.354 N 
ATOM     56  N   UNL     1      -6.872  -7.778  -6.980  1.00  0.00    -0.248 NA
ATOM     57  C   UNL     1      -4.839  -8.821  -6.739  1.00  0.00     0.031 C 
ATOM     58  C   UNL     1      -8.470  -5.978  -9.117  1.00  0.00     0.029 A 
ATOM     59  C   UNL     1      -8.544  -7.358  -9.058  1.00  0.00     0.049 A 
ATOM     60  H   UNL     1     -10.223  -8.601  -8.798  1.00  0.00     0.167 HD
ATOM     61  C   UNL     1      -6.625  -8.422  -8.167  1.00  0.00     0.074 A 
ATOM     62  C   UNL     1      -5.329  -9.043  -7.971  1.00  0.00     0.031 C 
ATOM     63  C   UNL     1      -7.523  -8.385  -9.196  1.00  0.00     0.037 A 
BRANCH  50  64
ATOM     64  C   UNL     1     -13.212  -6.045  -8.992  1.00  0.00     0.064 A 
ATOM     65  C   UNL     1     -13.118  -4.919  -9.834  1.00  0.00     0.173 A 
ATOM     66  C   UNL     1     -14.506  -6.572  -8.827  1.00  0.00     0.173 A 
ATOM     67  F   UNL     1     -11.939  -4.358 -10.127  1.00  0.00    -0.203 F 
ATOM     68  C   UNL     1     -14.245  -4.307 -10.387  1.00  0.00     0.198 A 
ATOM     69  C   UNL     1     -15.638  -5.934  -9.344  1.00  0.00     0.198 A 
ATOM     70  F   UNL     1     -14.698  -7.717  -8.154  1.00  0.00    -0.203 F 
ATOM     71  F   UNL     1     -14.099  -3.226 -11.166  1.00  0.00    -0.200 F 
ATOM     72  C   UNL     1     -15.507  -4.795 -10.115  1.00  0.00     0.200 A 
ATOM     73  F   UNL     1     -16.858  -6.419  -9.073  1.00  0.00    -0.200 F 
ATOM     74  F   UNL     1     -16.591  -4.173 -10.599  1.00  0.00    -0.200 F 
ENDBRANCH  50  64
BRANCH  51  75
ATOM     75  C   UNL     1      -5.545  -8.304  -3.533  1.00  0.00     0.064 A 
ATOM     76  C   UNL     1      -4.884  -7.677  -2.459  1.00  0.00     0.173 A 
ATOM     77  C   UNL     1      -6.169  -9.530  -3.280  1.00  0.00     0.173 A 
ATOM     78  F   UNL     1      -4.257  -6.507  -2.653  1.00  0.00    -0.203 F 
ATOM     79  C   UNL     1      -4.947  -8.191  -1.167  1.00  0.00     0.198 A 
ATOM     80  C   UNL     1      -6.213 -10.054  -1.986  1.00  0.00     0.198 A 
ATOM     81  F   UNL     1      -6.827 -10.169  -4.257  1.00  0.00    -0.203 F 
ATOM     82  F   UNL     1      -4.402  -7.510  -0.148  1.00  0.00    -0.200 F 
ATOM     83  C   UNL     1      -5.633  -9.368  -0.927  1.00  0.00     0.200 A 
ATOM     84  F   UNL     1      -6.894 -11.184  -1.749  1.00  0.00    -0.200 F 
ATOM     85  F   UNL     1      -5.765  -9.824   0.326  1.00  0.00    -0.200 F 
ENDBRANCH  51  75
BRANCH  63  86
ATOM     86  C   UNL     1      -7.493  -9.201 -10.470  1.00  0.00     0.064 A 
ATOM     87  C   UNL     1      -6.848 -10.441 -10.604  1.00  0.00     0.173 A 
ATOM     88  C   UNL     1      -8.261  -8.798 -11.594  1.00  0.00     0.173 A 
ATOM     89  F   UNL     1      -6.186 -10.999  -9.584  1.00  0.00    -0.203 F 
ATOM     90  C   UNL     1      -6.916 -11.188 -11.786  1.00  0.00     0.198 A 
ATOM     91  C   UNL     1      -8.377  -9.574 -12.746  1.00  0.00     0.198 A 
ATOM     92  F   UNL     1      -8.950  -7.647 -11.602  1.00  0.00    -0.203 F 
ATOM     93  F   UNL     1      -6.247 -12.346 -11.875  1.00  0.00    -0.200 F 
ATOM     94  C   UNL     1      -7.690 -10.763 -12.849  1.00  0.00     0.200 A 
ATOM     95  F   UNL     1      -9.174  -9.169 -13.745  1.00  0.00    -0.200 F 
ATOM     96  F   UNL     1      -7.791 -11.508 -13.958  1.00  0.00    -0.200 F 
ENDBRANCH  63  86
ENDBRANCH  37  38
ENDBRANCH  29  32
ENDBRANCH  27  28
ENDBRANCH  26  27
ENDBRANCH   1  26
TORSDOF 14
