REMARK SMILES O=C(Cn1nc(C2CC2)c2c(C(F)F)cc(-c3ccc(Cl)cc3)nc21)NCCCCNC(=O)c1ccc(-c2c3nc(c(-c4c(F)c(F)c(F)c(F)c4F)c4ccc([nH]4)c(-c4c(F)c(F)c(F)c(F)c4F)c4nc(c(-c5c(F)c(F)c(F)c(F)c5F)c5ccc2[nH]5)C=C4)C=C3)cc1
REMARK SMILES IDX 28 1 27 2 26 3 1 4 2 5 3 7 4 8 5 9 25 10 6 11 10 12 24 13
REMARK SMILES IDX 11 14 16 15 15 16 7 17 8 18 9 19 12 20 13 21 14 22 17 23
REMARK SMILES IDX 18 24 23 25 19 26 22 27 20 28 21 29 29 30 30 31 31 32 32 33
REMARK SMILES IDX 33 35 34 36 35 37 96 38 36 39 95 40 37 41 38 42 39 43 89 44
REMARK SMILES IDX 40 45 94 46 88 47 90 48 41 49 93 50 87 51 86 52 42 54 74 55
REMARK SMILES IDX 54 56 73 57 55 58 58 59 72 60 91 61 56 62 57 63 71 65 92 66
REMARK SMILES IDX 59 67 43 68 44 69 52 70 45 71 46 72 50 73 53 74 47 75 48 76
REMARK SMILES IDX 51 77 49 78 75 79 76 80 84 81 77 82 78 83 82 84 85 85 79 86
REMARK SMILES IDX 80 87 83 88 81 89 60 90 61 91 69 92 62 93 63 94 67 95 70 96
REMARK SMILES IDX 64 97 65 98 68 99 66 100
REMARK H PARENT 26 6 31 34 90 53 58 64
REMARK Flexibility Score: inf
ROOT
ATOM      1  C   UNL     1       2.507   2.864  -2.039  1.00  0.00     0.023 C 
ENDROOT
BRANCH   1   2
ATOM      2  C   UNL     1       2.235   1.359  -2.098  1.00  0.00     0.116 C 
BRANCH   2   3
ATOM      3  N   UNL     1       2.957   0.621  -1.079  1.00  0.00    -0.354 N 
ATOM      4  O   UNL     1       1.091  -0.070   0.062  1.00  0.00    -0.273 OA
ATOM      5  C   UNL     1       2.313  -0.074  -0.072  1.00  0.00     0.241 C 
ATOM      6  H   UNL     1       3.941   0.615  -1.105  1.00  0.00     0.163 HD
BRANCH   5   7
ATOM      7  C   UNL     1       3.221  -0.770   0.914  1.00  0.00     0.246 C 
BRANCH   7   8
ATOM      8  N   UNL     1       3.963  -1.855   0.304  1.00  0.00    -0.237 N 
ATOM      9  N   UNL     1       3.549  -3.115   0.452  1.00  0.00    -0.175 NA
ATOM     10  C   UNL     1       5.150  -1.748  -0.364  1.00  0.00     0.159 A 
ATOM     11  C   UNL     1       4.510  -3.860  -0.115  1.00  0.00     0.076 A 
ATOM     12  C   UNL     1       5.553  -3.053  -0.690  1.00  0.00     0.051 A 
ATOM     13  N   UNL     1       5.766  -0.574  -0.636  1.00  0.00    -0.228 NA
ATOM     14  C   UNL     1       6.764  -3.158  -1.428  1.00  0.00     0.033 A 
ATOM     15  C   UNL     1       6.928  -0.715  -1.294  1.00  0.00     0.073 A 
ATOM     16  C   UNL     1       7.436  -1.943  -1.703  1.00  0.00     0.039 A 
BRANCH  11  17
ATOM     17  C   UNL     1       4.297  -5.365   0.035  1.00  0.00     0.041 C 
ATOM     18  C   UNL     1       4.900  -6.440  -0.818  1.00  0.00     0.011 C 
ATOM     19  C   UNL     1       5.433  -6.213   0.558  1.00  0.00     0.011 C 
ENDBRANCH  11  17
BRANCH  14  20
ATOM     20  C   UNL     1       7.395  -4.397  -2.010  1.00  0.00     0.373 C 
ATOM     21  F   UNL     1       7.658  -5.369  -1.103  1.00  0.00    -0.205 F 
ATOM     22  F   UNL     1       6.648  -4.950  -3.002  1.00  0.00    -0.205 F 
ENDBRANCH  14  20
BRANCH  15  23
ATOM     23  C   UNL     1       7.677   0.508  -1.596  1.00  0.00     0.000 A 
ATOM     24  C   UNL     1       8.445   1.150  -0.612  1.00  0.00     0.012 A 
ATOM     25  C   UNL     1       7.742   0.992  -2.913  1.00  0.00     0.012 A 
ATOM     26  C   UNL     1       9.300   2.204  -0.950  1.00  0.00     0.021 A 
ATOM     27  C   UNL     1       8.602   2.038  -3.256  1.00  0.00     0.021 A 
ATOM     28  C   UNL     1       9.389   2.630  -2.273  1.00  0.00     0.041 A 
ATOM     29  Cl  UNL     1      10.494   3.875  -2.703  1.00  0.00    -0.084 Cl
ENDBRANCH  15  23
ENDBRANCH   7   8
ENDBRANCH   5   7
ENDBRANCH   2   3
ENDBRANCH   1   2
BRANCH   1  30
ATOM     30  C   UNL     1       3.973   3.284  -2.225  1.00  0.00     0.023 C 
BRANCH  30  31
ATOM     31  C   UNL     1       4.574   2.891  -3.566  1.00  0.00     0.116 C 
BRANCH  31  32
ATOM     32  N   UNL     1       3.981   3.608  -4.690  1.00  0.00    -0.352 N 
ATOM     33  C   UNL     1       4.381   3.587  -6.007  1.00  0.00     0.251 C 
ATOM     34  H   UNL     1       3.203   4.175  -4.482  1.00  0.00     0.163 HD
ATOM     35  O   UNL     1       4.075   4.502  -6.774  1.00  0.00    -0.269 OA
BRANCH  33  36
ATOM     36  C   UNL     1       5.169   2.447  -6.508  1.00  0.00     0.039 A 
ATOM     37  C   UNL     1       6.187   2.631  -7.451  1.00  0.00     0.014 A 
ATOM     38  C   UNL     1       4.845   1.168  -6.057  1.00  0.00     0.014 A 
ATOM     39  C   UNL     1       6.908   1.524  -7.895  1.00  0.00     0.010 A 
ATOM     40  C   UNL     1       5.624   0.094  -6.409  1.00  0.00     0.010 A 
ATOM     41  C   UNL     1       6.622   0.258  -7.364  1.00  0.00    -0.014 A 
BRANCH  41  42
ATOM     42  C   UNL     1       7.428  -0.906  -7.709  1.00  0.00     0.031 A 
ATOM     43  C   UNL     1       8.856  -0.802  -7.308  1.00  0.00     0.074 A 
ATOM     44  C   UNL     1       6.884  -2.079  -8.101  1.00  0.00     0.049 A 
ATOM     45  N   UNL     1       9.897  -0.680  -8.062  1.00  0.00    -0.248 NA
ATOM     46  C   UNL     1       9.155  -0.684  -5.874  1.00  0.00     0.031 C 
ATOM     47  C   UNL     1       5.462  -2.427  -8.212  1.00  0.00     0.029 A 
ATOM     48  N   UNL     1       7.506  -3.253  -8.400  1.00  0.00    -0.354 N 
ATOM     49  C   UNL     1      10.995  -0.662  -7.201  1.00  0.00     0.074 A 
ATOM     50  C   UNL     1      10.468  -0.451  -5.881  1.00  0.00     0.031 C 
ATOM     51  C   UNL     1       5.329  -3.766  -8.350  1.00  0.00     0.029 A 
ATOM     52  C   UNL     1       6.649  -4.343  -8.521  1.00  0.00     0.049 A 
ATOM     53  H   UNL     1       8.480  -3.325  -8.521  1.00  0.00     0.167 HD
ATOM     54  C   UNL     1      12.217  -1.105  -7.611  1.00  0.00     0.037 A 
ATOM     55  C   UNL     1       7.015  -5.625  -8.756  1.00  0.00     0.037 A 
ATOM     56  C   UNL     1      12.231  -1.291  -9.038  1.00  0.00     0.049 A 
ATOM     57  C   UNL     1       8.365  -5.582  -9.359  1.00  0.00     0.074 A 
ATOM     58  C   UNL     1      12.262  -0.476 -10.148  1.00  0.00     0.029 A 
ATOM     59  N   UNL     1      11.781  -2.519  -9.445  1.00  0.00    -0.354 N 
ATOM     60  N   UNL     1       8.611  -5.080 -10.535  1.00  0.00    -0.248 NA
ATOM     61  C   UNL     1       9.530  -5.795  -8.510  1.00  0.00     0.031 C 
ATOM     62  C   UNL     1      11.567  -1.188 -11.173  1.00  0.00     0.029 A 
ATOM     63  C   UNL     1      11.181  -2.431 -10.672  1.00  0.00     0.049 A 
ATOM     64  H   UNL     1      11.877  -3.351  -8.926  1.00  0.00     0.167 HD
ATOM     65  C   UNL     1       9.871  -4.529 -10.415  1.00  0.00     0.074 A 
ATOM     66  C   UNL     1      10.451  -5.153  -9.233  1.00  0.00     0.031 C 
ATOM     67  C   UNL     1      10.194  -3.396 -11.100  1.00  0.00     0.037 A 
BRANCH  54  68
ATOM     68  C   UNL     1      13.240  -1.799  -6.733  1.00  0.00     0.064 A 
ATOM     69  C   UNL     1      14.521  -2.080  -7.256  1.00  0.00     0.173 A 
ATOM     70  C   UNL     1      12.929  -2.454  -5.522  1.00  0.00     0.173 A 
ATOM     71  F   UNL     1      14.915  -1.547  -8.422  1.00  0.00    -0.203 F 
ATOM     72  C   UNL     1      15.397  -2.979  -6.636  1.00  0.00     0.198 A 
ATOM     73  C   UNL     1      13.827  -3.306  -4.878  1.00  0.00     0.198 A 
ATOM     74  F   UNL     1      11.710  -2.397  -4.972  1.00  0.00    -0.203 F 
ATOM     75  F   UNL     1      16.556  -3.297  -7.228  1.00  0.00    -0.200 F 
ATOM     76  C   UNL     1      15.050  -3.589  -5.446  1.00  0.00     0.200 A 
ATOM     77  F   UNL     1      13.455  -3.911  -3.740  1.00  0.00    -0.200 F 
ATOM     78  F   UNL     1      15.864  -4.485  -4.873  1.00  0.00    -0.200 F 
ENDBRANCH  54  68
BRANCH  55  79
ATOM     79  C   UNL     1       6.412  -6.903  -8.321  1.00  0.00     0.064 A 
ATOM     80  C   UNL     1       6.753  -8.107  -8.962  1.00  0.00     0.173 A 
ATOM     81  C   UNL     1       5.784  -7.011  -7.067  1.00  0.00     0.173 A 
ATOM     82  F   UNL     1       7.373  -8.085 -10.151  1.00  0.00    -0.203 F 
ATOM     83  C   UNL     1       6.551  -9.346  -8.350  1.00  0.00     0.198 A 
ATOM     84  C   UNL     1       5.579  -8.252  -6.458  1.00  0.00     0.198 A 
ATOM     85  F   UNL     1       5.465  -5.913  -6.368  1.00  0.00    -0.203 F 
ATOM     86  F   UNL     1       6.978 -10.466  -8.951  1.00  0.00    -0.200 F 
ATOM     87  C   UNL     1       5.985  -9.416  -7.088  1.00  0.00     0.200 A 
ATOM     88  F   UNL     1       5.062  -8.309  -5.222  1.00  0.00    -0.200 F 
ATOM     89  F   UNL     1       5.877 -10.595  -6.461  1.00  0.00    -0.200 F 
ENDBRANCH  55  79
BRANCH  67  90
ATOM     90  C   UNL     1       9.344  -3.055 -12.287  1.00  0.00     0.064 A 
ATOM     91  C   UNL     1       8.002  -2.647 -12.218  1.00  0.00     0.173 A 
ATOM     92  C   UNL     1       9.948  -3.072 -13.549  1.00  0.00     0.173 A 
ATOM     93  F   UNL     1       7.376  -2.532 -11.042  1.00  0.00    -0.203 F 
ATOM     94  C   UNL     1       7.288  -2.310 -13.367  1.00  0.00     0.198 A 
ATOM     95  C   UNL     1       9.246  -2.701 -14.691  1.00  0.00     0.198 A 
ATOM     96  F   UNL     1      11.241  -3.415 -13.668  1.00  0.00    -0.203 F 
ATOM     97  F   UNL     1       6.002  -1.942 -13.277  1.00  0.00    -0.200 F 
ATOM     98  C   UNL     1       7.914  -2.331 -14.602  1.00  0.00     0.200 A 
ATOM     99  F   UNL     1       9.870  -2.683 -15.877  1.00  0.00    -0.200 F 
ATOM    100  F   UNL     1       7.241  -1.973 -15.705  1.00  0.00    -0.200 F 
ENDBRANCH  67  90
ENDBRANCH  41  42
ENDBRANCH  33  36
ENDBRANCH  31  32
ENDBRANCH  30  31
ENDBRANCH   1  30
TORSDOF 15
