REMARK SMILES O=C(NCCCCNC(=O)c1cc(-n2ccnc2)ccn1)c1ccc(-c2c3nc(c(-c4c(F)c(F)c(F)c(F)c4F)c4ccc([nH]4)c(-c4c(F)c(F)c(F)c(F)c4F)c4nc(c(-c5c(F)c(F)c(F)c(F)c5F)c5ccc2[nH]5)C=C4)C=C3)cc1
REMARK SMILES IDX 5 1 4 2 3 3 1 4 2 5 22 7 23 8 84 9 24 10 83 11 25 12 26 13
REMARK SMILES IDX 27 14 77 15 28 16 82 17 76 18 78 19 29 20 81 21 75 22 74 23
REMARK SMILES IDX 30 25 62 26 42 27 61 28 43 29 46 30 60 31 79 32 44 33 45 34
REMARK SMILES IDX 59 36 80 37 47 38 31 39 32 40 40 41 33 42 34 43 38 44 41 45
REMARK SMILES IDX 35 46 36 47 39 48 37 49 63 50 64 51 72 52 65 53 66 54 70 55
REMARK SMILES IDX 73 56 67 57 68 58 71 59 69 60 48 61 49 62 57 63 50 64 51 65
REMARK SMILES IDX 55 66 58 67 52 68 53 69 56 70 54 71 6 72 7 73 8 74 9 75
REMARK SMILES IDX 10 77 11 78 12 79 21 80 13 81 20 82 19 83 14 84 15 85 18 86
REMARK SMILES IDX 16 87 17 88
REMARK H PARENT 3 6 78 24 46 35 8 76
REMARK Flexibility Score: inf
ROOT
ATOM      1  C   UNL     1       4.938  -0.729   2.173  1.00  0.00     0.023 C 
ENDROOT
BRANCH   1   2
ATOM      2  C   UNL     1       4.692  -0.904   0.675  1.00  0.00     0.116 C 
BRANCH   2   3
ATOM      3  N   UNL     1       3.306  -1.095   0.297  1.00  0.00    -0.352 N 
ATOM      4  O   UNL     1       1.214  -0.782  -0.344  1.00  0.00    -0.269 OA
ATOM      5  C   UNL     1       2.228  -0.269   0.137  1.00  0.00     0.251 C 
ATOM      6  H   UNL     1       3.091  -2.038   0.112  1.00  0.00     0.163 HD
BRANCH   5   7
ATOM      7  C   UNL     1       2.173   1.161   0.545  1.00  0.00     0.039 A 
ATOM      8  C   UNL     1       3.275   1.973   0.817  1.00  0.00     0.014 A 
ATOM      9  C   UNL     1       0.886   1.722   0.654  1.00  0.00     0.014 A 
ATOM     10  C   UNL     1       3.098   3.284   1.258  1.00  0.00     0.010 A 
ATOM     11  C   UNL     1       0.703   3.038   1.071  1.00  0.00     0.010 A 
ATOM     12  C   UNL     1       1.813   3.813   1.399  1.00  0.00    -0.014 A 
BRANCH  12  13
ATOM     13  C   UNL     1       1.681   5.222   1.769  1.00  0.00     0.031 A 
ATOM     14  C   UNL     1       2.157   6.216   0.760  1.00  0.00     0.074 A 
ATOM     15  C   UNL     1       1.018   5.646   2.863  1.00  0.00     0.049 A 
ATOM     16  N   UNL     1       2.999   7.189   0.917  1.00  0.00    -0.248 NA
ATOM     17  C   UNL     1       1.646   6.086  -0.613  1.00  0.00     0.031 C 
ATOM     18  C   UNL     1       0.212   4.848   3.788  1.00  0.00     0.029 A 
ATOM     19  N   UNL     1       0.835   6.925   3.309  1.00  0.00    -0.354 N 
ATOM     20  C   UNL     1       3.022   7.884  -0.293  1.00  0.00     0.074 A 
ATOM     21  C   UNL     1       2.241   7.111  -1.224  1.00  0.00     0.031 C 
ATOM     22  C   UNL     1      -0.537   5.676   4.550  1.00  0.00     0.029 A 
ATOM     23  C   UNL     1      -0.175   7.052   4.251  1.00  0.00     0.049 A 
ATOM     24  H   UNL     1       1.372   7.686   2.991  1.00  0.00     0.167 HD
ATOM     25  C   UNL     1       3.542   9.138  -0.403  1.00  0.00     0.037 A 
ATOM     26  C   UNL     1      -0.727   8.206   4.700  1.00  0.00     0.037 A 
ATOM     27  C   UNL     1       4.425   9.453   0.685  1.00  0.00     0.049 A 
ATOM     28  C   UNL     1       0.206   9.316   4.395  1.00  0.00     0.074 A 
ATOM     29  C   UNL     1       5.608   8.928   1.166  1.00  0.00     0.029 A 
ATOM     30  N   UNL     1       3.986  10.314   1.657  1.00  0.00    -0.354 N 
ATOM     31  N   UNL     1       1.347   9.510   4.992  1.00  0.00    -0.248 NA
ATOM     32  C   UNL     1       0.023  10.042   3.147  1.00  0.00     0.031 C 
ATOM     33  C   UNL     1       5.554   9.122   2.578  1.00  0.00     0.029 A 
ATOM     34  C   UNL     1       4.352   9.770   2.859  1.00  0.00     0.049 A 
ATOM     35  H   UNL     1       3.502  11.160   1.518  1.00  0.00     0.167 HD
ATOM     36  C   UNL     1       2.173  10.026   4.008  1.00  0.00     0.074 A 
ATOM     37  C   UNL     1       1.276  10.450   2.940  1.00  0.00     0.031 C 
ATOM     38  C   UNL     1       3.519   9.803   4.035  1.00  0.00     0.037 A 
BRANCH  25  39
ATOM     39  C   UNL     1       3.014  10.207  -1.330  1.00  0.00     0.064 A 
ATOM     40  C   UNL     1       3.740  11.405  -1.494  1.00  0.00     0.173 A 
ATOM     41  C   UNL     1       1.687  10.229  -1.808  1.00  0.00     0.173 A 
ATOM     42  F   UNL     1       5.005  11.504  -1.058  1.00  0.00    -0.203 F 
ATOM     43  C   UNL     1       3.153  12.560  -2.018  1.00  0.00     0.198 A 
ATOM     44  C   UNL     1       1.121  11.368  -2.381  1.00  0.00     0.198 A 
ATOM     45  F   UNL     1       0.857   9.193  -1.638  1.00  0.00    -0.203 F 
ATOM     46  F   UNL     1       3.841  13.710  -2.031  1.00  0.00    -0.200 F 
ATOM     47  C   UNL     1       1.841  12.542  -2.454  1.00  0.00     0.200 A 
ATOM     48  F   UNL     1      -0.157  11.337  -2.783  1.00  0.00    -0.200 F 
ATOM     49  F   UNL     1       1.256  13.663  -2.896  1.00  0.00    -0.200 F 
ENDBRANCH  25  39
BRANCH  26  50
ATOM     50  C   UNL     1      -2.115   8.449   5.151  1.00  0.00     0.064 A 
ATOM     51  C   UNL     1      -2.444   9.581   5.915  1.00  0.00     0.173 A 
ATOM     52  C   UNL     1      -3.194   7.717   4.619  1.00  0.00     0.173 A 
ATOM     53  F   UNL     1      -1.476  10.360   6.419  1.00  0.00    -0.203 F 
ATOM     54  C   UNL     1      -3.773   9.968   6.115  1.00  0.00     0.198 A 
ATOM     55  C   UNL     1      -4.519   8.097   4.830  1.00  0.00     0.198 A 
ATOM     56  F   UNL     1      -2.983   6.674   3.803  1.00  0.00    -0.203 F 
ATOM     57  F   UNL     1      -4.046  11.090   6.796  1.00  0.00    -0.200 F 
ATOM     58  C   UNL     1      -4.809   9.230   5.567  1.00  0.00     0.200 A 
ATOM     59  F   UNL     1      -5.510   7.394   4.264  1.00  0.00    -0.200 F 
ATOM     60  F   UNL     1      -6.079   9.633   5.710  1.00  0.00    -0.200 F 
ENDBRANCH  26  50
BRANCH  38  61
ATOM     61  C   UNL     1       4.117   9.281   5.307  1.00  0.00     0.064 A 
ATOM     62  C   UNL     1       3.788   8.037   5.873  1.00  0.00     0.173 A 
ATOM     63  C   UNL     1       5.157  10.008   5.900  1.00  0.00     0.173 A 
ATOM     64  F   UNL     1       2.882   7.235   5.299  1.00  0.00    -0.203 F 
ATOM     65  C   UNL     1       4.436   7.573   7.015  1.00  0.00     0.198 A 
ATOM     66  C   UNL     1       5.830   9.523   7.018  1.00  0.00     0.198 A 
ATOM     67  F   UNL     1       5.555  11.174   5.365  1.00  0.00    -0.203 F 
ATOM     68  F   UNL     1       4.093   6.391   7.548  1.00  0.00    -0.200 F 
ATOM     69  C   UNL     1       5.461   8.313   7.582  1.00  0.00     0.200 A 
ATOM     70  F   UNL     1       6.855  10.217   7.532  1.00  0.00    -0.200 F 
ATOM     71  F   UNL     1       6.112   7.847   8.657  1.00  0.00    -0.200 F 
ENDBRANCH  38  61
ENDBRANCH  12  13
ENDBRANCH   5   7
ENDBRANCH   2   3
ENDBRANCH   1   2
BRANCH   1  72
ATOM     72  C   UNL     1       4.442  -1.870   3.064  1.00  0.00     0.023 C 
BRANCH  72  73
ATOM     73  C   UNL     1       4.884  -3.274   2.666  1.00  0.00     0.116 C 
BRANCH  73  74
ATOM     74  N   UNL     1       6.328  -3.447   2.657  1.00  0.00    -0.351 N 
ATOM     75  C   UNL     1       7.082  -4.486   3.175  1.00  0.00     0.269 C 
ATOM     76  H   UNL     1       6.839  -2.726   2.223  1.00  0.00     0.163 HD
ATOM     77  O   UNL     1       8.299  -4.459   3.084  1.00  0.00    -0.268 OA
BRANCH  75  78
ATOM     78  C   UNL     1       6.384  -5.630   3.832  1.00  0.00     0.130 A 
ATOM     79  C   UNL     1       5.453  -6.369   3.113  1.00  0.00     0.060 A 
ATOM     80  N   UNL     1       6.627  -5.796   5.155  1.00  0.00    -0.251 NA
ATOM     81  C   UNL     1       4.636  -7.243   3.830  1.00  0.00     0.050 A 
ATOM     82  C   UNL     1       5.876  -6.710   5.800  1.00  0.00     0.114 A 
ATOM     83  C   UNL     1       4.852  -7.425   5.199  1.00  0.00     0.047 A 
BRANCH  81  84
ATOM     84  N   UNL     1       3.548  -7.875   3.183  1.00  0.00    -0.306 N 
ATOM     85  C   UNL     1       3.425  -8.156   1.842  1.00  0.00     0.113 A 
ATOM     86  C   UNL     1       2.362  -8.266   3.762  1.00  0.00     0.204 A 
ATOM     87  C   UNL     1       2.177  -8.715   1.689  1.00  0.00     0.131 A 
ATOM     88  N   UNL     1       1.520  -8.768   2.886  1.00  0.00    -0.245 NA
ENDBRANCH  81  84
ENDBRANCH  75  78
ENDBRANCH  73  74
ENDBRANCH  72  73
ENDBRANCH   1  72
TORSDOF 12
