REMARK SMILES CCCCCCNC(=O)Oc1cccc(-c2ccc([C@@H](C)C(=O)NCCCCNC(=O)c3ccc(-c4c5nc(c(-c6c(F)c(F)c(F)c(F)c6F)c6ccc([nH]6)c(-c6c(F)c(F)c(F)c(F)c6F)c6nc(c(-c7c(F)c(F)c(F)c(F)c7F)c7ccc4[nH]7)C=C6)C=C5)cc3)cc2[N+](=O)[O-])c1
REMARK SMILES IDX 20 1 21 2 19 3 16 4 17 5 96 6 18 7 95 8 15 9 11 10 12 11
REMARK SMILES IDX 100 12 13 13 14 14 10 15 8 16 7 17 9 19 6 20 5 21 4 22 3 23
REMARK SMILES IDX 2 24 1 25 97 26 98 27 99 28 22 29 23 30 24 31 25 33 26 34
REMARK SMILES IDX 27 35 28 36 29 37 30 38 31 40 32 41 33 42 94 43 34 44 93 45
REMARK SMILES IDX 35 46 36 47 37 48 87 49 38 50 92 51 86 52 88 53 39 54 91 55
REMARK SMILES IDX 85 56 84 57 40 59 72 60 52 61 71 62 53 63 56 64 70 65 89 66
REMARK SMILES IDX 54 67 55 68 69 70 90 71 57 72 41 73 42 74 50 75 43 76 44 77
REMARK SMILES IDX 48 78 51 79 45 80 46 81 49 82 47 83 73 84 74 85 82 86 75 87
REMARK SMILES IDX 76 88 80 89 83 90 77 91 78 92 81 93 79 94 58 95 59 96 67 97
REMARK SMILES IDX 60 98 61 99 65 100 68 101 62 102 63 103 66 104 64 105
REMARK H PARENT 7 18 24 32 29 39 88 58 56 69
REMARK Flexibility Score: inf
ROOT
ATOM      1  C   UNL     1      -4.644  -8.031  10.651  1.00  0.00     0.105 C 
ATOM      2  C   UNL     1      -5.869  -8.516  11.424  1.00  0.00     0.023 C 
ENDROOT
BRANCH   1   3
ATOM      3  C   UNL     1      -4.890  -7.682   9.190  1.00  0.00    -0.029 A 
ATOM      4  C   UNL     1      -5.135  -7.074   6.385  1.00  0.00     0.060 A 
ATOM      5  C   UNL     1      -5.642  -8.261   6.944  1.00  0.00     0.016 A 
ATOM      6  C   UNL     1      -4.580  -6.159   7.301  1.00  0.00     0.277 A 
ATOM      7  C   UNL     1      -5.572  -8.530   8.317  1.00  0.00     0.005 A 
ATOM      8  C   UNL     1      -4.415  -6.471   8.669  1.00  0.00     0.090 A 
BRANCH   4   9
ATOM      9  C   UNL     1      -5.199  -6.899   4.914  1.00  0.00    -0.008 A 
ATOM     10  C   UNL     1      -4.215  -6.238   2.791  1.00  0.00     0.133 A 
ATOM     11  C   UNL     1      -5.369  -6.597   2.102  1.00  0.00     0.047 A 
ATOM     12  C   UNL     1      -4.112  -6.402   4.175  1.00  0.00     0.056 A 
ATOM     13  C   UNL     1      -6.442  -7.125   2.808  1.00  0.00     0.004 A 
ATOM     14  C   UNL     1      -6.362  -7.258   4.198  1.00  0.00     0.009 A 
BRANCH  10  15
ATOM     15  O   UNL     1      -3.243  -5.538   2.054  1.00  0.00    -0.410 OA
BRANCH  15  16
ATOM     16  C   UNL     1      -1.895  -5.807   2.230  1.00  0.00     0.412 C 
ATOM     17  N   UNL     1      -1.091  -4.860   1.657  1.00  0.00    -0.321 N 
ATOM     18  H   UNL     1      -0.121  -5.024   1.687  1.00  0.00     0.167 HD
ATOM     19  O   UNL     1      -1.428  -6.774   2.818  1.00  0.00    -0.224 OA
BRANCH  17  20
ATOM     20  C   UNL     1      -1.528  -3.636   1.010  1.00  0.00     0.119 C 
BRANCH  20  21
ATOM     21  C   UNL     1      -0.950  -2.392   1.685  1.00  0.00     0.021 C 
BRANCH  21  22
ATOM     22  C   UNL     1       0.578  -2.275   1.619  1.00  0.00     0.002 C 
BRANCH  22  23
ATOM     23  C   UNL     1       1.180  -2.287   0.210  1.00  0.00    -0.000 C 
BRANCH  23  24
ATOM     24  C   UNL     1       0.687  -1.178  -0.723  1.00  0.00    -0.003 C 
ATOM     25  C   UNL     1       1.052   0.218  -0.241  1.00  0.00     0.004 C 
ENDBRANCH  23  24
ENDBRANCH  22  23
ENDBRANCH  21  22
ENDBRANCH  20  21
ENDBRANCH  17  20
ENDBRANCH  15  16
ENDBRANCH  10  15
ENDBRANCH   4   9
BRANCH   6  26
ATOM     26  N   UNL     1      -4.228  -4.800   6.898  1.00  0.00     0.063 N 
ATOM     27  O   UNL     1      -3.153  -4.346   7.314  1.00  0.00    -0.258 OA
ATOM     28  O   UNL     1      -5.049  -4.170   6.217  1.00  0.00    -0.258 OA
ENDBRANCH   6  26
ENDBRANCH   1   3
BRANCH   1  29
ATOM     29  C   UNL     1      -3.375  -8.868  10.889  1.00  0.00     0.227 C 
ATOM     30  O   UNL     1      -2.369  -8.332  11.370  1.00  0.00    -0.274 OA
ATOM     31  N   UNL     1      -3.271 -10.197  10.617  1.00  0.00    -0.356 N 
ATOM     32  H   UNL     1      -2.423 -10.602  10.911  1.00  0.00     0.163 HD
BRANCH  31  33
ATOM     33  C   UNL     1      -4.177 -11.126   9.976  1.00  0.00     0.116 C 
BRANCH  33  34
ATOM     34  C   UNL     1      -3.877 -11.273   8.483  1.00  0.00     0.023 C 
BRANCH  34  35
ATOM     35  C   UNL     1      -2.846 -12.342   8.132  1.00  0.00     0.023 C 
BRANCH  35  36
ATOM     36  C   UNL     1      -3.232 -13.763   8.519  1.00  0.00     0.116 C 
BRANCH  36  37
ATOM     37  N   UNL     1      -4.496 -14.214   7.952  1.00  0.00    -0.352 N 
ATOM     38  C   UNL     1      -4.852 -15.492   7.586  1.00  0.00     0.251 C 
ATOM     39  H   UNL     1      -5.179 -13.519   7.814  1.00  0.00     0.163 HD
ATOM     40  O   UNL     1      -5.932 -15.715   7.051  1.00  0.00    -0.269 OA
BRANCH  38  41
ATOM     41  C   UNL     1      -3.885 -16.587   7.800  1.00  0.00     0.039 A 
ATOM     42  C   UNL     1      -3.552 -17.415   6.726  1.00  0.00     0.014 A 
ATOM     43  C   UNL     1      -3.251 -16.736   9.036  1.00  0.00     0.014 A 
ATOM     44  C   UNL     1      -2.518 -18.340   6.868  1.00  0.00     0.010 A 
ATOM     45  C   UNL     1      -2.166 -17.596   9.149  1.00  0.00     0.010 A 
ATOM     46  C   UNL     1      -1.788 -18.405   8.066  1.00  0.00    -0.014 A 
BRANCH  46  47
ATOM     47  C   UNL     1      -0.616 -19.303   8.209  1.00  0.00     0.031 A 
ATOM     48  C   UNL     1      -0.635 -20.406   9.228  1.00  0.00     0.074 A 
ATOM     49  C   UNL     1       0.497 -19.066   7.489  1.00  0.00     0.049 A 
ATOM     50  N   UNL     1       0.314 -21.244   9.561  1.00  0.00    -0.248 NA
ATOM     51  C   UNL     1      -1.873 -20.561  10.007  1.00  0.00     0.031 C 
ATOM     52  C   UNL     1       0.665 -17.978   6.524  1.00  0.00     0.029 A 
ATOM     53  N   UNL     1       1.706 -19.716   7.470  1.00  0.00    -0.354 N 
ATOM     54  C   UNL     1      -0.203 -22.004  10.600  1.00  0.00     0.074 A 
ATOM     55  C   UNL     1      -1.526 -21.492  10.883  1.00  0.00     0.031 C 
ATOM     56  C   UNL     1       1.896 -18.046   5.995  1.00  0.00     0.029 A 
ATOM     57  C   UNL     1       2.615 -19.161   6.604  1.00  0.00     0.049 A 
ATOM     58  H   UNL     1       1.902 -20.505   8.026  1.00  0.00     0.167 HD
ATOM     59  C   UNL     1       0.365 -23.051  11.245  1.00  0.00     0.037 A 
ATOM     60  C   UNL     1       3.887 -19.511   6.334  1.00  0.00     0.037 A 
ATOM     61  C   UNL     1       1.666 -23.579  10.932  1.00  0.00     0.049 A 
ATOM     62  C   UNL     1       4.484 -20.702   7.031  1.00  0.00     0.074 A 
ATOM     63  C   UNL     1       2.293 -24.696  11.455  1.00  0.00     0.029 A 
ATOM     64  N   UNL     1       2.543 -23.020  10.013  1.00  0.00    -0.354 N 
ATOM     65  N   UNL     1       3.951 -21.477   7.945  1.00  0.00    -0.248 NA
ATOM     66  C   UNL     1       5.853 -21.075   6.653  1.00  0.00     0.031 C 
ATOM     67  C   UNL     1       3.569 -24.786  10.887  1.00  0.00     0.029 A 
ATOM     68  C   UNL     1       3.718 -23.754   9.973  1.00  0.00     0.049 A 
ATOM     69  H   UNL     1       2.358 -22.221   9.470  1.00  0.00     0.167 HD
ATOM     70  C   UNL     1       4.908 -22.438   8.238  1.00  0.00     0.074 A 
ATOM     71  C   UNL     1       6.050 -22.159   7.391  1.00  0.00     0.031 C 
ATOM     72  C   UNL     1       4.847 -23.459   9.127  1.00  0.00     0.037 A 
BRANCH  59  73
ATOM     73  C   UNL     1      -0.424 -23.689  12.351  1.00  0.00     0.064 A 
ATOM     74  C   UNL     1      -1.598 -24.416  12.098  1.00  0.00     0.173 A 
ATOM     75  C   UNL     1       0.002 -23.577  13.683  1.00  0.00     0.173 A 
ATOM     76  F   UNL     1      -2.056 -24.543  10.843  1.00  0.00    -0.203 F 
ATOM     77  C   UNL     1      -2.339 -24.969  13.140  1.00  0.00     0.198 A 
ATOM     78  C   UNL     1      -0.723 -24.160  14.719  1.00  0.00     0.198 A 
ATOM     79  F   UNL     1       1.119 -22.898  13.982  1.00  0.00    -0.203 F 
ATOM     80  F   UNL     1      -3.491 -25.601  12.878  1.00  0.00    -0.200 F 
ATOM     81  C   UNL     1      -1.898 -24.845  14.448  1.00  0.00     0.200 A 
ATOM     82  F   UNL     1      -0.291 -24.049  15.983  1.00  0.00    -0.200 F 
ATOM     83  F   UNL     1      -2.613 -25.375  15.450  1.00  0.00    -0.200 F 
ENDBRANCH  59  73
BRANCH  60  84
ATOM     84  C   UNL     1       4.662 -18.740   5.329  1.00  0.00     0.064 A 
ATOM     85  C   UNL     1       4.947 -19.284   4.069  1.00  0.00     0.173 A 
ATOM     86  C   UNL     1       5.104 -17.436   5.593  1.00  0.00     0.173 A 
ATOM     87  F   UNL     1       4.560 -20.534   3.777  1.00  0.00    -0.203 F 
ATOM     88  C   UNL     1       5.654 -18.556   3.114  1.00  0.00     0.198 A 
ATOM     89  C   UNL     1       5.790 -16.700   4.629  1.00  0.00     0.198 A 
ATOM     90  F   UNL     1       4.850 -16.869   6.781  1.00  0.00    -0.203 F 
ATOM     91  F   UNL     1       5.940 -19.111   1.929  1.00  0.00    -0.200 F 
ATOM     92  C   UNL     1       6.068 -17.262   3.392  1.00  0.00     0.200 A 
ATOM     93  F   UNL     1       6.176 -15.445   4.896  1.00  0.00    -0.200 F 
ATOM     94  F   UNL     1       6.738 -16.558   2.469  1.00  0.00    -0.200 F 
ENDBRANCH  60  84
BRANCH  72  95
ATOM     95  C   UNL     1       6.040 -24.364   9.218  1.00  0.00     0.064 A 
ATOM     96  C   UNL     1       7.237 -23.943   9.816  1.00  0.00     0.173 A 
ATOM     97  C   UNL     1       5.970 -25.683   8.743  1.00  0.00     0.173 A 
ATOM     98  F   UNL     1       7.358 -22.687  10.272  1.00  0.00    -0.203 F 
ATOM     99  C   UNL     1       8.327 -24.803   9.916  1.00  0.00     0.198 A 
ATOM    100  C   UNL     1       7.052 -26.548   8.871  1.00  0.00     0.198 A 
ATOM    101  F   UNL     1       4.846 -26.136   8.169  1.00  0.00    -0.203 F 
ATOM    102  F   UNL     1       9.475 -24.367  10.453  1.00  0.00    -0.200 F 
ATOM    103  C   UNL     1       8.232 -26.106   9.452  1.00  0.00     0.200 A 
ATOM    104  F   UNL     1       6.954 -27.811   8.434  1.00  0.00    -0.200 F 
ATOM    105  F   UNL     1       9.279 -26.935   9.557  1.00  0.00    -0.200 F 
ENDBRANCH  72  95
ENDBRANCH  46  47
ENDBRANCH  38  41
ENDBRANCH  36  37
ENDBRANCH  35  36
ENDBRANCH  34  35
ENDBRANCH  33  34
ENDBRANCH  31  33
ENDBRANCH   1  29
TORSDOF 21
