REMARK SMILES Cc1cnn(C2(C(=O)NCCCCNC(=O)c3ccc(-c4c5nc(c(-c6c(F)c(F)c(F)c(F)c6F)c6ccc([nH]6)c(-c6c(F)c(F)c(F)c(F)c6F)c6nc(c(-c7c(F)c(F)c(F)c(F)c7F)c7ccc4[nH]7)C=C6)C=C5)cc3)CCN(C(=O)c3cscn3)CC2)c1
REMARK SMILES IDX 12 1 11 2 10 3 9 4 7 5 8 6 6 8 80 9 91 10 81 11 90 12 82 13
REMARK SMILES IDX 83 14 84 15 5 16 1 17 2 18 3 19 92 20 4 21 85 22 86 23 89 24
REMARK SMILES IDX 87 25 88 26 13 27 14 28 15 29 16 31 17 32 18 33 79 34 19 35
REMARK SMILES IDX 78 36 20 37 21 38 22 39 72 40 23 41 77 42 71 43 73 44 24 45
REMARK SMILES IDX 76 46 70 47 69 48 25 50 57 51 37 52 56 53 38 54 41 55 55 56
REMARK SMILES IDX 74 57 39 58 40 59 54 61 75 62 42 63 26 64 27 65 35 66 28 67
REMARK SMILES IDX 29 68 33 69 36 70 30 71 31 72 34 73 32 74 58 75 59 76 67 77
REMARK SMILES IDX 60 78 61 79 65 80 68 81 62 82 63 83 66 84 64 85 43 86 44 87
REMARK SMILES IDX 52 88 45 89 46 90 50 91 53 92 47 93 48 94 51 95 49 96
REMARK H PARENT 9 7 14 30 73 49 41 60
REMARK Flexibility Score: inf
ROOT
ATOM      1  C   UNL     1       1.876   9.673  -1.817  1.00  0.00     0.023 C 
ENDROOT
BRANCH   1   2
ATOM      2  C   UNL     1       2.325   8.519  -0.917  1.00  0.00     0.023 C 
BRANCH   2   3
ATOM      3  C   UNL     1       1.270   7.842  -0.029  1.00  0.00     0.116 C 
BRANCH   3   4
ATOM      4  N   UNL     1       0.217   7.093  -0.717  1.00  0.00    -0.354 N 
ATOM      5  C   UNL     1      -0.098   5.745  -0.767  1.00  0.00     0.248 C 
ATOM      6  O   UNL     1      -1.286   5.525  -1.022  1.00  0.00    -0.272 OA
ATOM      7  H   UNL     1      -0.387   7.659  -1.249  1.00  0.00     0.163 HD
BRANCH   5   8
ATOM      8  C   UNL     1       0.938   4.615  -0.414  1.00  0.00     0.144 C 
ATOM      9  C   UNL     1       2.254   4.908  -1.162  1.00  0.00     0.062 C 
ATOM     10  C   UNL     1       1.021   4.613   1.131  1.00  0.00     0.062 C 
ATOM     11  C   UNL     1       3.555   4.708  -0.404  1.00  0.00     0.123 C 
ATOM     12  C   UNL     1       2.349   4.162   1.699  1.00  0.00     0.123 C 
ATOM     13  N   UNL     1       3.481   4.783   1.043  1.00  0.00    -0.337 N 
ATOM     14  C   UNL     1       4.699   4.978   1.726  1.00  0.00     0.273 C 
ATOM     15  O   UNL     1       5.638   5.604   1.241  1.00  0.00    -0.267 OA
BRANCH   8  16
ATOM     16  N   UNL     1       0.491   3.250  -0.857  1.00  0.00    -0.257 N 
ATOM     17  C   UNL     1       0.222  -0.396  -0.682  1.00  0.00     0.048 C 
ATOM     18  C   UNL     1       0.184   1.052  -0.987  1.00  0.00    -0.013 A 
ATOM     19  C   UNL     1      -0.550   1.759  -1.957  1.00  0.00     0.138 A 
ATOM     20  C   UNL     1       0.907   2.038  -0.357  1.00  0.00     0.113 A 
ATOM     21  N   UNL     1      -0.281   3.069  -1.950  1.00  0.00    -0.180 NA
ENDBRANCH   8  16
BRANCH  14  22
ATOM     22  C   UNL     1       4.837   4.233   2.983  1.00  0.00     0.139 A 
ATOM     23  C   UNL     1       5.139   2.880   3.008  1.00  0.00     0.100 A 
ATOM     24  N   UNL     1       4.553   4.788   4.227  1.00  0.00    -0.240 NA
ATOM     25  S   UNL     1       5.070   2.286   4.612  1.00  0.00    -0.130 S 
ATOM     26  C   UNL     1       4.669   3.863   5.155  1.00  0.00     0.176 A 
ENDBRANCH  14  22
ENDBRANCH   5   8
ENDBRANCH   3   4
ENDBRANCH   2   3
ENDBRANCH   1   2
BRANCH   1  27
ATOM     27  C   UNL     1       1.452  10.935  -1.082  1.00  0.00     0.116 C 
BRANCH  27  28
ATOM     28  N   UNL     1       2.499  11.492  -0.223  1.00  0.00    -0.352 N 
ATOM     29  C   UNL     1       2.392  12.545   0.664  1.00  0.00     0.251 C 
ATOM     30  H   UNL     1       3.385  11.066  -0.286  1.00  0.00     0.163 HD
ATOM     31  O   UNL     1       3.381  13.156   1.060  1.00  0.00    -0.269 OA
BRANCH  29  32
ATOM     32  C   UNL     1       1.052  12.929   1.129  1.00  0.00     0.039 A 
ATOM     33  C   UNL     1       0.644  14.265   1.155  1.00  0.00     0.014 A 
ATOM     34  C   UNL     1       0.174  11.902   1.468  1.00  0.00     0.014 A 
ATOM     35  C   UNL     1      -0.691  14.550   1.426  1.00  0.00     0.010 A 
ATOM     36  C   UNL     1      -1.165  12.172   1.581  1.00  0.00     0.010 A 
ATOM     37  C   UNL     1      -1.599  13.494   1.606  1.00  0.00    -0.014 A 
BRANCH  37  38
ATOM     38  C   UNL     1      -3.034  13.754   1.694  1.00  0.00     0.031 A 
ATOM     39  C   UNL     1      -3.597  14.546   0.563  1.00  0.00     0.074 A 
ATOM     40  C   UNL     1      -3.830  13.143   2.599  1.00  0.00     0.049 A 
ATOM     41  N   UNL     1      -4.164  15.706   0.619  1.00  0.00    -0.248 NA
ATOM     42  C   UNL     1      -3.409  14.045  -0.809  1.00  0.00     0.031 C 
ATOM     43  C   UNL     1      -3.470  12.103   3.569  1.00  0.00     0.029 A 
ATOM     44  N   UNL     1      -5.177  13.245   2.764  1.00  0.00    -0.354 N 
ATOM     45  C   UNL     1      -4.574  16.003  -0.679  1.00  0.00     0.074 A 
ATOM     46  C   UNL     1      -3.942  15.033  -1.533  1.00  0.00     0.031 C 
ATOM     47  C   UNL     1      -4.589  11.505   4.032  1.00  0.00     0.029 A 
ATOM     48  C   UNL     1      -5.740  12.231   3.532  1.00  0.00     0.049 A 
ATOM     49  H   UNL     1      -5.709  13.975   2.374  1.00  0.00     0.167 HD
ATOM     50  C   UNL     1      -5.593  16.880  -0.904  1.00  0.00     0.037 A 
ATOM     51  C   UNL     1      -7.061  11.987   3.716  1.00  0.00     0.037 A 
ATOM     52  C   UNL     1      -5.835  17.694   0.262  1.00  0.00     0.049 A 
ATOM     53  C   UNL     1      -7.789  13.234   3.377  1.00  0.00     0.074 A 
ATOM     54  C   UNL     1      -5.081  18.583   1.003  1.00  0.00     0.029 A 
ATOM     55  N   UNL     1      -6.905  17.370   1.058  1.00  0.00    -0.354 N 
ATOM     56  N   UNL     1      -7.710  14.333   4.073  1.00  0.00    -0.248 NA
ATOM     57  C   UNL     1      -8.248  13.394   2.006  1.00  0.00     0.031 C 
ATOM     58  C   UNL     1      -5.462  18.349   2.359  1.00  0.00     0.029 A 
ATOM     59  C   UNL     1      -6.476  17.390   2.359  1.00  0.00     0.049 A 
ATOM     60  H   UNL     1      -7.817  17.160   0.750  1.00  0.00     0.167 HD
ATOM     61  C   UNL     1      -7.656  15.342   3.124  1.00  0.00     0.074 A 
ATOM     62  C   UNL     1      -8.092  14.714   1.878  1.00  0.00     0.031 C 
ATOM     63  C   UNL     1      -6.987  16.505   3.377  1.00  0.00     0.037 A 
BRANCH  50  64
ATOM     64  C   UNL     1      -6.624  16.739  -2.004  1.00  0.00     0.064 A 
ATOM     65  C   UNL     1      -7.598  17.750  -2.157  1.00  0.00     0.173 A 
ATOM     66  C   UNL     1      -6.897  15.533  -2.684  1.00  0.00     0.173 A 
ATOM     67  F   UNL     1      -7.449  18.940  -1.556  1.00  0.00    -0.203 F 
ATOM     68  C   UNL     1      -8.796  17.527  -2.841  1.00  0.00     0.198 A 
ATOM     69  C   UNL     1      -8.071  15.333  -3.410  1.00  0.00     0.198 A 
ATOM     70  F   UNL     1      -6.106  14.459  -2.585  1.00  0.00    -0.203 F 
ATOM     71  F   UNL     1      -9.751  18.468  -2.834  1.00  0.00    -0.200 F 
ATOM     72  C   UNL     1      -9.037  16.314  -3.457  1.00  0.00     0.200 A 
ATOM     73  F   UNL     1      -8.292  14.143  -3.987  1.00  0.00    -0.200 F 
ATOM     74  F   UNL     1     -10.213  16.071  -4.049  1.00  0.00    -0.200 F 
ENDBRANCH  50  64
BRANCH  51  75
ATOM     75  C   UNL     1      -7.749  10.681   3.853  1.00  0.00     0.064 A 
ATOM     76  C   UNL     1      -9.081  10.612   4.294  1.00  0.00     0.173 A 
ATOM     77  C   UNL     1      -7.220   9.509   3.276  1.00  0.00     0.173 A 
ATOM     78  F   UNL     1      -9.674  11.693   4.821  1.00  0.00    -0.203 F 
ATOM     79  C   UNL     1      -9.851   9.455   4.128  1.00  0.00     0.198 A 
ATOM     80  C   UNL     1      -7.986   8.354   3.119  1.00  0.00     0.198 A 
ATOM     81  F   UNL     1      -5.982   9.492   2.763  1.00  0.00    -0.203 F 
ATOM     82  F   UNL     1     -11.140   9.452   4.494  1.00  0.00    -0.200 F 
ATOM     83  C   UNL     1      -9.307   8.332   3.528  1.00  0.00     0.200 A 
ATOM     84  F   UNL     1      -7.458   7.285   2.506  1.00  0.00    -0.200 F 
ATOM     85  F   UNL     1     -10.063   7.248   3.306  1.00  0.00    -0.200 F 
ENDBRANCH  51  75
BRANCH  63  86
ATOM     86  C   UNL     1      -6.567  16.773   4.797  1.00  0.00     0.064 A 
ATOM     87  C   UNL     1      -5.691  15.960   5.538  1.00  0.00     0.173 A 
ATOM     88  C   UNL     1      -6.991  17.967   5.396  1.00  0.00     0.173 A 
ATOM     89  F   UNL     1      -5.152  14.857   5.006  1.00  0.00    -0.203 F 
ATOM     90  C   UNL     1      -5.313  16.295   6.838  1.00  0.00     0.198 A 
ATOM     91  C   UNL     1      -6.579  18.321   6.678  1.00  0.00     0.198 A 
ATOM     92  F   UNL     1      -7.781  18.815   4.719  1.00  0.00    -0.203 F 
ATOM     93  F   UNL     1      -4.500  15.486   7.532  1.00  0.00    -0.200 F 
ATOM     94  C   UNL     1      -5.755  17.478   7.404  1.00  0.00     0.200 A 
ATOM     95  F   UNL     1      -6.969  19.491   7.202  1.00  0.00    -0.200 F 
ATOM     96  F   UNL     1      -5.368  17.818   8.642  1.00  0.00    -0.200 F 
ENDBRANCH  63  86
ENDBRANCH  37  38
ENDBRANCH  29  32
ENDBRANCH  27  28
ENDBRANCH   1  27
TORSDOF 13
