REMARK SMILES CC(C)(C)c1ccc(NC(=O)CCC(=O)NCCCCNC(=O)c2ccc(-c3c4nc(c(-c5c(F)c(F)c(F)c(F)c5F)c5ccc([nH]5)c(-c5c(F)c(F)c(F)c(F)c5F)c5nc(c(-c6c(F)c(F)c(F)c(F)c6F)c6ccc3[nH]6)C=C5)C=C4)cc2)cc1
REMARK SMILES IDX 17 1 16 2 14 3 15 4 13 6 12 7 10 8 9 9 11 11 8 12 5 13 6 14
REMARK SMILES IDX 88 15 7 16 87 17 2 18 1 19 3 20 4 21 18 22 19 23 20 24 21 25
REMARK SMILES IDX 22 26 23 28 24 29 25 30 86 31 26 32 85 33 27 34 28 35 29 36
REMARK SMILES IDX 79 37 30 38 84 39 78 40 80 41 31 42 83 43 77 44 76 45 32 47
REMARK SMILES IDX 64 48 44 49 63 50 45 51 48 52 62 53 81 54 46 55 47 56 61 58
REMARK SMILES IDX 82 59 49 60 33 61 34 62 42 63 35 64 36 65 40 66 43 67 37 68
REMARK SMILES IDX 38 69 41 70 39 71 65 72 66 73 74 74 67 75 68 76 72 77 75 78
REMARK SMILES IDX 69 79 70 80 73 81 71 82 50 83 51 84 59 85 52 86 53 87 57 88
REMARK SMILES IDX 60 89 54 90 55 91 58 92 56 93
REMARK H PARENT 16 5 9 10 21 27 80 46 48 57
REMARK Flexibility Score: inf
ROOT
ATOM      1  C   UNL     1       1.029  -6.216   4.696  1.00  0.00     0.116 C 
ENDROOT
BRANCH   1   2
ATOM      2  N   UNL     1       0.391  -5.097   4.027  1.00  0.00    -0.356 N 
ATOM      3  C   UNL     1      -0.486  -5.095   2.985  1.00  0.00     0.220 C 
ATOM      4  O   UNL     1      -1.056  -4.044   2.693  1.00  0.00    -0.275 OA
ATOM      5  H   UNL     1       0.626  -4.208   4.379  1.00  0.00     0.163 HD
BRANCH   3   6
ATOM      6  C   UNL     1      -0.743  -6.364   2.209  1.00  0.00     0.110 C 
BRANCH   6   7
ATOM      7  C   UNL     1       0.152  -6.553   0.991  1.00  0.00     0.110 C 
BRANCH   7   8
ATOM      8  C   UNL     1       1.641  -6.517   1.270  1.00  0.00     0.224 C 
ATOM      9  N   UNL     1       2.368  -5.362   1.313  1.00  0.00    -0.326 N 
ATOM     10  H   UNL     1       3.324  -5.494   1.510  1.00  0.00     0.169 HD
ATOM     11  O   UNL     1       2.222  -7.567   1.573  1.00  0.00    -0.275 OA
BRANCH   9  12
ATOM     12  C   UNL     1       1.999  -4.024   1.126  1.00  0.00     0.041 A 
ATOM     13  C   UNL     1       1.116  -1.330   1.118  1.00  0.00    -0.042 A 
ATOM     14  C   UNL     1       0.624  -2.272   0.198  1.00  0.00     0.006 A 
ATOM     15  C   UNL     1       2.150  -1.748   1.967  1.00  0.00     0.006 A 
ATOM     16  C   UNL     1       1.063  -3.598   0.198  1.00  0.00     0.026 A 
ATOM     17  C   UNL     1       2.606  -3.072   1.948  1.00  0.00     0.026 A 
BRANCH  13  18
ATOM     18  C   UNL     1       0.528   0.089   1.145  1.00  0.00    -0.013 C 
ATOM     19  C   UNL     1       0.872   0.794  -0.181  1.00  0.00     0.016 C 
ATOM     20  C   UNL     1       1.061   0.966   2.300  1.00  0.00     0.016 C 
ATOM     21  C   UNL     1      -1.008   0.024   1.309  1.00  0.00     0.016 C 
ENDBRANCH  13  18
ENDBRANCH   9  12
ENDBRANCH   7   8
ENDBRANCH   6   7
ENDBRANCH   3   6
ENDBRANCH   1   2
BRANCH   1  22
ATOM     22  C   UNL     1       2.549  -6.094   4.775  1.00  0.00     0.023 C 
BRANCH  22  23
ATOM     23  C   UNL     1       3.070  -4.805   5.403  1.00  0.00     0.023 C 
BRANCH  23  24
ATOM     24  C   UNL     1       2.542  -4.528   6.799  1.00  0.00     0.116 C 
BRANCH  24  25
ATOM     25  N   UNL     1       2.919  -5.570   7.739  1.00  0.00    -0.352 N 
ATOM     26  C   UNL     1       3.713  -5.490   8.851  1.00  0.00     0.251 C 
ATOM     27  H   UNL     1       2.550  -6.462   7.549  1.00  0.00     0.163 HD
ATOM     28  O   UNL     1       4.110  -6.519   9.399  1.00  0.00    -0.269 OA
BRANCH  26  29
ATOM     29  C   UNL     1       4.096  -4.173   9.399  1.00  0.00     0.039 A 
ATOM     30  C   UNL     1       5.386  -3.997   9.907  1.00  0.00     0.014 A 
ATOM     31  C   UNL     1       3.171  -3.127   9.457  1.00  0.00     0.014 A 
ATOM     32  C   UNL     1       5.749  -2.768  10.460  1.00  0.00     0.010 A 
ATOM     33  C   UNL     1       3.564  -1.875   9.910  1.00  0.00     0.010 A 
ATOM     34  C   UNL     1       4.840  -1.698  10.461  1.00  0.00    -0.014 A 
BRANCH  34  35
ATOM     35  C   UNL     1       5.162  -0.418  11.135  1.00  0.00     0.031 A 
ATOM     36  C   UNL     1       4.356   0.005  12.335  1.00  0.00     0.074 A 
ATOM     37  C   UNL     1       6.135   0.376  10.652  1.00  0.00     0.049 A 
ATOM     38  N   UNL     1       4.425   1.107  13.037  1.00  0.00    -0.248 NA
ATOM     39  C   UNL     1       3.298  -0.918  12.779  1.00  0.00     0.031 C 
ATOM     40  C   UNL     1       6.940   0.101   9.461  1.00  0.00     0.029 A 
ATOM     41  N   UNL     1       6.607   1.581  11.104  1.00  0.00    -0.354 N 
ATOM     42  C   UNL     1       3.403   1.021  13.974  1.00  0.00     0.074 A 
ATOM     43  C   UNL     1       2.688  -0.207  13.713  1.00  0.00     0.031 C 
ATOM     44  C   UNL     1       7.831   1.093   9.296  1.00  0.00     0.029 A 
ATOM     45  C   UNL     1       7.642   2.082  10.354  1.00  0.00     0.049 A 
ATOM     46  H   UNL     1       6.240   2.043  11.892  1.00  0.00     0.167 HD
ATOM     47  C   UNL     1       3.108   1.871  14.986  1.00  0.00     0.037 A 
ATOM     48  C   UNL     1       8.363   3.207  10.517  1.00  0.00     0.037 A 
ATOM     49  C   UNL     1       3.864   3.058  15.279  1.00  0.00     0.049 A 
ATOM     50  C   UNL     1       8.064   4.098  11.692  1.00  0.00     0.074 A 
ATOM     51  C   UNL     1       3.697   3.958  16.316  1.00  0.00     0.029 A 
ATOM     52  N   UNL     1       4.947   3.499  14.533  1.00  0.00    -0.354 N 
ATOM     53  N   UNL     1       7.134   3.978  12.609  1.00  0.00    -0.248 NA
ATOM     54  C   UNL     1       8.929   5.273  11.865  1.00  0.00     0.031 C 
ATOM     55  C   UNL     1       4.666   4.959  16.183  1.00  0.00     0.029 A 
ATOM     56  C   UNL     1       5.460   4.660  15.087  1.00  0.00     0.049 A 
ATOM     57  H   UNL     1       5.300   3.053  13.729  1.00  0.00     0.167 HD
ATOM     58  C   UNL     1       7.318   5.041  13.482  1.00  0.00     0.074 A 
ATOM     59  C   UNL     1       8.461   5.786  12.994  1.00  0.00     0.031 C 
ATOM     60  C   UNL     1       6.606   5.375  14.586  1.00  0.00     0.037 A 
BRANCH  47  61
ATOM     61  C   UNL     1       1.929   1.531  15.852  1.00  0.00     0.064 A 
ATOM     62  C   UNL     1       1.947   0.429  16.723  1.00  0.00     0.173 A 
ATOM     63  C   UNL     1       0.766   2.315  15.813  1.00  0.00     0.173 A 
ATOM     64  F   UNL     1       3.028  -0.363  16.786  1.00  0.00    -0.203 F 
ATOM     65  C   UNL     1       0.833   0.103  17.491  1.00  0.00     0.198 A 
ATOM     66  C   UNL     1      -0.335   2.005  16.608  1.00  0.00     0.198 A 
ATOM     67  F   UNL     1       0.695   3.381  15.002  1.00  0.00    -0.203 F 
ATOM     68  F   UNL     1       0.852  -0.991  18.266  1.00  0.00    -0.200 F 
ATOM     69  C   UNL     1      -0.305   0.894  17.438  1.00  0.00     0.200 A 
ATOM     70  F   UNL     1      -1.430   2.776  16.564  1.00  0.00    -0.200 F 
ATOM     71  F   UNL     1      -1.377   0.578  18.178  1.00  0.00    -0.200 F 
ENDBRANCH  47  61
BRANCH  48  72
ATOM     72  C   UNL     1       9.475   3.516   9.583  1.00  0.00     0.064 A 
ATOM     73  C   UNL     1      10.810   3.411   9.998  1.00  0.00     0.173 A 
ATOM     74  C   UNL     1       9.231   3.916   8.261  1.00  0.00     0.173 A 
ATOM     75  F   UNL     1      11.091   3.048  11.258  1.00  0.00    -0.203 F 
ATOM     76  C   UNL     1      11.859   3.714   9.134  1.00  0.00     0.198 A 
ATOM     77  C   UNL     1      10.283   4.194   7.390  1.00  0.00     0.198 A 
ATOM     78  F   UNL     1       7.972   4.023   7.813  1.00  0.00    -0.203 F 
ATOM     79  F   UNL     1      13.124   3.645   9.570  1.00  0.00    -0.200 F 
ATOM     80  C   UNL     1      11.595   4.101   7.829  1.00  0.00     0.200 A 
ATOM     81  F   UNL     1      10.025   4.554   6.125  1.00  0.00    -0.200 F 
ATOM     82  F   UNL     1      12.605   4.389   6.997  1.00  0.00    -0.200 F 
ENDBRANCH  48  72
BRANCH  60  83
ATOM     83  C   UNL     1       7.068   6.575  15.357  1.00  0.00     0.064 A 
ATOM     84  C   UNL     1       6.890   7.876  14.867  1.00  0.00     0.173 A 
ATOM     85  C   UNL     1       7.675   6.420  16.613  1.00  0.00     0.173 A 
ATOM     86  F   UNL     1       6.327   8.073  13.665  1.00  0.00    -0.203 F 
ATOM     87  C   UNL     1       7.333   8.979  15.591  1.00  0.00     0.198 A 
ATOM     88  C   UNL     1       8.090   7.526  17.347  1.00  0.00     0.198 A 
ATOM     89  F   UNL     1       7.859   5.195  17.128  1.00  0.00    -0.203 F 
ATOM     90  F   UNL     1       7.201  10.210  15.080  1.00  0.00    -0.200 F 
ATOM     91  C   UNL     1       7.928   8.803  16.832  1.00  0.00     0.200 A 
ATOM     92  F   UNL     1       8.653   7.356  18.551  1.00  0.00    -0.200 F 
ATOM     93  F   UNL     1       8.353   9.866  17.528  1.00  0.00    -0.200 F 
ENDBRANCH  60  83
ENDBRANCH  34  35
ENDBRANCH  26  29
ENDBRANCH  24  25
ENDBRANCH  23  24
ENDBRANCH  22  23
ENDBRANCH   1  22
TORSDOF 15
