REMARK SMILES CC/C=C/C/C=C/C/C=C/C/C=C/CCSCCCC(=O)NCCCCNC(=O)c1ccc(-c2c3nc(c(-c4c(F)c(F)c(F)c(F)c4F)c4ccc([nH]4)c(-c4c(F)c(F)c(F)c(F)c4F)c4nc(c(-c5c(F)c(F)c(F)c(F)c5F)c5ccc2[nH]5)C=C4)C=C3)cc1
REMARK SMILES IDX 17 1 16 2 15 3 14 4 13 5 12 6 11 7 10 8 9 9 8 10 7 11 6 12
REMARK SMILES IDX 5 13 4 14 3 15 2 16 1 17 18 18 19 19 20 20 21 21 22 22 23 24
REMARK SMILES IDX 24 25 25 26 26 27 27 28 28 29 29 31 30 32 31 33 92 34 32 35
REMARK SMILES IDX 91 36 33 37 34 38 35 39 85 40 36 41 90 42 84 43 86 44 37 45
REMARK SMILES IDX 89 46 83 47 82 48 38 50 70 51 50 52 69 53 51 54 54 55 68 56
REMARK SMILES IDX 87 57 52 58 53 59 67 61 88 62 55 63 39 64 40 65 48 66 41 67
REMARK SMILES IDX 42 68 46 69 49 70 43 71 44 72 47 73 45 74 71 75 72 76 80 77
REMARK SMILES IDX 73 78 74 79 78 80 81 81 75 82 76 83 79 84 77 85 56 86 57 87
REMARK SMILES IDX 65 88 58 89 59 90 63 91 66 92 60 93 61 94 64 95 62 96
REMARK H PARENT 22 23 27 30 86 49 54 60
REMARK Flexibility Score: inf
ROOT
ATOM      1  C   UNL     1      -6.190  -7.621  11.415  1.00  0.00     0.070 C 
ENDROOT
BRANCH   1   2
ATOM      2  S   UNL     1      -6.713  -8.922  10.216  1.00  0.00    -0.162 SA
BRANCH   2   3
ATOM      3  C   UNL     1      -5.593  -8.931   8.755  1.00  0.00     0.073 C 
BRANCH   3   4
ATOM      4  C   UNL     1      -6.110  -8.204   7.485  1.00  0.00     0.038 C 
BRANCH   4   5
ATOM      5  C   UNL     1      -5.469  -6.878   7.186  1.00  0.00    -0.030 C 
ATOM      6  C   UNL     1      -5.405  -6.218   6.017  1.00  0.00    -0.027 C 
BRANCH   6   7
ATOM      7  C   UNL     1      -4.940  -4.778   5.932  1.00  0.00     0.054 C 
BRANCH   7   8
ATOM      8  C   UNL     1      -3.499  -4.566   6.300  1.00  0.00    -0.027 C 
ATOM      9  C   UNL     1      -2.725  -3.634   5.720  1.00  0.00    -0.027 C 
BRANCH   9  10
ATOM     10  C   UNL     1      -1.266  -3.433   6.020  1.00  0.00     0.054 C 
BRANCH  10  11
ATOM     11  C   UNL     1      -0.466  -3.965   4.868  1.00  0.00    -0.027 C 
ATOM     12  C   UNL     1       0.321  -3.219   4.078  1.00  0.00    -0.027 C 
BRANCH  12  13
ATOM     13  C   UNL     1       0.942  -3.733   2.811  1.00  0.00     0.054 C 
BRANCH  13  14
ATOM     14  C   UNL     1       0.420  -2.941   1.647  1.00  0.00    -0.027 C 
ATOM     15  C   UNL     1       1.189  -2.208   0.827  1.00  0.00    -0.031 C 
BRANCH  15  16
ATOM     16  C   UNL     1       0.642  -1.337  -0.266  1.00  0.00     0.023 C 
ATOM     17  C   UNL     1       1.056   0.111  -0.052  1.00  0.00     0.008 C 
ENDBRANCH  15  16
ENDBRANCH  13  14
ENDBRANCH  12  13
ENDBRANCH  10  11
ENDBRANCH   9  10
ENDBRANCH   7   8
ENDBRANCH   6   7
ENDBRANCH   4   5
ENDBRANCH   3   4
ENDBRANCH   2   3
ENDBRANCH   1   2
BRANCH   1  18
ATOM     18  C   UNL     1      -4.785  -7.063  11.612  1.00  0.00     0.021 C 
BRANCH  18  19
ATOM     19  C   UNL     1      -4.096  -6.317  10.486  1.00  0.00     0.101 C 
BRANCH  19  20
ATOM     20  C   UNL     1      -4.428  -4.850  10.261  1.00  0.00     0.220 C 
ATOM     21  O   UNL     1      -3.525  -4.010  10.337  1.00  0.00    -0.275 OA
ATOM     22  N   UNL     1      -5.653  -4.382   9.919  1.00  0.00    -0.356 N 
ATOM     23  H   UNL     1      -5.754  -3.412  10.052  1.00  0.00     0.163 HD
BRANCH  22  24
ATOM     24  C   UNL     1      -6.844  -5.021   9.397  1.00  0.00     0.116 C 
BRANCH  24  25
ATOM     25  C   UNL     1      -8.135  -4.498  10.027  1.00  0.00     0.023 C 
BRANCH  25  26
ATOM     26  C   UNL     1      -9.119  -3.983   8.970  1.00  0.00     0.023 C 
BRANCH  26  27
ATOM     27  C   UNL     1      -9.627  -5.055   8.004  1.00  0.00     0.116 C 
BRANCH  27  28
ATOM     28  N   UNL     1     -10.618  -5.932   8.608  1.00  0.00    -0.352 N 
ATOM     29  C   UNL     1     -11.979  -5.997   8.399  1.00  0.00     0.251 C 
ATOM     30  H   UNL     1     -10.263  -6.575   9.264  1.00  0.00     0.163 HD
ATOM     31  O   UNL     1     -12.687  -6.696   9.106  1.00  0.00    -0.269 OA
BRANCH  29  32
ATOM     32  C   UNL     1     -12.590  -5.176   7.331  1.00  0.00     0.039 A 
ATOM     33  C   UNL     1     -13.648  -4.324   7.658  1.00  0.00     0.014 A 
ATOM     34  C   UNL     1     -12.097  -5.218   6.025  1.00  0.00     0.014 A 
ATOM     35  C   UNL     1     -14.133  -3.427   6.702  1.00  0.00     0.010 A 
ATOM     36  C   UNL     1     -12.536  -4.280   5.093  1.00  0.00     0.010 A 
ATOM     37  C   UNL     1     -13.537  -3.355   5.432  1.00  0.00    -0.014 A 
BRANCH  37  38
ATOM     38  C   UNL     1     -13.884  -2.272   4.474  1.00  0.00     0.031 A 
ATOM     39  C   UNL     1     -14.496  -2.596   3.142  1.00  0.00     0.074 A 
ATOM     40  C   UNL     1     -13.541  -1.000   4.768  1.00  0.00     0.049 A 
ATOM     41  N   UNL     1     -14.744  -1.802   2.131  1.00  0.00    -0.248 NA
ATOM     42  C   UNL     1     -14.856  -4.003   2.902  1.00  0.00     0.031 C 
ATOM     43  C   UNL     1     -12.894  -0.563   6.007  1.00  0.00     0.029 A 
ATOM     44  N   UNL     1     -13.662   0.156   4.035  1.00  0.00    -0.354 N 
ATOM     45  C   UNL     1     -15.266  -2.611   1.131  1.00  0.00     0.074 A 
ATOM     46  C   UNL     1     -15.273  -3.965   1.643  1.00  0.00     0.031 C 
ATOM     47  C   UNL     1     -12.675   0.760   5.949  1.00  0.00     0.029 A 
ATOM     48  C   UNL     1     -13.121   1.260   4.653  1.00  0.00     0.049 A 
ATOM     49  H   UNL     1     -14.094   0.192   3.151  1.00  0.00     0.167 HD
ATOM     50  C   UNL     1     -15.709  -2.252  -0.096  1.00  0.00     0.037 A 
ATOM     51  C   UNL     1     -12.974   2.525   4.215  1.00  0.00     0.037 A 
ATOM     52  C   UNL     1     -15.736  -0.898  -0.587  1.00  0.00     0.049 A 
ATOM     53  C   UNL     1     -13.467   2.889   2.840  1.00  0.00     0.074 A 
ATOM     54  C   UNL     1     -16.267  -0.425  -1.774  1.00  0.00     0.029 A 
ATOM     55  N   UNL     1     -15.201   0.195   0.076  1.00  0.00    -0.354 N 
ATOM     56  N   UNL     1     -14.050   2.131   1.943  1.00  0.00    -0.248 NA
ATOM     57  C   UNL     1     -13.281   4.284   2.413  1.00  0.00     0.031 C 
ATOM     58  C   UNL     1     -16.001   0.945  -1.857  1.00  0.00     0.029 A 
ATOM     59  C   UNL     1     -15.351   1.334  -0.698  1.00  0.00     0.049 A 
ATOM     60  H   UNL     1     -14.778   0.166   0.965  1.00  0.00     0.167 HD
ATOM     61  C   UNL     1     -14.316   2.958   0.860  1.00  0.00     0.074 A 
ATOM     62  C   UNL     1     -13.853   4.281   1.218  1.00  0.00     0.031 C 
ATOM     63  C   UNL     1     -14.887   2.646  -0.329  1.00  0.00     0.037 A 
BRANCH  50  64
ATOM     64  C   UNL     1     -16.208  -3.329  -1.013  1.00  0.00     0.064 A 
ATOM     65  C   UNL     1     -17.439  -3.966  -0.799  1.00  0.00     0.173 A 
ATOM     66  C   UNL     1     -15.489  -3.659  -2.172  1.00  0.00     0.173 A 
ATOM     67  F   UNL     1     -18.160  -3.690   0.297  1.00  0.00    -0.203 F 
ATOM     68  C   UNL     1     -17.927  -4.901  -1.708  1.00  0.00     0.198 A 
ATOM     69  C   UNL     1     -15.992  -4.575  -3.092  1.00  0.00     0.198 A 
ATOM     70  F   UNL     1     -14.309  -3.072  -2.426  1.00  0.00    -0.203 F 
ATOM     71  F   UNL     1     -19.094  -5.516  -1.473  1.00  0.00    -0.200 F 
ATOM     72  C   UNL     1     -17.209  -5.197  -2.858  1.00  0.00     0.200 A 
ATOM     73  F   UNL     1     -15.304  -4.848  -4.209  1.00  0.00    -0.200 F 
ATOM     74  F   UNL     1     -17.692  -6.081  -3.742  1.00  0.00    -0.200 F 
ENDBRANCH  50  64
BRANCH  51  75
ATOM     75  C   UNL     1     -12.306   3.544   5.069  1.00  0.00     0.064 A 
ATOM     76  C   UNL     1     -13.017   4.639   5.580  1.00  0.00     0.173 A 
ATOM     77  C   UNL     1     -10.935   3.467   5.359  1.00  0.00     0.173 A 
ATOM     78  F   UNL     1     -14.325   4.771   5.312  1.00  0.00    -0.203 F 
ATOM     79  C   UNL     1     -12.378   5.633   6.318  1.00  0.00     0.198 A 
ATOM     80  C   UNL     1     -10.303   4.444   6.125  1.00  0.00     0.198 A 
ATOM     81  F   UNL     1     -10.208   2.438   4.898  1.00  0.00    -0.203 F 
ATOM     82  F   UNL     1     -13.069   6.700   6.739  1.00  0.00    -0.200 F 
ATOM     83  C   UNL     1     -11.022   5.533   6.593  1.00  0.00     0.200 A 
ATOM     84  F   UNL     1      -8.997   4.335   6.400  1.00  0.00    -0.200 F 
ATOM     85  F   UNL     1     -10.407   6.492   7.298  1.00  0.00    -0.200 F 
ENDBRANCH  51  75
BRANCH  63  86
ATOM     86  C   UNL     1     -15.058   3.755  -1.325  1.00  0.00     0.064 A 
ATOM     87  C   UNL     1     -13.962   4.295  -2.013  1.00  0.00     0.173 A 
ATOM     88  C   UNL     1     -16.336   4.246  -1.633  1.00  0.00     0.173 A 
ATOM     89  F   UNL     1     -12.718   3.871  -1.740  1.00  0.00    -0.203 F 
ATOM     90  C   UNL     1     -14.137   5.299  -2.961  1.00  0.00     0.198 A 
ATOM     91  C   UNL     1     -16.510   5.228  -2.604  1.00  0.00     0.198 A 
ATOM     92  F   UNL     1     -17.417   3.759  -1.007  1.00  0.00    -0.203 F 
ATOM     93  F   UNL     1     -13.071   5.830  -3.576  1.00  0.00    -0.200 F 
ATOM     94  C   UNL     1     -15.411   5.758  -3.262  1.00  0.00     0.200 A 
ATOM     95  F   UNL     1     -17.743   5.660  -2.904  1.00  0.00    -0.200 F 
ATOM     96  F   UNL     1     -15.579   6.715  -4.185  1.00  0.00    -0.200 F 
ENDBRANCH  63  86
ENDBRANCH  37  38
ENDBRANCH  29  32
ENDBRANCH  27  28
ENDBRANCH  26  27
ENDBRANCH  25  26
ENDBRANCH  24  25
ENDBRANCH  22  24
ENDBRANCH  19  20
ENDBRANCH  18  19
ENDBRANCH   1  18
TORSDOF 24
