REMARK SMILES Cc1cc(C)c(S(=O)(=O)Nc2ccc(N3CCN(c4ccccn4)CC3)c(C(=O)NCCCCNC(=O)c3ccc(-c4c5nc(c(-c6c(F)c(F)c(F)c(F)c6F)c6ccc([nH]6)c(-c6c(F)c(F)c(F)c(F)c6F)c6nc(c(-c7c(F)c(F)c(F)c(F)c7F)c7ccc4[nH]7)C=C6)C=C5)cc3)c2)c(C)c1
REMARK SMILES IDX 32 1 31 2 30 3 28 4 29 5 27 7 11 8 12 9 101 10 13 11 14 12
REMARK SMILES IDX 10 13 7 15 8 16 9 17 6 18 1 19 2 20 3 21 104 22 4 23 102 24
REMARK SMILES IDX 5 25 103 26 15 27 16 28 26 29 17 30 25 31 18 32 19 33 20 34
REMARK SMILES IDX 24 35 21 36 23 37 22 38 33 39 34 40 35 41 36 42 37 44 38 45
REMARK SMILES IDX 39 46 100 47 40 48 99 49 41 50 42 51 43 52 93 53 44 54 98 55
REMARK SMILES IDX 92 56 94 57 45 58 97 59 91 60 90 61 46 63 78 64 58 65 77 66
REMARK SMILES IDX 59 67 62 68 76 69 95 70 60 71 61 72 75 74 96 75 63 76 47 77
REMARK SMILES IDX 48 78 56 79 49 80 50 81 54 82 57 83 51 84 52 85 55 86 53 87
REMARK SMILES IDX 79 88 80 89 88 90 81 91 82 92 86 93 89 94 83 95 84 96 87 97
REMARK SMILES IDX 85 98 64 99 65 100 73 101 66 102 67 103 71 104 74 105 68 106
REMARK SMILES IDX 69 107 72 108 70 109
REMARK H PARENT 30 6 10 14 35 43 94 62 62 73
REMARK Flexibility Score: inf
ROOT
ATOM      1  C   UNL     1      -0.145  -1.664   3.974  1.00  0.00     0.023 C 
ENDROOT
BRANCH   1   2
ATOM      2  C   UNL     1       0.730  -1.277   2.781  1.00  0.00     0.116 C 
BRANCH   2   3
ATOM      3  N   UNL     1       2.007  -1.943   2.883  1.00  0.00    -0.352 N 
ATOM      4  C   UNL     1       2.427  -3.194   2.497  1.00  0.00     0.253 C 
ATOM      5  O   UNL     1       3.445  -3.587   3.066  1.00  0.00    -0.269 OA
ATOM      6  H   UNL     1       2.709  -1.400   3.310  1.00  0.00     0.163 HD
BRANCH   4   7
ATOM      7  C   UNL     1       1.726  -4.016   1.446  1.00  0.00     0.065 A 
ATOM      8  C   UNL     1      -0.280  -4.405   0.144  1.00  0.00     0.050 A 
ATOM      9  C   UNL     1       0.393  -5.317  -0.658  1.00  0.00     0.029 A 
ATOM     10  C   UNL     1       0.330  -3.941   1.300  1.00  0.00     0.042 A 
ATOM     11  C   UNL     1       1.757  -5.505  -0.472  1.00  0.00     0.029 A 
ATOM     12  C   UNL     1       2.469  -4.763   0.490  1.00  0.00     0.050 A 
BRANCH   8  13
ATOM     13  N   UNL     1      -1.498  -3.884  -0.369  1.00  0.00    -0.280 N 
ATOM     14  H   UNL     1      -2.017  -4.480  -0.956  1.00  0.00     0.180 HD
BRANCH  13  15
ATOM     15  S   UNL     1      -2.148  -2.367  -0.084  1.00  0.00     0.262 S 
ATOM     16  O   UNL     1      -2.414  -2.296   1.341  1.00  0.00    -0.201 OA
ATOM     17  O   UNL     1      -3.225  -2.254  -1.047  1.00  0.00    -0.201 OA
BRANCH  15  18
ATOM     18  C   UNL     1      -1.020  -0.996  -0.444  1.00  0.00     0.093 A 
ATOM     19  C   UNL     1       1.901   2.186  -0.000  1.00  0.00     0.044 C 
ATOM     20  C   UNL     1       0.877   1.108  -0.195  1.00  0.00    -0.051 A 
ATOM     21  C   UNL     1      -0.451   1.313   0.165  1.00  0.00     0.008 A 
ATOM     22  C   UNL     1       1.206  -0.091  -0.825  1.00  0.00     0.008 A 
ATOM     23  C   UNL     1      -1.407   0.282   0.053  1.00  0.00    -0.030 A 
ATOM     24  C   UNL     1       0.261  -1.128  -1.013  1.00  0.00    -0.030 A 
ATOM     25  C   UNL     1      -2.829   0.679   0.372  1.00  0.00     0.046 C 
ATOM     26  C   UNL     1       0.730  -2.253  -1.878  1.00  0.00     0.046 C 
ENDBRANCH  15  18
ENDBRANCH  13  15
ENDBRANCH   8  13
BRANCH  12  27
ATOM     27  N   UNL     1       3.846  -4.681   0.360  1.00  0.00    -0.367 N 
ATOM     28  C   UNL     1       4.464  -4.445  -0.964  1.00  0.00     0.138 C 
ATOM     29  C   UNL     1       4.715  -5.375   1.327  1.00  0.00     0.138 C 
ATOM     30  C   UNL     1       5.840  -3.738  -0.831  1.00  0.00     0.139 C 
ATOM     31  C   UNL     1       6.024  -4.575   1.487  1.00  0.00     0.139 C 
ATOM     32  N   UNL     1       6.659  -4.442   0.161  1.00  0.00    -0.353 N 
BRANCH  32  33
ATOM     33  C   UNL     1       8.033  -4.344   0.103  1.00  0.00     0.128 A 
ATOM     34  C   UNL     1       8.806  -5.378   0.636  1.00  0.00     0.047 A 
ATOM     35  N   UNL     1       8.609  -3.289  -0.508  1.00  0.00    -0.239 NA
ATOM     36  C   UNL     1      10.193  -5.323   0.567  1.00  0.00     0.005 A 
ATOM     37  C   UNL     1       9.961  -3.240  -0.542  1.00  0.00     0.113 A 
ATOM     38  C   UNL     1      10.789  -4.223  -0.025  1.00  0.00     0.020 A 
ENDBRANCH  32  33
ENDBRANCH  12  27
ENDBRANCH   4   7
ENDBRANCH   2   3
ENDBRANCH   1   2
BRANCH   1  39
ATOM     39  C   UNL     1       0.282  -0.985   5.274  1.00  0.00     0.023 C 
BRANCH  39  40
ATOM     40  C   UNL     1       0.240   0.533   5.217  1.00  0.00     0.116 C 
BRANCH  40  41
ATOM     41  N   UNL     1      -1.069   1.050   4.849  1.00  0.00    -0.352 N 
ATOM     42  C   UNL     1      -1.696   2.175   5.317  1.00  0.00     0.251 C 
ATOM     43  H   UNL     1      -1.567   0.525   4.181  1.00  0.00     0.163 HD
ATOM     44  O   UNL     1      -2.858   2.424   5.016  1.00  0.00    -0.269 OA
BRANCH  42  45
ATOM     45  C   UNL     1      -0.951   3.077   6.215  1.00  0.00     0.039 A 
ATOM     46  C   UNL     1      -1.550   3.490   7.405  1.00  0.00     0.014 A 
ATOM     47  C   UNL     1       0.346   3.482   5.890  1.00  0.00     0.014 A 
ATOM     48  C   UNL     1      -0.830   4.290   8.291  1.00  0.00     0.010 A 
ATOM     49  C   UNL     1       1.091   4.206   6.811  1.00  0.00     0.010 A 
ATOM     50  C   UNL     1       0.501   4.638   8.008  1.00  0.00    -0.014 A 
BRANCH  50  51
ATOM     51  C   UNL     1       1.277   5.505   8.927  1.00  0.00     0.031 A 
ATOM     52  C   UNL     1       1.720   6.866   8.466  1.00  0.00     0.074 A 
ATOM     53  C   UNL     1       1.618   5.053  10.148  1.00  0.00     0.049 A 
ATOM     54  N   UNL     1       2.439   7.761   9.095  1.00  0.00    -0.248 NA
ATOM     55  C   UNL     1       1.331   7.261   7.103  1.00  0.00     0.031 C 
ATOM     56  C   UNL     1       1.290   3.732  10.686  1.00  0.00     0.029 A 
ATOM     57  N   UNL     1       2.322   5.658  11.158  1.00  0.00    -0.354 N 
ATOM     58  C   UNL     1       2.603   8.809   8.198  1.00  0.00     0.074 A 
ATOM     59  C   UNL     1       1.963   8.415   6.962  1.00  0.00     0.031 C 
ATOM     60  C   UNL     1       1.764   3.638  11.939  1.00  0.00     0.029 A 
ATOM     61  C   UNL     1       2.454   4.878  12.280  1.00  0.00     0.049 A 
ATOM     62  H   UNL     1       2.697   6.565  11.085  1.00  0.00     0.167 HD
ATOM     63  C   UNL     1       3.207  10.004   8.396  1.00  0.00     0.037 A 
ATOM     64  C   UNL     1       3.060   5.142  13.453  1.00  0.00     0.037 A 
ATOM     65  C   UNL     1       3.807  10.404   9.641  1.00  0.00     0.049 A 
ATOM     66  C   UNL     1       3.703   6.489  13.656  1.00  0.00     0.074 A 
ATOM     67  C   UNL     1       4.396  11.613   9.967  1.00  0.00     0.029 A 
ATOM     68  N   UNL     1       3.889   9.601  10.769  1.00  0.00    -0.354 N 
ATOM     69  N   UNL     1       3.792   7.500  12.826  1.00  0.00    -0.248 NA
ATOM     70  C   UNL     1       4.316   6.735  14.968  1.00  0.00     0.031 C 
ATOM     71  C   UNL     1       4.870  11.527  11.280  1.00  0.00     0.029 A 
ATOM     72  C   UNL     1       4.528  10.284  11.790  1.00  0.00     0.049 A 
ATOM     73  H   UNL     1       3.543   8.681  10.834  1.00  0.00     0.167 HD
ATOM     74  C   UNL     1       4.430   8.514  13.527  1.00  0.00     0.074 A 
ATOM     75  C   UNL     1       4.697   7.999  14.853  1.00  0.00     0.031 C 
ATOM     76  C   UNL     1       4.761   9.762  13.112  1.00  0.00     0.037 A 
BRANCH  63  77
ATOM     77  C   UNL     1       3.240  10.964   7.242  1.00  0.00     0.064 A 
ATOM     78  C   UNL     1       2.075  11.587   6.767  1.00  0.00     0.173 A 
ATOM     79  C   UNL     1       4.455  11.283   6.617  1.00  0.00     0.173 A 
ATOM     80  F   UNL     1       0.885  11.305   7.319  1.00  0.00    -0.203 F 
ATOM     81  C   UNL     1       2.121  12.467   5.689  1.00  0.00     0.198 A 
ATOM     82  C   UNL     1       4.501  12.190   5.561  1.00  0.00     0.198 A 
ATOM     83  F   UNL     1       5.599  10.720   7.033  1.00  0.00    -0.203 F 
ATOM     84  F   UNL     1       0.988  13.005   5.218  1.00  0.00    -0.200 F 
ATOM     85  C   UNL     1       3.334  12.774   5.093  1.00  0.00     0.200 A 
ATOM     86  F   UNL     1       5.676  12.495   4.994  1.00  0.00    -0.200 F 
ATOM     87  F   UNL     1       3.377  13.626   4.059  1.00  0.00    -0.200 F 
ENDBRANCH  63  77
BRANCH  64  88
ATOM     88  C   UNL     1       3.044   4.135  14.546  1.00  0.00     0.064 A 
ATOM     89  C   UNL     1       2.297   4.354  15.712  1.00  0.00     0.173 A 
ATOM     90  C   UNL     1       3.784   2.947  14.458  1.00  0.00     0.173 A 
ATOM     91  F   UNL     1       1.588   5.484  15.850  1.00  0.00    -0.203 F 
ATOM     92  C   UNL     1       2.314   3.438  16.761  1.00  0.00     0.198 A 
ATOM     93  C   UNL     1       3.777   2.018  15.497  1.00  0.00     0.198 A 
ATOM     94  F   UNL     1       4.510   2.687  13.361  1.00  0.00    -0.203 F 
ATOM     95  F   UNL     1       1.633   3.699  17.886  1.00  0.00    -0.200 F 
ATOM     96  C   UNL     1       3.050   2.268  16.651  1.00  0.00     0.200 A 
ATOM     97  F   UNL     1       4.479   0.883  15.382  1.00  0.00    -0.200 F 
ATOM     98  F   UNL     1       3.068   1.388  17.661  1.00  0.00    -0.200 F 
ENDBRANCH  64  88
BRANCH  76  99
ATOM     99  C   UNL     1       5.389  10.677  14.123  1.00  0.00     0.064 A 
ATOM    100  C   UNL     1       6.696  10.483  14.590  1.00  0.00     0.173 A 
ATOM    101  C   UNL     1       4.674  11.783  14.609  1.00  0.00     0.173 A 
ATOM    102  F   UNL     1       7.416   9.434  14.165  1.00  0.00    -0.203 F 
ATOM    103  C   UNL     1       7.252  11.340  15.536  1.00  0.00     0.198 A 
ATOM    104  C   UNL     1       5.245  12.657  15.529  1.00  0.00     0.198 A 
ATOM    105  F   UNL     1       3.423  12.020  14.186  1.00  0.00    -0.203 F 
ATOM    106  F   UNL     1       8.481  11.102  16.013  1.00  0.00    -0.200 F 
ATOM    107  C   UNL     1       6.529  12.429  16.000  1.00  0.00     0.200 A 
ATOM    108  F   UNL     1       4.550  13.717  15.964  1.00  0.00    -0.200 F 
ATOM    109  F   UNL     1       7.066  13.255  16.908  1.00  0.00    -0.200 F 
ENDBRANCH  76  99
ENDBRANCH  50  51
ENDBRANCH  42  45
ENDBRANCH  40  41
ENDBRANCH  39  40
ENDBRANCH   1  39
TORSDOF 16
