REMARK SMILES CCCCCCNC(=O)Nc1cccc(-c2ccc([C@@H](C)C(=O)NCCCCNC(=O)c3ccc(-c4c5nc(c(-c6c(F)c(F)c(F)c(F)c6F)c6ccc([nH]6)c(-c6c(F)c(F)c(F)c(F)c6F)c6nc(c(-c7c(F)c(F)c(F)c(F)c7F)c7ccc4[nH]7)C=C6)C=C5)cc3)cc2F)c1
REMARK SMILES IDX 20 1 21 2 19 3 16 4 17 5 96 6 18 7 95 8 97 9 15 10 11 11
REMARK SMILES IDX 12 12 98 13 13 14 14 15 10 16 7 17 8 18 9 20 6 22 5 23 4 24
REMARK SMILES IDX 3 25 2 26 1 27 22 28 23 29 24 30 25 32 26 33 27 34 28 35
REMARK SMILES IDX 29 36 30 37 31 39 32 40 33 41 94 42 34 43 93 44 35 45 36 46
REMARK SMILES IDX 37 47 87 48 38 49 92 50 86 51 88 52 39 53 91 54 85 55 84 56
REMARK SMILES IDX 40 58 72 59 52 60 71 61 53 62 56 63 70 64 89 65 54 66 55 67
REMARK SMILES IDX 69 69 90 70 57 71 41 72 42 73 50 74 43 75 44 76 48 77 51 78
REMARK SMILES IDX 45 79 46 80 49 81 47 82 73 83 74 84 82 85 75 86 76 87 80 88
REMARK SMILES IDX 83 89 77 90 78 91 81 92 79 93 58 94 59 95 67 96 60 97 61 98
REMARK SMILES IDX 65 99 68 100 62 101 63 102 66 103 64 104
REMARK H PARENT 7 19 10 21 24 31 29 38 88 57 56 68
REMARK Flexibility Score: inf
ROOT
ATOM      1  C   UNL     1      -2.025   3.536   5.682  1.00  0.00     0.105 C 
ATOM      2  C   UNL     1      -2.845   2.972   6.842  1.00  0.00     0.023 C 
ENDROOT
BRANCH   1   3
ATOM      3  C   UNL     1      -2.755   3.626   4.351  1.00  0.00    -0.033 A 
ATOM      4  C   UNL     1      -3.976   3.827   1.763  1.00  0.00     0.018 A 
ATOM      5  C   UNL     1      -4.076   2.661   2.541  1.00  0.00     0.012 A 
ATOM      6  C   UNL     1      -3.282   4.901   2.341  1.00  0.00     0.131 A 
ATOM      7  C   UNL     1      -3.509   2.576   3.820  1.00  0.00     0.005 A 
ATOM      8  C   UNL     1      -2.666   4.801   3.593  1.00  0.00     0.044 A 
ATOM      9  F   UNL     1      -3.180   6.074   1.697  1.00  0.00    -0.206 F 
BRANCH   4  10
ATOM     10  C   UNL     1      -4.529   3.870   0.388  1.00  0.00    -0.013 A 
ATOM     11  C   UNL     1      -4.270   4.462  -1.978  1.00  0.00     0.043 A 
ATOM     12  C   UNL     1      -5.463   3.816  -2.289  1.00  0.00     0.026 A 
ATOM     13  C   UNL     1      -3.849   4.539  -0.644  1.00  0.00     0.035 A 
ATOM     14  C   UNL     1      -6.168   3.158  -1.286  1.00  0.00     0.003 A 
ATOM     15  C   UNL     1      -5.700   3.176   0.033  1.00  0.00     0.009 A 
BRANCH  11  16
ATOM     16  N   UNL     1      -3.505   4.986  -3.032  1.00  0.00    -0.308 N 
ATOM     17  N   UNL     1      -1.278   4.429  -2.461  1.00  0.00    -0.338 N 
ATOM     18  C   UNL     1      -2.171   5.209  -3.119  1.00  0.00     0.319 C 
ATOM     19  H   UNL     1      -0.370   4.802  -2.397  1.00  0.00     0.165 HD
ATOM     20  O   UNL     1      -1.744   6.074  -3.885  1.00  0.00    -0.249 OA
ATOM     21  H   UNL     1      -4.019   5.231  -3.835  1.00  0.00     0.171 HD
BRANCH  17  22
ATOM     22  C   UNL     1      -1.452   3.127  -1.833  1.00  0.00     0.117 C 
BRANCH  22  23
ATOM     23  C   UNL     1      -0.493   2.068  -2.367  1.00  0.00     0.021 C 
BRANCH  23  24
ATOM     24  C   UNL     1       0.982   2.295  -2.034  1.00  0.00     0.002 C 
BRANCH  24  25
ATOM     25  C   UNL     1       1.321   2.388  -0.543  1.00  0.00    -0.000 C 
BRANCH  25  26
ATOM     26  C   UNL     1       0.881   1.200   0.316  1.00  0.00    -0.003 C 
ATOM     27  C   UNL     1       1.427  -0.134  -0.172  1.00  0.00     0.004 C 
ENDBRANCH  25  26
ENDBRANCH  24  25
ENDBRANCH  23  24
ENDBRANCH  22  23
ENDBRANCH  17  22
ENDBRANCH  11  16
ENDBRANCH   4  10
ENDBRANCH   1   3
BRANCH   1  28
ATOM     28  C   UNL     1      -0.597   2.976   5.572  1.00  0.00     0.227 C 
ATOM     29  O   UNL     1       0.371   3.745   5.609  1.00  0.00    -0.274 OA
ATOM     30  N   UNL     1      -0.306   1.653   5.439  1.00  0.00    -0.356 N 
ATOM     31  H   UNL     1       0.656   1.446   5.472  1.00  0.00     0.163 HD
BRANCH  30  32
ATOM     32  C   UNL     1      -1.156   0.498   5.259  1.00  0.00     0.116 C 
BRANCH  32  33
ATOM     33  C   UNL     1      -1.296   0.120   3.786  1.00  0.00     0.023 C 
BRANCH  33  34
ATOM     34  C   UNL     1      -0.173  -0.754   3.240  1.00  0.00     0.023 C 
BRANCH  34  35
ATOM     35  C   UNL     1      -0.034  -2.121   3.890  1.00  0.00     0.116 C 
BRANCH  35  36
ATOM     36  N   UNL     1      -1.217  -2.956   3.740  1.00  0.00    -0.352 N 
ATOM     37  C   UNL     1      -1.282  -4.311   3.508  1.00  0.00     0.251 C 
ATOM     38  H   UNL     1      -2.082  -2.491   3.814  1.00  0.00     0.163 HD
ATOM     39  O   UNL     1      -2.354  -4.857   3.292  1.00  0.00    -0.269 OA
BRANCH  37  40
ATOM     40  C   UNL     1      -0.027  -5.092   3.482  1.00  0.00     0.039 A 
ATOM     41  C   UNL     1       0.210  -5.960   2.413  1.00  0.00     0.014 A 
ATOM     42  C   UNL     1       0.934  -4.920   4.480  1.00  0.00     0.014 A 
ATOM     43  C   UNL     1       1.446  -6.599   2.308  1.00  0.00     0.010 A 
ATOM     44  C   UNL     1       2.193  -5.485   4.327  1.00  0.00     0.010 A 
ATOM     45  C   UNL     1       2.461  -6.335   3.243  1.00  0.00    -0.014 A 
BRANCH  45  46
ATOM     46  C   UNL     1       3.808  -6.944   3.119  1.00  0.00     0.031 A 
ATOM     47  C   UNL     1       4.316  -7.862   4.194  1.00  0.00     0.074 A 
ATOM     48  C   UNL     1       4.606  -6.600   2.090  1.00  0.00     0.049 A 
ATOM     49  N   UNL     1       5.493  -8.419   4.323  1.00  0.00    -0.248 NA
ATOM     50  C   UNL     1       3.387  -8.160   5.295  1.00  0.00     0.031 C 
ATOM     51  C   UNL     1       4.254  -5.664   1.022  1.00  0.00     0.029 A 
ATOM     52  N   UNL     1       5.887  -6.986   1.786  1.00  0.00    -0.354 N 
ATOM     53  C   UNL     1       5.452  -9.110   5.526  1.00  0.00     0.074 A 
ATOM     54  C   UNL     1       4.159  -8.850   6.120  1.00  0.00     0.031 C 
ATOM     55  C   UNL     1       5.286  -5.562   0.170  1.00  0.00     0.029 A 
ATOM     56  C   UNL     1       6.382  -6.400   0.647  1.00  0.00     0.049 A 
ATOM     57  H   UNL     1       6.402  -7.623   2.332  1.00  0.00     0.167 HD
ATOM     58  C   UNL     1       6.395  -9.913   6.073  1.00  0.00     0.037 A 
ATOM     59  C   UNL     1       7.587  -6.522   0.059  1.00  0.00     0.037 A 
ATOM     60  C   UNL     1       7.666 -10.194   5.461  1.00  0.00     0.049 A 
ATOM     61  C   UNL     1       8.610  -7.442   0.665  1.00  0.00     0.074 A 
ATOM     62  C   UNL     1       8.662 -11.053   5.891  1.00  0.00     0.029 A 
ATOM     63  N   UNL     1       8.116  -9.618   4.281  1.00  0.00    -0.354 N 
ATOM     64  N   UNL     1       8.532  -8.156   1.762  1.00  0.00    -0.248 NA
ATOM     65  C   UNL     1       9.883  -7.583  -0.054  1.00  0.00     0.031 C 
ATOM     66  C   UNL     1       9.732 -10.964   4.994  1.00  0.00     0.029 A 
ATOM     67  C   UNL     1       9.384 -10.087   3.978  1.00  0.00     0.049 A 
ATOM     68  H   UNL     1       7.609  -8.971   3.740  1.00  0.00     0.167 HD
ATOM     69  C   UNL     1       9.733  -8.845   1.857  1.00  0.00     0.074 A 
ATOM     70  C   UNL     1      10.517  -8.475   0.696  1.00  0.00     0.031 C 
ATOM     71  C   UNL     1      10.149  -9.706   2.818  1.00  0.00     0.037 A 
BRANCH  58  72
ATOM     72  C   UNL     1       6.075 -10.543   7.399  1.00  0.00     0.064 A 
ATOM     73  C   UNL     1       5.077 -11.522   7.527  1.00  0.00     0.173 A 
ATOM     74  C   UNL     1       6.769 -10.159   8.556  1.00  0.00     0.173 A 
ATOM     75  F   UNL     1       4.374 -11.915   6.454  1.00  0.00    -0.203 F 
ATOM     76  C   UNL     1       4.754 -12.058   8.771  1.00  0.00     0.198 A 
ATOM     77  C   UNL     1       6.466 -10.723   9.793  1.00  0.00     0.198 A 
ATOM     78  F   UNL     1       7.736  -9.231   8.490  1.00  0.00    -0.203 F 
ATOM     79  F   UNL     1       3.749 -12.938   8.878  1.00  0.00    -0.200 F 
ATOM     80  C   UNL     1       5.451 -11.661   9.902  1.00  0.00     0.200 A 
ATOM     81  F   UNL     1       7.148 -10.347  10.884  1.00  0.00    -0.200 F 
ATOM     82  F   UNL     1       5.136 -12.175  11.099  1.00  0.00    -0.200 F 
ENDBRANCH  58  72
BRANCH  59  83
ATOM     83  C   UNL     1       7.868  -5.777  -1.195  1.00  0.00     0.064 A 
ATOM     84  C   UNL     1       7.936  -6.444  -2.426  1.00  0.00     0.173 A 
ATOM     85  C   UNL     1       8.039  -4.386  -1.195  1.00  0.00     0.173 A 
ATOM     86  F   UNL     1       7.796  -7.777  -2.474  1.00  0.00    -0.203 F 
ATOM     87  C   UNL     1       8.175  -5.748  -3.609  1.00  0.00     0.198 A 
ATOM     88  C   UNL     1       8.253  -3.687  -2.382  1.00  0.00     0.198 A 
ATOM     89  F   UNL     1       7.974  -3.701  -0.043  1.00  0.00    -0.203 F 
ATOM     90  F   UNL     1       8.264  -6.413  -4.769  1.00  0.00    -0.200 F 
ATOM     91  C   UNL     1       8.325  -4.369  -3.587  1.00  0.00     0.200 A 
ATOM     92  F   UNL     1       8.383  -2.354  -2.358  1.00  0.00    -0.200 F 
ATOM     93  F   UNL     1       8.541  -3.699  -4.727  1.00  0.00    -0.200 F 
ENDBRANCH  59  83
BRANCH  71  94
ATOM     94  C   UNL     1      11.505 -10.325   2.645  1.00  0.00     0.064 A 
ATOM     95  C   UNL     1      12.681  -9.584   2.836  1.00  0.00     0.173 A 
ATOM     96  C   UNL     1      11.629 -11.687   2.332  1.00  0.00     0.173 A 
ATOM     97  F   UNL     1      12.614  -8.275   3.122  1.00  0.00    -0.203 F 
ATOM     98  C   UNL     1      13.931 -10.180   2.697  1.00  0.00     0.198 A 
ATOM     99  C   UNL     1      12.880 -12.285   2.222  1.00  0.00     0.198 A 
ATOM    100  F   UNL     1      10.534 -12.440   2.146  1.00  0.00    -0.203 F 
ATOM    101  F   UNL     1      15.042  -9.443   2.842  1.00  0.00    -0.200 F 
ATOM    102  C   UNL     1      14.030 -11.530   2.398  1.00  0.00     0.200 A 
ATOM    103  F   UNL     1      12.974 -13.593   1.946  1.00  0.00    -0.200 F 
ATOM    104  F   UNL     1      15.235 -12.104   2.274  1.00  0.00    -0.200 F 
ENDBRANCH  71  94
ENDBRANCH  45  46
ENDBRANCH  37  40
ENDBRANCH  35  36
ENDBRANCH  34  35
ENDBRANCH  33  34
ENDBRANCH  32  33
ENDBRANCH  30  32
ENDBRANCH   1  28
TORSDOF 19
