REMARK SMILES COCCNC(=O)N[C@H]1CCCCC[C@@H]1C(=O)NCCCCNC(=O)c1ccc(-c2c3nc(c(-c4c(F)c(F)c(F)c(F)c4F)c4ccc([nH]4)c(-c4c(F)c(F)c(F)c(F)c4F)c4nc(c(-c5c(F)c(F)c(F)c(F)c5F)c5ccc2[nH]5)C=C4)C=C3)cc1
REMARK SMILES IDX 19 1 18 2 16 3 17 4 15 6 9 7 8 8 5 9 6 10 7 12 4 14 3 15
REMARK SMILES IDX 2 16 1 17 10 18 11 19 14 21 13 22 12 23 20 25 21 26 22 27
REMARK SMILES IDX 23 28 24 29 25 31 26 32 27 33 88 34 28 35 87 36 29 37 30 38
REMARK SMILES IDX 31 39 81 40 32 41 86 42 80 43 82 44 33 45 85 46 79 47 78 48
REMARK SMILES IDX 34 50 66 51 46 52 65 53 47 54 50 55 64 56 83 57 48 58 49 59
REMARK SMILES IDX 63 61 84 62 51 63 35 64 36 65 44 66 37 67 38 68 42 69 45 70
REMARK SMILES IDX 39 71 40 72 43 73 41 74 67 75 68 76 76 77 69 78 70 79 74 80
REMARK SMILES IDX 77 81 71 82 72 83 75 84 73 85 52 86 53 87 61 88 54 89 55 90
REMARK SMILES IDX 59 91 62 92 56 93 57 94 60 95 58 96
REMARK H PARENT 18 5 5 11 8 13 23 30 82 49 50 60
REMARK Flexibility Score: 100.00
ROOT
ATOM      1  C   UNL     1       0.818  -4.866  -0.834  1.00  0.00     0.116 C 
ENDROOT
BRANCH   1   2
ATOM      2  N   UNL     1       1.276  -6.165  -0.396  1.00  0.00    -0.356 N 
ATOM      3  C   UNL     1       2.244  -6.497   0.495  1.00  0.00     0.225 C 
ATOM      4  O   UNL     1       2.829  -7.559   0.245  1.00  0.00    -0.275 OA
ATOM      5  H   UNL     1       0.813  -6.929  -0.809  1.00  0.00     0.163 HD
BRANCH   3   6
ATOM      6  C   UNL     1       2.514  -5.767   1.829  1.00  0.00     0.101 C 
BRANCH   6   7
ATOM      7  C   UNL     1       1.908  -4.389   2.106  1.00  0.00     0.096 C 
BRANCH   7   8
ATOM      8  N   UNL     1       0.453  -4.323   2.398  1.00  0.00    -0.335 N 
ATOM      9  N   UNL     1      -0.546  -6.189   3.505  1.00  0.00    -0.336 N 
ATOM     10  C   UNL     1      -0.577  -5.021   2.871  1.00  0.00     0.315 C 
ATOM     11  H   UNL     1      -1.444  -6.569   3.642  1.00  0.00     0.165 HD
ATOM     12  O   UNL     1      -1.693  -4.520   2.692  1.00  0.00    -0.249 OA
ATOM     13  H   UNL     1       0.129  -3.428   2.147  1.00  0.00     0.165 HD
BRANCH   9  14
ATOM     14  C   UNL     1       0.503  -7.031   4.042  1.00  0.00     0.146 C 
BRANCH  14  15
ATOM     15  C   UNL     1       0.158  -7.806   5.314  1.00  0.00     0.181 C 
BRANCH  15  16
ATOM     16  O   UNL     1      -0.512  -9.041   5.067  1.00  0.00    -0.383 OA
ATOM     17  C   UNL     1      -1.890  -8.902   4.766  1.00  0.00     0.194 C 
ENDBRANCH  15  16
ENDBRANCH  14  15
ENDBRANCH   9  14
ENDBRANCH   7   8
BRANCH   7  18
ATOM     18  C   UNL     1       2.660  -3.419   3.033  1.00  0.00     0.026 C 
BRANCH  18  19
ATOM     19  C   UNL     1       2.870  -3.906   4.452  1.00  0.00     0.002 CG0
ATOM     20  G   UNL     1       4.117  -4.766   4.603  1.00  0.00     0.000 G0
ENDBRANCH  18  19
ENDBRANCH   7  18
ENDBRANCH   6   7
BRANCH   6  21
ATOM     21  C   UNL     1       3.996  -5.899   2.255  1.00  0.00     0.015 C 
BRANCH  21  22
ATOM     22  C   UNL     1       4.180  -6.047   3.775  1.00  0.00     0.001 C 
BRANCH  22  23
ATOM     23  C   UNL     1       4.117  -4.766   4.603  1.00  0.00     0.000 CG0
ATOM     24  G   UNL     1       2.870  -3.906   4.452  1.00  0.00     0.000 G0
ENDBRANCH  22  23
ENDBRANCH  21  22
ENDBRANCH   6  21
ENDBRANCH   3   6
ENDBRANCH   1   2
BRANCH   1  25
ATOM     25  C   UNL     1       1.952  -4.137  -1.554  1.00  0.00     0.023 C 
BRANCH  25  26
ATOM     26  C   UNL     1       2.121  -4.595  -3.003  1.00  0.00     0.023 C 
BRANCH  26  27
ATOM     27  C   UNL     1       0.924  -4.278  -3.889  1.00  0.00     0.116 C 
BRANCH  27  28
ATOM     28  N   UNL     1       0.567  -2.866  -3.876  1.00  0.00    -0.352 N 
ATOM     29  C   UNL     1      -0.022  -2.140  -4.881  1.00  0.00     0.251 C 
ATOM     30  H   UNL     1       0.773  -2.374  -3.048  1.00  0.00     0.163 HD
ATOM     31  O   UNL     1      -0.169  -0.932  -4.794  1.00  0.00    -0.269 OA
BRANCH  29  32
ATOM     32  C   UNL     1      -0.436  -2.868  -6.090  1.00  0.00     0.039 A 
ATOM     33  C   UNL     1       0.101  -2.489  -7.320  1.00  0.00     0.014 A 
ATOM     34  C   UNL     1      -1.270  -3.983  -5.972  1.00  0.00     0.014 A 
ATOM     35  C   UNL     1      -0.160  -3.273  -8.440  1.00  0.00     0.010 A 
ATOM     36  C   UNL     1      -1.465  -4.802  -7.073  1.00  0.00     0.010 A 
ATOM     37  C   UNL     1      -0.919  -4.449  -8.316  1.00  0.00    -0.014 A 
BRANCH  37  38
ATOM     38  C   UNL     1      -1.174  -5.317  -9.486  1.00  0.00     0.031 A 
ATOM     39  C   UNL     1      -2.575  -5.471 -10.001  1.00  0.00     0.074 A 
ATOM     40  C   UNL     1      -0.158  -6.003 -10.040  1.00  0.00     0.049 A 
ATOM     41  N   UNL     1      -3.020  -6.211 -10.982  1.00  0.00    -0.248 NA
ATOM     42  C   UNL     1      -3.621  -4.714  -9.295  1.00  0.00     0.031 C 
ATOM     43  C   UNL     1       1.234  -5.966  -9.589  1.00  0.00     0.029 A 
ATOM     44  N   UNL     1      -0.142  -6.869 -11.102  1.00  0.00    -0.354 N 
ATOM     45  C   UNL     1      -4.394  -6.017 -11.003  1.00  0.00     0.074 A 
ATOM     46  C   UNL     1      -4.718  -5.147  -9.894  1.00  0.00     0.031 C 
ATOM     47  C   UNL     1       1.976  -6.742 -10.394  1.00  0.00     0.029 A 
ATOM     48  C   UNL     1       1.108  -7.357 -11.393  1.00  0.00     0.049 A 
ATOM     49  H   UNL     1      -0.949  -7.117 -11.608  1.00  0.00     0.167 HD
ATOM     50  C   UNL     1      -5.299  -6.495 -11.889  1.00  0.00     0.037 A 
ATOM     51  C   UNL     1       1.502  -8.200 -12.366  1.00  0.00     0.037 A 
ATOM     52  C   UNL     1      -4.963  -7.345 -12.998  1.00  0.00     0.049 A 
ATOM     53  C   UNL     1       0.475  -8.734 -13.326  1.00  0.00     0.074 A 
ATOM     54  C   UNL     1      -5.790  -7.848 -13.985  1.00  0.00     0.029 A 
ATOM     55  N   UNL     1      -3.686  -7.822 -13.263  1.00  0.00    -0.354 N 
ATOM     56  N   UNL     1      -0.812  -8.491 -13.383  1.00  0.00    -0.248 NA
ATOM     57  C   UNL     1       0.958  -9.658 -14.360  1.00  0.00     0.031 C 
ATOM     58  C   UNL     1      -5.021  -8.665 -14.823  1.00  0.00     0.029 A 
ATOM     59  C   UNL     1      -3.706  -8.632 -14.386  1.00  0.00     0.049 A 
ATOM     60  H   UNL     1      -2.884  -7.615 -12.730  1.00  0.00     0.167 HD
ATOM     61  C   UNL     1      -1.288  -9.204 -14.474  1.00  0.00     0.074 A 
ATOM     62  C   UNL     1      -0.148  -9.882 -15.057  1.00  0.00     0.031 C 
ATOM     63  C   UNL     1      -2.555  -9.290 -14.952  1.00  0.00     0.037 A 
BRANCH  50  64
ATOM     64  C   UNL     1      -6.732  -6.099 -11.681  1.00  0.00     0.064 A 
ATOM     65  C   UNL     1      -7.162  -4.773 -11.853  1.00  0.00     0.173 A 
ATOM     66  C   UNL     1      -7.687  -7.050 -11.290  1.00  0.00     0.173 A 
ATOM     67  F   UNL     1      -6.286  -3.821 -12.210  1.00  0.00    -0.203 F 
ATOM     68  C   UNL     1      -8.480  -4.406 -11.598  1.00  0.00     0.198 A 
ATOM     69  C   UNL     1      -9.013  -6.685 -11.069  1.00  0.00     0.198 A 
ATOM     70  F   UNL     1      -7.333  -8.332 -11.114  1.00  0.00    -0.203 F 
ATOM     71  F   UNL     1      -8.848  -3.121 -11.700  1.00  0.00    -0.200 F 
ATOM     72  C   UNL     1      -9.405  -5.362 -11.210  1.00  0.00     0.200 A 
ATOM     73  F   UNL     1      -9.909  -7.613 -10.705  1.00  0.00    -0.200 F 
ATOM     74  F   UNL     1     -10.673  -5.007 -10.960  1.00  0.00    -0.200 F 
ENDBRANCH  50  64
BRANCH  51  75
ATOM     75  C   UNL     1       2.940  -8.541 -12.511  1.00  0.00     0.064 A 
ATOM     76  C   UNL     1       3.684  -8.045 -13.591  1.00  0.00     0.173 A 
ATOM     77  C   UNL     1       3.603  -9.350 -11.578  1.00  0.00     0.173 A 
ATOM     78  F   UNL     1       3.088  -7.281 -14.518  1.00  0.00    -0.203 F 
ATOM     79  C   UNL     1       5.033  -8.356 -13.739  1.00  0.00     0.198 A 
ATOM     80  C   UNL     1       4.959  -9.640 -11.714  1.00  0.00     0.198 A 
ATOM     81  F   UNL     1       2.937  -9.845 -10.524  1.00  0.00    -0.203 F 
ATOM     82  F   UNL     1       5.712  -7.896 -14.799  1.00  0.00    -0.200 F 
ATOM     83  C   UNL     1       5.672  -9.148 -12.797  1.00  0.00     0.200 A 
ATOM     84  F   UNL     1       5.577 -10.395 -10.794  1.00  0.00    -0.200 F 
ATOM     85  F   UNL     1       6.972  -9.441 -12.936  1.00  0.00    -0.200 F 
ENDBRANCH  51  75
BRANCH  63  86
ATOM     86  C   UNL     1      -2.765 -10.118 -16.186  1.00  0.00     0.064 A 
ATOM     87  C   UNL     1      -2.701 -11.518 -16.152  1.00  0.00     0.173 A 
ATOM     88  C   UNL     1      -3.074  -9.501 -17.407  1.00  0.00     0.173 A 
ATOM     89  F   UNL     1      -2.393 -12.153 -15.011  1.00  0.00    -0.203 F 
ATOM     90  C   UNL     1      -2.916 -12.270 -17.304  1.00  0.00     0.198 A 
ATOM     91  C   UNL     1      -3.318 -10.257 -18.550  1.00  0.00     0.198 A 
ATOM     92  F   UNL     1      -3.153  -8.164 -17.490  1.00  0.00    -0.203 F 
ATOM     93  F   UNL     1      -2.804 -13.605 -17.260  1.00  0.00    -0.200 F 
ATOM     94  C   UNL     1      -3.231 -11.640 -18.499  1.00  0.00     0.200 A 
ATOM     95  F   UNL     1      -3.636  -9.648 -19.700  1.00  0.00    -0.200 F 
ATOM     96  F   UNL     1      -3.445 -12.367 -19.604  1.00  0.00    -0.200 F 
ENDBRANCH  63  86
ENDBRANCH  37  38
ENDBRANCH  29  32
ENDBRANCH  27  28
ENDBRANCH  26  27
ENDBRANCH  25  26
ENDBRANCH   1  25
TORSDOF 15
