REMARK SMILES C[C@H](NC(=O)OC(C)(C)C)C(=O)N[C@@H](C)C(=O)N1CCC[C@H]1C(=O)NCCCCNC(=O)c1ccc(-c2c3nc(c(-c4c(F)c(F)c(F)c(F)c4F)c4ccc([nH]4)c(-c4c(F)c(F)c(F)c(F)c4F)c4nc(c(-c5c(F)c(F)c(F)c(F)c5F)c5ccc2[nH]5)C=C4)C=C3)cc1
REMARK SMILES IDX 23 1 24 2 25 3 22 5 18 6 19 7 20 8 21 9 16 10 17 11 14 12
REMARK SMILES IDX 15 13 13 14 11 15 12 16 2 18 1 19 3 20 4 21 5 23 6 24 7 25
REMARK SMILES IDX 8 26 9 27 10 28 26 29 27 30 28 31 29 32 30 33 31 34 32 36
REMARK SMILES IDX 33 37 34 38 95 39 35 40 94 41 36 42 37 43 38 44 88 45 39 46
REMARK SMILES IDX 93 47 87 48 89 49 40 50 92 51 86 52 85 53 41 55 73 56 53 57
REMARK SMILES IDX 72 58 54 59 57 60 71 61 90 62 55 63 56 64 70 66 91 67 58 68
REMARK SMILES IDX 42 69 43 70 51 71 44 72 45 73 49 74 52 75 46 76 47 77 50 78
REMARK SMILES IDX 48 79 74 80 75 81 83 82 76 83 77 84 81 85 84 86 78 87 79 88
REMARK SMILES IDX 82 89 80 90 59 91 60 92 68 93 61 94 62 95 66 96 69 97 63 98
REMARK SMILES IDX 64 99 67 100 65 101
REMARK H PARENT 25 4 13 17 3 22 30 35 89 54 57 65
REMARK Flexibility Score: inf
ROOT
ATOM      1  C   UNL     1      -3.023  -3.610   5.294  1.00  0.00     0.242 C 
ATOM      2  O   UNL     1      -3.430  -3.985   6.403  1.00  0.00    -0.273 OA
ATOM      3  N   UNL     1      -2.342  -4.539   4.575  1.00  0.00    -0.354 N 
ATOM      4  H   UNL     1      -2.413  -5.458   4.921  1.00  0.00     0.163 HD
ENDROOT
BRANCH   1   5
ATOM      5  C   UNL     1      -3.396  -2.188   4.787  1.00  0.00     0.174 C 
ATOM      6  N   UNL     1      -2.989  -1.653   3.473  1.00  0.00    -0.329 N 
ATOM      7  C   UNL     1      -4.138  -1.554   2.595  1.00  0.00     0.120 C 
ATOM      8  C   UNL     1      -5.306  -1.335   3.534  1.00  0.00     0.024 C 
ATOM      9  C   UNL     1      -4.939  -2.134   4.769  1.00  0.00     0.037 C 
BRANCH   6  10
ATOM     10  C   UNL     1      -1.734  -1.106   3.309  1.00  0.00     0.245 C 
ATOM     11  O   UNL     1      -0.967  -1.055   4.280  1.00  0.00    -0.272 OA
BRANCH  10  12
ATOM     12  C   UNL     1      -1.283  -0.394   1.998  1.00  0.00     0.168 C 
ATOM     13  C   UNL     1      -1.572   1.098   2.156  1.00  0.00     0.041 C 
BRANCH  12  14
ATOM     14  N   UNL     1      -1.790  -0.847   0.699  1.00  0.00    -0.343 N 
ATOM     15  C   UNL     1      -1.155  -1.128  -0.474  1.00  0.00     0.243 C 
ATOM     16  O   UNL     1      -1.882  -1.424  -1.428  1.00  0.00    -0.273 OA
ATOM     17  H   UNL     1      -2.767  -0.971   0.669  1.00  0.00     0.164 HD
BRANCH  15  18
ATOM     18  C   UNL     1       0.376  -1.267  -0.581  1.00  0.00     0.171 C 
ATOM     19  C   UNL     1       0.763  -2.580   0.083  1.00  0.00     0.042 C 
BRANCH  18  20
ATOM     20  N   UNL     1       1.088  -0.100  -0.070  1.00  0.00    -0.310 N 
ATOM     21  C   UNL     1       2.436   0.044   0.086  1.00  0.00     0.408 C 
ATOM     22  H   UNL     1       0.533   0.670   0.192  1.00  0.00     0.167 HD
ATOM     23  O   UNL     1       2.914   1.114   0.435  1.00  0.00    -0.225 OA
BRANCH  21  24
ATOM     24  O   UNL     1       3.121  -1.093  -0.153  1.00  0.00    -0.444 OA
BRANCH  24  25
ATOM     25  C   UNL     1       4.550  -1.191   0.075  1.00  0.00     0.106 C 
ATOM     26  C   UNL     1       5.326  -0.276  -0.874  1.00  0.00     0.056 C 
ATOM     27  C   UNL     1       4.899  -0.925   1.544  1.00  0.00     0.056 C 
ATOM     28  C   UNL     1       4.901  -2.653  -0.249  1.00  0.00     0.056 C 
ENDBRANCH  24  25
ENDBRANCH  21  24
ENDBRANCH  18  20
ENDBRANCH  15  18
ENDBRANCH  12  14
ENDBRANCH  10  12
ENDBRANCH   6  10
ENDBRANCH   1   5
BRANCH   3  29
ATOM     29  C   UNL     1      -1.532  -4.403   3.390  1.00  0.00     0.116 C 
BRANCH  29  30
ATOM     30  C   UNL     1      -0.109  -3.986   3.759  1.00  0.00     0.023 C 
BRANCH  30  31
ATOM     31  C   UNL     1       0.850  -5.133   4.079  1.00  0.00     0.023 C 
BRANCH  31  32
ATOM     32  C   UNL     1       1.016  -6.171   2.978  1.00  0.00     0.116 C 
BRANCH  32  33
ATOM     33  N   UNL     1       1.361  -5.605   1.685  1.00  0.00    -0.352 N 
ATOM     34  C   UNL     1       2.009  -6.199   0.631  1.00  0.00     0.251 C 
ATOM     35  H   UNL     1       1.093  -4.668   1.545  1.00  0.00     0.163 HD
ATOM     36  O   UNL     1       2.288  -5.565  -0.380  1.00  0.00    -0.269 OA
BRANCH  34  37
ATOM     37  C   UNL     1       2.418  -7.608   0.753  1.00  0.00     0.039 A 
ATOM     38  C   UNL     1       3.738  -7.950   0.453  1.00  0.00     0.014 A 
ATOM     39  C   UNL     1       1.516  -8.568   1.215  1.00  0.00     0.014 A 
ATOM     40  C   UNL     1       4.172  -9.255   0.675  1.00  0.00     0.010 A 
ATOM     41  C   UNL     1       1.972  -9.840   1.521  1.00  0.00     0.010 A 
ATOM     42  C   UNL     1       3.299 -10.198   1.240  1.00  0.00    -0.014 A 
BRANCH  42  43
ATOM     43  C   UNL     1       3.735 -11.588   1.500  1.00  0.00     0.031 A 
ATOM     44  C   UNL     1       3.084 -12.715   0.751  1.00  0.00     0.074 A 
ATOM     45  C   UNL     1       4.655 -11.831   2.451  1.00  0.00     0.049 A 
ATOM     46  N   UNL     1       3.251 -14.005   0.884  1.00  0.00    -0.248 NA
ATOM     47  C   UNL     1       2.077 -12.341  -0.256  1.00  0.00     0.031 C 
ATOM     48  C   UNL     1       5.306 -10.816   3.281  1.00  0.00     0.029 A 
ATOM     49  N   UNL     1       5.195 -13.014   2.887  1.00  0.00    -0.354 N 
ATOM     50  C   UNL     1       2.354 -14.591   0.001  1.00  0.00     0.074 A 
ATOM     51  C   UNL     1       1.601 -13.523  -0.616  1.00  0.00     0.031 C 
ATOM     52  C   UNL     1       6.179 -11.417   4.107  1.00  0.00     0.029 A 
ATOM     53  C   UNL     1       6.126 -12.859   3.884  1.00  0.00     0.049 A 
ATOM     54  H   UNL     1       4.940 -13.890   2.519  1.00  0.00     0.167 HD
ATOM     55  C   UNL     1       2.196 -15.903  -0.291  1.00  0.00     0.037 A 
ATOM     56  C   UNL     1       6.855 -13.783   4.537  1.00  0.00     0.037 A 
ATOM     57  C   UNL     1       2.984 -16.952   0.296  1.00  0.00     0.049 A 
ATOM     58  C   UNL     1       6.696 -15.230   4.158  1.00  0.00     0.074 A 
ATOM     59  C   UNL     1       2.949 -18.310   0.037  1.00  0.00     0.029 A 
ATOM     60  N   UNL     1       3.963 -16.752   1.260  1.00  0.00    -0.354 N 
ATOM     61  N   UNL     1       5.889 -15.772   3.277  1.00  0.00    -0.248 NA
ATOM     62  C   UNL     1       7.560 -16.194   4.852  1.00  0.00     0.031 C 
ATOM     63  C   UNL     1       3.887 -18.936   0.865  1.00  0.00     0.029 A 
ATOM     64  C   UNL     1       4.538 -17.962   1.607  1.00  0.00     0.049 A 
ATOM     65  H   UNL     1       4.211 -15.878   1.639  1.00  0.00     0.167 HD
ATOM     66  C   UNL     1       6.174 -17.130   3.283  1.00  0.00     0.074 A 
ATOM     67  C   UNL     1       7.235 -17.328   4.250  1.00  0.00     0.031 C 
ATOM     68  C   UNL     1       5.610 -18.125   2.555  1.00  0.00     0.037 A 
BRANCH  55  69
ATOM     69  C   UNL     1       1.142 -16.265  -1.297  1.00  0.00     0.064 A 
ATOM     70  C   UNL     1       1.272 -15.928  -2.653  1.00  0.00     0.173 A 
ATOM     71  C   UNL     1      -0.010 -16.961  -0.903  1.00  0.00     0.173 A 
ATOM     72  F   UNL     1       2.347 -15.247  -3.080  1.00  0.00    -0.203 F 
ATOM     73  C   UNL     1       0.273 -16.243  -3.570  1.00  0.00     0.198 A 
ATOM     74  C   UNL     1      -0.993 -17.303  -1.829  1.00  0.00     0.198 A 
ATOM     75  F   UNL     1      -0.186 -17.308   0.381  1.00  0.00    -0.203 F 
ATOM     76  F   UNL     1       0.393 -15.856  -4.848  1.00  0.00    -0.200 F 
ATOM     77  C   UNL     1      -0.855 -16.936  -3.159  1.00  0.00     0.200 A 
ATOM     78  F   UNL     1      -2.078 -17.982  -1.432  1.00  0.00    -0.200 F 
ATOM     79  F   UNL     1      -1.815 -17.239  -4.043  1.00  0.00    -0.200 F 
ENDBRANCH  55  69
BRANCH  56  80
ATOM     80  C   UNL     1       7.838 -13.363   5.568  1.00  0.00     0.064 A 
ATOM     81  C   UNL     1       9.216 -13.459   5.327  1.00  0.00     0.173 A 
ATOM     82  C   UNL     1       7.427 -12.857   6.810  1.00  0.00     0.173 A 
ATOM     83  F   UNL     1       9.657 -13.951   4.160  1.00  0.00    -0.203 F 
ATOM     84  C   UNL     1      10.145 -13.091   6.297  1.00  0.00     0.198 A 
ATOM     85  C   UNL     1       8.358 -12.463   7.770  1.00  0.00     0.198 A 
ATOM     86  F   UNL     1       6.121 -12.735   7.086  1.00  0.00    -0.203 F 
ATOM     87  F   UNL     1      11.455 -13.238   6.056  1.00  0.00    -0.200 F 
ATOM     88  C   UNL     1       9.716 -12.589   7.516  1.00  0.00     0.200 A 
ATOM     89  F   UNL     1       7.940 -11.965   8.941  1.00  0.00    -0.200 F 
ATOM     90  F   UNL     1      10.610 -12.232   8.448  1.00  0.00    -0.200 F 
ENDBRANCH  56  80
BRANCH  68  91
ATOM     91  C   UNL     1       6.170 -19.505   2.733  1.00  0.00     0.064 A 
ATOM     92  C   UNL     1       5.934 -20.253   3.895  1.00  0.00     0.173 A 
ATOM     93  C   UNL     1       6.920 -20.099   1.707  1.00  0.00     0.173 A 
ATOM     94  F   UNL     1       5.234 -19.723   4.909  1.00  0.00    -0.203 F 
ATOM     95  C   UNL     1       6.454 -21.537   4.035  1.00  0.00     0.198 A 
ATOM     96  C   UNL     1       7.412 -21.393   1.837  1.00  0.00     0.198 A 
ATOM     97  F   UNL     1       7.165 -19.426   0.572  1.00  0.00    -0.203 F 
ATOM     98  F   UNL     1       6.258 -22.216   5.173  1.00  0.00    -0.200 F 
ATOM     99  C   UNL     1       7.186 -22.108   3.004  1.00  0.00     0.200 A 
ATOM    100  F   UNL     1       8.107 -21.949   0.835  1.00  0.00    -0.200 F 
ATOM    101  F   UNL     1       7.680 -23.346   3.138  1.00  0.00    -0.200 F 
ENDBRANCH  68  91
ENDBRANCH  42  43
ENDBRANCH  34  37
ENDBRANCH  32  33
ENDBRANCH  31  32
ENDBRANCH  30  31
ENDBRANCH  29  30
ENDBRANCH   3  29
TORSDOF 18
