REMARK SMILES C[C@@H]1[C@H](C(=O)NCCCCNC(=O)c2ccc(-c3c4nc(c(-c5c(F)c(F)c(F)c(F)c5F)c5ccc([nH]5)c(-c5c(F)c(F)c(F)c(F)c5F)c5nc(c(-c6c(F)c(F)c(F)c(F)c6F)c6ccc3[nH]6)C=C5)C=C4)cc2)CCN1C(=O)[C@H]1CC[C@@H](C(C)(C)C)CC1
REMARK SMILES IDX 8 1 7 2 6 3 4 4 5 5 3 7 1 8 2 9 79 10 77 11 78 12 80 13
REMARK SMILES IDX 81 14 82 15 83 16 91 17 84 18 90 19 85 20 86 21 87 22 88 23
REMARK SMILES IDX 89 24 9 25 10 26 11 27 12 28 13 30 14 31 15 32 76 33 16 34
REMARK SMILES IDX 75 35 17 36 18 37 19 38 69 39 20 40 74 41 68 42 70 43 21 44
REMARK SMILES IDX 73 45 67 46 66 47 22 49 54 50 34 51 53 52 35 53 38 54 52 55
REMARK SMILES IDX 71 56 36 57 37 58 51 60 72 61 39 62 23 63 24 64 32 65 25 66
REMARK SMILES IDX 26 67 30 68 33 69 27 70 28 71 31 72 29 73 55 74 56 75 64 76
REMARK SMILES IDX 57 77 58 78 62 79 65 80 59 81 60 82 63 83 61 84 40 85 41 86
REMARK SMILES IDX 49 87 42 88 43 89 47 90 50 91 44 92 45 93 48 94 46 95
REMARK H PARENT 6 6 11 29 70 48 38 59
REMARK Flexibility Score: inf
ROOT
ATOM      1  C   UNL     1       2.607   1.747   2.457  1.00  0.00     0.023 C 
ENDROOT
BRANCH   1   2
ATOM      2  C   UNL     1       1.143   2.207   2.321  1.00  0.00     0.116 C 
BRANCH   2   3
ATOM      3  N   UNL     1       0.846   2.734   0.998  1.00  0.00    -0.356 N 
ATOM      4  C   UNL     1       0.190   2.280  -0.098  1.00  0.00     0.225 C 
ATOM      5  O   UNL     1       0.176   3.075  -1.050  1.00  0.00    -0.275 OA
ATOM      6  H   UNL     1       1.210   3.640   0.866  1.00  0.00     0.163 HD
BRANCH   4   7
ATOM      7  C   UNL     1      -0.472   0.910  -0.298  1.00  0.00     0.102 C 
ATOM      8  C   UNL     1       1.452  -0.440   0.654  1.00  0.00     0.032 C 
ATOM      9  C   UNL     1       0.453  -0.302  -0.457  1.00  0.00     0.094 C 
ATOM     10  N   UNL     1      -0.422  -1.458  -0.421  1.00  0.00    -0.339 N 
ATOM     11  C   UNL     1      -1.551   0.390   0.635  1.00  0.00     0.037 C 
ATOM     12  C   UNL     1      -1.710  -1.071   0.166  1.00  0.00     0.120 C 
BRANCH  10  13
ATOM     13  C   UNL     1      -0.157  -2.766  -0.778  1.00  0.00     0.225 C 
ATOM     14  O   UNL     1      -1.004  -3.635  -0.530  1.00  0.00    -0.275 OA
BRANCH  13  15
ATOM     15  C   UNL     1       1.176  -3.225  -1.458  1.00  0.00     0.078 C 
ATOM     16  C   UNL     1       1.547  -2.530  -2.765  1.00  0.00     0.014 C 
ATOM     17  C   UNL     1       2.331  -3.519  -0.489  1.00  0.00     0.014 C 
ATOM     18  C   UNL     1       2.970  -2.813  -3.239  1.00  0.00     0.005 C 
ATOM     19  C   UNL     1       3.770  -3.104  -0.856  1.00  0.00     0.005 C 
ATOM     20  C   UNL     1       4.086  -2.477  -2.236  1.00  0.00    -0.006 C 
BRANCH  20  21
ATOM     21  C   UNL     1       4.647  -0.986  -2.253  1.00  0.00    -0.035 C 
ATOM     22  C   UNL     1       5.728  -0.766  -1.166  1.00  0.00     0.011 C 
ATOM     23  C   UNL     1       5.307  -0.659  -3.612  1.00  0.00     0.011 C 
ATOM     24  C   UNL     1       3.574   0.073  -2.040  1.00  0.00     0.011 C 
ENDBRANCH  20  21
ENDBRANCH  13  15
ENDBRANCH  10  13
ENDBRANCH   4   7
ENDBRANCH   2   3
ENDBRANCH   1   2
BRANCH   1  25
ATOM     25  C   UNL     1       3.594   2.684   3.116  1.00  0.00     0.023 C 
BRANCH  25  26
ATOM     26  C   UNL     1       3.271   3.056   4.539  1.00  0.00     0.116 C 
BRANCH  26  27
ATOM     27  N   UNL     1       3.140   1.929   5.453  1.00  0.00    -0.352 N 
ATOM     28  C   UNL     1       3.534   1.880   6.772  1.00  0.00     0.251 C 
ATOM     29  H   UNL     1       2.724   1.115   5.088  1.00  0.00     0.163 HD
ATOM     30  O   UNL     1       3.415   0.857   7.438  1.00  0.00    -0.269 OA
BRANCH  28  31
ATOM     31  C   UNL     1       4.165   3.084   7.348  1.00  0.00     0.039 A 
ATOM     32  C   UNL     1       5.423   2.977   7.942  1.00  0.00     0.014 A 
ATOM     33  C   UNL     1       3.576   4.334   7.143  1.00  0.00     0.014 A 
ATOM     34  C   UNL     1       6.131   4.138   8.251  1.00  0.00     0.010 A 
ATOM     35  C   UNL     1       4.335   5.477   7.322  1.00  0.00     0.010 A 
ATOM     36  C   UNL     1       5.611   5.395   7.899  1.00  0.00    -0.014 A 
BRANCH  36  37
ATOM     37  C   UNL     1       6.345   6.653   8.176  1.00  0.00     0.031 A 
ATOM     38  C   UNL     1       5.708   7.684   9.069  1.00  0.00     0.074 A 
ATOM     39  C   UNL     1       7.521   6.905   7.570  1.00  0.00     0.049 A 
ATOM     40  N   UNL     1       6.105   8.897   9.352  1.00  0.00    -0.248 NA
ATOM     41  C   UNL     1       4.421   7.318   9.684  1.00  0.00     0.031 C 
ATOM     42  C   UNL     1       8.204   6.014   6.631  1.00  0.00     0.029 A 
ATOM     43  N   UNL     1       8.347   7.998   7.651  1.00  0.00    -0.354 N 
ATOM     44  C   UNL     1       5.102   9.443  10.141  1.00  0.00     0.074 A 
ATOM     45  C   UNL     1       4.045   8.463  10.229  1.00  0.00     0.031 C 
ATOM     46  C   UNL     1       9.362   6.580   6.251  1.00  0.00     0.029 A 
ATOM     47  C   UNL     1       9.487   7.885   6.892  1.00  0.00     0.049 A 
ATOM     48  H   UNL     1       8.142   8.789   8.200  1.00  0.00     0.167 HD
ATOM     49  C   UNL     1       5.079  10.640  10.772  1.00  0.00     0.037 A 
ATOM     50  C   UNL     1      10.516   8.741   6.742  1.00  0.00     0.037 A 
ATOM     51  C   UNL     1       6.162  11.582  10.733  1.00  0.00     0.049 A 
ATOM     52  C   UNL     1      10.493  10.045   7.494  1.00  0.00     0.074 A 
ATOM     53  C   UNL     1       6.279  12.792  11.390  1.00  0.00     0.029 A 
ATOM     54  N   UNL     1       7.328  11.405  10.002  1.00  0.00    -0.354 N 
ATOM     55  N   UNL     1       9.569  10.525   8.291  1.00  0.00    -0.248 NA
ATOM     56  C   UNL     1      11.662  10.920   7.336  1.00  0.00     0.031 C 
ATOM     57  C   UNL     1       7.506  13.363  11.034  1.00  0.00     0.029 A 
ATOM     58  C   UNL     1       8.170  12.487  10.188  1.00  0.00     0.049 A 
ATOM     59  H   UNL     1       7.527  10.625   9.435  1.00  0.00     0.167 HD
ATOM     60  C   UNL     1      10.056  11.739   8.754  1.00  0.00     0.074 A 
ATOM     61  C   UNL     1      11.364  11.918   8.157  1.00  0.00     0.031 C 
ATOM     62  C   UNL     1       9.476  12.628   9.598  1.00  0.00     0.037 A 
BRANCH  49  63
ATOM     63  C   UNL     1       3.852  10.975  11.568  1.00  0.00     0.064 A 
ATOM     64  C   UNL     1       3.528  10.284  12.747  1.00  0.00     0.173 A 
ATOM     65  C   UNL     1       2.987  11.996  11.149  1.00  0.00     0.173 A 
ATOM     66  F   UNL     1       4.312   9.285  13.181  1.00  0.00    -0.203 F 
ATOM     67  C   UNL     1       2.363  10.574  13.451  1.00  0.00     0.198 A 
ATOM     68  C   UNL     1       1.841  12.307  11.875  1.00  0.00     0.198 A 
ATOM     69  F   UNL     1       3.249  12.688  10.030  1.00  0.00    -0.203 F 
ATOM     70  F   UNL     1       2.041   9.854  14.535  1.00  0.00    -0.200 F 
ATOM     71  C   UNL     1       1.524  11.589  13.019  1.00  0.00     0.200 A 
ATOM     72  F   UNL     1       1.035  13.294  11.462  1.00  0.00    -0.200 F 
ATOM     73  F   UNL     1       0.403  11.867  13.698  1.00  0.00    -0.200 F 
ENDBRANCH  49  63
BRANCH  50  74
ATOM     74  C   UNL     1      11.676   8.369   5.892  1.00  0.00     0.064 A 
ATOM     75  C   UNL     1      12.917   8.063   6.469  1.00  0.00     0.173 A 
ATOM     76  C   UNL     1      11.576   8.312   4.495  1.00  0.00     0.173 A 
ATOM     77  F   UNL     1      13.068   8.121   7.801  1.00  0.00    -0.203 F 
ATOM     78  C   UNL     1      14.018   7.734   5.681  1.00  0.00     0.198 A 
ATOM     79  C   UNL     1      12.671   7.958   3.708  1.00  0.00     0.198 A 
ATOM     80  F   UNL     1      10.410   8.589   3.893  1.00  0.00    -0.203 F 
ATOM     81  F   UNL     1      15.202   7.487   6.258  1.00  0.00    -0.200 F 
ATOM     82  C   UNL     1      13.893   7.677   4.301  1.00  0.00     0.200 A 
ATOM     83  F   UNL     1      12.544   7.891   2.376  1.00  0.00    -0.200 F 
ATOM     84  F   UNL     1      14.951   7.358   3.543  1.00  0.00    -0.200 F 
ENDBRANCH  50  74
BRANCH  62  85
ATOM     85  C   UNL     1      10.269  13.846   9.963  1.00  0.00     0.064 A 
ATOM     86  C   UNL     1      10.467  14.895   9.054  1.00  0.00     0.173 A 
ATOM     87  C   UNL     1      10.792  13.985  11.257  1.00  0.00     0.173 A 
ATOM     88  F   UNL     1       9.996  14.801   7.801  1.00  0.00    -0.203 F 
ATOM     89  C   UNL     1      11.182  16.031   9.422  1.00  0.00     0.198 A 
ATOM     90  C   UNL     1      11.481  15.135  11.630  1.00  0.00     0.198 A 
ATOM     91  F   UNL     1      10.621  13.012  12.164  1.00  0.00    -0.203 F 
ATOM     92  F   UNL     1      11.397  17.004   8.526  1.00  0.00    -0.200 F 
ATOM     93  C   UNL     1      11.681  16.154  10.711  1.00  0.00     0.200 A 
ATOM     94  F   UNL     1      11.951  15.257  12.879  1.00  0.00    -0.200 F 
ATOM     95  F   UNL     1      12.361  17.253  11.065  1.00  0.00    -0.200 F 
ENDBRANCH  62  85
ENDBRANCH  36  37
ENDBRANCH  28  31
ENDBRANCH  26  27
ENDBRANCH  25  26
ENDBRANCH   1  25
TORSDOF 14
