REMARK SMILES Cc1ccc(F)c(-c2ncccc2C(=O)NCCCCNC(=O)c2ccc(-c3c4nc(c(-c5c(F)c(F)c(F)c(F)c5F)c5ccc([nH]5)c(-c5c(F)c(F)c(F)c(F)c5F)c5nc(c(-c6c(F)c(F)c(F)c(F)c6F)c6ccc3[nH]6)C=C5)C=C4)cc2)c1
REMARK SMILES IDX 19 1 18 2 17 3 16 4 14 5 15 6 13 8 8 9 9 10 10 11 12 12
REMARK SMILES IDX 11 13 7 14 1 15 2 16 3 17 87 18 4 19 5 20 6 21 20 22 21 23
REMARK SMILES IDX 22 24 23 26 24 27 25 28 86 29 26 30 85 31 27 32 28 33 29 34
REMARK SMILES IDX 79 35 30 36 84 37 78 38 80 39 31 40 83 41 77 42 76 43 32 45
REMARK SMILES IDX 64 46 44 47 63 48 45 49 48 50 62 51 81 52 46 53 47 54 61 56
REMARK SMILES IDX 82 57 49 58 33 59 34 60 42 61 35 62 36 63 40 64 43 65 37 66
REMARK SMILES IDX 38 67 41 68 39 69 65 70 66 71 74 72 67 73 68 74 72 75 75 76
REMARK SMILES IDX 69 77 70 78 73 79 71 80 50 81 51 82 59 83 52 84 53 85 57 86
REMARK SMILES IDX 60 87 54 88 55 89 58 90 56 91
REMARK H PARENT 16 7 21 25 80 44 48 55
REMARK Flexibility Score: inf
ROOT
ATOM      1  C   UNL     1       1.627  -6.347   3.639  1.00  0.00     0.023 C 
ENDROOT
BRANCH   1   2
ATOM      2  C   UNL     1       0.321  -6.303   2.826  1.00  0.00     0.023 C 
BRANCH   2   3
ATOM      3  C   UNL     1      -0.743  -5.357   3.384  1.00  0.00     0.116 C 
BRANCH   3   4
ATOM      4  N   UNL     1      -0.395  -3.975   3.146  1.00  0.00    -0.352 N 
ATOM      5  C   UNL     1      -0.537  -3.091   2.108  1.00  0.00     0.253 C 
ATOM      6  O   UNL     1      -0.055  -1.984   2.354  1.00  0.00    -0.269 OA
ATOM      7  H   UNL     1       0.056  -3.567   3.921  1.00  0.00     0.163 HD
BRANCH   5   8
ATOM      8  C   UNL     1      -1.232  -3.358   0.799  1.00  0.00     0.066 A 
ATOM      9  C   UNL     1      -1.320  -2.346  -0.183  1.00  0.00     0.086 A 
ATOM     10  N   UNL     1      -2.066  -2.481  -1.324  1.00  0.00    -0.255 NA
ATOM     11  C   UNL     1      -2.735  -3.628  -1.523  1.00  0.00     0.112 A 
ATOM     12  C   UNL     1      -1.874  -4.563   0.488  1.00  0.00     0.018 A 
ATOM     13  C   UNL     1      -2.646  -4.700  -0.666  1.00  0.00     0.021 A 
BRANCH   9  14
ATOM     14  C   UNL     1      -0.570  -1.083  -0.168  1.00  0.00     0.037 A 
ATOM     15  C   UNL     1       3.070   0.091  -0.159  1.00  0.00     0.044 C 
ATOM     16  C   UNL     1       1.570   0.115  -0.175  1.00  0.00    -0.050 A 
ATOM     17  C   UNL     1       0.884   1.330  -0.080  1.00  0.00     0.006 A 
ATOM     18  C   UNL     1       0.837  -1.079  -0.251  1.00  0.00     0.016 A 
ATOM     19  C   UNL     1      -0.510   1.348  -0.037  1.00  0.00     0.040 A 
ATOM     20  C   UNL     1      -1.222   0.151  -0.072  1.00  0.00     0.132 A 
ATOM     21  F   UNL     1      -2.561   0.207   0.013  1.00  0.00    -0.206 F 
ENDBRANCH   9  14
ENDBRANCH   5   8
ENDBRANCH   3   4
ENDBRANCH   2   3
ENDBRANCH   1   2
BRANCH   1  22
ATOM     22  C   UNL     1       1.454  -6.872   5.056  1.00  0.00     0.116 C 
BRANCH  22  23
ATOM     23  N   UNL     1       0.888  -8.222   5.086  1.00  0.00    -0.352 N 
ATOM     24  C   UNL     1       0.548  -8.982   6.188  1.00  0.00     0.251 C 
ATOM     25  H   UNL     1       0.729  -8.641   4.209  1.00  0.00     0.163 HD
ATOM     26  O   UNL     1       0.412 -10.193   6.114  1.00  0.00    -0.269 OA
BRANCH  24  27
ATOM     27  C   UNL     1       0.317  -8.280   7.457  1.00  0.00     0.039 A 
ATOM     28  C   UNL     1       0.789  -8.765   8.684  1.00  0.00     0.014 A 
ATOM     29  C   UNL     1      -0.399  -7.094   7.376  1.00  0.00     0.014 A 
ATOM     30  C   UNL     1       0.574  -8.011   9.837  1.00  0.00     0.010 A 
ATOM     31  C   UNL     1      -0.438  -6.270   8.457  1.00  0.00     0.010 A 
ATOM     32  C   UNL     1      -0.037  -6.764   9.702  1.00  0.00    -0.014 A 
BRANCH  32  33
ATOM     33  C   UNL     1      -0.466  -5.909  10.790  1.00  0.00     0.031 A 
ATOM     34  C   UNL     1       0.485  -5.142  11.593  1.00  0.00     0.074 A 
ATOM     35  C   UNL     1      -1.798  -5.684  10.824  1.00  0.00     0.049 A 
ATOM     36  N   UNL     1       0.202  -4.675  12.756  1.00  0.00    -0.248 NA
ATOM     37  C   UNL     1       1.838  -4.823  11.151  1.00  0.00     0.031 C 
ATOM     38  C   UNL     1      -2.562  -4.628  11.463  1.00  0.00     0.029 A 
ATOM     39  N   UNL     1      -2.780  -6.513  10.256  1.00  0.00    -0.354 N 
ATOM     40  C   UNL     1       1.154  -3.727  13.049  1.00  0.00     0.074 A 
ATOM     41  C   UNL     1       2.221  -3.958  12.101  1.00  0.00     0.031 C 
ATOM     42  C   UNL     1      -3.851  -5.017  11.525  1.00  0.00     0.029 A 
ATOM     43  C   UNL     1      -3.907  -6.404  11.085  1.00  0.00     0.049 A 
ATOM     44  H   UNL     1      -2.696  -7.059   9.441  1.00  0.00     0.167 HD
ATOM     45  C   UNL     1       0.834  -2.739  13.935  1.00  0.00     0.037 A 
ATOM     46  C   UNL     1      -4.233  -7.489  11.851  1.00  0.00     0.037 A 
ATOM     47  C   UNL     1      -0.549  -2.890  14.397  1.00  0.00     0.049 A 
ATOM     48  C   UNL     1      -4.051  -7.236  13.334  1.00  0.00     0.074 A 
ATOM     49  C   UNL     1      -1.748  -2.282  14.063  1.00  0.00     0.029 A 
ATOM     50  N   UNL     1      -0.896  -4.038  15.082  1.00  0.00    -0.354 N 
ATOM     51  N   UNL     1      -3.479  -6.174  13.829  1.00  0.00    -0.248 NA
ATOM     52  C   UNL     1      -4.428  -8.191  14.371  1.00  0.00     0.031 C 
ATOM     53  C   UNL     1      -2.814  -3.074  14.585  1.00  0.00     0.029 A 
ATOM     54  C   UNL     1      -2.260  -4.158  15.241  1.00  0.00     0.049 A 
ATOM     55  H   UNL     1      -0.244  -4.695  15.419  1.00  0.00     0.167 HD
ATOM     56  C   UNL     1      -3.371  -6.287  15.186  1.00  0.00     0.074 A 
ATOM     57  C   UNL     1      -3.967  -7.580  15.478  1.00  0.00     0.031 C 
ATOM     58  C   UNL     1      -2.773  -5.322  15.948  1.00  0.00     0.037 A 
BRANCH  45  59
ATOM     59  C   UNL     1       1.656  -1.497  14.188  1.00  0.00     0.064 A 
ATOM     60  C   UNL     1       1.039  -0.303  14.624  1.00  0.00     0.173 A 
ATOM     61  C   UNL     1       3.052  -1.415  14.031  1.00  0.00     0.173 A 
ATOM     62  F   UNL     1      -0.268  -0.249  14.909  1.00  0.00    -0.203 F 
ATOM     63  C   UNL     1       1.741   0.892  14.791  1.00  0.00     0.198 A 
ATOM     64  C   UNL     1       3.751  -0.207  14.159  1.00  0.00     0.198 A 
ATOM     65  F   UNL     1       3.793  -2.506  13.803  1.00  0.00    -0.203 F 
ATOM     66  F   UNL     1       1.091   1.990  15.202  1.00  0.00    -0.200 F 
ATOM     67  C   UNL     1       3.093   0.948  14.532  1.00  0.00     0.200 A 
ATOM     68  F   UNL     1       5.071  -0.174  13.927  1.00  0.00    -0.200 F 
ATOM     69  F   UNL     1       3.762   2.101  14.666  1.00  0.00    -0.200 F 
ENDBRANCH  45  59
BRANCH  46  70
ATOM     70  C   UNL     1      -3.907  -8.776  11.142  1.00  0.00     0.064 A 
ATOM     71  C   UNL     1      -4.496  -9.002   9.876  1.00  0.00     0.173 A 
ATOM     72  C   UNL     1      -2.744  -9.501  11.441  1.00  0.00     0.173 A 
ATOM     73  F   UNL     1      -5.606  -8.331   9.526  1.00  0.00    -0.203 F 
ATOM     74  C   UNL     1      -3.868  -9.786   8.909  1.00  0.00     0.198 A 
ATOM     75  C   UNL     1      -2.135 -10.311  10.476  1.00  0.00     0.198 A 
ATOM     76  F   UNL     1      -2.130  -9.344  12.622  1.00  0.00    -0.203 F 
ATOM     77  F   UNL     1      -4.375  -9.851   7.668  1.00  0.00    -0.200 F 
ATOM     78  C   UNL     1      -2.673 -10.418   9.201  1.00  0.00     0.200 A 
ATOM     79  F   UNL     1      -0.975 -10.923  10.758  1.00  0.00    -0.200 F 
ATOM     80  F   UNL     1      -2.024 -11.100   8.248  1.00  0.00    -0.200 F 
ENDBRANCH  46  70
BRANCH  58  81
ATOM     81  C   UNL     1      -2.587  -5.403  17.441  1.00  0.00     0.064 A 
ATOM     82  C   UNL     1      -3.563  -5.926  18.299  1.00  0.00     0.173 A 
ATOM     83  C   UNL     1      -1.442  -4.863  18.079  1.00  0.00     0.173 A 
ATOM     84  F   UNL     1      -4.744  -6.347  17.825  1.00  0.00    -0.203 F 
ATOM     85  C   UNL     1      -3.364  -5.999  19.681  1.00  0.00     0.198 A 
ATOM     86  C   UNL     1      -1.275  -4.878  19.459  1.00  0.00     0.198 A 
ATOM     87  F   UNL     1      -0.427  -4.323  17.393  1.00  0.00    -0.203 F 
ATOM     88  F   UNL     1      -4.292  -6.580  20.453  1.00  0.00    -0.200 F 
ATOM     89  C   UNL     1      -2.223  -5.473  20.260  1.00  0.00     0.200 A 
ATOM     90  F   UNL     1      -0.180  -4.323  20.000  1.00  0.00    -0.200 F 
ATOM     91  F   UNL     1      -2.038  -5.536  21.584  1.00  0.00    -0.200 F 
ENDBRANCH  58  81
ENDBRANCH  32  33
ENDBRANCH  24  27
ENDBRANCH  22  23
ENDBRANCH   1  22
TORSDOF 12
