REMARK SMILES C[NH+](C)CC[NH2+][C@@H](C(=O)NCCCCNC(=O)c1ccc(-c2c3nc(c(-c4c(F)c(F)c(F)c(F)c4F)c4ccc([nH]4)c(-c4c(F)c(F)c(F)c(F)c4F)c4nc(c(-c5c(F)c(F)c(F)c(F)c5F)c5ccc2[nH]5)C=C4)C=C3)cc1)c1cccc(C2CC2)c1
REMARK SMILES IDX 11 1 10 2 8 3 9 4 7 6 6 7 5 10 4 11 2 12 1 13 3 14 81 16
REMARK SMILES IDX 82 17 89 18 83 19 85 20 84 21 86 22 87 23 88 24 12 25 13 26
REMARK SMILES IDX 14 27 15 28 16 29 17 31 18 32 19 33 80 34 20 35 79 36 21 37
REMARK SMILES IDX 22 38 23 39 73 40 24 41 78 42 72 43 74 44 25 45 77 46 71 47
REMARK SMILES IDX 70 48 26 50 58 51 38 52 57 53 39 54 42 55 56 56 75 57 40 58
REMARK SMILES IDX 41 59 55 61 76 62 43 63 27 64 28 65 36 66 29 67 30 68 34 69
REMARK SMILES IDX 37 70 31 71 32 72 35 73 33 74 59 75 60 76 68 77 61 78 62 79
REMARK SMILES IDX 66 80 69 81 63 82 64 83 67 84 65 85 44 86 45 87 53 88 46 89
REMARK SMILES IDX 47 90 51 91 54 92 48 93 49 94 52 95 50 96
REMARK H PARENT 10 5 6 8 6 9 2 15 15 30 74 49 42 60
REMARK Flexibility Score: inf
ROOT
ATOM      1  C   UNL     1      -1.259  -1.153  -4.381  1.00  0.00     0.116 C 
ENDROOT
BRANCH   1   2
ATOM      2  N   UNL     1      -1.647   0.123  -3.805  1.00  0.00    -0.351 N 
ATOM      3  C   UNL     1      -0.914   1.113  -3.207  1.00  0.00     0.283 C 
ATOM      4  O   UNL     1      -1.571   1.909  -2.524  1.00  0.00    -0.268 OA
ATOM      5  H   UNL     1      -2.612   0.310  -3.853  1.00  0.00     0.163 HD
BRANCH   3   6
ATOM      6  C   UNL     1       0.654   1.229  -3.351  1.00  0.00     0.304 C 
BRANCH   6   7
ATOM      7  N   UNL     1       1.293   0.580  -2.175  1.00  0.00    -0.328 N 
ATOM      8  H   UNL     1       2.259   0.904  -2.125  1.00  0.00     0.347 HD
ATOM      9  H   UNL     1       0.723   0.844  -1.371  1.00  0.00     0.347 HD
BRANCH   7  10
ATOM     10  C   UNL     1       1.311  -0.865  -2.182  1.00  0.00     0.323 C 
BRANCH  10  11
ATOM     11  C   UNL     1       1.672  -1.552  -0.845  1.00  0.00     0.323 C 
BRANCH  11  12
ATOM     12  N   UNL     1       0.915  -1.225   0.375  1.00  0.00    -0.335 N 
ATOM     13  C   UNL     1       1.276   0.048   0.984  1.00  0.00     0.332 C 
ATOM     14  C   UNL     1      -0.529  -1.377   0.261  1.00  0.00     0.332 C 
ATOM     15  H   UNL     1       1.221  -1.951   1.023  1.00  0.00     0.347 HD
ENDBRANCH  11  12
ENDBRANCH  10  11
ENDBRANCH   7  10
ENDBRANCH   6   7
BRANCH   6  16
ATOM     16  C   UNL     1       1.105   2.713  -3.365  1.00  0.00     0.019 A 
ATOM     17  C   UNL     1       2.246   3.122  -2.648  1.00  0.00     0.010 A 
ATOM     18  C   UNL     1       0.378   3.710  -4.051  1.00  0.00     0.014 A 
ATOM     19  C   UNL     1       2.576   4.466  -2.518  1.00  0.00     0.001 A 
ATOM     20  C   UNL     1       0.690   5.084  -3.943  1.00  0.00    -0.044 A 
ATOM     21  C   UNL     1       1.793   5.430  -3.143  1.00  0.00     0.004 A 
BRANCH  20  22
ATOM     22  C   UNL     1      -0.106   6.200  -4.593  1.00  0.00     0.019 C 
ATOM     23  C   UNL     1      -1.181   5.983  -5.624  1.00  0.00     0.009 C 
ATOM     24  C   UNL     1      -1.561   6.371  -4.225  1.00  0.00     0.009 C 
ENDBRANCH  20  22
ENDBRANCH   6  16
ENDBRANCH   3   6
ENDBRANCH   1   2
BRANCH   1  25
ATOM     25  C   UNL     1      -1.563  -2.311  -3.412  1.00  0.00     0.023 C 
BRANCH  25  26
ATOM     26  C   UNL     1      -3.026  -2.688  -3.255  1.00  0.00     0.023 C 
BRANCH  26  27
ATOM     27  C   UNL     1      -3.606  -3.408  -4.449  1.00  0.00     0.116 C 
BRANCH  27  28
ATOM     28  N   UNL     1      -2.925  -4.663  -4.745  1.00  0.00    -0.352 N 
ATOM     29  C   UNL     1      -3.464  -5.909  -4.967  1.00  0.00     0.251 C 
ATOM     30  H   UNL     1      -1.943  -4.611  -4.792  1.00  0.00     0.163 HD
ATOM     31  O   UNL     1      -2.746  -6.891  -5.075  1.00  0.00    -0.269 OA
BRANCH  29  32
ATOM     32  C   UNL     1      -4.932  -6.042  -5.034  1.00  0.00     0.039 A 
ATOM     33  C   UNL     1      -5.558  -7.063  -4.317  1.00  0.00     0.014 A 
ATOM     34  C   UNL     1      -5.685  -5.107  -5.747  1.00  0.00     0.014 A 
ATOM     35  C   UNL     1      -6.951  -7.096  -4.254  1.00  0.00     0.010 A 
ATOM     36  C   UNL     1      -7.059  -5.071  -5.583  1.00  0.00     0.010 A 
ATOM     37  C   UNL     1      -7.708  -6.075  -4.852  1.00  0.00    -0.014 A 
BRANCH  37  38
ATOM     38  C   UNL     1      -9.187  -6.050  -4.770  1.00  0.00     0.031 A 
ATOM     39  C   UNL     1      -9.993  -6.122  -6.037  1.00  0.00     0.074 A 
ATOM     40  C   UNL     1      -9.791  -5.877  -3.579  1.00  0.00     0.049 A 
ATOM     41  N   UNL     1     -11.284  -6.005  -6.206  1.00  0.00    -0.248 NA
ATOM     42  C   UNL     1      -9.240  -6.304  -7.290  1.00  0.00     0.031 C 
ATOM     43  C   UNL     1      -9.108  -5.727  -2.293  1.00  0.00     0.029 A 
ATOM     44  N   UNL     1     -11.122  -5.785  -3.260  1.00  0.00    -0.354 N 
ATOM     45  C   UNL     1     -11.489  -6.069  -7.577  1.00  0.00     0.074 A 
ATOM     46  C   UNL     1     -10.190  -6.166  -8.201  1.00  0.00     0.031 C 
ATOM     47  C   UNL     1     -10.025  -5.593  -1.321  1.00  0.00     0.029 A 
ATOM     48  C   UNL     1     -11.356  -5.611  -1.918  1.00  0.00     0.049 A 
ATOM     49  H   UNL     1     -11.841  -5.838  -3.930  1.00  0.00     0.167 HD
ATOM     50  C   UNL     1     -12.660  -6.080  -8.255  1.00  0.00     0.037 A 
ATOM     51  C   UNL     1     -12.518  -5.481  -1.251  1.00  0.00     0.037 A 
ATOM     52  C   UNL     1     -13.950  -6.040  -7.622  1.00  0.00     0.049 A 
ATOM     53  C   UNL     1     -13.808  -5.533  -2.025  1.00  0.00     0.074 A 
ATOM     54  C   UNL     1     -15.201  -6.125  -8.204  1.00  0.00     0.029 A 
ATOM     55  N   UNL     1     -14.149  -5.912  -6.254  1.00  0.00    -0.354 N 
ATOM     56  N   UNL     1     -13.995  -5.667  -3.316  1.00  0.00    -0.248 NA
ATOM     57  C   UNL     1     -15.050  -5.423  -1.247  1.00  0.00     0.031 C 
ATOM     58  C   UNL     1     -16.159  -6.012  -7.191  1.00  0.00     0.029 A 
ATOM     59  C   UNL     1     -15.504  -5.901  -5.975  1.00  0.00     0.049 A 
ATOM     60  H   UNL     1     -13.432  -5.839  -5.583  1.00  0.00     0.167 HD
ATOM     61  C   UNL     1     -15.370  -5.687  -3.503  1.00  0.00     0.074 A 
ATOM     62  C   UNL     1     -15.970  -5.566  -2.191  1.00  0.00     0.031 C 
ATOM     63  C   UNL     1     -16.074  -5.794  -4.656  1.00  0.00     0.037 A 
BRANCH  50  64
ATOM     64  C   UNL     1     -12.595  -6.157  -9.752  1.00  0.00     0.064 A 
ATOM     65  C   UNL     1     -12.158  -7.317 -10.411  1.00  0.00     0.173 A 
ATOM     66  C   UNL     1     -12.993  -5.067 -10.539  1.00  0.00     0.173 A 
ATOM     67  F   UNL     1     -11.749  -8.382  -9.705  1.00  0.00    -0.203 F 
ATOM     68  C   UNL     1     -12.091  -7.370 -11.801  1.00  0.00     0.198 A 
ATOM     69  C   UNL     1     -12.956  -5.135 -11.929  1.00  0.00     0.198 A 
ATOM     70  F   UNL     1     -13.420  -3.934  -9.960  1.00  0.00    -0.203 F 
ATOM     71  F   UNL     1     -11.617  -8.468 -12.405  1.00  0.00    -0.200 F 
ATOM     72  C   UNL     1     -12.498  -6.282 -12.559  1.00  0.00     0.200 A 
ATOM     73  F   UNL     1     -13.358  -4.087 -12.661  1.00  0.00    -0.200 F 
ATOM     74  F   UNL     1     -12.438  -6.337 -13.896  1.00  0.00    -0.200 F 
ENDBRANCH  50  64
BRANCH  51  75
ATOM     75  C   UNL     1     -12.518  -5.333   0.227  1.00  0.00     0.064 A 
ATOM     76  C   UNL     1     -12.983  -6.367   1.052  1.00  0.00     0.173 A 
ATOM     77  C   UNL     1     -12.060  -4.162   0.847  1.00  0.00     0.173 A 
ATOM     78  F   UNL     1     -13.447  -7.501   0.505  1.00  0.00    -0.203 F 
ATOM     79  C   UNL     1     -13.013  -6.227   2.437  1.00  0.00     0.198 A 
ATOM     80  C   UNL     1     -12.065  -4.033   2.235  1.00  0.00     0.198 A 
ATOM     81  F   UNL     1     -11.598  -3.145   0.104  1.00  0.00    -0.203 F 
ATOM     82  F   UNL     1     -13.506  -7.214   3.198  1.00  0.00    -0.200 F 
ATOM     83  C   UNL     1     -12.550  -5.062   3.028  1.00  0.00     0.200 A 
ATOM     84  F   UNL     1     -11.603  -2.910   2.803  1.00  0.00    -0.200 F 
ATOM     85  F   UNL     1     -12.577  -4.927   4.361  1.00  0.00    -0.200 F 
ENDBRANCH  51  75
BRANCH  63  86
ATOM     86  C   UNL     1     -17.569  -5.823  -4.546  1.00  0.00     0.064 A 
ATOM     87  C   UNL     1     -18.305  -4.670  -4.236  1.00  0.00     0.173 A 
ATOM     88  C   UNL     1     -18.275  -7.008  -4.803  1.00  0.00     0.173 A 
ATOM     89  F   UNL     1     -17.672  -3.518  -3.969  1.00  0.00    -0.203 F 
ATOM     90  C   UNL     1     -19.694  -4.709  -4.163  1.00  0.00     0.198 A 
ATOM     91  C   UNL     1     -19.665  -7.036  -4.759  1.00  0.00     0.198 A 
ATOM     92  F   UNL     1     -17.615  -8.134  -5.113  1.00  0.00    -0.203 F 
ATOM     93  F   UNL     1     -20.375  -3.607  -3.822  1.00  0.00    -0.200 F 
ATOM     94  C   UNL     1     -20.373  -5.889  -4.433  1.00  0.00     0.200 A 
ATOM     95  F   UNL     1     -20.320  -8.172  -5.033  1.00  0.00    -0.200 F 
ATOM     96  F   UNL     1     -21.711  -5.921  -4.372  1.00  0.00    -0.200 F 
ENDBRANCH  63  86
ENDBRANCH  37  38
ENDBRANCH  29  32
ENDBRANCH  27  28
ENDBRANCH  26  27
ENDBRANCH  25  26
ENDBRANCH   1  25
TORSDOF 17
