REMARK SMILES O=C(NCCCCNC(=O)[C@@H]1CN(C(=O)C[NH+]2CCOCC2)C[C@H]1c1ccc2c(c1)OCO2)c1ccc(-c2c3nc(c(-c4c(F)c(F)c(F)c(F)c4F)c4ccc([nH]4)c(-c4c(F)c(F)c(F)c(F)c4F)c4nc(c(-c5c(F)c(F)c(F)c(F)c5F)c5ccc2[nH]5)C=C4)C=C3)cc1
REMARK SMILES IDX 6 1 5 2 4 3 3 4 1 5 2 6 34 8 35 9 96 10 36 11 95 12 37 13
REMARK SMILES IDX 38 14 39 15 89 16 40 17 94 18 88 19 90 20 41 21 93 22 87 23
REMARK SMILES IDX 86 24 42 26 74 27 54 28 73 29 55 30 58 31 72 32 91 33 56 34
REMARK SMILES IDX 57 35 71 37 92 38 59 39 43 40 44 41 52 42 45 43 46 44 50 45
REMARK SMILES IDX 53 46 47 47 48 48 51 49 49 50 75 51 76 52 84 53 77 54 78 55
REMARK SMILES IDX 82 56 85 57 79 58 80 59 83 60 81 61 60 62 61 63 69 64 62 65
REMARK SMILES IDX 63 66 67 67 70 68 64 69 65 70 68 71 66 72 7 73 8 74 9 75
REMARK SMILES IDX 10 77 11 78 12 79 24 80 13 81 23 82 25 83 26 84 30 85 27 86
REMARK SMILES IDX 29 87 28 88 31 89 33 90 32 91 14 92 15 93 16 94 17 95 18 96
REMARK SMILES IDX 22 97 19 99 21 100 20 101
REMARK H PARENT 3 7 90 25 58 36 8 76 17 98
REMARK Flexibility Score: inf
ROOT
ATOM      1  C   UNL     1       4.261  -2.616  -2.776  1.00  0.00     0.023 C 
ENDROOT
BRANCH   1   2
ATOM      2  C   UNL     1       4.771  -2.370  -1.357  1.00  0.00     0.023 C 
BRANCH   2   3
ATOM      3  C   UNL     1       4.494  -0.978  -0.805  1.00  0.00     0.116 C 
BRANCH   3   4
ATOM      4  N   UNL     1       3.084  -0.621  -0.825  1.00  0.00    -0.352 N 
ATOM      5  O   UNL     1       1.140   0.151   0.027  1.00  0.00    -0.269 OA
ATOM      6  C   UNL     1       2.342   0.010   0.149  1.00  0.00     0.251 C 
ATOM      7  H   UNL     1       2.594  -0.863  -1.644  1.00  0.00     0.163 HD
BRANCH   6   8
ATOM      8  C   UNL     1       3.033   0.477   1.370  1.00  0.00     0.039 A 
ATOM      9  C   UNL     1       4.212   1.217   1.273  1.00  0.00     0.014 A 
ATOM     10  C   UNL     1       2.516   0.121   2.618  1.00  0.00     0.014 A 
ATOM     11  C   UNL     1       4.957   1.468   2.417  1.00  0.00     0.010 A 
ATOM     12  C   UNL     1       3.224   0.452   3.775  1.00  0.00     0.010 A 
ATOM     13  C   UNL     1       4.469   1.093   3.680  1.00  0.00    -0.014 A 
BRANCH  13  14
ATOM     14  C   UNL     1       5.264   1.427   4.887  1.00  0.00     0.031 A 
ATOM     15  C   UNL     1       5.865   0.351   5.746  1.00  0.00     0.074 A 
ATOM     16  C   UNL     1       5.474   2.725   5.175  1.00  0.00     0.049 A 
ATOM     17  N   UNL     1       6.618   0.472   6.811  1.00  0.00    -0.248 NA
ATOM     18  C   UNL     1       5.580  -1.042   5.370  1.00  0.00     0.031 C 
ATOM     19  C   UNL     1       4.931   3.852   4.414  1.00  0.00     0.029 A 
ATOM     20  N   UNL     1       6.217   3.317   6.162  1.00  0.00    -0.354 N 
ATOM     21  C   UNL     1       6.876  -0.821   7.245  1.00  0.00     0.074 A 
ATOM     22  C   UNL     1       6.183  -1.715   6.341  1.00  0.00     0.031 C 
ATOM     23  C   UNL     1       5.406   4.996   4.925  1.00  0.00     0.029 A 
ATOM     24  C   UNL     1       6.234   4.687   6.084  1.00  0.00     0.049 A 
ATOM     25  H   UNL     1       6.692   2.809   6.859  1.00  0.00     0.167 HD
ATOM     26  C   UNL     1       7.628  -1.222   8.298  1.00  0.00     0.037 A 
ATOM     27  C   UNL     1       6.844   5.596   6.865  1.00  0.00     0.037 A 
ATOM     28  C   UNL     1       8.335  -0.326   9.179  1.00  0.00     0.049 A 
ATOM     29  C   UNL     1       7.661   5.122   8.031  1.00  0.00     0.074 A 
ATOM     30  C   UNL     1       9.159  -0.635  10.248  1.00  0.00     0.029 A 
ATOM     31  N   UNL     1       8.299   1.058   9.092  1.00  0.00    -0.354 N 
ATOM     32  N   UNL     1       7.923   3.895   8.411  1.00  0.00    -0.248 NA
ATOM     33  C   UNL     1       8.261   6.159   8.879  1.00  0.00     0.031 C 
ATOM     34  C   UNL     1       9.586   0.562  10.833  1.00  0.00     0.029 A 
ATOM     35  C   UNL     1       9.066   1.618  10.102  1.00  0.00     0.049 A 
ATOM     36  H   UNL     1       7.801   1.569   8.412  1.00  0.00     0.167 HD
ATOM     37  C   UNL     1       8.730   4.011   9.533  1.00  0.00     0.074 A 
ATOM     38  C   UNL     1       8.932   5.428   9.758  1.00  0.00     0.031 C 
ATOM     39  C   UNL     1       9.253   3.031  10.310  1.00  0.00     0.037 A 
BRANCH  26  40
ATOM     40  C   UNL     1       7.713  -2.696   8.574  1.00  0.00     0.064 A 
ATOM     41  C   UNL     1       8.447  -3.562   7.751  1.00  0.00     0.173 A 
ATOM     42  C   UNL     1       7.085  -3.242   9.704  1.00  0.00     0.173 A 
ATOM     43  F   UNL     1       9.057  -3.093   6.652  1.00  0.00    -0.203 F 
ATOM     44  C   UNL     1       8.530  -4.924   8.035  1.00  0.00     0.198 A 
ATOM     45  C   UNL     1       7.191  -4.599  10.000  1.00  0.00     0.198 A 
ATOM     46  F   UNL     1       6.374  -2.457  10.529  1.00  0.00    -0.203 F 
ATOM     47  F   UNL     1       9.202  -5.739   7.211  1.00  0.00    -0.200 F 
ATOM     48  C   UNL     1       7.907  -5.439   9.162  1.00  0.00     0.200 A 
ATOM     49  F   UNL     1       6.597  -5.093  11.096  1.00  0.00    -0.200 F 
ATOM     50  F   UNL     1       7.993  -6.748   9.437  1.00  0.00    -0.200 F 
ENDBRANCH  26  40
BRANCH  27  51
ATOM     51  C   UNL     1       6.709   7.041   6.554  1.00  0.00     0.064 A 
ATOM     52  C   UNL     1       7.801   7.779   6.078  1.00  0.00     0.173 A 
ATOM     53  C   UNL     1       5.483   7.706   6.701  1.00  0.00     0.173 A 
ATOM     54  F   UNL     1       8.997   7.189   5.938  1.00  0.00    -0.203 F 
ATOM     55  C   UNL     1       7.673   9.131   5.770  1.00  0.00     0.198 A 
ATOM     56  C   UNL     1       5.350   9.051   6.365  1.00  0.00     0.198 A 
ATOM     57  F   UNL     1       4.407   7.041   7.146  1.00  0.00    -0.203 F 
ATOM     58  F   UNL     1       8.741   9.823   5.349  1.00  0.00    -0.200 F 
ATOM     59  C   UNL     1       6.447   9.764   5.906  1.00  0.00     0.200 A 
ATOM     60  F   UNL     1       4.159   9.653   6.481  1.00  0.00    -0.200 F 
ATOM     61  F   UNL     1       6.322  11.062   5.598  1.00  0.00    -0.200 F 
ENDBRANCH  27  51
BRANCH  39  62
ATOM     62  C   UNL     1      10.114   3.466  11.459  1.00  0.00     0.064 A 
ATOM     63  C   UNL     1       9.562   4.057  12.605  1.00  0.00     0.173 A 
ATOM     64  C   UNL     1      11.503   3.278  11.416  1.00  0.00     0.173 A 
ATOM     65  F   UNL     1       8.241   4.274  12.683  1.00  0.00    -0.203 F 
ATOM     66  C   UNL     1      10.376   4.471  13.656  1.00  0.00     0.198 A 
ATOM     67  C   UNL     1      12.310   3.668  12.481  1.00  0.00     0.198 A 
ATOM     68  F   UNL     1      12.077   2.714  10.343  1.00  0.00    -0.203 F 
ATOM     69  F   UNL     1       9.834   5.081  14.719  1.00  0.00    -0.200 F 
ATOM     70  C   UNL     1      11.747   4.271  13.596  1.00  0.00     0.200 A 
ATOM     71  F   UNL     1      13.634   3.466  12.425  1.00  0.00    -0.200 F 
ATOM     72  F   UNL     1      12.528   4.671  14.608  1.00  0.00    -0.200 F 
ENDBRANCH  39  62
ENDBRANCH  13  14
ENDBRANCH   6   8
ENDBRANCH   3   4
ENDBRANCH   2   3
ENDBRANCH   1   2
BRANCH   1  73
ATOM     73  C   UNL     1       4.641  -1.534  -3.779  1.00  0.00     0.116 C 
BRANCH  73  74
ATOM     74  N   UNL     1       6.079  -1.451  -3.958  1.00  0.00    -0.356 N 
ATOM     75  C   UNL     1       6.832  -1.680  -5.068  1.00  0.00     0.225 C 
ATOM     76  H   UNL     1       6.586  -1.189  -3.156  1.00  0.00     0.163 HD
ATOM     77  O   UNL     1       8.047  -1.494  -4.999  1.00  0.00    -0.275 OA
BRANCH  75  78
ATOM     78  C   UNL     1       6.168  -2.176  -6.328  1.00  0.00     0.107 C 
ATOM     79  C   UNL     1       6.614  -3.608  -6.554  1.00  0.00     0.133 C 
ATOM     80  C   UNL     1       6.596  -1.440  -7.615  1.00  0.00     0.053 C 
ATOM     81  N   UNL     1       6.408  -3.813  -7.972  1.00  0.00    -0.336 N 
ATOM     82  C   UNL     1       6.347  -2.538  -8.677  1.00  0.00     0.129 C 
BRANCH  80  83
ATOM     83  C   UNL     1       5.840  -0.122  -7.770  1.00  0.00    -0.038 A 
ATOM     84  C   UNL     1       5.988   0.878  -6.770  1.00  0.00     0.008 A 
ATOM     85  C   UNL     1       4.965   0.138  -8.837  1.00  0.00     0.054 A 
ATOM     86  C   UNL     1       5.224   2.050  -6.775  1.00  0.00     0.051 A 
ATOM     87  C   UNL     1       4.228   1.307  -8.821  1.00  0.00     0.166 A 
ATOM     88  C   UNL     1       4.340   2.228  -7.810  1.00  0.00     0.165 A 
ATOM     89  O   UNL     1       3.312   1.675  -9.757  1.00  0.00    -0.454 OA
ATOM     90  O   UNL     1       3.503   3.286  -7.972  1.00  0.00    -0.454 OA
ATOM     91  C   UNL     1       2.844   2.922  -9.202  1.00  0.00     0.468 C 
ENDBRANCH  80  83
BRANCH  81  92
ATOM     92  C   UNL     1       6.159  -5.007  -8.621  1.00  0.00     0.277 C 
ATOM     93  O   UNL     1       5.840  -5.029  -9.812  1.00  0.00    -0.268 OA
BRANCH  92  94
ATOM     94  C   UNL     1       6.313  -6.306  -7.822  1.00  0.00     0.363 C 
BRANCH  94  95
ATOM     95  N   UNL     1       7.613  -6.992  -7.943  1.00  0.00    -0.323 N 
ATOM     96  C   UNL     1       8.809  -6.142  -8.067  1.00  0.00     0.291 C 
ATOM     97  C   UNL     1       7.641  -8.039  -8.977  1.00  0.00     0.291 C 
ATOM     98  H   UNL     1       7.679  -7.425  -7.022  1.00  0.00     0.348 HD
ATOM     99  C   UNL     1       9.152  -5.698  -9.502  1.00  0.00     0.221 C 
ATOM    100  C   UNL     1       7.977  -7.536 -10.387  1.00  0.00     0.221 C 
ATOM    101  O   UNL     1       9.218  -6.819 -10.392  1.00  0.00    -0.370 OA
ENDBRANCH  94  95
ENDBRANCH  92  94
ENDBRANCH  81  92
ENDBRANCH  75  78
ENDBRANCH  73  74
ENDBRANCH   1  73
TORSDOF 15
