REMARK SMILES O=C(NCCCCNC(=O)[C@H]1CC[C@@H](CNC(=O)[C@@H]2CCC[NH2+]C2)O1)c1ccc(-c2c3nc(c(-c4c(F)c(F)c(F)c(F)c4F)c4ccc([nH]4)c(-c4c(F)c(F)c(F)c(F)c4F)c4nc(c(-c5c(F)c(F)c(F)c(F)c5F)c5ccc2[nH]5)C=C4)C=C3)cc1
REMARK SMILES IDX 6 1 5 2 4 3 3 4 1 5 2 6 26 8 27 9 88 10 28 11 87 12 29 13
REMARK SMILES IDX 30 14 31 15 81 16 32 17 86 18 80 19 82 20 33 21 85 22 79 23
REMARK SMILES IDX 78 24 34 26 66 27 46 28 65 29 47 30 50 31 64 32 83 33 48 34
REMARK SMILES IDX 49 35 63 37 84 38 51 39 35 40 36 41 44 42 37 43 38 44 42 45
REMARK SMILES IDX 45 46 39 47 40 48 43 49 41 50 67 51 68 52 76 53 69 54 70 55
REMARK SMILES IDX 74 56 77 57 71 58 72 59 75 60 73 61 52 62 53 63 61 64 54 65
REMARK SMILES IDX 55 66 59 67 62 68 56 69 57 70 60 71 58 72 7 73 8 74 9 75
REMARK SMILES IDX 10 77 11 78 12 79 25 80 13 81 14 82 15 83 16 84 17 85 18 87
REMARK SMILES IDX 19 88 20 89 24 90 21 91 23 92 22 93
REMARK H PARENT 3 7 82 25 50 36 8 76 16 86 23 94 23 95
REMARK Flexibility Score: inf
ROOT
ATOM      1  C   UNL     1       8.211  -1.220   4.805  1.00  0.00     0.023 C 
ENDROOT
BRANCH   1   2
ATOM      2  C   UNL     1       8.518  -0.674   6.209  1.00  0.00     0.023 C 
BRANCH   2   3
ATOM      3  C   UNL     1       9.974  -0.782   6.656  1.00  0.00     0.116 C 
BRANCH   3   4
ATOM      4  N   UNL     1      10.888  -0.163   5.713  1.00  0.00    -0.352 N 
ATOM      5  O   UNL     1      12.446   1.270   4.960  1.00  0.00    -0.269 OA
ATOM      6  C   UNL     1      11.881   0.753   5.925  1.00  0.00     0.251 C 
ATOM      7  H   UNL     1      10.776  -0.446   4.777  1.00  0.00     0.163 HD
BRANCH   6   8
ATOM      8  C   UNL     1      12.272   1.145   7.294  1.00  0.00     0.039 A 
ATOM      9  C   UNL     1      12.485   0.193   8.296  1.00  0.00     0.014 A 
ATOM     10  C   UNL     1      12.486   2.501   7.557  1.00  0.00     0.014 A 
ATOM     11  C   UNL     1      12.829   0.604   9.583  1.00  0.00     0.010 A 
ATOM     12  C   UNL     1      12.879   2.908   8.832  1.00  0.00     0.010 A 
ATOM     13  C   UNL     1      13.035   1.964   9.859  1.00  0.00    -0.014 A 
BRANCH  13  14
ATOM     14  C   UNL     1      13.457   2.409  11.209  1.00  0.00     0.031 A 
ATOM     15  C   UNL     1      12.533   3.227  12.062  1.00  0.00     0.074 A 
ATOM     16  C   UNL     1      14.698   2.119  11.639  1.00  0.00     0.049 A 
ATOM     17  N   UNL     1      12.761   3.797  13.217  1.00  0.00    -0.248 NA
ATOM     18  C   UNL     1      11.175   3.442  11.540  1.00  0.00     0.031 C 
ATOM     19  C   UNL     1      15.686   1.342  10.891  1.00  0.00     0.029 A 
ATOM     20  N   UNL     1      15.347   2.463  12.797  1.00  0.00    -0.354 N 
ATOM     21  C   UNL     1      11.587   4.458  13.551  1.00  0.00     0.074 A 
ATOM     22  C   UNL     1      10.654   4.234  12.467  1.00  0.00     0.031 C 
ATOM     23  C   UNL     1      16.819   1.271  11.607  1.00  0.00     0.029 A 
ATOM     24  C   UNL     1      16.651   2.037  12.838  1.00  0.00     0.049 A 
ATOM     25  H   UNL     1      14.919   2.967  13.527  1.00  0.00     0.167 HD
ATOM     26  C   UNL     1      11.316   5.183  14.663  1.00  0.00     0.037 A 
ATOM     27  C   UNL     1      17.615   2.266  13.749  1.00  0.00     0.037 A 
ATOM     28  C   UNL     1      12.246   5.389  15.743  1.00  0.00     0.049 A 
ATOM     29  C   UNL     1      17.299   3.090  14.964  1.00  0.00     0.074 A 
ATOM     30  C   UNL     1      12.049   6.062  16.936  1.00  0.00     0.029 A 
ATOM     31  N   UNL     1      13.555   4.929  15.755  1.00  0.00    -0.354 N 
ATOM     32  N   UNL     1      16.174   3.676  15.291  1.00  0.00    -0.248 NA
ATOM     33  C   UNL     1      18.383   3.283  15.936  1.00  0.00     0.031 C 
ATOM     34  C   UNL     1      13.252   6.047  17.651  1.00  0.00     0.029 A 
ATOM     35  C   UNL     1      14.185   5.325  16.924  1.00  0.00     0.049 A 
ATOM     36  H   UNL     1      13.975   4.399  15.039  1.00  0.00     0.167 HD
ATOM     37  C   UNL     1      16.405   4.291  16.514  1.00  0.00     0.074 A 
ATOM     38  C   UNL     1      17.778   4.002  16.873  1.00  0.00     0.031 C 
ATOM     39  C   UNL     1      15.552   5.024  17.270  1.00  0.00     0.037 A 
BRANCH  26  40
ATOM     40  C   UNL     1       9.965   5.828  14.755  1.00  0.00     0.064 A 
ATOM     41  C   UNL     1       8.800   5.077  14.973  1.00  0.00     0.173 A 
ATOM     42  C   UNL     1       9.836   7.221  14.645  1.00  0.00     0.173 A 
ATOM     43  F   UNL     1       8.868   3.741  15.074  1.00  0.00    -0.203 F 
ATOM     44  C   UNL     1       7.554   5.694  15.046  1.00  0.00     0.198 A 
ATOM     45  C   UNL     1       8.592   7.837  14.745  1.00  0.00     0.198 A 
ATOM     46  F   UNL     1      10.919   7.987  14.442  1.00  0.00    -0.203 F 
ATOM     47  F   UNL     1       6.449   4.952  15.206  1.00  0.00    -0.200 F 
ATOM     48  C   UNL     1       7.451   7.073  14.937  1.00  0.00     0.200 A 
ATOM     49  F   UNL     1       8.495   9.170  14.649  1.00  0.00    -0.200 F 
ATOM     50  F   UNL     1       6.250   7.664  15.007  1.00  0.00    -0.200 F 
ENDBRANCH  26  40
BRANCH  27  51
ATOM     51  C   UNL     1      18.968   1.701  13.524  1.00  0.00     0.064 A 
ATOM     52  C   UNL     1      19.425   0.607  14.269  1.00  0.00     0.173 A 
ATOM     53  C   UNL     1      19.805   2.207  12.518  1.00  0.00     0.173 A 
ATOM     54  F   UNL     1      18.665   0.102  15.251  1.00  0.00    -0.203 F 
ATOM     55  C   UNL     1      20.670   0.036  14.014  1.00  0.00     0.198 A 
ATOM     56  C   UNL     1      21.040   1.621  12.250  1.00  0.00     0.198 A 
ATOM     57  F   UNL     1      19.407   3.250  11.775  1.00  0.00    -0.203 F 
ATOM     58  F   UNL     1      21.093  -1.000  14.751  1.00  0.00    -0.200 F 
ATOM     59  C   UNL     1      21.472   0.538  12.999  1.00  0.00     0.200 A 
ATOM     60  F   UNL     1      21.803   2.098  11.257  1.00  0.00    -0.200 F 
ATOM     61  F   UNL     1      22.660  -0.025  12.742  1.00  0.00    -0.200 F 
ENDBRANCH  27  51
BRANCH  39  62
ATOM     62  C   UNL     1      16.063   5.541  18.580  1.00  0.00     0.064 A 
ATOM     63  C   UNL     1      16.932   6.639  18.647  1.00  0.00     0.173 A 
ATOM     64  C   UNL     1      15.624   4.971  19.785  1.00  0.00     0.173 A 
ATOM     65  F   UNL     1      17.390   7.207  17.521  1.00  0.00    -0.203 F 
ATOM     66  C   UNL     1      17.350   7.144  19.875  1.00  0.00     0.198 A 
ATOM     67  C   UNL     1      16.027   5.492  21.011  1.00  0.00     0.198 A 
ATOM     68  F   UNL     1      14.790   3.921  19.771  1.00  0.00    -0.203 F 
ATOM     69  F   UNL     1      18.202   8.177  19.918  1.00  0.00    -0.200 F 
ATOM     70  C   UNL     1      16.891   6.576  21.055  1.00  0.00     0.200 A 
ATOM     71  F   UNL     1      15.574   4.949  22.149  1.00  0.00    -0.200 F 
ATOM     72  F   UNL     1      17.284   7.072  22.236  1.00  0.00    -0.200 F 
ENDBRANCH  39  62
ENDBRANCH  13  14
ENDBRANCH   6   8
ENDBRANCH   3   4
ENDBRANCH   2   3
ENDBRANCH   1   2
BRANCH   1  73
ATOM     73  C   UNL     1       8.709  -2.643   4.543  1.00  0.00     0.116 C 
BRANCH  73  74
ATOM     74  N   UNL     1       8.183  -3.547   5.537  1.00  0.00    -0.354 N 
ATOM     75  C   UNL     1       6.944  -4.110   5.568  1.00  0.00     0.249 C 
ATOM     76  H   UNL     1       8.789  -3.784   6.276  1.00  0.00     0.163 HD
ATOM     77  O   UNL     1       6.484  -4.331   6.686  1.00  0.00    -0.272 OA
BRANCH  75  78
ATOM     78  C   UNL     1       6.229  -4.508   4.263  1.00  0.00     0.207 C 
ATOM     79  C   UNL     1       6.583  -5.953   3.930  1.00  0.00     0.045 C 
ATOM     80  O   UNL     1       4.797  -4.447   4.374  1.00  0.00    -0.363 OA
ATOM     81  C   UNL     1       5.417  -6.721   4.510  1.00  0.00     0.037 C 
ATOM     82  C   UNL     1       4.253  -5.778   4.251  1.00  0.00     0.138 C 
BRANCH  82  83
ATOM     83  C   UNL     1       3.003  -5.937   5.143  1.00  0.00     0.147 C 
BRANCH  83  84
ATOM     84  N   UNL     1       2.891  -7.239   5.783  1.00  0.00    -0.353 N 
ATOM     85  C   UNL     1       2.935  -7.602   7.096  1.00  0.00     0.228 C 
ATOM     86  H   UNL     1       2.760  -7.989   5.159  1.00  0.00     0.163 HD
ATOM     87  O   UNL     1       2.850  -8.810   7.333  1.00  0.00    -0.275 OA
BRANCH  85  88
ATOM     88  C   UNL     1       3.048  -6.559   8.215  1.00  0.00     0.133 C 
ATOM     89  C   UNL     1       4.344  -5.754   8.180  1.00  0.00     0.025 C 
ATOM     90  C   UNL     1       2.932  -7.214   9.606  1.00  0.00     0.274 C 
ATOM     91  C   UNL     1       5.550  -6.604   8.568  1.00  0.00     0.062 C 
ATOM     92  N   UNL     1       4.097  -8.036   9.977  1.00  0.00    -0.346 N 
ATOM     93  C   UNL     1       5.341  -7.270   9.921  1.00  0.00     0.260 C 
ATOM     94  H   UNL     1       3.966  -8.384  10.927  1.00  0.00     0.346 HD
ATOM     95  H   UNL     1       4.167  -8.805   9.311  1.00  0.00     0.346 HD
ENDBRANCH  85  88
ENDBRANCH  83  84
ENDBRANCH  82  83
ENDBRANCH  75  78
ENDBRANCH  73  74
ENDBRANCH   1  73
TORSDOF 14
