REMARK SMILES O=C(NCCCCNC(=O)[C@H](CO)NC(=O)[C@H](Cc1c[nH]c2ccccc12)NC(=O)c1ccc(F)cc1)c1ccc(-c2c3nc(c(-c4c(F)c(F)c(F)c(F)c4F)c4ccc([nH]4)c(-c4c(F)c(F)c(F)c(F)c4F)c4nc(c(-c5c(F)c(F)c(F)c(F)c5F)c5ccc2[nH]5)C=C4)C=C3)cc1
REMARK SMILES IDX 6 1 5 2 4 3 3 4 1 5 2 6 38 8 39 9 100 10 40 11 99 12 41 13
REMARK SMILES IDX 42 14 43 15 93 16 44 17 98 18 92 19 94 20 45 21 97 22 91 23
REMARK SMILES IDX 90 24 46 26 78 27 58 28 77 29 59 30 62 31 76 32 95 33 60 34
REMARK SMILES IDX 61 35 75 37 96 38 63 39 47 40 48 41 56 42 49 43 50 44 54 45
REMARK SMILES IDX 57 46 51 47 52 48 55 49 53 50 79 51 80 52 88 53 81 54 82 55
REMARK SMILES IDX 86 56 89 57 83 58 84 59 87 60 85 61 64 62 65 63 73 64 66 65
REMARK SMILES IDX 67 66 71 67 74 68 68 69 69 70 72 71 70 72 7 73 8 74 9 75
REMARK SMILES IDX 10 77 11 78 14 79 15 80 16 82 17 83 28 84 29 85 30 87 31 88
REMARK SMILES IDX 32 89 37 90 33 91 36 92 34 93 35 94 18 95 19 96 20 97 27 98
REMARK SMILES IDX 21 99 22 100 26 101 23 103 25 104 24 105 12 106 13 107
REMARK H PARENT 3 7 94 25 62 36 8 76 14 81 28 86 21 102 13 108
REMARK Flexibility Score: inf
ROOT
ATOM      1  C   UNL     1       5.279  -2.812  -1.340  1.00  0.00     0.023 C 
ENDROOT
BRANCH   1   2
ATOM      2  C   UNL     1       5.325  -1.651  -0.370  1.00  0.00     0.023 C 
BRANCH   2   3
ATOM      3  C   UNL     1       3.960  -1.080  -0.072  1.00  0.00     0.116 C 
BRANCH   3   4
ATOM      4  N   UNL     1       2.947  -2.098   0.217  1.00  0.00    -0.352 N 
ATOM      5  O   UNL     1       1.138  -2.929   1.317  1.00  0.00    -0.269 OA
ATOM      6  C   UNL     1       1.885  -1.992   1.082  1.00  0.00     0.251 C 
ATOM      7  H   UNL     1       3.038  -2.954  -0.260  1.00  0.00     0.163 HD
BRANCH   6   8
ATOM      8  C   UNL     1       1.727  -0.692   1.744  1.00  0.00     0.039 A 
ATOM      9  C   UNL     1       1.735   0.448   0.940  1.00  0.00     0.014 A 
ATOM     10  C   UNL     1       1.856  -0.617   3.129  1.00  0.00     0.014 A 
ATOM     11  C   UNL     1       2.107   1.648   1.507  1.00  0.00     0.010 A 
ATOM     12  C   UNL     1       2.057   0.630   3.714  1.00  0.00     0.010 A 
ATOM     13  C   UNL     1       2.228   1.763   2.904  1.00  0.00    -0.014 A 
BRANCH  13  14
ATOM     14  C   UNL     1       2.451   3.108   3.479  1.00  0.00     0.031 A 
ATOM     15  C   UNL     1       3.646   3.419   4.330  1.00  0.00     0.074 A 
ATOM     16  C   UNL     1       1.548   4.062   3.180  1.00  0.00     0.049 A 
ATOM     17  N   UNL     1       3.960   4.546   4.917  1.00  0.00    -0.248 NA
ATOM     18  C   UNL     1       4.608   2.332   4.569  1.00  0.00     0.031 C 
ATOM     19  C   UNL     1       0.349   3.854   2.361  1.00  0.00     0.029 A 
ATOM     20  N   UNL     1       1.504   5.393   3.494  1.00  0.00    -0.354 N 
ATOM     21  C   UNL     1       5.136   4.299   5.613  1.00  0.00     0.074 A 
ATOM     22  C   UNL     1       5.465   2.906   5.404  1.00  0.00     0.031 C 
ATOM     23  C   UNL     1      -0.263   5.026   2.167  1.00  0.00     0.029 A 
ATOM     24  C   UNL     1       0.428   6.043   2.944  1.00  0.00     0.049 A 
ATOM     25  H   UNL     1       2.177   5.839   4.058  1.00  0.00     0.167 HD
ATOM     26  C   UNL     1       5.869   5.168   6.350  1.00  0.00     0.037 A 
ATOM     27  C   UNL     1       0.016   7.314   3.075  1.00  0.00     0.037 A 
ATOM     28  C   UNL     1       5.521   6.556   6.534  1.00  0.00     0.049 A 
ATOM     29  C   UNL     1       0.822   8.239   3.932  1.00  0.00     0.074 A 
ATOM     30  C   UNL     1       6.202   7.527   7.248  1.00  0.00     0.029 A 
ATOM     31  N   UNL     1       4.394   7.170   6.001  1.00  0.00    -0.354 N 
ATOM     32  N   UNL     1       1.932   7.996   4.586  1.00  0.00    -0.248 NA
ATOM     33  C   UNL     1       0.321   9.608   4.074  1.00  0.00     0.031 C 
ATOM     34  C   UNL     1       5.455   8.707   7.202  1.00  0.00     0.029 A 
ATOM     35  C   UNL     1       4.349   8.500   6.393  1.00  0.00     0.049 A 
ATOM     36  H   UNL     1       3.727   6.727   5.429  1.00  0.00     0.167 HD
ATOM     37  C   UNL     1       2.276   9.187   5.204  1.00  0.00     0.074 A 
ATOM     38  C   UNL     1       1.264  10.155   4.829  1.00  0.00     0.031 C 
ATOM     39  C   UNL     1       3.334   9.451   6.009  1.00  0.00     0.037 A 
BRANCH  26  40
ATOM     40  C   UNL     1       7.107   4.651   7.029  1.00  0.00     0.064 A 
ATOM     41  C   UNL     1       7.183   4.607   8.431  1.00  0.00     0.173 A 
ATOM     42  C   UNL     1       8.244   4.263   6.304  1.00  0.00     0.173 A 
ATOM     43  F   UNL     1       6.130   4.971   9.178  1.00  0.00    -0.203 F 
ATOM     44  C   UNL     1       8.351   4.209   9.078  1.00  0.00     0.198 A 
ATOM     45  C   UNL     1       9.399   3.832   6.953  1.00  0.00     0.198 A 
ATOM     46  F   UNL     1       8.226   4.274   4.962  1.00  0.00    -0.203 F 
ATOM     47  F   UNL     1       8.409   4.212  10.417  1.00  0.00    -0.200 F 
ATOM     48  C   UNL     1       9.456   3.816   8.338  1.00  0.00     0.200 A 
ATOM     49  F   UNL     1      10.456   3.424   6.236  1.00  0.00    -0.200 F 
ATOM     50  F   UNL     1      10.574   3.417   8.961  1.00  0.00    -0.200 F 
ENDBRANCH  26  40
BRANCH  27  51
ATOM     51  C   UNL     1      -1.215   7.749   2.370  1.00  0.00     0.064 A 
ATOM     52  C   UNL     1      -2.471   7.216   2.702  1.00  0.00     0.173 A 
ATOM     53  C   UNL     1      -1.147   8.638   1.290  1.00  0.00     0.173 A 
ATOM     54  F   UNL     1      -2.585   6.345   3.715  1.00  0.00    -0.203 F 
ATOM     55  C   UNL     1      -3.605   7.529   1.958  1.00  0.00     0.198 A 
ATOM     56  C   UNL     1      -2.290   8.979   0.570  1.00  0.00     0.198 A 
ATOM     57  F   UNL     1       0.029   9.178   0.940  1.00  0.00    -0.203 F 
ATOM     58  F   UNL     1      -4.779   6.956   2.256  1.00  0.00    -0.200 F 
ATOM     59  C   UNL     1      -3.514   8.414   0.895  1.00  0.00     0.200 A 
ATOM     60  F   UNL     1      -2.202   9.849  -0.445  1.00  0.00    -0.200 F 
ATOM     61  F   UNL     1      -4.606   8.720   0.182  1.00  0.00    -0.200 F 
ENDBRANCH  27  51
BRANCH  39  62
ATOM     62  C   UNL     1       3.477  10.858   6.514  1.00  0.00     0.064 A 
ATOM     63  C   UNL     1       4.548  11.657   6.082  1.00  0.00     0.173 A 
ATOM     64  C   UNL     1       2.598  11.396   7.464  1.00  0.00     0.173 A 
ATOM     65  F   UNL     1       5.422  11.187   5.178  1.00  0.00    -0.203 F 
ATOM     66  C   UNL     1       4.743  12.934   6.598  1.00  0.00     0.198 A 
ATOM     67  C   UNL     1       2.773  12.689   7.948  1.00  0.00     0.198 A 
ATOM     68  F   UNL     1       1.549  10.680   7.896  1.00  0.00    -0.203 F 
ATOM     69  F   UNL     1       5.797  13.661   6.202  1.00  0.00    -0.200 F 
ATOM     70  C   UNL     1       3.852  13.452   7.525  1.00  0.00     0.200 A 
ATOM     71  F   UNL     1       1.893  13.201   8.820  1.00  0.00    -0.200 F 
ATOM     72  F   UNL     1       4.030  14.689   8.007  1.00  0.00    -0.200 F 
ENDBRANCH  39  62
ENDBRANCH  13  14
ENDBRANCH   6   8
ENDBRANCH   3   4
ENDBRANCH   2   3
ENDBRANCH   1   2
BRANCH   1  73
ATOM     73  C   UNL     1       4.510  -2.519  -2.637  1.00  0.00     0.116 C 
BRANCH  73  74
ATOM     74  N   UNL     1       5.280  -1.718  -3.599  1.00  0.00    -0.354 N 
ATOM     75  C   UNL     1       6.168  -1.963  -4.740  1.00  0.00     0.244 C 
ATOM     76  H   UNL     1       5.171  -0.754  -3.430  1.00  0.00     0.163 HD
ATOM     77  O   UNL     1       6.019  -0.790  -5.260  1.00  0.00    -0.273 OA
BRANCH  75  78
ATOM     78  C   UNL     1       7.337  -3.774  -5.470  1.00  0.00     0.197 C 
BRANCH  78  79
ATOM     79  N   UNL     1       8.432  -3.895  -6.737  1.00  0.00    -0.340 N 
ATOM     80  C   UNL     1       8.252  -3.818  -8.088  1.00  0.00     0.243 C 
ATOM     81  H   UNL     1       9.364  -4.047  -6.458  1.00  0.00     0.164 HD
ATOM     82  O   UNL     1       9.248  -3.858  -8.813  1.00  0.00    -0.273 OA
BRANCH  80  83
ATOM     83  C   UNL     1       6.827  -3.775  -8.662  1.00  0.00     0.176 C 
BRANCH  83  84
ATOM     84  N   UNL     1       6.328  -5.155  -8.568  1.00  0.00    -0.340 N 
ATOM     85  C   UNL     1       6.269  -6.114  -9.546  1.00  0.00     0.251 C 
ATOM     86  H   UNL     1       5.991  -5.426  -7.683  1.00  0.00     0.164 HD
ATOM     87  O   UNL     1       5.985  -7.273  -9.265  1.00  0.00    -0.269 OA
BRANCH  85  88
ATOM     88  C   UNL     1       6.413  -5.706 -10.957  1.00  0.00     0.040 A 
ATOM     89  C   UNL     1       7.567  -5.075 -11.435  1.00  0.00     0.017 A 
ATOM     90  C   UNL     1       5.300  -5.875 -11.786  1.00  0.00     0.017 A 
ATOM     91  C   UNL     1       7.555  -4.488 -12.700  1.00  0.00     0.040 A 
ATOM     92  C   UNL     1       5.307  -5.320 -13.064  1.00  0.00     0.040 A 
ATOM     93  C   UNL     1       6.421  -4.605 -13.496  1.00  0.00     0.123 A 
ATOM     94  F   UNL     1       6.396  -4.010 -14.695  1.00  0.00    -0.207 F 
ENDBRANCH  85  88
ENDBRANCH  83  84
BRANCH  83  95
ATOM     95  C   UNL     1       5.930  -2.717  -8.018  1.00  0.00     0.072 C 
BRANCH  95  96
ATOM     96  C   UNL     1       6.184  -2.651  -6.564  1.00  0.00    -0.020 A 
ATOM     97  C   UNL     1       5.374  -3.621  -5.304  1.00  0.00     0.087 A 
ATOM     98  C   UNL     1       7.821  -1.887  -5.780  1.00  0.00     0.003 A 
ATOM     99  N   UNL     1       6.482  -3.584  -3.808  1.00  0.00    -0.361 N 
ATOM    100  C   UNL     1       7.932  -2.479  -4.112  1.00  0.00     0.046 A 
ATOM    101  C   UNL     1       8.888  -1.111  -6.252  1.00  0.00     0.010 A 
ATOM    102  H   UNL     1       6.319  -4.081  -2.974  1.00  0.00     0.166 HD
ATOM    103  C   UNL     1       9.046  -2.142  -3.357  1.00  0.00     0.026 A 
ATOM    104  C   UNL     1       9.960  -0.902  -5.366  1.00  0.00     0.001 A 
ATOM    105  C   UNL     1      10.027  -1.375  -4.021  1.00  0.00     0.002 A 
ENDBRANCH  95  96
ENDBRANCH  83  95
ENDBRANCH  80  83
ENDBRANCH  78  79
BRANCH  78 106
ATOM    106  C   UNL     1       8.239  -5.003  -4.504  1.00  0.00     0.191 C 
BRANCH 106 107
ATOM    107  O   UNL     1       7.702  -5.451  -3.250  1.00  0.00    -0.394 OA
ATOM    108  H   UNL     1       7.693  -4.713  -2.620  1.00  0.00     0.210 HD
ENDBRANCH 106 107
ENDBRANCH  78 106
ENDBRANCH  75  78
ENDBRANCH  73  74
ENDBRANCH   1  73
TORSDOF 19
