REMARK SMILES CCNC(=O)C[NH2+][C@@H](C)[C@@H](C)C(=O)NCCCCNC(=O)c1ccc(-c2c3nc(c(-c4c(F)c(F)c(F)c(F)c4F)c4ccc([nH]4)c(-c4c(F)c(F)c(F)c(F)c4F)c4nc(c(-c5c(F)c(F)c(F)c(F)c5F)c5ccc2[nH]5)C=C4)C=C3)cc1
REMARK SMILES IDX 15 1 14 2 12 3 13 4 10 6 11 7 8 8 9 9 7 10 6 13 4 14 3 15
REMARK SMILES IDX 5 17 2 18 1 19 16 20 17 21 18 22 19 23 20 24 21 26 22 27
REMARK SMILES IDX 23 28 84 29 24 30 83 31 25 32 26 33 27 34 77 35 28 36 82 37
REMARK SMILES IDX 76 38 78 39 29 40 81 41 75 42 74 43 30 45 62 46 42 47 61 48
REMARK SMILES IDX 43 49 46 50 60 51 79 52 44 53 45 54 59 56 80 57 47 58 31 59
REMARK SMILES IDX 32 60 40 61 33 62 34 63 38 64 41 65 35 66 36 67 39 68 37 69
REMARK SMILES IDX 63 70 64 71 72 72 65 73 66 74 70 75 73 76 67 77 68 78 71 79
REMARK SMILES IDX 69 80 48 81 49 82 57 83 50 84 51 85 55 86 58 87 52 88 53 89
REMARK SMILES IDX 56 90 54 91
REMARK H PARENT 14 5 7 11 7 12 3 16 19 25 78 44 46 55
REMARK Flexibility Score: inf
ROOT
ATOM      1  C   UNL     1      -4.845   1.073   0.215  1.00  0.00     0.116 C 
ENDROOT
BRANCH   1   2
ATOM      2  N   UNL     1      -5.489  -0.222   0.111  1.00  0.00    -0.356 N 
ATOM      3  C   UNL     1      -5.021  -1.431  -0.302  1.00  0.00     0.228 C 
ATOM      4  O   UNL     1      -5.822  -2.370  -0.302  1.00  0.00    -0.275 OA
ATOM      5  H   UNL     1      -6.433  -0.228   0.388  1.00  0.00     0.163 HD
BRANCH   3   6
ATOM      6  C   UNL     1      -3.573  -1.654  -0.739  1.00  0.00     0.133 C 
ATOM      7  C   UNL     1      -2.636  -1.510   0.465  1.00  0.00     0.024 C 
BRANCH   6   8
ATOM      8  C   UNL     1      -3.198  -0.820  -1.990  1.00  0.00     0.191 C 
ATOM      9  C   UNL     1      -4.051  -1.254  -3.193  1.00  0.00     0.076 C 
BRANCH   8  10
ATOM     10  N   UNL     1      -1.759  -0.932  -2.286  1.00  0.00    -0.336 N 
ATOM     11  H   UNL     1      -1.238  -0.848  -1.414  1.00  0.00     0.346 HD
ATOM     12  H   UNL     1      -1.602  -1.837  -2.729  1.00  0.00     0.346 HD
BRANCH  10  13
ATOM     13  C   UNL     1      -1.296   0.112  -3.219  1.00  0.00     0.362 C 
BRANCH  13  14
ATOM     14  C   UNL     1       0.226   0.061  -3.361  1.00  0.00     0.275 C 
ATOM     15  N   UNL     1       1.014   0.513  -2.341  1.00  0.00    -0.351 N 
ATOM     16  H   UNL     1       1.979   0.550  -2.531  1.00  0.00     0.163 HD
ATOM     17  O   UNL     1       0.761  -0.357  -4.390  1.00  0.00    -0.269 OA
BRANCH  15  18
ATOM     18  C   UNL     1       0.616   0.944  -1.015  1.00  0.00     0.112 C 
ATOM     19  C   UNL     1       1.033  -0.075   0.029  1.00  0.00     0.027 C 
ENDBRANCH  15  18
ENDBRANCH  13  14
ENDBRANCH  10  13
ENDBRANCH   8  10
ENDBRANCH   6   8
ENDBRANCH   3   6
ENDBRANCH   1   2
BRANCH   1  20
ATOM     20  C   UNL     1      -5.329   2.042  -0.865  1.00  0.00     0.023 C 
BRANCH  20  21
ATOM     21  C   UNL     1      -6.789   2.474  -0.734  1.00  0.00     0.023 C 
BRANCH  21  22
ATOM     22  C   UNL     1      -7.174   3.066   0.615  1.00  0.00     0.116 C 
BRANCH  22  23
ATOM     23  N   UNL     1      -6.359   4.211   0.995  1.00  0.00    -0.352 N 
ATOM     24  C   UNL     1      -6.751   5.397   1.566  1.00  0.00     0.251 C 
ATOM     25  H   UNL     1      -5.394   4.123   0.817  1.00  0.00     0.163 HD
ATOM     26  O   UNL     1      -5.943   6.307   1.723  1.00  0.00    -0.269 OA
BRANCH  24  27
ATOM     27  C   UNL     1      -8.163   5.585   1.955  1.00  0.00     0.039 A 
ATOM     28  C   UNL     1      -8.820   6.754   1.563  1.00  0.00     0.014 A 
ATOM     29  C   UNL     1      -8.845   4.598   2.671  1.00  0.00     0.014 A 
ATOM     30  C   UNL     1     -10.184   6.899   1.824  1.00  0.00     0.010 A 
ATOM     31  C   UNL     1     -10.218   4.710   2.864  1.00  0.00     0.010 A 
ATOM     32  C   UNL     1     -10.901   5.860   2.440  1.00  0.00    -0.014 A 
BRANCH  32  33
ATOM     33  C   UNL     1     -12.368   5.954   2.645  1.00  0.00     0.031 A 
ATOM     34  C   UNL     1     -12.935   5.969   4.037  1.00  0.00     0.074 A 
ATOM     35  C   UNL     1     -13.192   5.952   1.579  1.00  0.00     0.049 A 
ATOM     36  N   UNL     1     -14.186   5.968   4.422  1.00  0.00    -0.248 NA
ATOM     37  C   UNL     1     -11.966   5.952   5.144  1.00  0.00     0.031 C 
ATOM     38  C   UNL     1     -12.765   5.888   0.180  1.00  0.00     0.029 A 
ATOM     39  N   UNL     1     -14.562   5.992   1.506  1.00  0.00    -0.354 N 
ATOM     40  C   UNL     1     -14.153   5.935   5.809  1.00  0.00     0.074 A 
ATOM     41  C   UNL     1     -12.762   5.861   6.199  1.00  0.00     0.031 C 
ATOM     42  C   UNL     1     -13.848   5.915  -0.612  1.00  0.00     0.029 A 
ATOM     43  C   UNL     1     -15.046   5.960   0.221  1.00  0.00     0.049 A 
ATOM     44  H   UNL     1     -15.142   6.040   2.300  1.00  0.00     0.167 HD
ATOM     45  C   UNL     1     -15.190   5.986   6.680  1.00  0.00     0.037 A 
ATOM     46  C   UNL     1     -16.314   5.959  -0.232  1.00  0.00     0.037 A 
ATOM     47  C   UNL     1     -16.571   6.087   6.288  1.00  0.00     0.049 A 
ATOM     48  C   UNL     1     -17.447   6.016   0.756  1.00  0.00     0.074 A 
ATOM     49  C   UNL     1     -17.689   6.209   7.094  1.00  0.00     0.029 A 
ATOM     50  N   UNL     1     -17.022   6.075   4.976  1.00  0.00    -0.354 N 
ATOM     51  N   UNL     1     -17.402   6.057   2.066  1.00  0.00    -0.248 NA
ATOM     52  C   UNL     1     -18.808   6.033   0.203  1.00  0.00     0.031 C 
ATOM     53  C   UNL     1     -18.821   6.226   6.271  1.00  0.00     0.029 A 
ATOM     54  C   UNL     1     -18.404   6.166   4.951  1.00  0.00     0.049 A 
ATOM     55  H   UNL     1     -16.445   6.011   4.181  1.00  0.00     0.167 HD
ATOM     56  C   UNL     1     -18.721   6.135   2.491  1.00  0.00     0.074 A 
ATOM     57  C   UNL     1     -19.544   6.149   1.299  1.00  0.00     0.031 C 
ATOM     58  C   UNL     1     -19.207   6.188   3.755  1.00  0.00     0.037 A 
BRANCH  45  59
ATOM     59  C   UNL     1     -14.867   5.940   8.145  1.00  0.00     0.064 A 
ATOM     60  C   UNL     1     -14.233   7.011   8.793  1.00  0.00     0.173 A 
ATOM     61  C   UNL     1     -15.226   4.826   8.919  1.00  0.00     0.173 A 
ATOM     62  F   UNL     1     -13.858   8.095   8.096  1.00  0.00    -0.203 F 
ATOM     63  C   UNL     1     -13.943   6.956  10.153  1.00  0.00     0.198 A 
ATOM     64  C   UNL     1     -14.962   4.787  10.286  1.00  0.00     0.198 A 
ATOM     65  F   UNL     1     -15.838   3.776   8.351  1.00  0.00    -0.203 F 
ATOM     66  F   UNL     1     -13.291   7.970  10.739  1.00  0.00    -0.200 F 
ATOM     67  C   UNL     1     -14.314   5.848  10.900  1.00  0.00     0.200 A 
ATOM     68  F   UNL     1     -15.333   3.721  11.009  1.00  0.00    -0.200 F 
ATOM     69  F   UNL     1     -14.040   5.800  12.211  1.00  0.00    -0.200 F 
ENDBRANCH  45  59
BRANCH  46  70
ATOM     70  C   UNL     1     -16.581   5.929  -1.694  1.00  0.00     0.064 A 
ATOM     71  C   UNL     1     -17.111   7.048  -2.351  1.00  0.00     0.173 A 
ATOM     72  C   UNL     1     -16.318   4.785  -2.463  1.00  0.00     0.173 A 
ATOM     73  F   UNL     1     -17.398   8.158  -1.655  1.00  0.00    -0.203 F 
ATOM     74  C   UNL     1     -17.389   7.018  -3.716  1.00  0.00     0.198 A 
ATOM     75  C   UNL     1     -16.569   4.766  -3.833  1.00  0.00     0.198 A 
ATOM     76  F   UNL     1     -15.805   3.690  -1.883  1.00  0.00    -0.203 F 
ATOM     77  F   UNL     1     -17.939   8.086  -4.309  1.00  0.00    -0.200 F 
ATOM     78  C   UNL     1     -17.113   5.879  -4.457  1.00  0.00     0.200 A 
ATOM     79  F   UNL     1     -16.288   3.669  -4.548  1.00  0.00    -0.200 F 
ATOM     80  F   UNL     1     -17.377   5.852  -5.770  1.00  0.00    -0.200 F 
ENDBRANCH  46  70
BRANCH  58  81
ATOM     81  C   UNL     1     -20.695   6.305   3.916  1.00  0.00     0.064 A 
ATOM     82  C   UNL     1     -21.552   5.228   3.647  1.00  0.00     0.173 A 
ATOM     83  C   UNL     1     -21.265   7.499   4.384  1.00  0.00     0.173 A 
ATOM     84  F   UNL     1     -21.057   4.071   3.182  1.00  0.00    -0.203 F 
ATOM     85  C   UNL     1     -22.929   5.350   3.818  1.00  0.00     0.198 A 
ATOM     86  C   UNL     1     -22.639   7.607   4.583  1.00  0.00     0.198 A 
ATOM     87  F   UNL     1     -20.488   8.556   4.662  1.00  0.00    -0.203 F 
ATOM     88  F   UNL     1     -23.733   4.324   3.510  1.00  0.00    -0.200 F 
ATOM     89  C   UNL     1     -23.470   6.536   4.293  1.00  0.00     0.200 A 
ATOM     90  F   UNL     1     -23.158   8.749   5.055  1.00  0.00    -0.200 F 
ATOM     91  F   UNL     1     -24.794   6.648   4.465  1.00  0.00    -0.200 F 
ENDBRANCH  58  81
ENDBRANCH  32  33
ENDBRANCH  24  27
ENDBRANCH  22  23
ENDBRANCH  21  22
ENDBRANCH  20  21
ENDBRANCH   1  20
TORSDOF 16
