REMARK SMILES CCn1c(CC2CC[NH+](Cc3cn[nH]c3C(=O)NCCCCNC(=O)c3ccc(-c4c5nc(c(-c6c(F)c(F)c(F)c(F)c6F)c6ccc([nH]6)c(-c6c(F)c(F)c(F)c(F)c6F)c6nc(c(-c7c(F)c(F)c(F)c(F)c7F)c7ccc4[nH]7)C=C6)C=C5)cc3)CC2)nn(C)c1=O
REMARK SMILES IDX 19 1 18 2 16 3 17 4 15 6 11 7 12 8 13 9 14 10 10 12 9 13
REMARK SMILES IDX 6 14 7 15 90 16 8 17 89 18 5 20 4 21 3 22 94 23 91 24 92 25
REMARK SMILES IDX 95 26 93 27 2 28 1 29 20 30 21 31 22 32 23 33 24 34 25 36
REMARK SMILES IDX 26 37 27 38 88 39 28 40 87 41 29 42 30 43 31 44 81 45 32 46
REMARK SMILES IDX 86 47 80 48 82 49 33 50 85 51 79 52 78 53 34 55 66 56 46 57
REMARK SMILES IDX 65 58 47 59 50 60 64 61 83 62 48 63 49 64 63 66 84 67 51 68
REMARK SMILES IDX 35 69 36 70 44 71 37 72 38 73 42 74 45 75 39 76 40 77 43 78
REMARK SMILES IDX 41 79 67 80 68 81 76 82 69 83 70 84 74 85 77 86 71 87 72 88
REMARK SMILES IDX 75 89 73 90 52 91 53 92 61 93 54 94 55 95 59 96 62 97 56 98
REMARK SMILES IDX 57 99 60 100 58 101
REMARK H PARENT 18 5 14 11 9 19 23 35 82 54 50 65
REMARK Flexibility Score: inf
ROOT
ATOM      1  C   UNL     1      -3.860  -2.957   4.984  1.00  0.00     0.116 C 
ENDROOT
BRANCH   1   2
ATOM      2  N   UNL     1      -3.715  -3.261   3.584  1.00  0.00    -0.351 N 
ATOM      3  C   UNL     1      -2.596  -3.486   2.832  1.00  0.00     0.269 C 
ATOM      4  O   UNL     1      -2.787  -3.632   1.622  1.00  0.00    -0.268 OA
ATOM      5  H   UNL     1      -4.562  -3.316   3.086  1.00  0.00     0.163 HD
BRANCH   3   6
ATOM      6  C   UNL     1      -1.291  -3.706   3.409  1.00  0.00     0.131 A 
ATOM      7  C   UNL     1      -0.487  -3.253   4.463  1.00  0.00     0.057 A 
ATOM      8  C   UNL     1       0.603  -4.162   4.456  1.00  0.00     0.145 A 
ATOM      9  N   UNL     1       0.571  -5.023   3.448  1.00  0.00    -0.183 NA
ATOM     10  N   UNL     1      -0.494  -4.622   2.749  1.00  0.00    -0.272 N 
ATOM     11  H   UNL     1      -0.695  -4.950   1.843  1.00  0.00     0.190 HD
BRANCH   7  12
ATOM     12  C   UNL     1      -0.602  -2.193   5.516  1.00  0.00     0.303 C 
BRANCH  12  13
ATOM     13  N   UNL     1      -0.158  -0.834   5.159  1.00  0.00    -0.331 N 
ATOM     14  C   UNL     1       1.492   1.216   3.795  1.00  0.00     0.008 C 
ATOM     15  C   UNL     1       1.762   0.790   5.239  1.00  0.00     0.065 C 
ATOM     16  C   UNL     1       0.007   1.025   3.506  1.00  0.00     0.065 C 
ATOM     17  C   UNL     1       1.224  -0.597   5.587  1.00  0.00     0.262 C 
ATOM     18  C   UNL     1      -0.465  -0.395   3.804  1.00  0.00     0.262 C 
ATOM     19  H   UNL     1      -0.748  -0.203   5.702  1.00  0.00     0.348 HD
BRANCH  14  20
ATOM     20  C   UNL     1       2.454   0.636   2.737  1.00  0.00     0.081 C 
BRANCH  20  21
ATOM     21  C   UNL     1       2.525  -0.853   2.470  1.00  0.00     0.133 A 
ATOM     22  N   UNL     1       1.929  -1.494   1.441  1.00  0.00    -0.279 N 
ATOM     23  C   UNL     1       2.326  -2.817   1.553  1.00  0.00     0.345 A 
ATOM     24  N   UNL     1       3.271  -1.616   3.223  1.00  0.00    -0.155 NA
ATOM     25  N   UNL     1       3.150  -2.862   2.671  1.00  0.00    -0.216 N 
ATOM     26  O   UNL     1       2.013  -3.739   0.815  1.00  0.00    -0.246 OA
ATOM     27  C   UNL     1       3.780  -4.031   3.224  1.00  0.00     0.179 C 
BRANCH  22  28
ATOM     28  C   UNL     1       0.944  -1.125   0.430  1.00  0.00     0.125 C 
ATOM     29  C   UNL     1       1.149   0.203  -0.266  1.00  0.00     0.028 C 
ENDBRANCH  22  28
ENDBRANCH  20  21
ENDBRANCH  14  20
ENDBRANCH  12  13
ENDBRANCH   7  12
ENDBRANCH   3   6
ENDBRANCH   1   2
BRANCH   1  30
ATOM     30  C   UNL     1      -3.829  -1.440   5.181  1.00  0.00     0.023 C 
BRANCH  30  31
ATOM     31  C   UNL     1      -5.173  -0.732   5.088  1.00  0.00     0.023 C 
BRANCH  31  32
ATOM     32  C   UNL     1      -6.078  -1.018   6.277  1.00  0.00     0.116 C 
BRANCH  32  33
ATOM     33  N   UNL     1      -5.479  -0.624   7.550  1.00  0.00    -0.352 N 
ATOM     34  C   UNL     1      -5.745  -1.156   8.790  1.00  0.00     0.251 C 
ATOM     35  H   UNL     1      -4.813   0.101   7.516  1.00  0.00     0.163 HD
ATOM     36  O   UNL     1      -5.525  -0.535   9.825  1.00  0.00    -0.269 OA
BRANCH  34  37
ATOM     37  C   UNL     1      -6.291  -2.517   8.841  1.00  0.00     0.039 A 
ATOM     38  C   UNL     1      -7.507  -2.770   9.468  1.00  0.00     0.014 A 
ATOM     39  C   UNL     1      -5.608  -3.516   8.142  1.00  0.00     0.014 A 
ATOM     40  C   UNL     1      -8.079  -4.026   9.311  1.00  0.00     0.010 A 
ATOM     41  C   UNL     1      -6.223  -4.729   7.907  1.00  0.00     0.010 A 
ATOM     42  C   UNL     1      -7.456  -4.994   8.495  1.00  0.00    -0.014 A 
BRANCH  42  43
ATOM     43  C   UNL     1      -8.209  -6.195   8.127  1.00  0.00     0.031 A 
ATOM     44  C   UNL     1      -9.597  -5.915   7.663  1.00  0.00     0.074 A 
ATOM     45  C   UNL     1      -7.712  -7.449   8.058  1.00  0.00     0.049 A 
ATOM     46  N   UNL     1     -10.688  -6.209   8.287  1.00  0.00    -0.248 NA
ATOM     47  C   UNL     1      -9.804  -5.091   6.460  1.00  0.00     0.031 C 
ATOM     48  C   UNL     1      -6.326  -7.894   8.197  1.00  0.00     0.029 A 
ATOM     49  N   UNL     1      -8.367  -8.609   7.762  1.00  0.00    -0.354 N 
ATOM     50  C   UNL     1     -11.730  -5.789   7.471  1.00  0.00     0.074 A 
ATOM     51  C   UNL     1     -11.135  -4.968   6.448  1.00  0.00     0.031 C 
ATOM     52  C   UNL     1      -6.213  -9.168   7.758  1.00  0.00     0.029 A 
ATOM     53  C   UNL     1      -7.537  -9.682   7.456  1.00  0.00     0.049 A 
ATOM     54  H   UNL     1      -9.349  -8.681   7.766  1.00  0.00     0.167 HD
ATOM     55  C   UNL     1     -12.958  -6.369   7.575  1.00  0.00     0.037 A 
ATOM     56  C   UNL     1      -7.909 -10.895   6.968  1.00  0.00     0.037 A 
ATOM     57  C   UNL     1     -13.108  -7.042   8.844  1.00  0.00     0.049 A 
ATOM     58  C   UNL     1      -9.342 -11.088   7.305  1.00  0.00     0.074 A 
ATOM     59  C   UNL     1     -12.960  -6.649  10.164  1.00  0.00     0.029 A 
ATOM     60  N   UNL     1     -13.053  -8.415   8.871  1.00  0.00    -0.354 N 
ATOM     61  N   UNL     1      -9.779 -11.271   8.520  1.00  0.00    -0.248 NA
ATOM     62  C   UNL     1     -10.328 -10.599   6.353  1.00  0.00     0.031 C 
ATOM     63  C   UNL     1     -12.285  -7.737  10.794  1.00  0.00     0.029 A 
ATOM     64  C   UNL     1     -12.160  -8.759   9.855  1.00  0.00     0.049 A 
ATOM     65  H   UNL     1     -13.557  -9.033   8.294  1.00  0.00     0.167 HD
ATOM     66  C   UNL     1     -10.915 -10.484   8.597  1.00  0.00     0.074 A 
ATOM     67  C   UNL     1     -11.252 -10.160   7.211  1.00  0.00     0.031 C 
ATOM     68  C   UNL     1     -11.308  -9.919   9.776  1.00  0.00     0.037 A 
BRANCH  55  69
ATOM     69  C   UNL     1     -13.839  -6.678   6.389  1.00  0.00     0.064 A 
ATOM     70  C   UNL     1     -15.130  -7.199   6.613  1.00  0.00     0.173 A 
ATOM     71  C   UNL     1     -13.359  -6.794   5.066  1.00  0.00     0.173 A 
ATOM     72  F   UNL     1     -15.677  -7.163   7.837  1.00  0.00    -0.203 F 
ATOM     73  C   UNL     1     -15.839  -7.869   5.612  1.00  0.00     0.198 A 
ATOM     74  C   UNL     1     -14.093  -7.414   4.057  1.00  0.00     0.198 A 
ATOM     75  F   UNL     1     -12.121  -6.426   4.719  1.00  0.00    -0.203 F 
ATOM     76  F   UNL     1     -16.997  -8.473   5.910  1.00  0.00    -0.200 F 
ATOM     77  C   UNL     1     -15.316  -7.983   4.338  1.00  0.00     0.200 A 
ATOM     78  F   UNL     1     -13.556  -7.534   2.834  1.00  0.00    -0.200 F 
ATOM     79  F   UNL     1     -15.961  -8.683   3.396  1.00  0.00    -0.200 F 
ENDBRANCH  55  69
BRANCH  56  80
ATOM     80  C   UNL     1      -7.199 -11.771   5.999  1.00  0.00     0.064 A 
ATOM     81  C   UNL     1      -7.642 -13.082   5.745  1.00  0.00     0.173 A 
ATOM     82  C   UNL     1      -6.255 -11.251   5.092  1.00  0.00     0.173 A 
ATOM     83  F   UNL     1      -8.572 -13.647   6.529  1.00  0.00    -0.203 F 
ATOM     84  C   UNL     1      -7.197 -13.809   4.633  1.00  0.00     0.198 A 
ATOM     85  C   UNL     1      -5.807 -11.980   3.989  1.00  0.00     0.198 A 
ATOM     86  F   UNL     1      -5.821  -9.987   5.197  1.00  0.00    -0.203 F 
ATOM     87  F   UNL     1      -7.699 -15.027   4.386  1.00  0.00    -0.200 F 
ATOM     88  C   UNL     1      -6.290 -13.252   3.749  1.00  0.00     0.200 A 
ATOM     89  F   UNL     1      -4.955 -11.413   3.122  1.00  0.00    -0.200 F 
ATOM     90  F   UNL     1      -5.915 -13.919   2.649  1.00  0.00    -0.200 F 
ENDBRANCH  56  80
BRANCH  68  91
ATOM     91  C   UNL     1     -10.658 -10.380  11.052  1.00  0.00     0.064 A 
ATOM     92  C   UNL     1      -9.276 -10.332  11.311  1.00  0.00     0.173 A 
ATOM     93  C   UNL     1     -11.494 -10.767  12.110  1.00  0.00     0.173 A 
ATOM     94  F   UNL     1      -8.412  -9.870  10.397  1.00  0.00    -0.203 F 
ATOM     95  C   UNL     1      -8.760 -10.706  12.552  1.00  0.00     0.198 A 
ATOM     96  C   UNL     1     -10.980 -11.097  13.360  1.00  0.00     0.198 A 
ATOM     97  F   UNL     1     -12.826 -10.783  11.943  1.00  0.00    -0.203 F 
ATOM     98  F   UNL     1      -7.436 -10.672  12.768  1.00  0.00    -0.200 F 
ATOM     99  C   UNL     1      -9.613 -11.082  13.577  1.00  0.00     0.200 A 
ATOM    100  F   UNL     1     -11.814 -11.409  14.361  1.00  0.00    -0.200 F 
ATOM    101  F   UNL     1      -9.120 -11.404  14.781  1.00  0.00    -0.200 F 
ENDBRANCH  68  91
ENDBRANCH  42  43
ENDBRANCH  34  37
ENDBRANCH  32  33
ENDBRANCH  31  32
ENDBRANCH  30  31
ENDBRANCH   1  30
TORSDOF 16
