REMARK SMILES O=C(NCCCCNC(=O)[C@@H]1CN(c2ncccn2)CCN1C(=O)C1CCOCC1)c1ccc(-c2c3nc(c(-c4c(F)c(F)c(F)c(F)c4F)c4ccc([nH]4)c(-c4c(F)c(F)c(F)c(F)c4F)c4nc(c(-c5c(F)c(F)c(F)c(F)c5F)c5ccc2[nH]5)C=C4)C=C3)cc1
REMARK SMILES IDX 5 1 4 2 3 3 1 4 2 5 31 7 32 8 93 9 33 10 92 11 34 12 35 13
REMARK SMILES IDX 36 14 86 15 37 16 91 17 85 18 87 19 38 20 90 21 84 22 83 23
REMARK SMILES IDX 39 25 71 26 51 27 70 28 52 29 55 30 69 31 88 32 53 33 54 34
REMARK SMILES IDX 68 36 89 37 56 38 40 39 41 40 49 41 42 42 43 43 47 44 50 45
REMARK SMILES IDX 44 46 45 47 48 48 46 49 72 50 73 51 81 52 74 53 75 54 79 55
REMARK SMILES IDX 82 56 76 57 77 58 80 59 78 60 57 61 58 62 66 63 59 64 60 65
REMARK SMILES IDX 64 66 67 67 61 68 62 69 65 70 63 71 6 72 7 73 8 74 9 75
REMARK SMILES IDX 10 77 11 78 12 79 22 80 13 81 21 82 20 83 23 84 24 85 25 86
REMARK SMILES IDX 26 87 30 88 27 89 29 90 28 91 14 92 15 93 19 94 16 95 18 96
REMARK SMILES IDX 17 97
REMARK H PARENT 3 6 87 24 55 35 8 76
REMARK Flexibility Score: inf
ROOT
ATOM      1  C   UNL     1       4.168  -1.204   2.755  1.00  0.00     0.023 C 
ENDROOT
BRANCH   1   2
ATOM      2  C   UNL     1       4.038  -1.192   1.228  1.00  0.00     0.116 C 
BRANCH   2   3
ATOM      3  N   UNL     1       2.688  -0.943   0.760  1.00  0.00    -0.352 N 
ATOM      4  O   UNL     1       0.935   0.131  -0.140  1.00  0.00    -0.269 OA
ATOM      5  C   UNL     1       2.149   0.125   0.093  1.00  0.00     0.251 C 
ATOM      6  H   UNL     1       2.050  -1.667   0.954  1.00  0.00     0.163 HD
BRANCH   5   7
ATOM      7  C   UNL     1       2.956   1.295  -0.327  1.00  0.00     0.039 A 
ATOM      8  C   UNL     1       4.147   1.176  -1.051  1.00  0.00     0.014 A 
ATOM      9  C   UNL     1       2.433   2.569  -0.072  1.00  0.00     0.014 A 
ATOM     10  C   UNL     1       4.852   2.326  -1.438  1.00  0.00     0.010 A 
ATOM     11  C   UNL     1       3.116   3.714  -0.494  1.00  0.00     0.010 A 
ATOM     12  C   UNL     1       4.346   3.607  -1.162  1.00  0.00    -0.014 A 
BRANCH  12  13
ATOM     13  C   UNL     1       5.073   4.842  -1.575  1.00  0.00     0.031 A 
ATOM     14  C   UNL     1       5.662   5.764  -0.540  1.00  0.00     0.074 A 
ATOM     15  C   UNL     1       5.161   5.175  -2.877  1.00  0.00     0.049 A 
ATOM     16  N   UNL     1       6.261   6.920  -0.699  1.00  0.00    -0.248 NA
ATOM     17  C   UNL     1       5.553   5.334   0.861  1.00  0.00     0.031 C 
ATOM     18  C   UNL     1       4.620   4.391  -3.985  1.00  0.00     0.029 A 
ATOM     19  N   UNL     1       5.722   6.272  -3.486  1.00  0.00    -0.354 N 
ATOM     20  C   UNL     1       6.588   7.360   0.577  1.00  0.00     0.074 A 
ATOM     21  C   UNL     1       6.092   6.362   1.503  1.00  0.00     0.031 C 
ATOM     22  C   UNL     1       4.877   5.028  -5.139  1.00  0.00     0.029 A 
ATOM     23  C   UNL     1       5.564   6.285  -4.851  1.00  0.00     0.049 A 
ATOM     24  H   UNL     1       6.192   6.982  -2.991  1.00  0.00     0.167 HD
ATOM     25  C   UNL     1       7.249   8.485   0.946  1.00  0.00     0.037 A 
ATOM     26  C   UNL     1       5.913   7.210  -5.766  1.00  0.00     0.037 A 
ATOM     27  C   UNL     1       7.750   9.479   0.031  1.00  0.00     0.049 A 
ATOM     28  C   UNL     1       6.614   8.469  -5.331  1.00  0.00     0.074 A 
ATOM     29  C   UNL     1       8.473  10.626   0.315  1.00  0.00     0.029 A 
ATOM     30  N   UNL     1       7.572   9.453  -1.344  1.00  0.00    -0.354 N 
ATOM     31  N   UNL     1       6.965   8.847  -4.127  1.00  0.00    -0.248 NA
ATOM     32  C   UNL     1       6.969   9.430  -6.386  1.00  0.00     0.031 C 
ATOM     33  C   UNL     1       8.688  11.319  -0.882  1.00  0.00     0.029 A 
ATOM     34  C   UNL     1       8.148  10.576  -1.919  1.00  0.00     0.049 A 
ATOM     35  H   UNL     1       7.105   8.741  -1.839  1.00  0.00     0.167 HD
ATOM     36  C   UNL     1       7.606  10.069  -4.280  1.00  0.00     0.074 A 
ATOM     37  C   UNL     1       7.603  10.368  -5.697  1.00  0.00     0.031 C 
ATOM     38  C   UNL     1       8.151  10.867  -3.330  1.00  0.00     0.037 A 
BRANCH  25  39
ATOM     39  C   UNL     1       7.460   8.714   2.416  1.00  0.00     0.064 A 
ATOM     40  C   UNL     1       8.357   7.934   3.162  1.00  0.00     0.173 A 
ATOM     41  C   UNL     1       6.789   9.754   3.078  1.00  0.00     0.173 A 
ATOM     42  F   UNL     1       9.018   6.922   2.579  1.00  0.00    -0.203 F 
ATOM     43  C   UNL     1       8.548   8.165   4.522  1.00  0.00     0.198 A 
ATOM     44  C   UNL     1       7.006  10.001   4.431  1.00  0.00     0.198 A 
ATOM     45  F   UNL     1       5.929  10.537   2.410  1.00  0.00    -0.203 F 
ATOM     46  F   UNL     1       9.372   7.375   5.225  1.00  0.00    -0.200 F 
ATOM     47  C   UNL     1       7.878   9.202   5.154  1.00  0.00     0.200 A 
ATOM     48  F   UNL     1       6.368  11.013   5.036  1.00  0.00    -0.200 F 
ATOM     49  F   UNL     1       8.067   9.426   6.461  1.00  0.00    -0.200 F 
ENDBRANCH  25  39
BRANCH  26  50
ATOM     50  C   UNL     1       5.606   6.973  -7.201  1.00  0.00     0.064 A 
ATOM     51  C   UNL     1       6.628   6.701  -8.120  1.00  0.00     0.173 A 
ATOM     52  C   UNL     1       4.288   7.007  -7.679  1.00  0.00     0.173 A 
ATOM     53  F   UNL     1       7.906   6.685  -7.714  1.00  0.00    -0.203 F 
ATOM     54  C   UNL     1       6.345   6.480  -9.466  1.00  0.00     0.198 A 
ATOM     55  C   UNL     1       4.003   6.760  -9.020  1.00  0.00     0.198 A 
ATOM     56  F   UNL     1       3.275   7.266  -6.839  1.00  0.00    -0.203 F 
ATOM     57  F   UNL     1       7.344   6.260 -10.331  1.00  0.00    -0.200 F 
ATOM     58  C   UNL     1       5.032   6.502  -9.913  1.00  0.00     0.200 A 
ATOM     59  F   UNL     1       2.733   6.770  -9.446  1.00  0.00    -0.200 F 
ATOM     60  F   UNL     1       4.759   6.280 -11.206  1.00  0.00    -0.200 F 
ENDBRANCH  26  50
BRANCH  38  61
ATOM     61  C   UNL     1       8.832  12.126  -3.786  1.00  0.00     0.064 A 
ATOM     62  C   UNL     1       8.107  13.231  -4.257  1.00  0.00     0.173 A 
ATOM     63  C   UNL     1      10.229  12.244  -3.708  1.00  0.00     0.173 A 
ATOM     64  F   UNL     1       6.771  13.165  -4.365  1.00  0.00    -0.203 F 
ATOM     65  C   UNL     1       8.757  14.398  -4.652  1.00  0.00     0.198 A 
ATOM     66  C   UNL     1      10.872  13.422  -4.078  1.00  0.00     0.198 A 
ATOM     67  F   UNL     1      10.970  11.219  -3.260  1.00  0.00    -0.203 F 
ATOM     68  F   UNL     1       8.047  15.426  -5.138  1.00  0.00    -0.200 F 
ATOM     69  C   UNL     1      10.137  14.496  -4.555  1.00  0.00     0.200 A 
ATOM     70  F   UNL     1      12.205  13.518  -3.971  1.00  0.00    -0.200 F 
ATOM     71  F   UNL     1      10.758  15.623  -4.928  1.00  0.00    -0.200 F 
ENDBRANCH  38  61
ENDBRANCH  12  13
ENDBRANCH   5   7
ENDBRANCH   2   3
ENDBRANCH   1   2
BRANCH   1  72
ATOM     72  C   UNL     1       3.573  -2.420   3.487  1.00  0.00     0.023 C 
BRANCH  72  73
ATOM     73  C   UNL     1       4.240  -3.767   3.195  1.00  0.00     0.116 C 
BRANCH  73  74
ATOM     74  N   UNL     1       5.622  -3.829   3.640  1.00  0.00    -0.354 N 
ATOM     75  C   UNL     1       6.572  -4.779   3.351  1.00  0.00     0.244 C 
ATOM     76  H   UNL     1       5.917  -3.094   4.225  1.00  0.00     0.163 HD
ATOM     77  O   UNL     1       7.677  -4.661   3.882  1.00  0.00    -0.273 OA
BRANCH  75  78
ATOM     78  C   UNL     1       6.176  -6.027   2.550  1.00  0.00     0.193 C 
ATOM     79  C   UNL     1       7.284  -7.060   2.290  1.00  0.00     0.155 C 
ATOM     80  N   UNL     1       5.277  -6.021   1.371  1.00  0.00    -0.327 N 
ATOM     81  N   UNL     1       6.639  -8.379   2.128  1.00  0.00    -0.336 N 
ATOM     82  C   UNL     1       4.526  -7.301   1.327  1.00  0.00     0.142 C 
ATOM     83  C   UNL     1       5.498  -8.518   1.210  1.00  0.00     0.141 C 
BRANCH  80  84
ATOM     84  C   UNL     1       5.423  -5.371   0.161  1.00  0.00     0.226 C 
ATOM     85  O   UNL     1       4.709  -5.728  -0.792  1.00  0.00    -0.275 OA
BRANCH  84  86
ATOM     86  C   UNL     1       6.388  -4.214  -0.164  1.00  0.00     0.083 C 
ATOM     87  C   UNL     1       7.498  -4.682  -1.114  1.00  0.00     0.042 C 
ATOM     88  C   UNL     1       7.012  -3.282   0.858  1.00  0.00     0.042 C 
ATOM     89  C   UNL     1       8.204  -3.470  -1.722  1.00  0.00     0.161 C 
ATOM     90  C   UNL     1       7.706  -2.117   0.160  1.00  0.00     0.161 C 
ATOM     91  O   UNL     1       8.720  -2.606  -0.710  1.00  0.00    -0.381 OA
ENDBRANCH  84  86
ENDBRANCH  80  84
BRANCH  81  92
ATOM     92  C   UNL     1       7.065  -9.437   2.888  1.00  0.00     0.225 A 
ATOM     93  N   UNL     1       6.863 -10.690   2.451  1.00  0.00    -0.221 NA
ATOM     94  N   UNL     1       7.667  -9.168   4.059  1.00  0.00    -0.221 NA
ATOM     95  C   UNL     1       7.346 -11.696   3.209  1.00  0.00     0.117 A 
ATOM     96  C   UNL     1       8.098 -10.203   4.802  1.00  0.00     0.117 A 
ATOM     97  C   UNL     1       7.977 -11.510   4.412  1.00  0.00     0.040 A 
ENDBRANCH  81  92
ENDBRANCH  75  78
ENDBRANCH  73  74
ENDBRANCH  72  73
ENDBRANCH   1  72
TORSDOF 14
