REMARK SMILES CCC[C@](C)(CC(F)(F)F)C(=O)NCCCCNC(=O)c1ccc(-c2c3nc(c(-c4c(F)c(F)c(F)c(F)c4F)c4ccc([nH]4)c(-c4c(F)c(F)c(F)c(F)c4F)c4nc(c(-c5c(F)c(F)c(F)c(F)c5F)c5ccc2[nH]5)C=C4)C=C3)cc1
REMARK SMILES IDX 15 1 14 2 13 3 11 4 12 5 4 7 5 8 3 9 2 10 1 11 6 12 7 13
REMARK SMILES IDX 8 14 9 15 10 16 16 17 17 18 18 19 19 20 20 22 21 23 22 24
REMARK SMILES IDX 83 25 23 26 82 27 24 28 25 29 26 30 76 31 27 32 81 33 75 34
REMARK SMILES IDX 77 35 28 36 80 37 74 38 73 39 29 41 61 42 41 43 60 44 42 45
REMARK SMILES IDX 45 46 59 47 78 48 43 49 44 50 58 52 79 53 46 54 30 55 31 56
REMARK SMILES IDX 39 57 32 58 33 59 37 60 40 61 34 62 35 63 38 64 36 65 62 66
REMARK SMILES IDX 63 67 71 68 64 69 65 70 69 71 72 72 66 73 67 74 70 75 68 76
REMARK SMILES IDX 47 77 48 78 56 79 49 80 50 81 54 82 57 83 51 84 52 85 55 86
REMARK SMILES IDX 53 87
REMARK H PARENT 13 6 18 21 77 40 45 51
REMARK Flexibility Score: inf
ROOT
ATOM      1  C   UNL     1       0.460   2.979   5.228  1.00  0.00     0.023 C 
ENDROOT
BRANCH   1   2
ATOM      2  C   UNL     1      -0.329   2.421   4.044  1.00  0.00     0.116 C 
BRANCH   2   3
ATOM      3  N   UNL     1       0.525   2.130   2.908  1.00  0.00    -0.356 N 
ATOM      4  C   UNL     1       0.924   0.970   2.321  1.00  0.00     0.226 C 
ATOM      5  O   UNL     1       1.626   1.088   1.313  1.00  0.00    -0.274 OA
ATOM      6  H   UNL     1       0.888   2.935   2.474  1.00  0.00     0.163 HD
BRANCH   4   7
ATOM      7  C   UNL     1       0.520  -0.422   2.853  1.00  0.00     0.055 C 
ATOM      8  C   UNL     1       1.213  -1.516   1.998  1.00  0.00     0.022 C 
BRANCH   7   9
ATOM      9  C   UNL     1      -1.023  -0.654   2.781  1.00  0.00     0.017 C 
BRANCH   9  10
ATOM     10  C   UNL     1      -1.809  -0.014   1.622  1.00  0.00    -0.002 C 
ATOM     11  C   UNL     1      -1.507  -0.567   0.240  1.00  0.00     0.004 C 
ENDBRANCH   9  10
ENDBRANCH   7   9
BRANCH   7  12
ATOM     12  C   UNL     1       1.004  -0.619   4.321  1.00  0.00     0.132 C 
BRANCH  12  13
ATOM     13  C   UNL     1       2.490  -0.419   4.571  1.00  0.00     0.390 C 
ATOM     14  F   UNL     1       2.914   0.804   4.204  1.00  0.00    -0.171 F 
ATOM     15  F   UNL     1       2.740  -0.543   5.897  1.00  0.00    -0.171 F 
ATOM     16  F   UNL     1       3.243  -1.340   3.940  1.00  0.00    -0.171 F 
ENDBRANCH  12  13
ENDBRANCH   7  12
ENDBRANCH   4   7
ENDBRANCH   2   3
ENDBRANCH   1   2
BRANCH   1  17
ATOM     17  C   UNL     1       1.027   4.383   5.014  1.00  0.00     0.023 C 
BRANCH  17  18
ATOM     18  C   UNL     1      -0.006   5.460   4.702  1.00  0.00     0.116 C 
BRANCH  18  19
ATOM     19  N   UNL     1      -1.008   5.621   5.745  1.00  0.00    -0.352 N 
ATOM     20  C   UNL     1      -1.584   6.784   6.199  1.00  0.00     0.251 C 
ATOM     21  H   UNL     1      -1.311   4.792   6.182  1.00  0.00     0.163 HD
ATOM     22  O   UNL     1      -2.348   6.775   7.159  1.00  0.00    -0.269 OA
BRANCH  20  23
ATOM     23  C   UNL     1      -1.242   8.057   5.534  1.00  0.00     0.039 A 
ATOM     24  C   UNL     1      -0.783   9.126   6.307  1.00  0.00     0.014 A 
ATOM     25  C   UNL     1      -1.326   8.168   4.144  1.00  0.00     0.014 A 
ATOM     26  C   UNL     1      -0.334  10.289   5.678  1.00  0.00     0.010 A 
ATOM     27  C   UNL     1      -0.821   9.300   3.517  1.00  0.00     0.010 A 
ATOM     28  C   UNL     1      -0.315  10.368   4.277  1.00  0.00    -0.014 A 
BRANCH  28  29
ATOM     29  C   UNL     1       0.207  11.557   3.561  1.00  0.00     0.031 A 
ATOM     30  C   UNL     1      -0.725  12.372   2.712  1.00  0.00     0.074 A 
ATOM     31  C   UNL     1       1.525  11.834   3.581  1.00  0.00     0.049 A 
ATOM     32  N   UNL     1      -0.453  13.313   1.845  1.00  0.00    -0.248 NA
ATOM     33  C   UNL     1      -2.158  12.057   2.829  1.00  0.00     0.031 C 
ATOM     34  C   UNL     1       2.534  11.102   4.347  1.00  0.00     0.029 A 
ATOM     35  N   UNL     1       2.245  12.793   2.912  1.00  0.00    -0.354 N 
ATOM     36  C   UNL     1      -1.672  13.673   1.288  1.00  0.00     0.074 A 
ATOM     37  C   UNL     1      -2.682  12.830   1.890  1.00  0.00     0.031 C 
ATOM     38  C   UNL     1       3.742  11.639   4.108  1.00  0.00     0.029 A 
ATOM     39  C   UNL     1       3.599  12.722   3.138  1.00  0.00     0.049 A 
ATOM     40  H   UNL     1       1.831  13.467   2.326  1.00  0.00     0.167 HD
ATOM     41  C   UNL     1      -1.925  14.632   0.366  1.00  0.00     0.037 A 
ATOM     42  C   UNL     1       4.609  13.436   2.605  1.00  0.00     0.037 A 
ATOM     43  C   UNL     1      -0.923  15.497  -0.195  1.00  0.00     0.049 A 
ATOM     44  C   UNL     1       4.299  14.505   1.591  1.00  0.00     0.074 A 
ATOM     45  C   UNL     1      -1.084  16.533  -1.096  1.00  0.00     0.029 A 
ATOM     46  N   UNL     1       0.430  15.429   0.103  1.00  0.00    -0.354 N 
ATOM     47  N   UNL     1       3.140  14.862   1.096  1.00  0.00    -0.248 NA
ATOM     48  C   UNL     1       5.438  15.270   1.063  1.00  0.00     0.031 C 
ATOM     49  C   UNL     1       0.176  17.076  -1.366  1.00  0.00     0.029 A 
ATOM     50  C   UNL     1       1.116  16.403  -0.602  1.00  0.00     0.049 A 
ATOM     51  H   UNL     1       0.842  14.784   0.724  1.00  0.00     0.167 HD
ATOM     52  C   UNL     1       3.403  15.914   0.229  1.00  0.00     0.074 A 
ATOM     53  C   UNL     1       4.832  16.138   0.264  1.00  0.00     0.031 C 
ATOM     54  C   UNL     1       2.536  16.632  -0.525  1.00  0.00     0.037 A 
BRANCH  41  55
ATOM     55  C   UNL     1      -3.343  14.794  -0.093  1.00  0.00     0.064 A 
ATOM     56  C   UNL     1      -4.330  15.335   0.744  1.00  0.00     0.173 A 
ATOM     57  C   UNL     1      -3.714  14.429  -1.396  1.00  0.00     0.173 A 
ATOM     58  F   UNL     1      -4.028  15.686   2.004  1.00  0.00    -0.203 F 
ATOM     59  C   UNL     1      -5.642  15.480   0.303  1.00  0.00     0.198 A 
ATOM     60  C   UNL     1      -5.021  14.602  -1.843  1.00  0.00     0.198 A 
ATOM     61  F   UNL     1      -2.808  13.911  -2.237  1.00  0.00    -0.203 F 
ATOM     62  F   UNL     1      -6.579  15.954   1.137  1.00  0.00    -0.200 F 
ATOM     63  C   UNL     1      -5.985  15.120  -0.991  1.00  0.00     0.200 A 
ATOM     64  F   UNL     1      -5.349  14.264  -3.098  1.00  0.00    -0.200 F 
ATOM     65  F   UNL     1      -7.248  15.264  -1.415  1.00  0.00    -0.200 F 
ENDBRANCH  41  55
BRANCH  42  66
ATOM     66  C   UNL     1       6.008  13.176   3.032  1.00  0.00     0.064 A 
ATOM     67  C   UNL     1       6.697  14.102   3.827  1.00  0.00     0.173 A 
ATOM     68  C   UNL     1       6.684  12.006   2.656  1.00  0.00     0.173 A 
ATOM     69  F   UNL     1       6.098  15.245   4.192  1.00  0.00    -0.203 F 
ATOM     70  C   UNL     1       8.015  13.877   4.216  1.00  0.00     0.198 A 
ATOM     71  C   UNL     1       7.994  11.770   3.067  1.00  0.00     0.198 A 
ATOM     72  F   UNL     1       6.067  11.087   1.900  1.00  0.00    -0.203 F 
ATOM     73  F   UNL     1       8.664  14.798   4.941  1.00  0.00    -0.200 F 
ATOM     74  C   UNL     1       8.661  12.709   3.840  1.00  0.00     0.200 A 
ATOM     75  F   UNL     1       8.612  10.635   2.712  1.00  0.00    -0.200 F 
ATOM     76  F   UNL     1       9.929  12.491   4.217  1.00  0.00    -0.200 F 
ENDBRANCH  42  66
BRANCH  54  77
ATOM     77  C   UNL     1       3.090  17.771  -1.326  1.00  0.00     0.064 A 
ATOM     78  C   UNL     1       3.797  17.558  -2.517  1.00  0.00     0.173 A 
ATOM     79  C   UNL     1       2.834  19.094  -0.935  1.00  0.00     0.173 A 
ATOM     80  F   UNL     1       4.076  16.310  -2.922  1.00  0.00    -0.203 F 
ATOM     81  C   UNL     1       4.236  18.632  -3.286  1.00  0.00     0.198 A 
ATOM     82  C   UNL     1       3.255  20.164  -1.718  1.00  0.00     0.198 A 
ATOM     83  F   UNL     1       2.156  19.346   0.194  1.00  0.00    -0.203 F 
ATOM     84  F   UNL     1       4.931  18.409  -4.410  1.00  0.00    -0.200 F 
ATOM     85  C   UNL     1       3.956  19.933  -2.892  1.00  0.00     0.200 A 
ATOM     86  F   UNL     1       2.973  21.419  -1.342  1.00  0.00    -0.200 F 
ATOM     87  F   UNL     1       4.365  20.964  -3.643  1.00  0.00    -0.200 F 
ENDBRANCH  54  77
ENDBRANCH  28  29
ENDBRANCH  20  23
ENDBRANCH  18  19
ENDBRANCH  17  18
ENDBRANCH   1  17
TORSDOF 15
