REMARK SMILES Cc1cccc(N2C(=O)/C(=C/c3ccc(C(=O)NCCCCNC(=O)c4ccc(-c5c6nc(c(-c7c(F)c(F)c(F)c(F)c7F)c7ccc([nH]7)c(-c7c(F)c(F)c(F)c(F)c7F)c7nc(c(-c8c(F)c(F)c(F)c(F)c8F)c8ccc5[nH]8)C=C7)C=C6)cc4)cc3)c3ccccc3C2=O)c1
REMARK SMILES IDX 20 1 19 2 18 3 16 4 17 5 15 7 12 8 13 9 90 10 14 11 89 12
REMARK SMILES IDX 11 13 7 14 8 15 97 16 9 17 10 18 96 19 98 20 91 21 95 22
REMARK SMILES IDX 92 23 94 24 93 25 6 26 1 27 2 28 3 29 99 30 4 31 5 32 21 33
REMARK SMILES IDX 22 34 23 35 24 36 25 38 26 39 27 40 88 41 28 42 87 43 29 44
REMARK SMILES IDX 30 45 31 46 81 47 32 48 86 49 80 50 82 51 33 52 85 53 79 54
REMARK SMILES IDX 78 55 34 57 66 58 46 59 65 60 47 61 50 62 64 63 83 64 48 65
REMARK SMILES IDX 49 66 63 68 84 69 51 70 35 71 36 72 44 73 37 74 38 75 42 76
REMARK SMILES IDX 45 77 39 78 40 79 43 80 41 81 67 82 68 83 76 84 69 85 70 86
REMARK SMILES IDX 74 87 77 88 71 89 72 90 75 91 73 92 52 93 53 94 61 95 54 96
REMARK SMILES IDX 55 97 59 98 62 99 56 100 57 101 60 102 58 103
REMARK H PARENT 18 6 23 37 82 56 50 67
REMARK Flexibility Score: inf
ROOT
ATOM      1  C   UNL     1      -5.409  10.657   2.438  1.00  0.00     0.023 C 
ENDROOT
BRANCH   1   2
ATOM      2  C   UNL     1      -5.708  10.290   0.979  1.00  0.00     0.116 C 
BRANCH   2   3
ATOM      3  N   UNL     1      -5.165  11.231   0.008  1.00  0.00    -0.352 N 
ATOM      4  C   UNL     1      -4.191  11.075  -0.951  1.00  0.00     0.251 C 
ATOM      5  O   UNL     1      -3.826  12.042  -1.613  1.00  0.00    -0.269 OA
ATOM      6  H   UNL     1      -5.562  12.131   0.044  1.00  0.00     0.163 HD
BRANCH   4   7
ATOM      7  C   UNL     1      -3.537   9.765  -1.154  1.00  0.00     0.039 A 
ATOM      8  C   UNL     1      -2.245   7.292  -1.184  1.00  0.00    -0.025 A 
ATOM      9  C   UNL     1      -1.495   8.473  -1.141  1.00  0.00     0.009 A 
ATOM     10  C   UNL     1      -3.633   7.364  -1.368  1.00  0.00     0.009 A 
ATOM     11  C   UNL     1      -2.140   9.710  -1.127  1.00  0.00     0.014 A 
ATOM     12  C   UNL     1      -4.279   8.600  -1.357  1.00  0.00     0.014 A 
BRANCH   8  13
ATOM     13  C   UNL     1      -1.566   6.007  -0.984  1.00  0.00     0.022 C 
ATOM     14  N   UNL     1      -1.731   2.650   0.307  1.00  0.00    -0.242 N 
ATOM     15  C   UNL     1      -1.051   3.806  -0.130  1.00  0.00     0.265 C 
ATOM     16  C   UNL     1      -3.066   2.716   0.764  1.00  0.00     0.265 C 
ATOM     17  O   UNL     1       0.063   3.852  -0.652  1.00  0.00    -0.268 OA
ATOM     18  C   UNL     1      -1.830   5.091  -0.023  1.00  0.00     0.049 C 
ATOM     19  C   UNL     1      -3.522   4.004   1.340  1.00  0.00     0.048 A 
ATOM     20  O   UNL     1      -3.903   1.817   0.768  1.00  0.00    -0.268 OA
ATOM     21  C   UNL     1      -2.861   5.183   1.014  1.00  0.00    -0.000 A 
ATOM     22  C   UNL     1      -4.604   4.018   2.235  1.00  0.00     0.014 A 
ATOM     23  C   UNL     1      -3.219   6.362   1.687  1.00  0.00     0.010 A 
ATOM     24  C   UNL     1      -4.997   5.208   2.845  1.00  0.00     0.001 A 
ATOM     25  C   UNL     1      -4.289   6.377   2.586  1.00  0.00     0.001 A 
BRANCH  14  26
ATOM     26  C   UNL     1      -1.072   1.349   0.177  1.00  0.00     0.053 A 
ATOM     27  C   UNL     1       2.494  -0.080   0.019  1.00  0.00     0.044 C 
ATOM     28  C   UNL     1       0.995  -0.004   0.042  1.00  0.00    -0.049 A 
ATOM     29  C   UNL     1       0.241  -1.171  -0.060  1.00  0.00     0.003 A 
ATOM     30  C   UNL     1       0.334   1.232   0.180  1.00  0.00     0.030 A 
ATOM     31  C   UNL     1      -1.144  -1.097  -0.040  1.00  0.00     0.002 A 
ATOM     32  C   UNL     1      -1.786   0.144   0.073  1.00  0.00     0.027 A 
ENDBRANCH  14  26
ENDBRANCH   8  13
ENDBRANCH   4   7
ENDBRANCH   2   3
ENDBRANCH   1   2
BRANCH   1  33
ATOM     33  C   UNL     1      -5.888  12.034   2.898  1.00  0.00     0.023 C 
BRANCH  33  34
ATOM     34  C   UNL     1      -7.397  12.246   2.865  1.00  0.00     0.116 C 
BRANCH  34  35
ATOM     35  N   UNL     1      -8.104  11.853   4.077  1.00  0.00    -0.352 N 
ATOM     36  C   UNL     1      -9.470  11.843   4.340  1.00  0.00     0.251 C 
ATOM     37  H   UNL     1      -7.531  11.550   4.818  1.00  0.00     0.163 HD
ATOM     38  O   UNL     1      -9.883  11.530   5.436  1.00  0.00    -0.269 OA
BRANCH  36  39
ATOM     39  C   UNL     1     -10.426  12.089   3.226  1.00  0.00     0.039 A 
ATOM     40  C   UNL     1     -11.504  11.206   3.077  1.00  0.00     0.014 A 
ATOM     41  C   UNL     1     -10.161  13.035   2.241  1.00  0.00     0.014 A 
ATOM     42  C   UNL     1     -12.129  11.095   1.837  1.00  0.00     0.010 A 
ATOM     43  C   UNL     1     -10.703  12.857   0.984  1.00  0.00     0.010 A 
ATOM     44  C   UNL     1     -11.627  11.831   0.765  1.00  0.00    -0.014 A 
BRANCH  44  45
ATOM     45  C   UNL     1     -11.889  11.499  -0.630  1.00  0.00     0.031 A 
ATOM     46  C   UNL     1     -12.748  12.360  -1.467  1.00  0.00     0.074 A 
ATOM     47  C   UNL     1     -11.234  10.451  -1.178  1.00  0.00     0.049 A 
ATOM     48  N   UNL     1     -13.264  11.993  -2.591  1.00  0.00    -0.248 NA
ATOM     49  C   UNL     1     -13.168  13.694  -1.055  1.00  0.00     0.031 C 
ATOM     50  C   UNL     1     -11.084  10.136  -2.596  1.00  0.00     0.029 A 
ATOM     51  N   UNL     1     -10.724   9.319  -0.515  1.00  0.00    -0.354 N 
ATOM     52  C   UNL     1     -13.830  13.102  -3.180  1.00  0.00     0.074 A 
ATOM     53  C   UNL     1     -13.863  14.086  -2.128  1.00  0.00     0.031 C 
ATOM     54  C   UNL     1     -10.814   8.827  -2.723  1.00  0.00     0.029 A 
ATOM     55  C   UNL     1     -10.940   8.238  -1.401  1.00  0.00     0.049 A 
ATOM     56  H   UNL     1     -10.305   9.287   0.376  1.00  0.00     0.167 HD
ATOM     57  C   UNL     1     -14.067  13.075  -4.524  1.00  0.00     0.037 A 
ATOM     58  C   UNL     1     -11.782   7.213  -1.084  1.00  0.00     0.037 A 
ATOM     59  C   UNL     1     -13.937  11.707  -5.039  1.00  0.00     0.049 A 
ATOM     60  C   UNL     1     -12.916   7.021  -2.063  1.00  0.00     0.074 A 
ATOM     61  C   UNL     1     -12.959  11.056  -5.773  1.00  0.00     0.029 A 
ATOM     62  N   UNL     1     -14.800  10.718  -4.570  1.00  0.00    -0.354 N 
ATOM     63  N   UNL     1     -13.315   7.939  -2.899  1.00  0.00    -0.248 NA
ATOM     64  C   UNL     1     -13.715   5.802  -2.147  1.00  0.00     0.031 C 
ATOM     65  C   UNL     1     -13.197   9.660  -5.676  1.00  0.00     0.029 A 
ATOM     66  C   UNL     1     -14.336   9.464  -4.914  1.00  0.00     0.049 A 
ATOM     67  H   UNL     1     -15.626  10.890  -4.063  1.00  0.00     0.167 HD
ATOM     68  C   UNL     1     -14.401   7.480  -3.597  1.00  0.00     0.074 A 
ATOM     69  C   UNL     1     -14.600   6.129  -3.106  1.00  0.00     0.031 C 
ATOM     70  C   UNL     1     -15.053   8.263  -4.506  1.00  0.00     0.037 A 
BRANCH  57  71
ATOM     71  C   UNL     1     -14.181  14.289  -5.442  1.00  0.00     0.064 A 
ATOM     72  C   UNL     1     -14.166  14.119  -6.849  1.00  0.00     0.173 A 
ATOM     73  C   UNL     1     -14.187  15.640  -5.036  1.00  0.00     0.173 A 
ATOM     74  F   UNL     1     -14.213  12.901  -7.406  1.00  0.00    -0.203 F 
ATOM     75  C   UNL     1     -14.088  15.193  -7.747  1.00  0.00     0.198 A 
ATOM     76  C   UNL     1     -14.126  16.713  -5.933  1.00  0.00     0.198 A 
ATOM     77  F   UNL     1     -14.242  16.008  -3.757  1.00  0.00    -0.203 F 
ATOM     78  F   UNL     1     -14.026  14.955  -9.065  1.00  0.00    -0.200 F 
ATOM     79  C   UNL     1     -14.057  16.491  -7.288  1.00  0.00     0.200 A 
ATOM     80  F   UNL     1     -14.115  17.968  -5.459  1.00  0.00    -0.200 F 
ATOM     81  F   UNL     1     -13.966  17.520  -8.140  1.00  0.00    -0.200 F 
ENDBRANCH  57  71
BRANCH  58  82
ATOM     82  C   UNL     1     -11.866   6.950   0.377  1.00  0.00     0.064 A 
ATOM     83  C   UNL     1     -10.697   6.550   1.053  1.00  0.00     0.173 A 
ATOM     84  C   UNL     1     -12.926   7.436   1.150  1.00  0.00     0.173 A 
ATOM     85  F   UNL     1      -9.647   6.083   0.356  1.00  0.00    -0.203 F 
ATOM     86  C   UNL     1     -10.551   6.740   2.424  1.00  0.00     0.198 A 
ATOM     87  C   UNL     1     -12.781   7.611   2.529  1.00  0.00     0.198 A 
ATOM     88  F   UNL     1     -14.057   7.855   0.565  1.00  0.00    -0.203 F 
ATOM     89  F   UNL     1      -9.380   6.460   3.017  1.00  0.00    -0.200 F 
ATOM     90  C   UNL     1     -11.585   7.296   3.157  1.00  0.00     0.200 A 
ATOM     91  F   UNL     1     -13.768   8.182   3.234  1.00  0.00    -0.200 F 
ATOM     92  F   UNL     1     -11.413   7.573   4.457  1.00  0.00    -0.200 F 
ENDBRANCH  58  82
BRANCH  70  93
ATOM     93  C   UNL     1     -16.379   7.946  -5.154  1.00  0.00     0.064 A 
ATOM     94  C   UNL     1     -17.386   7.178  -4.546  1.00  0.00     0.173 A 
ATOM     95  C   UNL     1     -16.734   8.551  -6.384  1.00  0.00     0.173 A 
ATOM     96  F   UNL     1     -17.220   6.650  -3.326  1.00  0.00    -0.203 F 
ATOM     97  C   UNL     1     -18.631   6.977  -5.152  1.00  0.00     0.198 A 
ATOM     98  C   UNL     1     -17.996   8.395  -6.957  1.00  0.00     0.198 A 
ATOM     99  F   UNL     1     -15.874   9.332  -7.053  1.00  0.00    -0.203 F 
ATOM    100  F   UNL     1     -19.544   6.201  -4.549  1.00  0.00    -0.200 F 
ATOM    101  C   UNL     1     -18.939   7.594  -6.349  1.00  0.00     0.200 A 
ATOM    102  F   UNL     1     -18.297   9.043  -8.091  1.00  0.00    -0.200 F 
ATOM    103  F   UNL     1     -20.149   7.437  -6.902  1.00  0.00    -0.200 F 
ENDBRANCH  70  93
ENDBRANCH  44  45
ENDBRANCH  36  39
ENDBRANCH  34  35
ENDBRANCH  33  34
ENDBRANCH   1  33
TORSDOF 13
