REMARK SMILES O=C(NCCCCNC(=O)[C@@H]1[C@@H](C(=O)N2CCN(c3cccc(Cl)c3)CC2)[C@H]2CC[C@@H]1O2)c1ccc(-c2c3nc(c(-c4c(F)c(F)c(F)c(F)c4F)c4ccc([nH]4)c(-c4c(F)c(F)c(F)c(F)c4F)c4nc(c(-c5c(F)c(F)c(F)c(F)c5F)c5ccc2[nH]5)C=C4)C=C3)cc1
REMARK SMILES IDX 5 1 4 2 3 3 1 4 2 5 33 7 34 8 95 9 35 10 94 11 36 12 37 13
REMARK SMILES IDX 38 14 88 15 39 16 93 17 87 18 89 19 40 20 92 21 86 22 85 23
REMARK SMILES IDX 41 25 73 26 53 27 72 28 54 29 57 30 71 31 90 32 55 33 56 34
REMARK SMILES IDX 70 36 91 37 58 38 42 39 43 40 51 41 44 42 45 43 49 44 52 45
REMARK SMILES IDX 46 46 47 47 50 48 48 49 74 50 75 51 83 52 76 53 77 54 81 55
REMARK SMILES IDX 84 56 78 57 79 58 82 59 80 60 59 61 60 62 68 63 61 64 62 65
REMARK SMILES IDX 66 66 69 67 63 68 64 69 67 70 65 71 6 72 7 73 8 74 9 75
REMARK SMILES IDX 10 77 11 78 12 79 31 80 28 81 30 82 32 83 29 84 13 85 14 86
REMARK SMILES IDX 15 87 16 88 27 89 17 90 26 91 18 92 19 93 20 94 25 95 21 96
REMARK SMILES IDX 23 97 22 98 24 99
REMARK H PARENT 3 6 89 24 57 35 8 76
REMARK Flexibility Score: inf
ROOT
ATOM      1  C   UNL     1       5.120   0.147  -2.242  1.00  0.00     0.023 C 
ENDROOT
BRANCH   1   2
ATOM      2  C   UNL     1       4.605   0.632  -0.909  1.00  0.00     0.116 C 
BRANCH   2   3
ATOM      3  N   UNL     1       3.152   0.583  -0.797  1.00  0.00    -0.352 N 
ATOM      4  O   UNL     1       1.153  -0.096   0.018  1.00  0.00    -0.269 OA
ATOM      5  C   UNL     1       2.373  -0.064   0.138  1.00  0.00     0.251 C 
ATOM      6  H   UNL     1       2.657   1.082  -1.486  1.00  0.00     0.163 HD
BRANCH   5   7
ATOM      7  C   UNL     1       3.033  -0.755   1.265  1.00  0.00     0.039 A 
ATOM      8  C   UNL     1       4.112  -0.152   1.905  1.00  0.00     0.014 A 
ATOM      9  C   UNL     1       2.633  -2.044   1.626  1.00  0.00     0.014 A 
ATOM     10  C   UNL     1       4.938  -0.918   2.707  1.00  0.00     0.010 A 
ATOM     11  C   UNL     1       3.380  -2.762   2.567  1.00  0.00     0.010 A 
ATOM     12  C   UNL     1       4.569  -2.222   3.078  1.00  0.00    -0.014 A 
BRANCH  12  13
ATOM     13  C   UNL     1       5.436  -2.937   4.051  1.00  0.00     0.031 A 
ATOM     14  C   UNL     1       6.118  -4.232   3.707  1.00  0.00     0.074 A 
ATOM     15  C   UNL     1       5.679  -2.334   5.232  1.00  0.00     0.049 A 
ATOM     16  N   UNL     1       6.958  -4.931   4.430  1.00  0.00    -0.248 NA
ATOM     17  C   UNL     1       5.817  -4.831   2.399  1.00  0.00     0.031 C 
ATOM     18  C   UNL     1       5.053  -1.084   5.678  1.00  0.00     0.029 A 
ATOM     19  N   UNL     1       6.548  -2.644   6.244  1.00  0.00    -0.354 N 
ATOM     20  C   UNL     1       7.260  -6.062   3.683  1.00  0.00     0.074 A 
ATOM     21  C   UNL     1       6.503  -5.966   2.452  1.00  0.00     0.031 C 
ATOM     22  C   UNL     1       5.631  -0.682   6.815  1.00  0.00     0.029 A 
ATOM     23  C   UNL     1       6.596  -1.690   7.231  1.00  0.00     0.049 A 
ATOM     24  H   UNL     1       7.084  -3.470   6.262  1.00  0.00     0.167 HD
ATOM     25  C   UNL     1       8.094  -7.082   3.998  1.00  0.00     0.037 A 
ATOM     26  C   UNL     1       7.326  -1.635   8.359  1.00  0.00     0.037 A 
ATOM     27  C   UNL     1       8.863  -7.155   5.216  1.00  0.00     0.049 A 
ATOM     28  C   UNL     1       8.266  -2.761   8.661  1.00  0.00     0.074 A 
ATOM     29  C   UNL     1       9.730  -8.150   5.634  1.00  0.00     0.029 A 
ATOM     30  N   UNL     1       8.866  -6.183   6.207  1.00  0.00    -0.354 N 
ATOM     31  N   UNL     1       8.521  -3.833   7.952  1.00  0.00    -0.248 NA
ATOM     32  C   UNL     1       9.008  -2.679   9.924  1.00  0.00     0.031 C 
ATOM     33  C   UNL     1      10.237  -7.794   6.889  1.00  0.00     0.029 A 
ATOM     34  C   UNL     1       9.716  -6.558   7.236  1.00  0.00     0.049 A 
ATOM     35  H   UNL     1       8.342  -5.351   6.183  1.00  0.00     0.167 HD
ATOM     36  C   UNL     1       9.442  -4.562   8.687  1.00  0.00     0.074 A 
ATOM     37  C   UNL     1       9.736  -3.785   9.875  1.00  0.00     0.031 C 
ATOM     38  C   UNL     1       9.981  -5.775   8.414  1.00  0.00     0.037 A 
BRANCH  25  39
ATOM     39  C   UNL     1       8.213  -8.218   3.023  1.00  0.00     0.064 A 
ATOM     40  C   UNL     1       8.920  -8.085   1.820  1.00  0.00     0.173 A 
ATOM     41  C   UNL     1       7.666  -9.475   3.326  1.00  0.00     0.173 A 
ATOM     42  F   UNL     1       9.451  -6.902   1.477  1.00  0.00    -0.203 F 
ATOM     43  C   UNL     1       9.065  -9.164   0.950  1.00  0.00     0.198 A 
ATOM     44  C   UNL     1       7.833 -10.558   2.466  1.00  0.00     0.198 A 
ATOM     45  F   UNL     1       6.984  -9.658   4.467  1.00  0.00    -0.203 F 
ATOM     46  F   UNL     1       9.720  -9.005  -0.209  1.00  0.00    -0.200 F 
ATOM     47  C   UNL     1       8.529 -10.401   1.278  1.00  0.00     0.200 A 
ATOM     48  F   UNL     1       7.323 -11.755   2.790  1.00  0.00    -0.200 F 
ATOM     49  F   UNL     1       8.680 -11.441   0.445  1.00  0.00    -0.200 F 
ENDBRANCH  25  39
BRANCH  26  50
ATOM     50  C   UNL     1       7.168  -0.481   9.280  1.00  0.00     0.064 A 
ATOM     51  C   UNL     1       8.200   0.450   9.460  1.00  0.00     0.173 A 
ATOM     52  C   UNL     1       5.966  -0.267   9.971  1.00  0.00     0.173 A 
ATOM     53  F   UNL     1       9.373   0.280   8.833  1.00  0.00    -0.203 F 
ATOM     54  C   UNL     1       8.037   1.545  10.306  1.00  0.00     0.198 A 
ATOM     55  C   UNL     1       5.793   0.846  10.788  1.00  0.00     0.198 A 
ATOM     56  F   UNL     1       4.945  -1.124   9.823  1.00  0.00    -0.203 F 
ATOM     57  F   UNL     1       9.051   2.402  10.489  1.00  0.00    -0.200 F 
ATOM     58  C   UNL     1       6.831   1.748  10.961  1.00  0.00     0.200 A 
ATOM     59  F   UNL     1       4.618   1.049  11.399  1.00  0.00    -0.200 F 
ATOM     60  F   UNL     1       6.670   2.811  11.760  1.00  0.00    -0.200 F 
ENDBRANCH  26  50
BRANCH  38  61
ATOM     61  C   UNL     1      10.936  -6.324   9.430  1.00  0.00     0.064 A 
ATOM     62  C   UNL     1      10.483  -6.814  10.664  1.00  0.00     0.173 A 
ATOM     63  C   UNL     1      12.313  -6.356   9.170  1.00  0.00     0.173 A 
ATOM     64  F   UNL     1       9.175  -6.784  10.963  1.00  0.00    -0.203 F 
ATOM     65  C   UNL     1      11.380  -7.286  11.616  1.00  0.00     0.198 A 
ATOM     66  C   UNL     1      13.205  -6.854  10.115  1.00  0.00     0.198 A 
ATOM     67  F   UNL     1      12.793  -5.901   8.003  1.00  0.00    -0.203 F 
ATOM     68  F   UNL     1      10.932  -7.697  12.810  1.00  0.00    -0.200 F 
ATOM     69  C   UNL     1      12.739  -7.309  11.340  1.00  0.00     0.200 A 
ATOM     70  F   UNL     1      14.518  -6.881   9.847  1.00  0.00    -0.200 F 
ATOM     71  F   UNL     1      13.603  -7.758  12.261  1.00  0.00    -0.200 F 
ENDBRANCH  38  61
ENDBRANCH  12  13
ENDBRANCH   5   7
ENDBRANCH   2   3
ENDBRANCH   1   2
BRANCH   1  72
ATOM     72  C   UNL     1       4.643   0.955  -3.431  1.00  0.00     0.023 C 
BRANCH  72  73
ATOM     73  C   UNL     1       5.018   2.438  -3.451  1.00  0.00     0.116 C 
BRANCH  73  74
ATOM     74  N   UNL     1       6.425   2.578  -3.756  1.00  0.00    -0.356 N 
ATOM     75  C   UNL     1       7.051   2.827  -4.939  1.00  0.00     0.226 C 
ATOM     76  H   UNL     1       7.027   2.478  -2.983  1.00  0.00     0.163 HD
ATOM     77  O   UNL     1       8.235   2.490  -4.997  1.00  0.00    -0.275 OA
BRANCH  75  78
ATOM     78  C   UNL     1       6.335   3.542  -6.088  1.00  0.00     0.122 C 
ATOM     79  C   UNL     1       6.405   2.763  -7.419  1.00  0.00     0.122 C 
ATOM     80  C   UNL     1       7.205   4.775  -6.416  1.00  0.00     0.132 C 
ATOM     81  C   UNL     1       7.244   3.705  -8.304  1.00  0.00     0.132 C 
ATOM     82  C   UNL     1       6.465   5.738  -7.340  1.00  0.00     0.035 C 
ATOM     83  O   UNL     1       8.186   4.219  -7.331  1.00  0.00    -0.373 OA
ATOM     84  C   UNL     1       6.591   5.034  -8.689  1.00  0.00     0.035 C 
BRANCH  79  85
ATOM     85  C   UNL     1       5.082   2.390  -8.095  1.00  0.00     0.229 C 
ATOM     86  O   UNL     1       4.386   3.168  -8.735  1.00  0.00    -0.274 OA
ATOM     87  N   UNL     1       4.722   1.060  -7.957  1.00  0.00    -0.339 N 
ATOM     88  C   UNL     1       4.146   0.326  -9.087  1.00  0.00     0.141 C 
ATOM     89  C   UNL     1       4.148   0.669  -6.688  1.00  0.00     0.141 C 
ATOM     90  C   UNL     1       4.242  -1.209  -8.878  1.00  0.00     0.138 C 
ATOM     91  C   UNL     1       4.289  -0.832  -6.424  1.00  0.00     0.138 C 
ATOM     92  N   UNL     1       3.710  -1.576  -7.552  1.00  0.00    -0.368 N 
BRANCH  92  93
ATOM     93  C   UNL     1       3.230  -2.845  -7.275  1.00  0.00     0.038 A 
ATOM     94  C   UNL     1       2.146  -2.991  -6.391  1.00  0.00     0.026 A 
ATOM     95  C   UNL     1       3.779  -4.005  -7.829  1.00  0.00     0.046 A 
ATOM     96  C   UNL     1       1.620  -4.245  -6.072  1.00  0.00     0.004 A 
ATOM     97  C   UNL     1       3.262  -5.263  -7.500  1.00  0.00     0.043 A 
ATOM     98  C   UNL     1       2.183  -5.388  -6.628  1.00  0.00     0.020 A 
ATOM     99  Cl  UNL     1       3.974  -6.679  -8.172  1.00  0.00    -0.084 Cl
ENDBRANCH  92  93
ENDBRANCH  79  85
ENDBRANCH  75  78
ENDBRANCH  73  74
ENDBRANCH  72  73
ENDBRANCH   1  72
TORSDOF 13
