REMARK SMILES O=C(NCCCCNC(=O)[C@H]1[NH2+][C@@H]2CC[C@H]1CC2(F)F)c1ccc(-c2c3nc(c(-c4c(F)c(F)c(F)c(F)c4F)c4ccc([nH]4)c(-c4c(F)c(F)c(F)c(F)c4F)c4nc(c(-c5c(F)c(F)c(F)c(F)c5F)c5ccc2[nH]5)C=C4)C=C3)cc1
REMARK SMILES IDX 4 1 3 2 1 3 2 4 21 6 22 7 83 8 23 9 82 10 24 11 25 12 26 13
REMARK SMILES IDX 76 14 27 15 81 16 75 17 77 18 28 19 80 20 74 21 73 22 29 24
REMARK SMILES IDX 61 25 41 26 60 27 42 28 45 29 59 30 78 31 43 32 44 33 58 35
REMARK SMILES IDX 79 36 46 37 30 38 31 39 39 40 32 41 33 42 37 43 40 44 34 45
REMARK SMILES IDX 35 46 38 47 36 48 62 49 63 50 71 51 64 52 65 53 69 54 72 55
REMARK SMILES IDX 66 56 67 57 70 58 68 59 47 60 48 61 56 62 49 63 50 64 54 65
REMARK SMILES IDX 57 66 51 67 52 68 55 69 53 70 5 71 6 72 7 73 8 74 9 75 10 77
REMARK SMILES IDX 11 78 12 79 16 80 13 81 15 84 17 85 14 86 18 87 19 88 20 89
REMARK H PARENT 3 5 77 23 45 34 8 76 12 82 12 83
REMARK Flexibility Score: inf
ROOT
ATOM      1  C   UNL     1      11.958  -0.312  -6.809  1.00  0.00     0.116 C 
ENDROOT
BRANCH   1   2
ATOM      2  N   UNL     1      12.438   0.398  -5.634  1.00  0.00    -0.352 N 
ATOM      3  O   UNL     1      13.902   1.556  -4.365  1.00  0.00    -0.269 OA
ATOM      4  C   UNL     1      13.600   1.115  -5.469  1.00  0.00     0.251 C 
ATOM      5  H   UNL     1      11.849   0.359  -4.846  1.00  0.00     0.163 HD
BRANCH   4   6
ATOM      6  C   UNL     1      14.505   1.324  -6.620  1.00  0.00     0.039 A 
ATOM      7  C   UNL     1      14.002   1.715  -7.862  1.00  0.00     0.014 A 
ATOM      8  C   UNL     1      15.876   1.112  -6.452  1.00  0.00     0.014 A 
ATOM      9  C   UNL     1      14.846   1.748  -8.967  1.00  0.00     0.010 A 
ATOM     10  C   UNL     1      16.736   1.226  -7.548  1.00  0.00     0.010 A 
ATOM     11  C   UNL     1      16.222   1.508  -8.823  1.00  0.00    -0.014 A 
BRANCH  11  12
ATOM     12  C   UNL     1      17.103   1.598 -10.015  1.00  0.00     0.031 A 
ATOM     13  C   UNL     1      17.810   0.386 -10.554  1.00  0.00     0.074 A 
ATOM     14  C   UNL     1      17.228   2.785 -10.637  1.00  0.00     0.049 A 
ATOM     15  N   UNL     1      18.577   0.280 -11.611  1.00  0.00    -0.248 NA
ATOM     16  C   UNL     1      17.642  -0.871  -9.810  1.00  0.00     0.031 C 
ATOM     17  C   UNL     1      16.600   4.033 -10.199  1.00  0.00     0.029 A 
ATOM     18  N   UNL     1      17.901   3.135 -11.780  1.00  0.00    -0.354 N 
ATOM     19  C   UNL     1      18.998  -1.043 -11.648  1.00  0.00     0.074 A 
ATOM     20  C   UNL     1      18.421  -1.699 -10.493  1.00  0.00     0.031 C 
ATOM     21  C   UNL     1      16.870   4.997 -11.090  1.00  0.00     0.029 A 
ATOM     22  C   UNL     1      17.735   4.452 -12.130  1.00  0.00     0.049 A 
ATOM     23  H   UNL     1      18.449   2.503 -12.298  1.00  0.00     0.167 HD
ATOM     24  C   UNL     1      19.786  -1.653 -12.566  1.00  0.00     0.037 A 
ATOM     25  C   UNL     1      18.229   5.146 -13.171  1.00  0.00     0.037 A 
ATOM     26  C   UNL     1      20.340  -1.001 -13.726  1.00  0.00     0.049 A 
ATOM     27  C   UNL     1      19.110   4.446 -14.165  1.00  0.00     0.074 A 
ATOM     28  C   UNL     1      21.114  -1.545 -14.736  1.00  0.00     0.029 A 
ATOM     29  N   UNL     1      20.179   0.343 -14.028  1.00  0.00    -0.354 N 
ATOM     30  N   UNL     1      19.469   3.187 -14.207  1.00  0.00    -0.248 NA
ATOM     31  C   UNL     1      19.656   5.266 -15.254  1.00  0.00     0.031 C 
ATOM     32  C   UNL     1      21.457  -0.521 -15.626  1.00  0.00     0.029 A 
ATOM     33  C   UNL     1      20.859   0.651 -15.196  1.00  0.00     0.049 A 
ATOM     34  H   UNL     1      19.658   0.984 -13.492  1.00  0.00     0.167 HD
ATOM     35  C   UNL     1      20.270   3.058 -15.332  1.00  0.00     0.074 A 
ATOM     36  C   UNL     1      20.326   4.364 -15.956  1.00  0.00     0.031 C 
ATOM     37  C   UNL     1      20.905   1.957 -15.803  1.00  0.00     0.037 A 
BRANCH  24  38
ATOM     38  C   UNL     1      20.114  -3.103 -12.349  1.00  0.00     0.064 A 
ATOM     39  C   UNL     1      19.158  -4.112 -12.534  1.00  0.00     0.173 A 
ATOM     40  C   UNL     1      21.416  -3.490 -11.994  1.00  0.00     0.173 A 
ATOM     41  F   UNL     1      17.897  -3.795 -12.863  1.00  0.00    -0.203 F 
ATOM     42  C   UNL     1      19.487  -5.453 -12.350  1.00  0.00     0.198 A 
ATOM     43  C   UNL     1      21.748  -4.833 -11.836  1.00  0.00     0.198 A 
ATOM     44  F   UNL     1      22.370  -2.565 -11.811  1.00  0.00    -0.203 F 
ATOM     45  F   UNL     1      18.547  -6.398 -12.492  1.00  0.00    -0.200 F 
ATOM     46  C   UNL     1      20.782  -5.813 -12.007  1.00  0.00     0.200 A 
ATOM     47  F   UNL     1      23.003  -5.179 -11.516  1.00  0.00    -0.200 F 
ATOM     48  F   UNL     1      21.098  -7.104 -11.836  1.00  0.00    -0.200 F 
ENDBRANCH  24  38
BRANCH  25  49
ATOM     49  C   UNL     1      17.886   6.582 -13.326  1.00  0.00     0.064 A 
ATOM     50  C   UNL     1      17.047   7.013 -14.361  1.00  0.00     0.173 A 
ATOM     51  C   UNL     1      18.372   7.547 -12.432  1.00  0.00     0.173 A 
ATOM     52  F   UNL     1      16.574   6.129 -15.252  1.00  0.00    -0.203 F 
ATOM     53  C   UNL     1      16.715   8.358 -14.504  1.00  0.00     0.198 A 
ATOM     54  C   UNL     1      18.017   8.888 -12.558  1.00  0.00     0.198 A 
ATOM     55  F   UNL     1      19.174   7.183 -11.421  1.00  0.00    -0.203 F 
ATOM     56  F   UNL     1      15.939   8.750 -15.523  1.00  0.00    -0.200 F 
ATOM     57  C   UNL     1      17.193   9.293 -13.598  1.00  0.00     0.200 A 
ATOM     58  F   UNL     1      18.468   9.785 -11.671  1.00  0.00    -0.200 F 
ATOM     59  F   UNL     1      16.865  10.585 -13.729  1.00  0.00    -0.200 F 
ENDBRANCH  25  49
BRANCH  37  60
ATOM     60  C   UNL     1      21.694   2.119 -17.068  1.00  0.00     0.064 A 
ATOM     61  C   UNL     1      22.916   2.808 -17.087  1.00  0.00     0.173 A 
ATOM     62  C   UNL     1      21.231   1.566 -18.271  1.00  0.00     0.173 A 
ATOM     63  F   UNL     1      23.391   3.370 -15.966  1.00  0.00    -0.203 F 
ATOM     64  C   UNL     1      23.631   2.961 -18.272  1.00  0.00     0.198 A 
ATOM     65  C   UNL     1      21.962   1.698 -19.448  1.00  0.00     0.198 A 
ATOM     66  F   UNL     1      20.070   0.894 -18.303  1.00  0.00    -0.203 F 
ATOM     67  F   UNL     1      24.771   3.666 -18.278  1.00  0.00    -0.200 F 
ATOM     68  C   UNL     1      23.157   2.402 -19.449  1.00  0.00     0.200 A 
ATOM     69  F   UNL     1      21.507   1.149 -20.583  1.00  0.00    -0.200 F 
ATOM     70  F   UNL     1      23.846   2.551 -20.588  1.00  0.00    -0.200 F 
ENDBRANCH  37  60
ENDBRANCH  11  12
ENDBRANCH   4   6
ENDBRANCH   1   2
BRANCH   1  71
ATOM     71  C   UNL     1      11.463  -1.720  -6.502  1.00  0.00     0.023 C 
BRANCH  71  72
ATOM     72  C   UNL     1      10.291  -1.810  -5.523  1.00  0.00     0.023 C 
BRANCH  72  73
ATOM     73  C   UNL     1       9.088  -0.939  -5.875  1.00  0.00     0.116 C 
BRANCH  73  74
ATOM     74  N   UNL     1       8.538  -1.271  -7.176  1.00  0.00    -0.351 N 
ATOM     75  C   UNL     1       7.318  -1.762  -7.524  1.00  0.00     0.278 C 
ATOM     76  H   UNL     1       9.150  -1.116  -7.932  1.00  0.00     0.163 HD
ATOM     77  O   UNL     1       7.069  -1.869  -8.728  1.00  0.00    -0.268 OA
BRANCH  75  78
ATOM     78  C   UNL     1       6.269  -2.125  -6.457  1.00  0.00     0.276 C 
ATOM     79  N   UNL     1       5.017  -1.351  -6.707  1.00  0.00    -0.328 N 
ATOM     80  C   UNL     1       5.987  -3.648  -6.393  1.00  0.00     0.064 C 
ATOM     81  C   UNL     1       3.841  -2.266  -6.652  1.00  0.00     0.253 C 
ATOM     82  H   UNL     1       5.066  -0.916  -7.629  1.00  0.00     0.347 HD
ATOM     83  H   UNL     1       4.918  -0.630  -5.993  1.00  0.00     0.347 HD
ATOM     84  C   UNL     1       5.082  -3.877  -5.165  1.00  0.00     0.017 C 
ATOM     85  C   UNL     1       5.209  -4.135  -7.639  1.00  0.00     0.094 C 
ATOM     86  C   UNL     1       3.840  -2.980  -5.287  1.00  0.00     0.072 C 
ATOM     87  C   UNL     1       3.917  -3.330  -7.773  1.00  0.00     0.298 C 
ATOM     88  F   UNL     1       2.846  -4.159  -7.705  1.00  0.00    -0.200 F 
ATOM     89  F   UNL     1       3.865  -2.729  -8.987  1.00  0.00    -0.200 F 
ENDBRANCH  75  78
ENDBRANCH  73  74
ENDBRANCH  72  73
ENDBRANCH  71  72
ENDBRANCH   1  71
TORSDOF 11
