REMARK SMILES O=C(NCCCCNC(=O)c1nn(-c2ccc([N+](=O)[O-])cc2)cc1CCO)c1ccc(-c2c3nc(c(-c4c(F)c(F)c(F)c(F)c4F)c4ccc([nH]4)c(-c4c(F)c(F)c(F)c(F)c4F)c4nc(c(-c5c(F)c(F)c(F)c(F)c5F)c5ccc2[nH]5)C=C4)C=C3)cc1
REMARK SMILES IDX 6 1 5 2 4 3 3 4 1 5 2 6 28 8 29 9 90 10 30 11 89 12 31 13
REMARK SMILES IDX 32 14 33 15 83 16 34 17 88 18 82 19 84 20 35 21 87 22 81 23
REMARK SMILES IDX 80 24 36 26 68 27 48 28 67 29 49 30 52 31 66 32 85 33 50 34
REMARK SMILES IDX 51 35 65 37 86 38 53 39 37 40 38 41 46 42 39 43 40 44 44 45
REMARK SMILES IDX 47 46 41 47 42 48 45 49 43 50 69 51 70 52 78 53 71 54 72 55
REMARK SMILES IDX 76 56 79 57 73 58 74 59 77 60 75 61 54 62 55 63 63 64 56 65
REMARK SMILES IDX 57 66 61 67 64 68 58 69 59 70 62 71 60 72 7 73 8 74 9 75
REMARK SMILES IDX 10 77 11 78 12 79 24 80 13 81 23 82 25 83 26 84 27 85 14 87
REMARK SMILES IDX 15 88 22 89 16 90 21 91 17 92 18 93 19 94 20 95
REMARK H PARENT 3 7 84 25 52 36 8 76 27 86
REMARK Flexibility Score: inf
ROOT
ATOM      1  C   UNL     1       4.477   2.260  -2.846  1.00  0.00     0.023 C 
ENDROOT
BRANCH   1   2
ATOM      2  C   UNL     1       4.973   1.045  -2.052  1.00  0.00     0.023 C 
BRANCH   2   3
ATOM      3  C   UNL     1       4.683   1.081  -0.552  1.00  0.00     0.116 C 
BRANCH   3   4
ATOM      4  N   UNL     1       3.280   1.202  -0.221  1.00  0.00    -0.352 N 
ATOM      5  O   UNL     1       1.235   0.793   0.493  1.00  0.00    -0.269 OA
ATOM      6  C   UNL     1       2.272   0.315   0.026  1.00  0.00     0.251 C 
ATOM      7  H   UNL     1       2.985   2.139  -0.159  1.00  0.00     0.163 HD
BRANCH   6   8
ATOM      8  C   UNL     1       2.301  -1.137  -0.300  1.00  0.00     0.039 A 
ATOM      9  C   UNL     1       3.405  -1.855  -0.762  1.00  0.00     0.014 A 
ATOM     10  C   UNL     1       1.064  -1.802  -0.189  1.00  0.00     0.014 A 
ATOM     11  C   UNL     1       3.253  -3.164  -1.209  1.00  0.00     0.010 A 
ATOM     12  C   UNL     1       0.907  -3.109  -0.626  1.00  0.00     0.010 A 
ATOM     13  C   UNL     1       1.995  -3.771  -1.183  1.00  0.00    -0.014 A 
BRANCH  13  14
ATOM     14  C   UNL     1       1.881  -5.161  -1.612  1.00  0.00     0.031 A 
ATOM     15  C   UNL     1       2.608  -6.128  -0.736  1.00  0.00     0.074 A 
ATOM     16  C   UNL     1       1.072  -5.551  -2.619  1.00  0.00     0.049 A 
ATOM     17  N   UNL     1       3.534  -6.969  -1.063  1.00  0.00    -0.248 NA
ATOM     18  C   UNL     1       2.349  -6.065   0.714  1.00  0.00     0.031 C 
ATOM     19  C   UNL     1       0.107  -4.741  -3.369  1.00  0.00     0.029 A 
ATOM     20  N   UNL     1       0.875  -6.798  -3.132  1.00  0.00    -0.354 N 
ATOM     21  C   UNL     1       3.860  -7.661   0.105  1.00  0.00     0.074 A 
ATOM     22  C   UNL     1       3.207  -6.970   1.183  1.00  0.00     0.031 C 
ATOM     23  C   UNL     1      -0.722  -5.556  -4.062  1.00  0.00     0.029 A 
ATOM     24  C   UNL     1      -0.268  -6.927  -3.914  1.00  0.00     0.049 A 
ATOM     25  H   UNL     1       1.491  -7.547  -2.962  1.00  0.00     0.167 HD
ATOM     26  C   UNL     1       4.463  -8.881   0.059  1.00  0.00     0.037 A 
ATOM     27  C   UNL     1      -0.829  -8.087  -4.346  1.00  0.00     0.037 A 
ATOM     28  C   UNL     1       5.133  -9.078  -1.199  1.00  0.00     0.049 A 
ATOM     29  C   UNL     1       0.207  -9.146  -4.249  1.00  0.00     0.074 A 
ATOM     30  C   UNL     1       6.177  -8.452  -1.853  1.00  0.00     0.029 A 
ATOM     31  N   UNL     1       4.510  -9.844  -2.152  1.00  0.00    -0.354 N 
ATOM     32  N   UNL     1       1.276  -9.181  -4.994  1.00  0.00    -0.248 NA
ATOM     33  C   UNL     1       0.283  -9.891  -3.002  1.00  0.00     0.031 C 
ATOM     34  C   UNL     1       5.812  -8.475  -3.232  1.00  0.00     0.029 A 
ATOM     35  C   UNL     1       4.608  -9.170  -3.340  1.00  0.00     0.049 A 
ATOM     36  H   UNL     1       4.074 -10.715  -2.008  1.00  0.00     0.167 HD
ATOM     37  C   UNL     1       2.288  -9.573  -4.131  1.00  0.00     0.074 A 
ATOM     38  C   UNL     1       1.606 -10.058  -2.933  1.00  0.00     0.031 C 
ATOM     39  C   UNL     1       3.582  -9.200  -4.352  1.00  0.00     0.037 A 
BRANCH  26  40
ATOM     40  C   UNL     1       4.111 -10.040   0.970  1.00  0.00     0.064 A 
ATOM     41  C   UNL     1       4.802 -11.261   0.813  1.00  0.00     0.173 A 
ATOM     42  C   UNL     1       2.927 -10.113   1.735  1.00  0.00     0.173 A 
ATOM     43  F   UNL     1       5.947 -11.316   0.115  1.00  0.00    -0.203 F 
ATOM     44  C   UNL     1       4.280 -12.473   1.273  1.00  0.00     0.198 A 
ATOM     45  C   UNL     1       2.434 -11.318   2.234  1.00  0.00     0.198 A 
ATOM     46  F   UNL     1       2.139  -9.054   1.944  1.00  0.00    -0.203 F 
ATOM     47  F   UNL     1       4.898 -13.621   0.968  1.00  0.00    -0.200 F 
ATOM     48  C   UNL     1       3.087 -12.502   1.968  1.00  0.00     0.200 A 
ATOM     49  F   UNL     1       1.270 -11.326   2.899  1.00  0.00    -0.200 F 
ATOM     50  F   UNL     1       2.542 -13.667   2.340  1.00  0.00    -0.200 F 
ENDBRANCH  26  40
BRANCH  27  51
ATOM     51  C   UNL     1      -2.272  -8.413  -4.480  1.00  0.00     0.064 A 
ATOM     52  C   UNL     1      -2.708  -9.527  -5.218  1.00  0.00     0.173 A 
ATOM     53  C   UNL     1      -3.233  -7.803  -3.648  1.00  0.00     0.173 A 
ATOM     54  F   UNL     1      -1.846 -10.202  -5.992  1.00  0.00    -0.203 F 
ATOM     55  C   UNL     1      -4.020 -10.009  -5.118  1.00  0.00     0.198 A 
ATOM     56  C   UNL     1      -4.541  -8.282  -3.552  1.00  0.00     0.198 A 
ATOM     57  F   UNL     1      -2.894  -6.792  -2.837  1.00  0.00    -0.203 F 
ATOM     58  F   UNL     1      -4.383 -11.108  -5.793  1.00  0.00    -0.200 F 
ATOM     59  C   UNL     1      -4.932  -9.391  -4.278  1.00  0.00     0.200 A 
ATOM     60  F   UNL     1      -5.400  -7.700  -2.703  1.00  0.00    -0.200 F 
ATOM     61  F   UNL     1      -6.169  -9.887  -4.135  1.00  0.00    -0.200 F 
ENDBRANCH  27  51
BRANCH  39  62
ATOM     62  C   UNL     1       3.916  -8.559  -5.668  1.00  0.00     0.064 A 
ATOM     63  C   UNL     1       3.413  -7.314  -6.085  1.00  0.00     0.173 A 
ATOM     64  C   UNL     1       4.910  -9.151  -6.457  1.00  0.00     0.173 A 
ATOM     65  F   UNL     1       2.534  -6.638  -5.334  1.00  0.00    -0.203 F 
ATOM     66  C   UNL     1       3.862  -6.710  -7.258  1.00  0.00     0.198 A 
ATOM     67  C   UNL     1       5.383  -8.529  -7.609  1.00  0.00     0.198 A 
ATOM     68  F   UNL     1       5.465 -10.312  -6.077  1.00  0.00    -0.203 F 
ATOM     69  F   UNL     1       3.367  -5.522  -7.636  1.00  0.00    -0.200 F 
ATOM     70  C   UNL     1       4.854  -7.314  -8.013  1.00  0.00     0.200 A 
ATOM     71  F   UNL     1       6.378  -9.092  -8.307  1.00  0.00    -0.200 F 
ATOM     72  F   UNL     1       5.322  -6.711  -9.114  1.00  0.00    -0.200 F 
ENDBRANCH  39  62
ENDBRANCH  13  14
ENDBRANCH   6   8
ENDBRANCH   3   4
ENDBRANCH   2   3
ENDBRANCH   1   2
BRANCH   1  73
ATOM     73  C   UNL     1       4.830   3.631  -2.266  1.00  0.00     0.116 C 
BRANCH  73  74
ATOM     74  N   UNL     1       6.261   3.813  -2.082  1.00  0.00    -0.351 N 
ATOM     75  C   UNL     1       7.080   4.793  -2.603  1.00  0.00     0.272 C 
ATOM     76  H   UNL     1       6.705   3.147  -1.509  1.00  0.00     0.163 HD
ATOM     77  O   UNL     1       8.283   4.756  -2.385  1.00  0.00    -0.267 OA
BRANCH  75  78
ATOM     78  C   UNL     1       6.481   5.812  -3.469  1.00  0.00     0.153 A 
ATOM     79  N   UNL     1       5.531   6.651  -3.021  1.00  0.00    -0.162 NA
ATOM     80  C   UNL     1       6.811   6.080  -4.828  1.00  0.00     0.006 A 
ATOM     81  N   UNL     1       5.098   7.296  -4.122  1.00  0.00    -0.240 N 
ATOM     82  C   UNL     1       5.837   6.972  -5.233  1.00  0.00     0.119 A 
BRANCH  80  83
ATOM     83  C   UNL     1       7.902   5.477  -5.658  1.00  0.00     0.068 C 
BRANCH  83  84
ATOM     84  C   UNL     1       9.286   6.072  -5.374  1.00  0.00     0.161 C 
BRANCH  84  85
ATOM     85  O   UNL     1       9.990   5.349  -4.372  1.00  0.00    -0.396 OA
ATOM     86  H   UNL     1       9.493   5.381  -3.540  1.00  0.00     0.210 HD
ENDBRANCH  84  85
ENDBRANCH  83  84
ENDBRANCH  80  83
BRANCH  81  87
ATOM     87  C   UNL     1       3.968   8.141  -4.051  1.00  0.00     0.065 A 
ATOM     88  C   UNL     1       3.796   8.955  -2.922  1.00  0.00     0.035 A 
ATOM     89  C   UNL     1       3.015   8.131  -5.078  1.00  0.00     0.035 A 
ATOM     90  C   UNL     1       2.682   9.792  -2.832  1.00  0.00     0.088 A 
ATOM     91  C   UNL     1       1.869   8.923  -4.960  1.00  0.00     0.088 A 
ATOM     92  C   UNL     1       1.714   9.761  -3.845  1.00  0.00     0.269 A 
BRANCH  92  93
ATOM     93  N   UNL     1       0.522  10.611  -3.735  1.00  0.00     0.062 N 
ATOM     94  O   UNL     1       0.486  11.437  -2.812  1.00  0.00    -0.258 OA
ATOM     95  O   UNL     1      -0.377  10.453  -4.574  1.00  0.00    -0.258 OA
ENDBRANCH  92  93
ENDBRANCH  81  87
ENDBRANCH  75  78
ENDBRANCH  73  74
ENDBRANCH   1  73
TORSDOF 16
