REMARK SMILES O=C(Cn1cc(C(=O)C(F)(F)F)c2ccccc21)NCCCCNC(=O)c1ccc(-c2c3nc(c(-c4c(F)c(F)c(F)c(F)c4F)c4ccc([nH]4)c(-c4c(F)c(F)c(F)c(F)c4F)c4nc(c(-c5c(F)c(F)c(F)c(F)c5F)c5ccc2[nH]5)C=C4)C=C3)cc1
REMARK SMILES IDX 21 1 20 2 19 3 1 4 2 5 3 7 4 8 5 9 18 10 6 11 13 12 17 13
REMARK SMILES IDX 14 14 16 15 15 16 7 17 8 18 9 19 10 20 11 21 12 22 22 23
REMARK SMILES IDX 23 24 24 25 25 26 26 28 27 29 28 30 89 31 29 32 88 33 30 34
REMARK SMILES IDX 31 35 32 36 82 37 33 38 87 39 81 40 83 41 34 42 86 43 80 44
REMARK SMILES IDX 79 45 35 47 67 48 47 49 66 50 48 51 51 52 65 53 84 54 49 55
REMARK SMILES IDX 50 56 64 58 85 59 52 60 36 61 37 62 45 63 38 64 39 65 43 66
REMARK SMILES IDX 46 67 40 68 41 69 44 70 42 71 68 72 69 73 77 74 70 75 71 76
REMARK SMILES IDX 75 77 78 78 72 79 73 80 76 81 74 82 53 83 54 84 62 85 55 86
REMARK SMILES IDX 56 87 60 88 63 89 57 90 58 91 61 92 59 93
REMARK H PARENT 19 6 24 27 83 46 51 57
REMARK Flexibility Score: inf
ROOT
ATOM      1  C   UNL     1       2.562   3.714  -0.274  1.00  0.00     0.023 C 
ENDROOT
BRANCH   1   2
ATOM      2  C   UNL     1       2.087   2.386  -0.861  1.00  0.00     0.116 C 
BRANCH   2   3
ATOM      3  N   UNL     1       2.745   1.252  -0.242  1.00  0.00    -0.355 N 
ATOM      4  O   UNL     1       0.962  -0.184  -0.409  1.00  0.00    -0.273 OA
ATOM      5  C   UNL     1       2.129   0.017  -0.117  1.00  0.00     0.239 C 
ATOM      6  H   UNL     1       3.661   1.364   0.102  1.00  0.00     0.163 HD
BRANCH   5   7
ATOM      7  C   UNL     1       3.042  -1.078   0.414  1.00  0.00     0.222 C 
BRANCH   7   8
ATOM      8  N   UNL     1       3.820  -1.708  -0.648  1.00  0.00    -0.337 N 
ATOM      9  C   UNL     1       4.704  -1.037  -1.457  1.00  0.00     0.099 A 
ATOM     10  C   UNL     1       3.845  -3.053  -0.954  1.00  0.00     0.049 A 
ATOM     11  C   UNL     1       5.232  -1.917  -2.382  1.00  0.00     0.053 A 
ATOM     12  C   UNL     1       4.709  -3.208  -2.046  1.00  0.00     0.011 A 
ATOM     13  C   UNL     1       3.182  -4.149  -0.374  1.00  0.00     0.027 A 
ATOM     14  C   UNL     1       4.898  -4.503  -2.578  1.00  0.00     0.011 A 
ATOM     15  C   UNL     1       3.402  -5.420  -0.913  1.00  0.00     0.002 A 
ATOM     16  C   UNL     1       4.246  -5.597  -2.002  1.00  0.00     0.001 A 
BRANCH  11  17
ATOM     17  C   UNL     1       6.158  -1.568  -3.470  1.00  0.00     0.268 C 
ATOM     18  O   UNL     1       6.621  -2.440  -4.210  1.00  0.00    -0.284 OA
BRANCH  17  19
ATOM     19  C   UNL     1       6.519  -0.091  -3.638  1.00  0.00     0.454 C 
ATOM     20  F   UNL     1       5.423   0.702  -3.833  1.00  0.00    -0.163 F 
ATOM     21  F   UNL     1       7.146   0.423  -2.536  1.00  0.00    -0.163 F 
ATOM     22  F   UNL     1       7.351   0.154  -4.689  1.00  0.00    -0.163 F 
ENDBRANCH  17  19
ENDBRANCH  11  17
ENDBRANCH   7   8
ENDBRANCH   5   7
ENDBRANCH   2   3
ENDBRANCH   1   2
BRANCH   1  23
ATOM     23  C   UNL     1       4.058   4.022  -0.446  1.00  0.00     0.023 C 
BRANCH  23  24
ATOM     24  C   UNL     1       4.563   4.010  -1.889  1.00  0.00     0.116 C 
BRANCH  24  25
ATOM     25  N   UNL     1       3.885   4.953  -2.752  1.00  0.00    -0.352 N 
ATOM     26  C   UNL     1       4.102   6.249  -3.128  1.00  0.00     0.251 C 
ATOM     27  H   UNL     1       3.078   4.571  -3.165  1.00  0.00     0.163 HD
ATOM     28  O   UNL     1       3.386   6.670  -4.040  1.00  0.00    -0.269 OA
BRANCH  26  29
ATOM     29  C   UNL     1       5.056   7.192  -2.482  1.00  0.00     0.039 A 
ATOM     30  C   UNL     1       5.953   6.883  -1.460  1.00  0.00     0.014 A 
ATOM     31  C   UNL     1       4.959   8.533  -2.907  1.00  0.00     0.014 A 
ATOM     32  C   UNL     1       6.636   7.899  -0.795  1.00  0.00     0.010 A 
ATOM     33  C   UNL     1       5.649   9.548  -2.259  1.00  0.00     0.010 A 
ATOM     34  C   UNL     1       6.436   9.234  -1.158  1.00  0.00    -0.014 A 
BRANCH  34  35
ATOM     35  C   UNL     1       7.130  10.270  -0.398  1.00  0.00     0.031 A 
ATOM     36  C   UNL     1       8.620  10.193  -0.437  1.00  0.00     0.074 A 
ATOM     37  C   UNL     1       6.484  11.289   0.205  1.00  0.00     0.049 A 
ATOM     38  N   UNL     1       9.441  10.081   0.557  1.00  0.00    -0.248 NA
ATOM     39  C   UNL     1       9.269  10.133  -1.757  1.00  0.00     0.031 C 
ATOM     40  C   UNL     1       5.065  11.647   0.123  1.00  0.00     0.029 A 
ATOM     41  N   UNL     1       7.000  12.293   0.967  1.00  0.00    -0.354 N 
ATOM     42  C   UNL     1      10.722  10.092   0.005  1.00  0.00     0.074 A 
ATOM     43  C   UNL     1      10.554  10.006  -1.423  1.00  0.00     0.031 C 
ATOM     44  C   UNL     1       4.891  12.901   0.598  1.00  0.00     0.029 A 
ATOM     45  C   UNL     1       6.152  13.380   1.135  1.00  0.00     0.049 A 
ATOM     46  H   UNL     1       7.899  12.252   1.366  1.00  0.00     0.167 HD
ATOM     47  C   UNL     1      11.826  10.358   0.756  1.00  0.00     0.037 A 
ATOM     48  C   UNL     1       6.500  14.607   1.602  1.00  0.00     0.037 A 
ATOM     49  C   UNL     1      11.579  10.145   2.156  1.00  0.00     0.049 A 
ATOM     50  C   UNL     1       7.762  14.441   2.372  1.00  0.00     0.074 A 
ATOM     51  C   UNL     1      11.217   9.046   2.912  1.00  0.00     0.029 A 
ATOM     52  N   UNL     1      11.347  11.234   2.959  1.00  0.00    -0.354 N 
ATOM     53  N   UNL     1       7.844  13.781   3.495  1.00  0.00    -0.248 NA
ATOM     54  C   UNL     1       9.013  14.602   1.643  1.00  0.00     0.031 C 
ATOM     55  C   UNL     1      10.312   9.557   3.886  1.00  0.00     0.029 A 
ATOM     56  C   UNL     1      10.234  10.937   3.703  1.00  0.00     0.049 A 
ATOM     57  H   UNL     1      11.875  12.064   2.994  1.00  0.00     0.167 HD
ATOM     58  C   UNL     1       9.042  13.089   3.408  1.00  0.00     0.074 A 
ATOM     59  C   UNL     1       9.746  13.680   2.271  1.00  0.00     0.031 C 
ATOM     60  C   UNL     1       9.238  11.914   4.072  1.00  0.00     0.037 A 
BRANCH  47  61
ATOM     61  C   UNL     1      13.029  11.117   0.258  1.00  0.00     0.064 A 
ATOM     62  C   UNL     1      14.183  11.202   1.063  1.00  0.00     0.173 A 
ATOM     63  C   UNL     1      12.981  12.011  -0.833  1.00  0.00     0.173 A 
ATOM     64  F   UNL     1      14.323  10.415   2.141  1.00  0.00    -0.203 F 
ATOM     65  C   UNL     1      15.174  12.160   0.834  1.00  0.00     0.198 A 
ATOM     66  C   UNL     1      13.995  12.931  -1.089  1.00  0.00     0.198 A 
ATOM     67  F   UNL     1      11.904  12.108  -1.623  1.00  0.00    -0.203 F 
ATOM     68  F   UNL     1      16.190  12.286   1.698  1.00  0.00    -0.200 F 
ATOM     69  C   UNL     1      15.076  13.028  -0.238  1.00  0.00     0.200 A 
ATOM     70  F   UNL     1      13.872  13.777  -2.121  1.00  0.00    -0.200 F 
ATOM     71  F   UNL     1      15.991  13.988  -0.423  1.00  0.00    -0.200 F 
ENDBRANCH  47  61
BRANCH  48  72
ATOM     72  C   UNL     1       6.040  15.927   1.089  1.00  0.00     0.064 A 
ATOM     73  C   UNL     1       6.322  17.117   1.783  1.00  0.00     0.173 A 
ATOM     74  C   UNL     1       5.553  16.079  -0.226  1.00  0.00     0.173 A 
ATOM     75  F   UNL     1       6.838  17.070   3.020  1.00  0.00    -0.203 F 
ATOM     76  C   UNL     1       6.148  18.375   1.190  1.00  0.00     0.198 A 
ATOM     77  C   UNL     1       5.371  17.333  -0.811  1.00  0.00     0.198 A 
ATOM     78  F   UNL     1       5.332  15.015  -1.009  1.00  0.00    -0.203 F 
ATOM     79  F   UNL     1       6.487  19.484   1.862  1.00  0.00    -0.200 F 
ATOM     80  C   UNL     1       5.680  18.481  -0.109  1.00  0.00     0.200 A 
ATOM     81  F   UNL     1       4.953  17.417  -2.083  1.00  0.00    -0.200 F 
ATOM     82  F   UNL     1       5.569  19.680  -0.697  1.00  0.00    -0.200 F 
ENDBRANCH  48  72
BRANCH  60  83
ATOM     83  C   UNL     1       8.207  11.463   5.068  1.00  0.00     0.064 A 
ATOM     84  C   UNL     1       6.887  11.127   4.721  1.00  0.00     0.173 A 
ATOM     85  C   UNL     1       8.632  11.147   6.366  1.00  0.00     0.173 A 
ATOM     86  F   UNL     1       6.435  11.305   3.474  1.00  0.00    -0.203 F 
ATOM     87  C   UNL     1       6.031  10.518   5.637  1.00  0.00     0.198 A 
ATOM     88  C   UNL     1       7.786  10.506   7.267  1.00  0.00     0.198 A 
ATOM     89  F   UNL     1       9.899  11.392   6.735  1.00  0.00    -0.203 F 
ATOM     90  F   UNL     1       4.781  10.191   5.275  1.00  0.00    -0.200 F 
ATOM     91  C   UNL     1       6.486  10.195   6.904  1.00  0.00     0.200 A 
ATOM     92  F   UNL     1       8.248  10.146   8.472  1.00  0.00    -0.200 F 
ATOM     93  F   UNL     1       5.685   9.548   7.763  1.00  0.00    -0.200 F 
ENDBRANCH  60  83
ENDBRANCH  34  35
ENDBRANCH  26  29
ENDBRANCH  24  25
ENDBRANCH  23  24
ENDBRANCH   1  23
TORSDOF 14
