REMARK SMILES COCCNC(=O)c1cccc(NC(=O)[C@@H]2CCCC[C@H]2C(=O)NCCCCNC(=O)c2ccc(-c3c4nc(c(-c5c(F)c(F)c(F)c(F)c5F)c5ccc([nH]5)c(-c5c(F)c(F)c(F)c(F)c5F)c5nc(c(-c6c(F)c(F)c(F)c(F)c6F)c6ccc3[nH]6)C=C5)C=C4)cc2)c1
REMARK SMILES IDX 22 1 23 2 24 3 21 5 16 6 17 7 18 8 20 9 19 10 14 11 13 12
REMARK SMILES IDX 15 14 12 15 8 16 9 17 95 18 10 19 11 20 6 21 5 22 7 24 4 25
REMARK SMILES IDX 3 26 2 27 1 28 25 29 26 30 27 31 28 32 29 33 30 34 31 36
REMARK SMILES IDX 32 37 33 38 94 39 34 40 93 41 35 42 36 43 37 44 87 45 38 46
REMARK SMILES IDX 92 47 86 48 88 49 39 50 91 51 85 52 84 53 40 55 72 56 52 57
REMARK SMILES IDX 71 58 53 59 56 60 70 61 89 62 54 63 55 64 69 66 90 67 57 68
REMARK SMILES IDX 41 69 42 70 50 71 43 72 44 73 48 74 51 75 45 76 46 77 49 78
REMARK SMILES IDX 47 79 73 80 74 81 82 82 75 83 76 84 80 85 83 86 77 87 78 88
REMARK SMILES IDX 81 89 79 90 58 91 59 92 67 93 60 94 61 95 65 96 68 97 62 98
REMARK SMILES IDX 63 99 66 100 64 101
REMARK H PARENT 24 4 13 13 5 23 29 35 88 54 56 65
REMARK Flexibility Score: inf
ROOT
ATOM      1  C   UNL     1       3.143  -0.806  -9.416  1.00  0.00     0.223 C 
ATOM      2  O   UNL     1       2.653   0.212  -8.921  1.00  0.00    -0.275 OA
ATOM      3  N   UNL     1       3.155  -0.900 -10.767  1.00  0.00    -0.356 N 
ATOM      4  H   UNL     1       2.819  -0.102 -11.236  1.00  0.00     0.163 HD
ENDROOT
BRANCH   1   5
ATOM      5  C   UNL     1       3.700  -1.909  -8.525  1.00  0.00     0.091 C 
ATOM      6  C   UNL     1       2.810  -3.170  -8.560  1.00  0.00     0.091 C 
ATOM      7  C   UNL     1       3.454  -4.492  -8.130  1.00  0.00     0.014 C 
ATOM      8  C   UNL     1       4.909  -4.615  -8.557  1.00  0.00     0.001 C 
ATOM      9  C   UNL     1       5.204  -2.130  -8.747  1.00  0.00     0.014 C 
ATOM     10  C   UNL     1       5.722  -3.411  -8.110  1.00  0.00     0.001 C 
BRANCH   6  11
ATOM     11  C   UNL     1       1.435  -3.021  -7.907  1.00  0.00     0.228 C 
ATOM     12  N   UNL     1       1.172  -2.389  -6.735  1.00  0.00    -0.326 N 
ATOM     13  H   UNL     1       0.207  -2.316  -6.555  1.00  0.00     0.169 HD
ATOM     14  O   UNL     1       0.455  -3.499  -8.497  1.00  0.00    -0.274 OA
BRANCH  12  15
ATOM     15  C   UNL     1       1.950  -1.814  -5.720  1.00  0.00     0.041 A 
ATOM     16  C   UNL     1       2.103  -0.087  -4.035  1.00  0.00     0.041 A 
ATOM     17  C   UNL     1       3.433  -0.412  -3.779  1.00  0.00     0.014 A 
ATOM     18  C   UNL     1       1.369  -0.762  -5.014  1.00  0.00     0.040 A 
ATOM     19  C   UNL     1       3.994  -1.501  -4.433  1.00  0.00     0.003 A 
ATOM     20  C   UNL     1       3.237  -2.221  -5.365  1.00  0.00     0.026 A 
BRANCH  16  21
ATOM     21  C   UNL     1       1.449   0.952  -3.225  1.00  0.00     0.251 C 
ATOM     22  N   UNL     1       0.453   0.565  -2.365  1.00  0.00    -0.350 N 
ATOM     23  H   UNL     1      -0.045   1.293  -1.927  1.00  0.00     0.163 HD
ATOM     24  O   UNL     1       1.815   2.119  -3.301  1.00  0.00    -0.269 OA
BRANCH  22  25
ATOM     25  C   UNL     1       0.038  -0.793  -2.017  1.00  0.00     0.144 C 
BRANCH  25  26
ATOM     26  C   UNL     1       1.005  -1.501  -1.059  1.00  0.00     0.181 C 
BRANCH  26  27
ATOM     27  O   UNL     1       0.731  -1.211   0.314  1.00  0.00    -0.383 OA
ATOM     28  C   UNL     1       1.173   0.076   0.721  1.00  0.00     0.194 C 
ENDBRANCH  26  27
ENDBRANCH  25  26
ENDBRANCH  22  25
ENDBRANCH  16  21
ENDBRANCH  12  15
ENDBRANCH   6  11
ENDBRANCH   1   5
BRANCH   3  29
ATOM     29  C   UNL     1       3.580  -1.976 -11.638  1.00  0.00     0.116 C 
BRANCH  29  30
ATOM     30  C   UNL     1       2.430  -2.486 -12.499  1.00  0.00     0.023 C 
BRANCH  30  31
ATOM     31  C   UNL     1       1.824  -1.442 -13.436  1.00  0.00     0.023 C 
BRANCH  31  32
ATOM     32  C   UNL     1       2.832  -0.626 -14.237  1.00  0.00     0.116 C 
BRANCH  32  33
ATOM     33  N   UNL     1       3.779  -1.448 -14.976  1.00  0.00    -0.352 N 
ATOM     34  C   UNL     1       4.229  -1.291 -16.263  1.00  0.00     0.251 C 
ATOM     35  H   UNL     1       4.146  -2.219 -14.487  1.00  0.00     0.163 HD
ATOM     36  O   UNL     1       4.983  -2.111 -16.773  1.00  0.00    -0.269 OA
BRANCH  34  37
ATOM     37  C   UNL     1       3.741  -0.141 -17.043  1.00  0.00     0.039 A 
ATOM     38  C   UNL     1       3.070  -0.386 -18.241  1.00  0.00     0.014 A 
ATOM     39  C   UNL     1       3.859   1.156 -16.535  1.00  0.00     0.014 A 
ATOM     40  C   UNL     1       2.433   0.667 -18.893  1.00  0.00     0.010 A 
ATOM     41  C   UNL     1       3.171   2.193 -17.154  1.00  0.00     0.010 A 
ATOM     42  C   UNL     1       2.438   1.952 -18.327  1.00  0.00    -0.014 A 
BRANCH  42  43
ATOM     43  C   UNL     1       1.638   3.048 -18.920  1.00  0.00     0.031 A 
ATOM     44  C   UNL     1       2.321   4.243 -19.514  1.00  0.00     0.074 A 
ATOM     45  C   UNL     1       0.294   2.998 -18.842  1.00  0.00     0.049 A 
ATOM     46  N   UNL     1       1.796   5.335 -20.005  1.00  0.00    -0.248 NA
ATOM     47  C   UNL     1       3.792   4.219 -19.533  1.00  0.00     0.031 C 
ATOM     48  C   UNL     1      -0.478   1.912 -18.235  1.00  0.00     0.029 A 
ATOM     49  N   UNL     1      -0.661   3.889 -19.261  1.00  0.00    -0.354 N 
ATOM     50  C   UNL     1       2.868   6.132 -20.380  1.00  0.00     0.074 A 
ATOM     51  C   UNL     1       4.074   5.419 -20.019  1.00  0.00     0.031 C 
ATOM     52  C   UNL     1      -1.786   2.194 -18.332  1.00  0.00     0.029 A 
ATOM     53  C   UNL     1      -1.945   3.494 -18.977  1.00  0.00     0.049 A 
ATOM     54  H   UNL     1      -0.446   4.732 -19.722  1.00  0.00     0.167 HD
ATOM     55  C   UNL     1       2.843   7.341 -20.988  1.00  0.00     0.037 A 
ATOM     56  C   UNL     1      -3.116   4.116 -19.203  1.00  0.00     0.037 A 
ATOM     57  C   UNL     1       1.640   8.031 -21.368  1.00  0.00     0.049 A 
ATOM     58  C   UNL     1      -3.113   5.459 -19.879  1.00  0.00     0.074 A 
ATOM     59  C   UNL     1       1.510   9.219 -22.066  1.00  0.00     0.029 A 
ATOM     60  N   UNL     1       0.356   7.595 -21.076  1.00  0.00    -0.354 N 
ATOM     61  N   UNL     1      -2.095   6.168 -20.302  1.00  0.00    -0.248 NA
ATOM     62  C   UNL     1      -4.421   6.087 -20.110  1.00  0.00     0.031 C 
ATOM     63  C   UNL     1       0.148   9.522 -22.162  1.00  0.00     0.029 A 
ATOM     64  C   UNL     1      -0.572   8.505 -21.556  1.00  0.00     0.049 A 
ATOM     65  H   UNL     1       0.137   6.763 -20.599  1.00  0.00     0.167 HD
ATOM     66  C   UNL     1      -2.637   7.317 -20.860  1.00  0.00     0.074 A 
ATOM     67  C   UNL     1      -4.076   7.201 -20.739  1.00  0.00     0.031 C 
ATOM     68  C   UNL     1      -2.000   8.375 -21.418  1.00  0.00     0.037 A 
BRANCH  55  69
ATOM     69  C   UNL     1       4.161   7.991 -21.286  1.00  0.00     0.064 A 
ATOM     70  C   UNL     1       5.004   7.508 -22.297  1.00  0.00     0.173 A 
ATOM     71  C   UNL     1       4.568   9.131 -20.578  1.00  0.00     0.173 A 
ATOM     72  F   UNL     1       4.665   6.412 -22.993  1.00  0.00    -0.203 F 
ATOM     73  C   UNL     1       6.220   8.128 -22.573  1.00  0.00     0.198 A 
ATOM     74  C   UNL     1       5.772   9.764 -20.873  1.00  0.00     0.198 A 
ATOM     75  F   UNL     1       3.796   9.634 -19.603  1.00  0.00    -0.203 F 
ATOM     76  F   UNL     1       7.029   7.625 -23.515  1.00  0.00    -0.200 F 
ATOM     77  C   UNL     1       6.599   9.259 -21.866  1.00  0.00     0.200 A 
ATOM     78  F   UNL     1       6.134  10.863 -20.196  1.00  0.00    -0.200 F 
ATOM     79  F   UNL     1       7.767   9.860 -22.137  1.00  0.00    -0.200 F 
ENDBRANCH  55  69
BRANCH  56  80
ATOM     80  C   UNL     1      -4.389   3.469 -18.796  1.00  0.00     0.064 A 
ATOM     81  C   UNL     1      -5.270   2.953 -19.756  1.00  0.00     0.173 A 
ATOM     82  C   UNL     1      -4.749   3.349 -17.446  1.00  0.00     0.173 A 
ATOM     83  F   UNL     1      -4.978   3.064 -21.061  1.00  0.00    -0.203 F 
ATOM     84  C   UNL     1      -6.471   2.355 -19.382  1.00  0.00     0.198 A 
ATOM     85  C   UNL     1      -5.939   2.729 -17.072  1.00  0.00     0.198 A 
ATOM     86  F   UNL     1      -3.937   3.824 -16.490  1.00  0.00    -0.203 F 
ATOM     87  F   UNL     1      -7.314   1.903 -20.322  1.00  0.00    -0.200 F 
ATOM     88  C   UNL     1      -6.803   2.238 -18.041  1.00  0.00     0.200 A 
ATOM     89  F   UNL     1      -6.250   2.608 -15.774  1.00  0.00    -0.200 F 
ATOM     90  F   UNL     1      -7.956   1.659 -17.681  1.00  0.00    -0.200 F 
ENDBRANCH  56  80
BRANCH  68  91
ATOM     91  C   UNL     1      -2.857   9.486 -21.946  1.00  0.00     0.064 A 
ATOM     92  C   UNL     1      -3.500  10.383 -21.081  1.00  0.00     0.173 A 
ATOM     93  C   UNL     1      -3.004   9.679 -23.327  1.00  0.00     0.173 A 
ATOM     94  F   UNL     1      -3.402  10.227 -19.752  1.00  0.00    -0.203 F 
ATOM     95  C   UNL     1      -4.277  11.424 -21.582  1.00  0.00     0.198 A 
ATOM     96  C   UNL     1      -3.761  10.736 -23.824  1.00  0.00     0.198 A 
ATOM     97  F   UNL     1      -2.405   8.848 -24.194  1.00  0.00    -0.203 F 
ATOM     98  F   UNL     1      -4.915  12.246 -20.738  1.00  0.00    -0.200 F 
ATOM     99  C   UNL     1      -4.401  11.604 -22.951  1.00  0.00     0.200 A 
ATOM    100  F   UNL     1      -3.872  10.914 -25.147  1.00  0.00    -0.200 F 
ATOM    101  F   UNL     1      -5.144  12.610 -23.431  1.00  0.00    -0.200 F 
ENDBRANCH  68  91
ENDBRANCH  42  43
ENDBRANCH  34  37
ENDBRANCH  32  33
ENDBRANCH  31  32
ENDBRANCH  30  31
ENDBRANCH  29  30
ENDBRANCH   3  29
TORSDOF 17
