REMARK SMILES O=C(NCCCCNC(=O)c1cn(-c2cc(Cl)ncn2)cn1)c1ccc(-c2c3nc(c(-c4c(F)c(F)c(F)c(F)c4F)c4ccc([nH]4)c(-c4c(F)c(F)c(F)c(F)c4F)c4nc(c(-c5c(F)c(F)c(F)c(F)c5F)c5ccc2[nH]5)C=C4)C=C3)cc1
REMARK SMILES IDX 5 1 4 2 3 3 1 4 2 5 23 7 24 8 85 9 25 10 84 11 26 12 27 13
REMARK SMILES IDX 28 14 78 15 29 16 83 17 77 18 79 19 30 20 82 21 76 22 75 23
REMARK SMILES IDX 31 25 63 26 43 27 62 28 44 29 47 30 61 31 80 32 45 33 46 34
REMARK SMILES IDX 60 36 81 37 48 38 32 39 33 40 41 41 34 42 35 43 39 44 42 45
REMARK SMILES IDX 36 46 37 47 40 48 38 49 64 50 65 51 73 52 66 53 67 54 71 55
REMARK SMILES IDX 74 56 68 57 69 58 72 59 70 60 49 61 50 62 58 63 51 64 52 65
REMARK SMILES IDX 56 66 59 67 53 68 54 69 57 70 55 71 6 72 7 73 8 74 9 75
REMARK SMILES IDX 10 77 11 78 12 79 22 80 13 81 21 82 14 83 15 84 20 85 16 86
REMARK SMILES IDX 19 87 17 88 18 89
REMARK H PARENT 3 6 79 24 47 35 8 76
REMARK Flexibility Score: inf
ROOT
ATOM      1  C   UNL     1       5.071  -0.196  -2.152  1.00  0.00     0.023 C 
ENDROOT
BRANCH   1   2
ATOM      2  C   UNL     1       4.887   0.775  -0.984  1.00  0.00     0.116 C 
BRANCH   2   3
ATOM      3  N   UNL     1       3.515   1.170  -0.737  1.00  0.00    -0.352 N 
ATOM      4  O   UNL     1       1.423   1.263  -0.033  1.00  0.00    -0.269 OA
ATOM      5  C   UNL     1       2.438   0.571  -0.144  1.00  0.00     0.251 C 
ATOM      6  H   UNL     1       3.313   2.073  -1.072  1.00  0.00     0.163 HD
BRANCH   5   7
ATOM      7  C   UNL     1       2.394  -0.844   0.321  1.00  0.00     0.039 A 
ATOM      8  C   UNL     1       3.494  -1.693   0.448  1.00  0.00     0.014 A 
ATOM      9  C   UNL     1       1.123  -1.354   0.640  1.00  0.00     0.014 A 
ATOM     10  C   UNL     1       3.330  -3.036   0.780  1.00  0.00     0.010 A 
ATOM     11  C   UNL     1       0.956  -2.686   1.014  1.00  0.00     0.010 A 
ATOM     12  C   UNL     1       2.059  -3.542   1.040  1.00  0.00    -0.014 A 
BRANCH  12  13
ATOM     13  C   UNL     1       1.935  -4.963   1.378  1.00  0.00     0.031 A 
ATOM     14  C   UNL     1       2.521  -5.432   2.675  1.00  0.00     0.074 A 
ATOM     15  C   UNL     1       1.160  -5.798   0.658  1.00  0.00     0.049 A 
ATOM     16  N   UNL     1       3.197  -6.514   2.922  1.00  0.00    -0.248 NA
ATOM     17  C   UNL     1       2.303  -4.585   3.858  1.00  0.00     0.031 C 
ATOM     18  C   UNL     1       0.265  -5.450  -0.448  1.00  0.00     0.029 A 
ATOM     19  N   UNL     1       0.908  -7.125   0.864  1.00  0.00    -0.354 N 
ATOM     20  C   UNL     1       3.362  -6.561   4.308  1.00  0.00     0.074 A 
ATOM     21  C   UNL     1       2.841  -5.323   4.829  1.00  0.00     0.031 C 
ATOM     22  C   UNL     1      -0.594  -6.470  -0.655  1.00  0.00     0.029 A 
ATOM     23  C   UNL     1      -0.229  -7.574   0.217  1.00  0.00     0.049 A 
ATOM     24  H   UNL     1       1.479  -7.705   1.418  1.00  0.00     0.167 HD
ATOM     25  C   UNL     1       3.783  -7.670   4.975  1.00  0.00     0.037 A 
ATOM     26  C   UNL     1      -0.893  -8.730   0.444  1.00  0.00     0.037 A 
ATOM     27  C   UNL     1       4.514  -8.580   4.144  1.00  0.00     0.049 A 
ATOM     28  C   UNL     1       0.005  -9.666   1.156  1.00  0.00     0.074 A 
ATOM     29  C   UNL     1       5.686  -8.513   3.416  1.00  0.00     0.029 A 
ATOM     30  N   UNL     1       3.938  -9.770   3.784  1.00  0.00    -0.354 N 
ATOM     31  N   UNL     1       1.046 -10.249   0.631  1.00  0.00    -0.248 NA
ATOM     32  C   UNL     1      -0.084  -9.735   2.607  1.00  0.00     0.031 C 
ATOM     33  C   UNL     1       5.512  -9.418   2.329  1.00  0.00     0.029 A 
ATOM     34  C   UNL     1       4.232  -9.957   2.459  1.00  0.00     0.049 A 
ATOM     35  H   UNL     1       3.415 -10.371   4.363  1.00  0.00     0.167 HD
ATOM     36  C   UNL     1       1.927 -10.414   1.687  1.00  0.00     0.074 A 
ATOM     37  C   UNL     1       1.129 -10.211   2.887  1.00  0.00     0.031 C 
ATOM     38  C   UNL     1       3.276 -10.419   1.484  1.00  0.00     0.037 A 
BRANCH  25  39
ATOM     39  C   UNL     1       3.321  -8.044   6.361  1.00  0.00     0.064 A 
ATOM     40  C   UNL     1       4.014  -9.020   7.104  1.00  0.00     0.173 A 
ATOM     41  C   UNL     1       2.058  -7.670   6.867  1.00  0.00     0.173 A 
ATOM     42  F   UNL     1       5.202  -9.482   6.686  1.00  0.00    -0.203 F 
ATOM     43  C   UNL     1       3.465  -9.602   8.251  1.00  0.00     0.198 A 
ATOM     44  C   UNL     1       1.535  -8.217   8.039  1.00  0.00     0.198 A 
ATOM     45  F   UNL     1       1.250  -6.842   6.192  1.00  0.00    -0.203 F 
ATOM     46  F   UNL     1       4.114 -10.599   8.868  1.00  0.00    -0.200 F 
ATOM     47  C   UNL     1       2.227  -9.199   8.718  1.00  0.00     0.200 A 
ATOM     48  F   UNL     1       0.323  -7.833   8.464  1.00  0.00    -0.200 F 
ATOM     49  F   UNL     1       1.680  -9.788   9.790  1.00  0.00    -0.200 F 
ENDBRANCH  25  39
BRANCH  26  50
ATOM     50  C   UNL     1      -2.347  -8.962   0.308  1.00  0.00     0.064 A 
ATOM     51  C   UNL     1      -2.869 -10.249   0.123  1.00  0.00     0.173 A 
ATOM     52  C   UNL     1      -3.276  -7.937   0.579  1.00  0.00     0.173 A 
ATOM     53  F   UNL     1      -2.046 -11.289  -0.076  1.00  0.00    -0.203 F 
ATOM     54  C   UNL     1      -4.243 -10.495   0.195  1.00  0.00     0.198 A 
ATOM     55  C   UNL     1      -4.647  -8.180   0.634  1.00  0.00     0.198 A 
ATOM     56  F   UNL     1      -2.864  -6.696   0.879  1.00  0.00    -0.203 F 
ATOM     57  F   UNL     1      -4.706 -11.746   0.061  1.00  0.00    -0.200 F 
ATOM     58  C   UNL     1      -5.130  -9.460   0.449  1.00  0.00     0.200 A 
ATOM     59  F   UNL     1      -5.489  -7.176   0.916  1.00  0.00    -0.200 F 
ATOM     60  F   UNL     1      -6.444  -9.703   0.554  1.00  0.00    -0.200 F 
ENDBRANCH  26  50
BRANCH  38  61
ATOM     61  C   UNL     1       3.767 -10.572   0.076  1.00  0.00     0.064 A 
ATOM     62  C   UNL     1       3.556  -9.599  -0.915  1.00  0.00     0.173 A 
ATOM     63  C   UNL     1       4.595 -11.655  -0.241  1.00  0.00     0.173 A 
ATOM     64  F   UNL     1       2.868  -8.482  -0.644  1.00  0.00    -0.203 F 
ATOM     65  C   UNL     1       4.109  -9.734  -2.186  1.00  0.00     0.198 A 
ATOM     66  C   UNL     1       5.175 -11.771  -1.502  1.00  0.00     0.198 A 
ATOM     67  F   UNL     1       4.886 -12.577   0.691  1.00  0.00    -0.203 F 
ATOM     68  F   UNL     1       3.887  -8.796  -3.119  1.00  0.00    -0.200 F 
ATOM     69  C   UNL     1       4.922 -10.817  -2.477  1.00  0.00     0.200 A 
ATOM     70  F   UNL     1       6.003 -12.791  -1.765  1.00  0.00    -0.200 F 
ATOM     71  F   UNL     1       5.488 -10.926  -3.687  1.00  0.00    -0.200 F 
ENDBRANCH  38  61
ENDBRANCH  12  13
ENDBRANCH   5   7
ENDBRANCH   2   3
ENDBRANCH   1   2
BRANCH   1  72
ATOM     72  C   UNL     1       4.544   0.296  -3.502  1.00  0.00     0.023 C 
BRANCH  72  73
ATOM     73  C   UNL     1       4.977   1.701  -3.899  1.00  0.00     0.116 C 
BRANCH  73  74
ATOM     74  N   UNL     1       6.422   1.852  -3.948  1.00  0.00    -0.351 N 
ATOM     75  C   UNL     1       7.203   2.351  -4.977  1.00  0.00     0.271 C 
ATOM     76  H   UNL     1       6.910   1.562  -3.143  1.00  0.00     0.163 HD
ATOM     77  O   UNL     1       8.394   2.432  -4.851  1.00  0.00    -0.267 OA
BRANCH  75  78
ATOM     78  C   UNL     1       6.477   2.788  -6.171  1.00  0.00     0.146 A 
ATOM     79  C   UNL     1       5.736   3.950  -6.294  1.00  0.00     0.128 A 
ATOM     80  N   UNL     1       6.330   2.005  -7.294  1.00  0.00    -0.231 NA
ATOM     81  N   UNL     1       5.032   3.817  -7.468  1.00  0.00    -0.290 N 
ATOM     82  C   UNL     1       5.470   2.649  -8.050  1.00  0.00     0.206 A 
BRANCH  81  83
ATOM     83  C   UNL     1       3.986   4.636  -7.964  1.00  0.00     0.142 A 
ATOM     84  C   UNL     1       3.754   5.877  -7.414  1.00  0.00     0.088 A 
ATOM     85  N   UNL     1       3.212   4.117  -8.945  1.00  0.00    -0.219 NA
ATOM     86  C   UNL     1       2.669   6.542  -7.930  1.00  0.00     0.134 A 
ATOM     87  C   UNL     1       2.163   4.853  -9.339  1.00  0.00     0.226 A 
ATOM     88  Cl  UNL     1       2.265   8.113  -7.371  1.00  0.00    -0.062 Cl
ATOM     89  N   UNL     1       1.846   6.062  -8.874  1.00  0.00    -0.224 NA
ENDBRANCH  81  83
ENDBRANCH  75  78
ENDBRANCH  73  74
ENDBRANCH  72  73
ENDBRANCH   1  72
TORSDOF 12
