REMARK SMILES CC[C@@H](C)N(C)C(=O)N1[C@@H](C(=O)NCCCCNC(=O)c2ccc(-c3c4nc(c(-c5c(F)c(F)c(F)c(F)c5F)c5ccc([nH]5)c(-c5c(F)c(F)c(F)c(F)c5F)c5nc(c(-c6c(F)c(F)c(F)c(F)c6F)c6ccc3[nH]6)C=C5)C=C4)cc2)CC[C@H]2CCCC[C@H]21
REMARK SMILES IDX 14 1 13 2 11 3 12 4 10 6 9 7 91 8 84 9 86 10 90 11 85 12
REMARK SMILES IDX 87 13 89 14 88 15 7 16 8 17 5 18 6 19 3 20 4 21 2 22 1 23
REMARK SMILES IDX 15 24 16 25 17 26 18 27 19 28 20 30 21 31 22 32 83 33 23 34
REMARK SMILES IDX 82 35 24 36 25 37 26 38 76 39 27 40 81 41 75 42 77 43 28 44
REMARK SMILES IDX 80 45 74 46 73 47 29 49 61 50 41 51 60 52 42 53 45 54 59 55
REMARK SMILES IDX 78 56 43 57 44 58 58 60 79 61 46 62 30 63 31 64 39 65 32 66
REMARK SMILES IDX 33 67 37 68 40 69 34 70 35 71 38 72 36 73 62 74 63 75 71 76
REMARK SMILES IDX 64 77 65 78 69 79 72 80 66 81 67 82 70 83 68 84 47 85 48 86
REMARK SMILES IDX 56 87 49 88 50 89 54 90 57 91 51 92 52 93 55 94 53 95
REMARK H PARENT 13 5 18 29 77 48 45 59
REMARK Flexibility Score: inf
ROOT
ATOM      1  C   UNL     1      -1.460  -5.610  -2.036  1.00  0.00     0.116 C 
ENDROOT
BRANCH   1   2
ATOM      2  N   UNL     1      -0.207  -5.775  -2.747  1.00  0.00    -0.354 N 
ATOM      3  C   UNL     1       0.146  -5.313  -3.979  1.00  0.00     0.242 C 
ATOM      4  O   UNL     1       1.210  -5.718  -4.457  1.00  0.00    -0.273 OA
ATOM      5  H   UNL     1       0.483  -6.294  -2.275  1.00  0.00     0.163 HD
BRANCH   3   6
ATOM      6  C   UNL     1      -0.813  -4.443  -4.824  1.00  0.00     0.176 C 
ATOM      7  N   UNL     1      -1.420  -3.271  -4.144  1.00  0.00    -0.309 N 
ATOM      8  C   UNL     1      -2.521  -2.611  -4.876  1.00  0.00     0.091 C 
ATOM      9  C   UNL     1      -1.878  -5.422  -5.384  1.00  0.00     0.036 C 
ATOM     10  C   UNL     1      -3.632  -3.584  -5.287  1.00  0.00     0.012 C 
ATOM     11  C   UNL     1      -3.165  -1.355  -4.268  1.00  0.00     0.025 C 
ATOM     12  C   UNL     1      -3.050  -4.751  -6.087  1.00  0.00     0.008 C 
ATOM     13  C   UNL     1      -4.518  -4.033  -4.114  1.00  0.00     0.006 C 
ATOM     14  C   UNL     1      -4.269  -1.613  -3.239  1.00  0.00     0.002 C 
ATOM     15  C   UNL     1      -4.557  -3.076  -2.923  1.00  0.00     0.000 C 
BRANCH   7  16
ATOM     16  C   UNL     1      -0.904  -2.669  -3.012  1.00  0.00     0.320 C 
ATOM     17  O   UNL     1      -1.674  -2.336  -2.110  1.00  0.00    -0.248 OA
BRANCH  16  18
ATOM     18  N   UNL     1       0.456  -2.470  -2.875  1.00  0.00    -0.325 N 
ATOM     19  C   UNL     1       1.414  -2.447  -3.973  1.00  0.00     0.149 C 
BRANCH  18  20
ATOM     20  C   UNL     1       0.979  -1.976  -1.572  1.00  0.00     0.083 C 
ATOM     21  C   UNL     1       0.668  -2.929  -0.410  1.00  0.00     0.031 C 
BRANCH  20  22
ATOM     22  C   UNL     1       0.541  -0.517  -1.307  1.00  0.00     0.021 C 
ATOM     23  C   UNL     1       1.075   0.073  -0.011  1.00  0.00     0.006 C 
ENDBRANCH  20  22
ENDBRANCH  18  20
ENDBRANCH  16  18
ENDBRANCH   7  16
ENDBRANCH   3   6
ENDBRANCH   1   2
BRANCH   1  24
ATOM     24  C   UNL     1      -2.021  -6.953  -1.591  1.00  0.00     0.023 C 
BRANCH  24  25
ATOM     25  C   UNL     1      -1.180  -7.646  -0.521  1.00  0.00     0.023 C 
BRANCH  25  26
ATOM     26  C   UNL     1      -0.915  -6.805   0.722  1.00  0.00     0.116 C 
BRANCH  26  27
ATOM     27  N   UNL     1      -2.138  -6.377   1.381  1.00  0.00    -0.352 N 
ATOM     28  C   UNL     1      -2.476  -6.467   2.711  1.00  0.00     0.251 C 
ATOM     29  H   UNL     1      -2.816  -5.968   0.796  1.00  0.00     0.163 HD
ATOM     30  O   UNL     1      -3.610  -6.219   3.088  1.00  0.00    -0.269 OA
BRANCH  28  31
ATOM     31  C   UNL     1      -1.448  -6.902   3.679  1.00  0.00     0.039 A 
ATOM     32  C   UNL     1      -1.770  -7.903   4.596  1.00  0.00     0.014 A 
ATOM     33  C   UNL     1      -0.166  -6.346   3.654  1.00  0.00     0.014 A 
ATOM     34  C   UNL     1      -0.782  -8.393   5.450  1.00  0.00     0.010 A 
ATOM     35  C   UNL     1       0.837  -6.893   4.446  1.00  0.00     0.010 A 
ATOM     36  C   UNL     1       0.538  -7.919   5.355  1.00  0.00    -0.014 A 
BRANCH  36  37
ATOM     37  C   UNL     1       1.614  -8.496   6.198  1.00  0.00     0.031 A 
ATOM     38  C   UNL     1       2.329  -7.644   7.207  1.00  0.00     0.074 A 
ATOM     39  C   UNL     1       1.981  -9.780   6.017  1.00  0.00     0.049 A 
ATOM     40  N   UNL     1       3.307  -7.964   8.017  1.00  0.00    -0.248 NA
ATOM     41  C   UNL     1       1.910  -6.237   7.298  1.00  0.00     0.031 C 
ATOM     42  C   UNL     1       1.409 -10.689   5.023  1.00  0.00     0.029 A 
ATOM     43  N   UNL     1       2.928 -10.539   6.656  1.00  0.00    -0.354 N 
ATOM     44  C   UNL     1       3.618  -6.802   8.710  1.00  0.00     0.074 A 
ATOM     45  C   UNL     1       2.777  -5.753   8.174  1.00  0.00     0.031 C 
ATOM     46  C   UNL     1       2.000 -11.889   5.134  1.00  0.00     0.029 A 
ATOM     47  C   UNL     1       3.015 -11.824   6.181  1.00  0.00     0.049 A 
ATOM     48  H   UNL     1       3.493 -10.195   7.386  1.00  0.00     0.167 HD
ATOM     49  C   UNL     1       4.501  -6.631   9.722  1.00  0.00     0.037 A 
ATOM     50  C   UNL     1       3.825 -12.836   6.545  1.00  0.00     0.037 A 
ATOM     51  C   UNL     1       5.334  -7.679  10.254  1.00  0.00     0.049 A 
ATOM     52  C   UNL     1       4.802 -12.624   7.668  1.00  0.00     0.074 A 
ATOM     53  C   UNL     1       6.228  -7.622  11.308  1.00  0.00     0.029 A 
ATOM     54  N   UNL     1       5.381  -8.976   9.761  1.00  0.00    -0.354 N 
ATOM     55  N   UNL     1       5.033 -11.541   8.372  1.00  0.00    -0.248 NA
ATOM     56  C   UNL     1       5.622 -13.778   8.058  1.00  0.00     0.031 C 
ATOM     57  C   UNL     1       6.854  -8.869  11.419  1.00  0.00     0.029 A 
ATOM     58  C   UNL     1       6.307  -9.722  10.474  1.00  0.00     0.049 A 
ATOM     59  H   UNL     1       4.836  -9.316   9.014  1.00  0.00     0.167 HD
ATOM     60  C   UNL     1       6.007 -11.887   9.298  1.00  0.00     0.074 A 
ATOM     61  C   UNL     1       6.307 -13.288   9.082  1.00  0.00     0.031 C 
ATOM     62  C   UNL     1       6.602 -11.114  10.240  1.00  0.00     0.037 A 
BRANCH  49  63
ATOM     63  C   UNL     1       4.607  -5.255  10.317  1.00  0.00     0.064 A 
ATOM     64  C   UNL     1       3.549  -4.684  11.045  1.00  0.00     0.173 A 
ATOM     65  C   UNL     1       5.778  -4.498  10.168  1.00  0.00     0.173 A 
ATOM     66  F   UNL     1       2.401  -5.359  11.209  1.00  0.00    -0.203 F 
ATOM     67  C   UNL     1       3.645  -3.394  11.561  1.00  0.00     0.198 A 
ATOM     68  C   UNL     1       5.884  -3.222  10.717  1.00  0.00     0.198 A 
ATOM     69  F   UNL     1       6.823  -4.994   9.489  1.00  0.00    -0.203 F 
ATOM     70  F   UNL     1       2.597  -2.848  12.193  1.00  0.00    -0.200 F 
ATOM     71  C   UNL     1       4.814  -2.667  11.401  1.00  0.00     0.200 A 
ATOM     72  F   UNL     1       7.020  -2.526  10.575  1.00  0.00    -0.200 F 
ATOM     73  F   UNL     1       4.905  -1.426  11.899  1.00  0.00    -0.200 F 
ENDBRANCH  49  63
BRANCH  50  74
ATOM     74  C   UNL     1       3.726 -14.144   5.847  1.00  0.00     0.064 A 
ATOM     75  C   UNL     1       3.214 -15.276   6.497  1.00  0.00     0.173 A 
ATOM     76  C   UNL     1       4.125 -14.285   4.510  1.00  0.00     0.173 A 
ATOM     77  F   UNL     1       2.836 -15.196   7.781  1.00  0.00    -0.203 F 
ATOM     78  C   UNL     1       3.121 -16.502   5.841  1.00  0.00     0.198 A 
ATOM     79  C   UNL     1       4.004 -15.504   3.846  1.00  0.00     0.198 A 
ATOM     80  F   UNL     1       4.615 -13.231   3.841  1.00  0.00    -0.203 F 
ATOM     81  F   UNL     1       2.666 -17.577   6.498  1.00  0.00    -0.200 F 
ATOM     82  C   UNL     1       3.508 -16.613   4.514  1.00  0.00     0.200 A 
ATOM     83  F   UNL     1       4.363 -15.602   2.559  1.00  0.00    -0.200 F 
ATOM     84  F   UNL     1       3.409 -17.790   3.881  1.00  0.00    -0.200 F 
ENDBRANCH  50  74
BRANCH  62  85
ATOM     85  C   UNL     1       7.624 -11.774  11.123  1.00  0.00     0.064 A 
ATOM     86  C   UNL     1       8.873 -12.181  10.629  1.00  0.00     0.173 A 
ATOM     87  C   UNL     1       7.359 -11.982  12.485  1.00  0.00     0.173 A 
ATOM     88  F   UNL     1       9.171 -12.019   9.331  1.00  0.00    -0.203 F 
ATOM     89  C   UNL     1       9.803 -12.802  11.458  1.00  0.00     0.198 A 
ATOM     90  C   UNL     1       8.305 -12.571  13.319  1.00  0.00     0.198 A 
ATOM     91  F   UNL     1       6.184 -11.605  13.011  1.00  0.00    -0.203 F 
ATOM     92  F   UNL     1      10.966 -13.236  10.951  1.00  0.00    -0.200 F 
ATOM     93  C   UNL     1       9.522 -12.991  12.803  1.00  0.00     0.200 A 
ATOM     94  F   UNL     1       8.037 -12.738  14.621  1.00  0.00    -0.200 F 
ATOM     95  F   UNL     1      10.420 -13.585  13.600  1.00  0.00    -0.200 F 
ENDBRANCH  62  85
ENDBRANCH  36  37
ENDBRANCH  28  31
ENDBRANCH  26  27
ENDBRANCH  25  26
ENDBRANCH  24  25
ENDBRANCH   1  24
TORSDOF 15
