REMARK SMILES O=C(NCCCCNC(=O)[C@@H]1Cc2ccccc2CN1C(=O)COc1ccccc1)c1ccc(-c2c3nc(c(-c4c(F)c(F)c(F)c(F)c4F)c4ccc([nH]4)c(-c4c(F)c(F)c(F)c(F)c4F)c4nc(c(-c5c(F)c(F)c(F)c(F)c5F)c5ccc2[nH]5)C=C4)C=C3)cc1
REMARK SMILES IDX 6 1 5 2 4 3 3 4 1 5 2 6 31 8 32 9 93 10 33 11 92 12 34 13
REMARK SMILES IDX 35 14 36 15 86 16 37 17 91 18 85 19 87 20 38 21 90 22 84 23
REMARK SMILES IDX 83 24 39 26 71 27 51 28 70 29 52 30 55 31 69 32 88 33 53 34
REMARK SMILES IDX 54 35 68 37 89 38 56 39 40 40 41 41 49 42 42 43 43 44 47 45
REMARK SMILES IDX 50 46 44 47 45 48 48 49 46 50 72 51 73 52 81 53 74 54 75 55
REMARK SMILES IDX 79 56 82 57 76 58 77 59 80 60 78 61 57 62 58 63 66 64 59 65
REMARK SMILES IDX 60 66 64 67 67 68 61 69 62 70 65 71 63 72 7 73 8 74 9 75
REMARK SMILES IDX 10 77 11 78 12 79 20 80 13 81 19 82 14 83 18 84 15 85 17 86
REMARK SMILES IDX 16 87 21 88 22 89 23 90 24 91 25 92 26 93 30 94 27 95 29 96
REMARK SMILES IDX 28 97
REMARK H PARENT 3 7 87 25 55 36 8 76
REMARK Flexibility Score: inf
ROOT
ATOM      1  C   UNL     1      10.554   0.664   6.785  1.00  0.00     0.023 C 
ENDROOT
BRANCH   1   2
ATOM      2  C   UNL     1      11.440   0.718   8.033  1.00  0.00     0.023 C 
BRANCH   2   3
ATOM      3  C   UNL     1      11.744  -0.597   8.754  1.00  0.00     0.116 C 
BRANCH   3   4
ATOM      4  N   UNL     1      12.539  -1.551   7.990  1.00  0.00    -0.352 N 
ATOM      5  O   UNL     1      14.356  -2.737   7.361  1.00  0.00    -0.269 OA
ATOM      6  C   UNL     1      13.838  -1.988   8.170  1.00  0.00     0.251 C 
ATOM      7  H   UNL     1      12.074  -1.948   7.219  1.00  0.00     0.163 HD
BRANCH   6   8
ATOM      8  C   UNL     1      14.618  -1.510   9.335  1.00  0.00     0.039 A 
ATOM      9  C   UNL     1      14.062  -1.511  10.612  1.00  0.00     0.014 A 
ATOM     10  C   UNL     1      15.917  -1.032   9.137  1.00  0.00     0.014 A 
ATOM     11  C   UNL     1      14.705  -0.833  11.641  1.00  0.00     0.010 A 
ATOM     12  C   UNL     1      16.608  -0.442  10.201  1.00  0.00     0.010 A 
ATOM     13  C   UNL     1      15.982  -0.281  11.447  1.00  0.00    -0.014 A 
BRANCH  13  14
ATOM     14  C   UNL     1      16.637   0.445  12.565  1.00  0.00     0.031 A 
ATOM     15  C   UNL     1      16.953   1.913  12.460  1.00  0.00     0.074 A 
ATOM     16  C   UNL     1      16.910  -0.220  13.704  1.00  0.00     0.049 A 
ATOM     17  N   UNL     1      17.508   2.704  13.345  1.00  0.00    -0.248 NA
ATOM     18  C   UNL     1      16.611   2.581  11.196  1.00  0.00     0.031 C 
ATOM     19  C   UNL     1      16.659  -1.646  13.922  1.00  0.00     0.029 A 
ATOM     20  N   UNL     1      17.441   0.210  14.892  1.00  0.00    -0.354 N 
ATOM     21  C   UNL     1      17.606   3.950  12.739  1.00  0.00     0.074 A 
ATOM     22  C   UNL     1      17.072   3.808  11.401  1.00  0.00     0.031 C 
ATOM     23  C   UNL     1      17.000  -1.964  15.178  1.00  0.00     0.029 A 
ATOM     24  C   UNL     1      17.552  -0.783  15.832  1.00  0.00     0.049 A 
ATOM     25  H   UNL     1      17.716   1.142  15.055  1.00  0.00     0.167 HD
ATOM     26  C   UNL     1      18.089   5.106  13.255  1.00  0.00     0.037 A 
ATOM     27  C   UNL     1      18.062  -0.757  17.077  1.00  0.00     0.037 A 
ATOM     28  C   UNL     1      18.593   5.249  14.597  1.00  0.00     0.049 A 
ATOM     29  C   UNL     1      18.598   0.534  17.622  1.00  0.00     0.074 A 
ATOM     30  C   UNL     1      19.052   6.392  15.230  1.00  0.00     0.029 A 
ATOM     31  N   UNL     1      18.710   4.213  15.512  1.00  0.00    -0.354 N 
ATOM     32  N   UNL     1      18.650   1.712  17.050  1.00  0.00    -0.248 NA
ATOM     33  C   UNL     1      19.150   0.500  18.982  1.00  0.00     0.031 C 
ATOM     34  C   UNL     1      19.491   6.038  16.511  1.00  0.00     0.029 A 
ATOM     35  C   UNL     1      19.261   4.684  16.695  1.00  0.00     0.049 A 
ATOM     36  H   UNL     1      18.442   3.280  15.347  1.00  0.00     0.167 HD
ATOM     37  C   UNL     1      19.232   2.561  17.979  1.00  0.00     0.074 A 
ATOM     38  C   UNL     1      19.494   1.768  19.162  1.00  0.00     0.031 C 
ATOM     39  C   UNL     1      19.526   3.879  17.860  1.00  0.00     0.037 A 
BRANCH  26  40
ATOM     40  C   UNL     1      18.120   6.312  12.359  1.00  0.00     0.064 A 
ATOM     41  C   UNL     1      16.950   6.990  11.987  1.00  0.00     0.173 A 
ATOM     42  C   UNL     1      19.345   6.822  11.901  1.00  0.00     0.173 A 
ATOM     43  F   UNL     1      15.752   6.539  12.389  1.00  0.00    -0.203 F 
ATOM     44  C   UNL     1      17.003   8.117  11.170  1.00  0.00     0.198 A 
ATOM     45  C   UNL     1      19.397   7.965  11.107  1.00  0.00     0.198 A 
ATOM     46  F   UNL     1      20.496   6.217  12.233  1.00  0.00    -0.203 F 
ATOM     47  F   UNL     1      15.868   8.722  10.792  1.00  0.00    -0.200 F 
ATOM     48  C   UNL     1      18.226   8.607  10.736  1.00  0.00     0.200 A 
ATOM     49  F   UNL     1      20.580   8.443  10.699  1.00  0.00    -0.200 F 
ATOM     50  F   UNL     1      18.274   9.694   9.954  1.00  0.00    -0.200 F 
ENDBRANCH  26  40
BRANCH  27  51
ATOM     51  C   UNL     1      18.098  -2.010  17.872  1.00  0.00     0.064 A 
ATOM     52  C   UNL     1      17.262  -2.189  18.981  1.00  0.00     0.173 A 
ATOM     53  C   UNL     1      18.941  -3.071  17.508  1.00  0.00     0.173 A 
ATOM     54  F   UNL     1      16.453  -1.196  19.378  1.00  0.00    -0.203 F 
ATOM     55  C   UNL     1      17.271  -3.383  19.700  1.00  0.00     0.198 A 
ATOM     56  C   UNL     1      18.928  -4.273  18.209  1.00  0.00     0.198 A 
ATOM     57  F   UNL     1      19.755  -2.948  16.449  1.00  0.00    -0.203 F 
ATOM     58  F   UNL     1      16.483  -3.521  20.774  1.00  0.00    -0.200 F 
ATOM     59  C   UNL     1      18.096  -4.427  19.307  1.00  0.00     0.200 A 
ATOM     60  F   UNL     1      19.712  -5.285  17.814  1.00  0.00    -0.200 F 
ATOM     61  F   UNL     1      18.090  -5.581  19.988  1.00  0.00    -0.200 F 
ENDBRANCH  27  51
BRANCH  39  62
ATOM     62  C   UNL     1      20.157   4.546  19.045  1.00  0.00     0.064 A 
ATOM     63  C   UNL     1      21.495   4.306  19.393  1.00  0.00     0.173 A 
ATOM     64  C   UNL     1      19.427   5.456  19.823  1.00  0.00     0.173 A 
ATOM     65  F   UNL     1      22.228   3.430  18.690  1.00  0.00    -0.203 F 
ATOM     66  C   UNL     1      22.071   4.937  20.492  1.00  0.00     0.198 A 
ATOM     67  C   UNL     1      20.015   6.105  20.905  1.00  0.00     0.198 A 
ATOM     68  F   UNL     1      18.146   5.722  19.529  1.00  0.00    -0.203 F 
ATOM     69  F   UNL     1      23.337   4.659  20.834  1.00  0.00    -0.200 F 
ATOM     70  C   UNL     1      21.334   5.840  21.242  1.00  0.00     0.200 A 
ATOM     71  F   UNL     1      19.304   6.986  21.623  1.00  0.00    -0.200 F 
ATOM     72  F   UNL     1      21.892   6.450  22.297  1.00  0.00    -0.200 F 
ENDBRANCH  39  62
ENDBRANCH  13  14
ENDBRANCH   6   8
ENDBRANCH   3   4
ENDBRANCH   2   3
ENDBRANCH   1   2
BRANCH   1  73
ATOM     73  C   UNL     1       9.386  -0.305   6.837  1.00  0.00     0.116 C 
BRANCH  73  74
ATOM     74  N   UNL     1       8.328  -0.066   7.790  1.00  0.00    -0.354 N 
ATOM     75  C   UNL     1       7.235  -0.892   7.972  1.00  0.00     0.243 C 
ATOM     76  H   UNL     1       8.389   0.742   8.349  1.00  0.00     0.163 HD
ATOM     77  O   UNL     1       6.660  -0.856   9.062  1.00  0.00    -0.273 OA
BRANCH  75  78
ATOM     78  C   UNL     1       6.707  -1.759   6.791  1.00  0.00     0.179 C 
ATOM     79  C   UNL     1       5.419  -0.996   6.332  1.00  0.00     0.071 C 
ATOM     80  N   UNL     1       6.441  -3.204   7.107  1.00  0.00    -0.323 N 
ATOM     81  C   UNL     1       4.633  -1.795   5.329  1.00  0.00    -0.040 A 
ATOM     82  C   UNL     1       5.083  -3.699   6.866  1.00  0.00     0.156 C 
ATOM     83  C   UNL     1       3.988  -1.224   4.231  1.00  0.00     0.004 A 
ATOM     84  C   UNL     1       4.527  -3.173   5.567  1.00  0.00    -0.025 A 
ATOM     85  C   UNL     1       3.307  -2.040   3.327  1.00  0.00     0.000 A 
ATOM     86  C   UNL     1       3.869  -3.989   4.643  1.00  0.00     0.006 A 
ATOM     87  C   UNL     1       3.271  -3.422   3.517  1.00  0.00     0.000 A 
BRANCH  80  88
ATOM     88  C   UNL     1       7.385  -4.184   7.388  1.00  0.00     0.261 C 
ATOM     89  O   UNL     1       7.059  -5.358   7.604  1.00  0.00    -0.271 OA
BRANCH  88  90
ATOM     90  C   UNL     1       8.867  -3.839   7.489  1.00  0.00     0.329 C 
BRANCH  90  91
ATOM     91  O   UNL     1       9.489  -3.145   6.433  1.00  0.00    -0.484 OA
BRANCH  91  92
ATOM     92  C   UNL     1       9.858  -3.777   5.293  1.00  0.00     0.120 A 
ATOM     93  C   UNL     1      10.941  -3.192   4.626  1.00  0.00     0.046 A 
ATOM     94  C   UNL     1       9.194  -4.853   4.720  1.00  0.00     0.046 A 
ATOM     95  C   UNL     1      11.368  -3.685   3.395  1.00  0.00     0.004 A 
ATOM     96  C   UNL     1       9.610  -5.335   3.476  1.00  0.00     0.004 A 
ATOM     97  C   UNL     1      10.694  -4.754   2.815  1.00  0.00     0.000 A 
ENDBRANCH  91  92
ENDBRANCH  90  91
ENDBRANCH  88  90
ENDBRANCH  80  88
ENDBRANCH  75  78
ENDBRANCH  73  74
ENDBRANCH   1  73
TORSDOF 15
