REMARK SMILES Cc1c(CC(=O)NCCCCNC(=O)c2ccc(-c3c4nc(c(-c5c(F)c(F)c(F)c(F)c5F)c5ccc([nH]5)c(-c5c(F)c(F)c(F)c(F)c5F)c5nc(c(-c6c(F)c(F)c(F)c(F)c6F)c6ccc3[nH]6)C=C5)C=C4)cc2)c2cc(O)ccc2n1C(=O)c1ccc(Cl)cc1
REMARK SMILES IDX 9 1 8 2 7 3 5 4 6 5 4 7 3 8 1 9 2 10 85 11 78 12 84 13 79 14
REMARK SMILES IDX 83 15 80 16 82 17 86 18 87 19 88 20 89 21 94 22 90 23 93 24
REMARK SMILES IDX 91 25 92 26 81 27 10 29 11 30 12 31 13 32 14 34 15 35 16 36
REMARK SMILES IDX 77 37 17 38 76 39 18 40 19 41 20 42 70 43 21 44 75 45 69 46
REMARK SMILES IDX 71 47 22 48 74 49 68 50 67 51 23 53 55 54 35 55 54 56 36 57
REMARK SMILES IDX 39 58 53 59 72 60 37 61 38 62 52 64 73 65 40 66 24 67 25 68
REMARK SMILES IDX 33 69 26 70 27 71 31 72 34 73 28 74 29 75 32 76 30 77 56 78
REMARK SMILES IDX 57 79 65 80 58 81 59 82 63 83 66 84 60 85 61 86 64 87 62 88
REMARK SMILES IDX 41 89 42 90 50 91 43 92 44 93 48 94 51 95 45 96 46 97 49 98
REMARK SMILES IDX 47 99
REMARK H PARENT 7 6 81 28 12 33 71 52 39 63
REMARK Flexibility Score: inf
ROOT
ATOM      1  C   UNL     1       3.352   0.130   2.976  1.00  0.00     0.023 C 
ENDROOT
BRANCH   1   2
ATOM      2  C   UNL     1       2.390  -1.048   2.826  1.00  0.00     0.116 C 
BRANCH   2   3
ATOM      3  N   UNL     1       1.441  -1.115   3.916  1.00  0.00    -0.356 N 
ATOM      4  C   UNL     1       0.097  -0.873   3.885  1.00  0.00     0.224 C 
ATOM      5  O   UNL     1      -0.542  -1.003   4.932  1.00  0.00    -0.275 OA
ATOM      6  H   UNL     1       1.811  -1.367   4.793  1.00  0.00     0.163 HD
BRANCH   4   7
ATOM      7  C   UNL     1      -0.587  -0.519   2.573  1.00  0.00     0.138 C 
BRANCH   7   8
ATOM      8  C   UNL     1      -0.158   0.809   2.011  1.00  0.00    -0.009 A 
ATOM      9  C   UNL     1       0.710   0.091  -0.336  1.00  0.00     0.065 C 
ATOM     10  C   UNL     1       0.400   1.062   0.764  1.00  0.00     0.028 A 
ATOM     11  N   UNL     1       0.707   2.428   0.670  1.00  0.00    -0.280 N 
ATOM     12  C   UNL     1      -0.286   2.061   2.675  1.00  0.00     0.008 A 
ATOM     13  C   UNL     1       0.178   3.059   1.809  1.00  0.00     0.057 A 
ATOM     14  C   UNL     1      -0.788   2.423   3.946  1.00  0.00     0.056 A 
ATOM     15  C   UNL     1       0.060   4.417   2.180  1.00  0.00     0.031 A 
ATOM     16  C   UNL     1      -0.822   3.760   4.323  1.00  0.00     0.116 A 
ATOM     17  C   UNL     1      -0.418   4.752   3.451  1.00  0.00     0.048 A 
BRANCH  11  18
ATOM     18  C   UNL     1       1.426   3.042  -0.398  1.00  0.00     0.262 C 
ATOM     19  O   UNL     1       1.766   2.353  -1.362  1.00  0.00    -0.268 OA
BRANCH  18  20
ATOM     20  C   UNL     1       1.803   4.461  -0.476  1.00  0.00     0.040 A 
ATOM     21  C   UNL     1       2.696   5.025   0.442  1.00  0.00     0.015 A 
ATOM     22  C   UNL     1       1.233   5.237  -1.492  1.00  0.00     0.015 A 
ATOM     23  C   UNL     1       2.944   6.399   0.394  1.00  0.00     0.021 A 
ATOM     24  C   UNL     1       1.493   6.606  -1.540  1.00  0.00     0.021 A 
ATOM     25  C   UNL     1       2.330   7.184  -0.586  1.00  0.00     0.041 A 
ATOM     26  Cl  UNL     1       2.592   8.884  -0.605  1.00  0.00    -0.084 Cl
ENDBRANCH  18  20
ENDBRANCH  11  18
BRANCH  16  27
ATOM     27  O   UNL     1      -1.283   4.056   5.571  1.00  0.00    -0.508 OA
ATOM     28  H   UNL     1      -1.552   3.368   6.147  1.00  0.00     0.293 HD
ENDBRANCH  16  27
ENDBRANCH   7   8
ENDBRANCH   4   7
ENDBRANCH   2   3
ENDBRANCH   1   2
BRANCH   1  29
ATOM     29  C   UNL     1       4.382  -0.034   4.104  1.00  0.00     0.023 C 
BRANCH  29  30
ATOM     30  C   UNL     1       5.156  -1.355   4.066  1.00  0.00     0.116 C 
BRANCH  30  31
ATOM     31  N   UNL     1       5.798  -1.598   2.790  1.00  0.00    -0.352 N 
ATOM     32  C   UNL     1       7.040  -1.372   2.272  1.00  0.00     0.251 C 
ATOM     33  H   UNL     1       5.194  -2.029   2.143  1.00  0.00     0.163 HD
ATOM     34  O   UNL     1       7.247  -1.835   1.147  1.00  0.00    -0.269 OA
BRANCH  32  35
ATOM     35  C   UNL     1       8.120  -0.587   2.928  1.00  0.00     0.039 A 
ATOM     36  C   UNL     1       8.019   0.066   4.156  1.00  0.00     0.014 A 
ATOM     37  C   UNL     1       9.311  -0.446   2.188  1.00  0.00     0.014 A 
ATOM     38  C   UNL     1       9.043   0.896   4.597  1.00  0.00     0.010 A 
ATOM     39  C   UNL     1      10.340   0.379   2.626  1.00  0.00     0.010 A 
ATOM     40  C   UNL     1      10.181   1.089   3.811  1.00  0.00    -0.014 A 
BRANCH  40  41
ATOM     41  C   UNL     1      11.190   2.020   4.304  1.00  0.00     0.031 A 
ATOM     42  C   UNL     1      11.802   1.674   5.618  1.00  0.00     0.074 A 
ATOM     43  C   UNL     1      11.603   3.098   3.608  1.00  0.00     0.049 A 
ATOM     44  N   UNL     1      11.786   2.362   6.715  1.00  0.00    -0.248 NA
ATOM     45  C   UNL     1      12.445   0.358   5.745  1.00  0.00     0.031 C 
ATOM     46  C   UNL     1      11.308   3.454   2.219  1.00  0.00     0.029 A 
ATOM     47  N   UNL     1      12.467   4.077   4.001  1.00  0.00    -0.354 N 
ATOM     48  C   UNL     1      12.541   1.639   7.637  1.00  0.00     0.074 A 
ATOM     49  C   UNL     1      12.836   0.371   7.020  1.00  0.00     0.031 C 
ATOM     50  C   UNL     1      12.148   4.438   1.823  1.00  0.00     0.029 A 
ATOM     51  C   UNL     1      12.931   4.873   2.966  1.00  0.00     0.049 A 
ATOM     52  H   UNL     1      12.737   4.207   4.939  1.00  0.00     0.167 HD
ATOM     53  C   UNL     1      13.023   2.205   8.777  1.00  0.00     0.037 A 
ATOM     54  C   UNL     1      13.936   5.780   3.037  1.00  0.00     0.037 A 
ATOM     55  C   UNL     1      12.306   3.399   9.130  1.00  0.00     0.049 A 
ATOM     56  C   UNL     1      14.095   6.162   4.461  1.00  0.00     0.074 A 
ATOM     57  C   UNL     1      11.001   3.681   9.481  1.00  0.00     0.029 A 
ATOM     58  N   UNL     1      12.880   4.613   8.853  1.00  0.00    -0.354 N 
ATOM     59  N   UNL     1      13.216   6.847   5.137  1.00  0.00    -0.248 NA
ATOM     60  C   UNL     1      15.063   5.425   5.258  1.00  0.00     0.031 C 
ATOM     61  C   UNL     1      10.735   4.963   8.915  1.00  0.00     0.029 A 
ATOM     62  C   UNL     1      11.905   5.394   8.290  1.00  0.00     0.049 A 
ATOM     63  H   UNL     1      13.814   4.874   9.026  1.00  0.00     0.167 HD
ATOM     64  C   UNL     1      13.248   6.298   6.409  1.00  0.00     0.074 A 
ATOM     65  C   UNL     1      14.469   5.500   6.451  1.00  0.00     0.031 C 
ATOM     66  C   UNL     1      12.146   6.322   7.213  1.00  0.00     0.037 A 
BRANCH  53  67
ATOM     67  C   UNL     1      14.350   1.852   9.399  1.00  0.00     0.064 A 
ATOM     68  C   UNL     1      14.676   2.343  10.679  1.00  0.00     0.173 A 
ATOM     69  C   UNL     1      15.423   1.309   8.661  1.00  0.00     0.173 A 
ATOM     70  F   UNL     1      13.738   2.907  11.455  1.00  0.00    -0.203 F 
ATOM     71  C   UNL     1      15.991   2.349  11.153  1.00  0.00     0.198 A 
ATOM     72  C   UNL     1      16.724   1.269   9.158  1.00  0.00     0.198 A 
ATOM     73  F   UNL     1      15.276   0.903   7.394  1.00  0.00    -0.203 F 
ATOM     74  F   UNL     1      16.274   2.935  12.324  1.00  0.00    -0.200 F 
ATOM     75  C   UNL     1      17.015   1.816  10.390  1.00  0.00     0.200 A 
ATOM     76  F   UNL     1      17.706   0.770   8.394  1.00  0.00    -0.200 F 
ATOM     77  F   UNL     1      18.283   1.876  10.815  1.00  0.00    -0.200 F 
ENDBRANCH  53  67
BRANCH  54  78
ATOM     78  C   UNL     1      14.978   6.062   2.022  1.00  0.00     0.064 A 
ATOM     79  C   UNL     1      15.790   7.204   2.118  1.00  0.00     0.173 A 
ATOM     80  C   UNL     1      15.394   5.072   1.110  1.00  0.00     0.173 A 
ATOM     81  F   UNL     1      15.489   8.173   2.994  1.00  0.00    -0.203 F 
ATOM     82  C   UNL     1      16.966   7.331   1.372  1.00  0.00     0.198 A 
ATOM     83  C   UNL     1      16.563   5.204   0.360  1.00  0.00     0.198 A 
ATOM     84  F   UNL     1      14.731   3.912   1.001  1.00  0.00    -0.203 F 
ATOM     85  F   UNL     1      17.753   8.403   1.543  1.00  0.00    -0.200 F 
ATOM     86  C   UNL     1      17.358   6.326   0.503  1.00  0.00     0.200 A 
ATOM     87  F   UNL     1      16.950   4.207  -0.448  1.00  0.00    -0.200 F 
ATOM     88  F   UNL     1      18.519   6.417  -0.160  1.00  0.00    -0.200 F 
ENDBRANCH  54  78
BRANCH  66  89
ATOM     89  C   UNL     1      10.992   7.187   6.795  1.00  0.00     0.064 A 
ATOM     90  C   UNL     1      10.233   6.966   5.632  1.00  0.00     0.173 A 
ATOM     91  C   UNL     1      10.542   8.173   7.682  1.00  0.00     0.173 A 
ATOM     92  F   UNL     1      10.540   5.976   4.785  1.00  0.00    -0.203 F 
ATOM     93  C   UNL     1       9.099   7.727   5.355  1.00  0.00     0.198 A 
ATOM     94  C   UNL     1       9.389   8.907   7.421  1.00  0.00     0.198 A 
ATOM     95  F   UNL     1      11.194   8.387   8.836  1.00  0.00    -0.203 F 
ATOM     96  F   UNL     1       8.392   7.500   4.237  1.00  0.00    -0.200 F 
ATOM     97  C   UNL     1       8.672   8.691   6.254  1.00  0.00     0.200 A 
ATOM     98  F   UNL     1       8.951   9.802   8.317  1.00  0.00    -0.200 F 
ATOM     99  F   UNL     1       7.553   9.388   6.013  1.00  0.00    -0.200 F 
ENDBRANCH  66  89
ENDBRANCH  40  41
ENDBRANCH  32  35
ENDBRANCH  30  31
ENDBRANCH  29  30
ENDBRANCH   1  29
TORSDOF 15
