REMARK SMILES C[N@@H+](CC(=O)NCCCCNC(=O)c1ccc(-c2c3nc(c(-c4c(F)c(F)c(F)c(F)c4F)c4ccc([nH]4)c(-c4c(F)c(F)c(F)c(F)c4F)c4nc(c(-c5c(F)c(F)c(F)c(F)c5F)c5ccc2[nH]5)C=C4)C=C3)cc1)Cc1noc(-c2ccccc2Cl)n1
REMARK SMILES IDX 7 1 6 2 4 3 5 4 3 6 2 7 1 8 77 10 78 11 79 12 89 13 80 14
REMARK SMILES IDX 81 15 82 16 83 17 87 18 84 19 86 20 88 21 85 22 8 23 9 24
REMARK SMILES IDX 10 25 11 26 12 27 13 29 14 30 15 31 76 32 16 33 75 34 17 35
REMARK SMILES IDX 18 36 19 37 69 38 20 39 74 40 68 41 70 42 21 43 73 44 67 45
REMARK SMILES IDX 66 46 22 48 54 49 34 50 53 51 35 52 38 53 52 54 71 55 36 56
REMARK SMILES IDX 37 57 51 59 72 60 39 61 23 62 24 63 32 64 25 65 26 66 30 67
REMARK SMILES IDX 33 68 27 69 28 70 31 71 29 72 55 73 56 74 64 75 57 76 58 77
REMARK SMILES IDX 62 78 65 79 59 80 60 81 63 82 61 83 40 84 41 85 49 86 42 87
REMARK SMILES IDX 43 88 47 89 50 90 44 91 45 92 48 93 46 94
REMARK H PARENT 6 5 2 9 11 28 70 47 38 58
REMARK Flexibility Score: inf
ROOT
ATOM      1  C   UNL     1      -0.526   1.186   1.086  1.00  0.00     0.116 C 
ENDROOT
BRANCH   1   2
ATOM      2  N   UNL     1      -1.379   1.257  -0.080  1.00  0.00    -0.351 N 
ATOM      3  C   UNL     1      -1.657   0.305  -1.014  1.00  0.00     0.275 C 
ATOM      4  O   UNL     1      -2.533   0.567  -1.843  1.00  0.00    -0.269 OA
ATOM      5  H   UNL     1      -1.824   2.124  -0.220  1.00  0.00     0.163 HD
BRANCH   3   6
ATOM      6  C   UNL     1      -0.966  -1.057  -0.999  1.00  0.00     0.363 C 
BRANCH   6   7
ATOM      7  N   UNL     1       0.396  -1.098  -1.529  1.00  0.00    -0.323 N 
ATOM      8  C   UNL     1       1.505  -1.075  -0.609  1.00  0.00     0.333 C 
ATOM      9  H   UNL     1       0.354  -2.098  -1.725  1.00  0.00     0.348 HD
BRANCH   7  10
ATOM     10  C   UNL     1       0.656  -0.620  -2.889  1.00  0.00     0.345 C 
BRANCH  10  11
ATOM     11  C   UNL     1       0.527   0.859  -3.105  1.00  0.00     0.226 A 
ATOM     12  N   UNL     1      -0.390   1.367  -3.943  1.00  0.00    -0.056 NA
ATOM     13  N   UNL     1       1.361   1.799  -2.539  1.00  0.00    -0.186 NA
ATOM     14  O   UNL     1      -0.180   2.741  -3.864  1.00  0.00    -0.334 OA
ATOM     15  C   UNL     1       0.883   2.925  -3.028  1.00  0.00     0.259 A 
BRANCH  15  16
ATOM     16  C   UNL     1       1.284   4.307  -2.810  1.00  0.00     0.058 A 
ATOM     17  C   UNL     1       0.317   5.251  -2.411  1.00  0.00     0.015 A 
ATOM     18  C   UNL     1       2.609   4.736  -2.962  1.00  0.00     0.053 A 
ATOM     19  C   UNL     1       0.671   6.575  -2.135  1.00  0.00     0.001 A 
ATOM     20  C   UNL     1       2.958   6.068  -2.703  1.00  0.00     0.021 A 
ATOM     21  Cl  UNL     1       3.866   3.684  -3.515  1.00  0.00    -0.083 Cl
ATOM     22  C   UNL     1       1.993   6.983  -2.280  1.00  0.00     0.002 A 
ENDBRANCH  15  16
ENDBRANCH  10  11
ENDBRANCH   7  10
ENDBRANCH   6   7
ENDBRANCH   3   6
ENDBRANCH   1   2
BRANCH   1  23
ATOM     23  C   UNL     1       0.733   2.039   0.950  1.00  0.00     0.023 C 
BRANCH  23  24
ATOM     24  C   UNL     1       0.491   3.532   0.780  1.00  0.00     0.023 C 
BRANCH  24  25
ATOM     25  C   UNL     1      -0.232   4.210   1.929  1.00  0.00     0.116 C 
BRANCH  25  26
ATOM     26  N   UNL     1       0.479   4.105   3.192  1.00  0.00    -0.352 N 
ATOM     27  C   UNL     1       0.833   5.093   4.081  1.00  0.00     0.251 C 
ATOM     28  H   UNL     1       0.747   3.193   3.449  1.00  0.00     0.163 HD
ATOM     29  O   UNL     1       1.546   4.835   5.041  1.00  0.00    -0.269 OA
BRANCH  27  30
ATOM     30  C   UNL     1       0.379   6.481   3.847  1.00  0.00     0.039 A 
ATOM     31  C   UNL     1       1.300   7.522   3.987  1.00  0.00     0.014 A 
ATOM     32  C   UNL     1      -0.935   6.751   3.457  1.00  0.00     0.014 A 
ATOM     33  C   UNL     1       0.924   8.824   3.653  1.00  0.00     0.010 A 
ATOM     34  C   UNL     1      -1.279   8.030   3.034  1.00  0.00     0.010 A 
ATOM     35  C   UNL     1      -0.353   9.079   3.127  1.00  0.00    -0.014 A 
BRANCH  35  36
ATOM     36  C   UNL     1      -0.740  10.434   2.662  1.00  0.00     0.031 A 
ATOM     37  C   UNL     1      -1.875  11.162   3.325  1.00  0.00     0.074 A 
ATOM     38  C   UNL     1      -0.118  10.973   1.595  1.00  0.00     0.049 A 
ATOM     39  N   UNL     1      -2.413  12.315   3.016  1.00  0.00    -0.248 NA
ATOM     40  C   UNL     1      -2.514  10.491   4.468  1.00  0.00     0.031 C 
ATOM     41  C   UNL     1       0.959  10.338   0.833  1.00  0.00     0.029 A 
ATOM     42  N   UNL     1      -0.309  12.175   0.960  1.00  0.00    -0.354 N 
ATOM     43  C   UNL     1      -3.458  12.496   3.912  1.00  0.00     0.074 A 
ATOM     44  C   UNL     1      -3.519  11.310   4.738  1.00  0.00     0.031 C 
ATOM     45  C   UNL     1       1.353  11.168  -0.146  1.00  0.00     0.029 A 
ATOM     46  C   UNL     1       0.531  12.373  -0.109  1.00  0.00     0.049 A 
ATOM     47  H   UNL     1      -0.984  12.833   1.244  1.00  0.00     0.167 HD
ATOM     48  C   UNL     1      -4.275  13.566   4.052  1.00  0.00     0.037 A 
ATOM     49  C   UNL     1       0.620  13.408  -0.966  1.00  0.00     0.037 A 
ATOM     50  C   UNL     1      -4.188  14.757   3.249  1.00  0.00     0.049 A 
ATOM     51  C   UNL     1      -0.302  14.585  -0.790  1.00  0.00     0.074 A 
ATOM     52  C   UNL     1      -4.916  15.928   3.360  1.00  0.00     0.029 A 
ATOM     53  N   UNL     1      -3.318  14.926   2.181  1.00  0.00    -0.354 N 
ATOM     54  N   UNL     1      -1.234  14.778   0.112  1.00  0.00    -0.248 NA
ATOM     55  C   UNL     1      -0.159  15.687  -1.752  1.00  0.00     0.031 C 
ATOM     56  C   UNL     1      -4.521  16.787   2.329  1.00  0.00     0.029 A 
ATOM     57  C   UNL     1      -3.513  16.171   1.605  1.00  0.00     0.049 A 
ATOM     58  H   UNL     1      -2.660  14.259   1.877  1.00  0.00     0.167 HD
ATOM     59  C   UNL     1      -1.775  16.027  -0.161  1.00  0.00     0.074 A 
ATOM     60  C   UNL     1      -1.051  16.556  -1.298  1.00  0.00     0.031 C 
ATOM     61  C   UNL     1      -2.784  16.677   0.470  1.00  0.00     0.037 A 
BRANCH  48  62
ATOM     62  C   UNL     1      -5.330  13.502   5.118  1.00  0.00     0.064 A 
ATOM     63  C   UNL     1      -5.000  13.537   6.482  1.00  0.00     0.173 A 
ATOM     64  C   UNL     1      -6.688  13.436   4.774  1.00  0.00     0.173 A 
ATOM     65  F   UNL     1      -3.716  13.586   6.865  1.00  0.00    -0.203 F 
ATOM     66  C   UNL     1      -5.989  13.479   7.461  1.00  0.00     0.198 A 
ATOM     67  C   UNL     1      -7.676  13.409   5.755  1.00  0.00     0.198 A 
ATOM     68  F   UNL     1      -7.059  13.404   3.485  1.00  0.00    -0.203 F 
ATOM     69  F   UNL     1      -5.647  13.461   8.756  1.00  0.00    -0.200 F 
ATOM     70  C   UNL     1      -7.326  13.422   7.097  1.00  0.00     0.200 A 
ATOM     71  F   UNL     1      -8.968  13.368   5.402  1.00  0.00    -0.200 F 
ATOM     72  F   UNL     1      -8.277  13.373   8.040  1.00  0.00    -0.200 F 
ENDBRANCH  48  62
BRANCH  49  73
ATOM     73  C   UNL     1       1.633  13.387  -2.054  1.00  0.00     0.064 A 
ATOM     74  C   UNL     1       2.727  14.263  -2.035  1.00  0.00     0.173 A 
ATOM     75  C   UNL     1       1.529  12.497  -3.133  1.00  0.00     0.173 A 
ATOM     76  F   UNL     1       2.861  15.145  -1.034  1.00  0.00    -0.203 F 
ATOM     77  C   UNL     1       3.668  14.263  -3.063  1.00  0.00     0.198 A 
ATOM     78  C   UNL     1       2.486  12.478  -4.146  1.00  0.00     0.198 A 
ATOM     79  F   UNL     1       0.507  11.630  -3.193  1.00  0.00    -0.203 F 
ATOM     80  F   UNL     1       4.681  15.140  -3.041  1.00  0.00    -0.200 F 
ATOM     81  C   UNL     1       3.550  13.367  -4.115  1.00  0.00     0.200 A 
ATOM     82  F   UNL     1       2.378  11.597  -5.149  1.00  0.00    -0.200 F 
ATOM     83  F   UNL     1       4.458  13.363  -5.100  1.00  0.00    -0.200 F 
ENDBRANCH  49  73
BRANCH  61  84
ATOM     84  C   UNL     1      -3.156  18.035  -0.049  1.00  0.00     0.064 A 
ATOM     85  C   UNL     1      -3.828  18.192  -1.270  1.00  0.00     0.173 A 
ATOM     86  C   UNL     1      -2.873  19.187   0.700  1.00  0.00     0.173 A 
ATOM     87  F   UNL     1      -4.106  17.122  -2.030  1.00  0.00    -0.203 F 
ATOM     88  C   UNL     1      -4.183  19.456  -1.733  1.00  0.00     0.198 A 
ATOM     89  C   UNL     1      -3.256  20.446   0.248  1.00  0.00     0.198 A 
ATOM     90  F   UNL     1      -2.237  19.089   1.877  1.00  0.00    -0.203 F 
ATOM     91  F   UNL     1      -4.783  19.586  -2.924  1.00  0.00    -0.200 F 
ATOM     92  C   UNL     1      -3.904  20.580  -0.971  1.00  0.00     0.200 A 
ATOM     93  F   UNL     1      -2.999  21.530   0.992  1.00  0.00    -0.200 F 
ATOM     94  F   UNL     1      -4.254  21.795  -1.415  1.00  0.00    -0.200 F 
ENDBRANCH  61  84
ENDBRANCH  35  36
ENDBRANCH  27  30
ENDBRANCH  25  26
ENDBRANCH  24  25
ENDBRANCH  23  24
ENDBRANCH   1  23
TORSDOF 15
