REMARK SMILES COc1cc2c(cc1OC)[C@H](C(=O)NCCCCNC(=O)c1ccc(-c3c4nc(c(-c5c(F)c(F)c(F)c(F)c5F)c5ccc([nH]5)c(-c5c(F)c(F)c(F)c(F)c5F)c5nc(c(-c6c(F)c(F)c(F)c(F)c6F)c6ccc3[nH]6)C=C5)C=C4)cc1)[C@H](c1cccc(Cl)c1)N(C)C2=O
REMARK SMILES IDX 17 1 16 2 15 3 14 4 12 5 13 6 11 8 3 9 4 10 8 11 5 12 7 13
REMARK SMILES IDX 6 14 95 15 93 16 96 17 85 18 94 19 2 20 1 21 9 22 10 23
REMARK SMILES IDX 86 24 87 25 92 26 88 27 90 28 89 29 91 30 18 31 19 32 20 33
REMARK SMILES IDX 21 35 22 36 23 37 84 38 24 39 83 40 25 41 26 42 27 43 77 44
REMARK SMILES IDX 28 45 82 46 76 47 78 48 29 49 81 50 75 51 74 52 30 54 62 55
REMARK SMILES IDX 42 56 61 57 43 58 46 59 60 60 79 61 44 62 45 63 59 65 80 66
REMARK SMILES IDX 47 67 31 68 32 69 40 70 33 71 34 72 38 73 41 74 35 75 36 76
REMARK SMILES IDX 39 77 37 78 63 79 64 80 72 81 65 82 66 83 70 84 73 85 67 86
REMARK SMILES IDX 68 87 71 88 69 89 48 90 49 91 57 92 50 93 51 94 55 95 58 96
REMARK SMILES IDX 52 97 53 98 56 99 54 100
REMARK H PARENT 14 7 19 34 78 53 46 64
REMARK Flexibility Score: inf
ROOT
ATOM      1  C   UNL     1      -1.812   5.917  -7.711  1.00  0.00     0.023 C 
ENDROOT
BRANCH   1   2
ATOM      2  C   UNL     1      -0.825   5.969  -6.539  1.00  0.00     0.023 C 
BRANCH   2   3
ATOM      3  C   UNL     1      -0.533   4.617  -5.889  1.00  0.00     0.116 C 
BRANCH   3   4
ATOM      4  N   UNL     1      -0.058   3.675  -6.884  1.00  0.00    -0.355 N 
ATOM      5  C   UNL     1       1.120   2.998  -6.974  1.00  0.00     0.230 C 
ATOM      6  O   UNL     1       1.331   2.472  -8.063  1.00  0.00    -0.274 OA
ATOM      7  H   UNL     1      -0.691   3.496  -7.615  1.00  0.00     0.163 HD
BRANCH   5   8
ATOM      8  C   UNL     1       2.073   2.954  -5.784  1.00  0.00     0.136 C 
ATOM      9  C   UNL     1       0.885   0.687  -2.263  1.00  0.00     0.161 A 
ATOM     10  C   UNL     1       2.150   1.282  -2.366  1.00  0.00     0.064 A 
ATOM     11  C   UNL     1      -0.039   0.859  -3.305  1.00  0.00     0.161 A 
ATOM     12  C   UNL     1       2.498   2.027  -3.503  1.00  0.00     0.048 A 
ATOM     13  C   UNL     1       0.333   1.584  -4.449  1.00  0.00     0.056 A 
ATOM     14  C   UNL     1       1.597   2.172  -4.568  1.00  0.00    -0.016 A 
ATOM     15  C   UNL     1       3.876   2.603  -3.609  1.00  0.00     0.254 C 
ATOM     16  N   UNL     1       4.340   2.886  -4.898  1.00  0.00    -0.333 N 
ATOM     17  O   UNL     1       4.544   2.772  -2.594  1.00  0.00    -0.269 OA
ATOM     18  C   UNL     1       3.540   2.513  -6.096  1.00  0.00     0.132 C 
ATOM     19  C   UNL     1       5.699   3.365  -5.067  1.00  0.00     0.147 C 
BRANCH   9  20
ATOM     20  O   UNL     1       0.557  -0.147  -1.227  1.00  0.00    -0.493 OA
ATOM     21  C   UNL     1       1.101   0.178   0.046  1.00  0.00     0.278 C 
ENDBRANCH   9  20
BRANCH  11  22
ATOM     22  O   UNL     1      -1.325   0.390  -3.391  1.00  0.00    -0.493 OA
ATOM     23  C   UNL     1      -1.939  -0.125  -2.218  1.00  0.00     0.278 C 
ENDBRANCH  11  22
BRANCH  18  24
ATOM     24  C   UNL     1       3.759   1.043  -6.500  1.00  0.00    -0.023 A 
ATOM     25  C   UNL     1       3.425   0.609  -7.794  1.00  0.00     0.006 A 
ATOM     26  C   UNL     1       4.276   0.071  -5.624  1.00  0.00     0.026 A 
ATOM     27  C   UNL     1       3.448  -0.743  -8.149  1.00  0.00     0.002 A 
ATOM     28  C   UNL     1       4.336  -1.277  -5.990  1.00  0.00     0.041 A 
ATOM     29  C   UNL     1       3.890  -1.693  -7.238  1.00  0.00     0.020 A 
ATOM     30  Cl  UNL     1       4.962  -2.433  -4.880  1.00  0.00    -0.084 Cl
ENDBRANCH  18  24
ENDBRANCH   5   8
ENDBRANCH   3   4
ENDBRANCH   2   3
ENDBRANCH   1   2
BRANCH   1  31
ATOM     31  C   UNL     1      -3.131   5.210  -7.416  1.00  0.00     0.116 C 
BRANCH  31  32
ATOM     32  N   UNL     1      -3.880   5.860  -6.355  1.00  0.00    -0.352 N 
ATOM     33  C   UNL     1      -5.177   6.305  -6.355  1.00  0.00     0.251 C 
ATOM     34  H   UNL     1      -3.385   6.002  -5.515  1.00  0.00     0.163 HD
ATOM     35  O   UNL     1      -5.589   6.998  -5.428  1.00  0.00    -0.269 OA
BRANCH  33  36
ATOM     36  C   UNL     1      -6.073   5.977  -7.484  1.00  0.00     0.039 A 
ATOM     37  C   UNL     1      -6.878   6.986  -8.017  1.00  0.00     0.014 A 
ATOM     38  C   UNL     1      -6.123   4.685  -8.015  1.00  0.00     0.014 A 
ATOM     39  C   UNL     1      -7.689   6.713  -9.120  1.00  0.00     0.010 A 
ATOM     40  C   UNL     1      -6.870   4.435  -9.164  1.00  0.00     0.010 A 
ATOM     41  C   UNL     1      -7.665   5.446  -9.726  1.00  0.00    -0.014 A 
BRANCH  41  42
ATOM     42  C   UNL     1      -8.460   5.173 -10.952  1.00  0.00     0.031 A 
ATOM     43  C   UNL     1      -9.561   4.149 -10.937  1.00  0.00     0.074 A 
ATOM     44  C   UNL     1      -8.157   5.818 -12.096  1.00  0.00     0.049 A 
ATOM     45  N   UNL     1     -10.348   3.765 -11.912  1.00  0.00    -0.248 NA
ATOM     46  C   UNL     1      -9.794   3.445  -9.667  1.00  0.00     0.031 C 
ATOM     47  C   UNL     1      -7.076   6.793 -12.254  1.00  0.00     0.029 A 
ATOM     48  N   UNL     1      -8.726   5.750 -13.343  1.00  0.00    -0.354 N 
ATOM     49  C   UNL     1     -11.158   2.773 -11.376  1.00  0.00     0.074 A 
ATOM     50  C   UNL     1     -10.728   2.570 -10.009  1.00  0.00     0.031 C 
ATOM     51  C   UNL     1      -7.081   7.255 -13.514  1.00  0.00     0.029 A 
ATOM     52  C   UNL     1      -8.137   6.581 -14.264  1.00  0.00     0.049 A 
ATOM     53  H   UNL     1      -9.486   5.162 -13.557  1.00  0.00     0.167 HD
ATOM     54  C   UNL     1     -12.185   2.111 -11.961  1.00  0.00     0.037 A 
ATOM     55  C   UNL     1      -8.413   6.776 -15.568  1.00  0.00     0.037 A 
ATOM     56  C   UNL     1     -12.618   2.327 -13.317  1.00  0.00     0.049 A 
ATOM     57  C   UNL     1      -9.550   6.019 -16.198  1.00  0.00     0.074 A 
ATOM     58  C   UNL     1     -13.685   1.750 -13.984  1.00  0.00     0.029 A 
ATOM     59  N   UNL     1     -12.001   3.183 -14.218  1.00  0.00    -0.354 N 
ATOM     60  N   UNL     1     -10.363   5.144 -15.658  1.00  0.00    -0.248 NA
ATOM     61  C   UNL     1      -9.815   6.284 -17.619  1.00  0.00     0.031 C 
ATOM     62  C   UNL     1     -13.676   2.210 -15.305  1.00  0.00     0.029 A 
ATOM     63  C   UNL     1     -12.646   3.126 -15.444  1.00  0.00     0.049 A 
ATOM     64  H   UNL     1     -11.219   3.747 -14.017  1.00  0.00     0.167 HD
ATOM     65  C   UNL     1     -11.253   4.779 -16.659  1.00  0.00     0.074 A 
ATOM     66  C   UNL     1     -10.889   5.539 -17.837  1.00  0.00     0.031 C 
ATOM     67  C   UNL     1     -12.279   3.894 -16.607  1.00  0.00     0.037 A 
BRANCH  54  68
ATOM     68  C   UNL     1     -12.911   1.085 -11.137  1.00  0.00     0.064 A 
ATOM     69  C   UNL     1     -13.704   1.448 -10.037  1.00  0.00     0.173 A 
ATOM     70  C   UNL     1     -12.843  -0.276 -11.471  1.00  0.00     0.173 A 
ATOM     71  F   UNL     1     -13.798   2.735  -9.667  1.00  0.00    -0.203 F 
ATOM     72  C   UNL     1     -14.372   0.486  -9.283  1.00  0.00     0.198 A 
ATOM     73  C   UNL     1     -13.541  -1.232 -10.737  1.00  0.00     0.198 A 
ATOM     74  F   UNL     1     -12.107  -0.680 -12.517  1.00  0.00    -0.203 F 
ATOM     75  F   UNL     1     -15.077   0.853  -8.204  1.00  0.00    -0.200 F 
ATOM     76  C   UNL     1     -14.296  -0.852  -9.638  1.00  0.00     0.200 A 
ATOM     77  F   UNL     1     -13.479  -2.523 -11.092  1.00  0.00    -0.200 F 
ATOM     78  F   UNL     1     -14.945  -1.776  -8.917  1.00  0.00    -0.200 F 
ENDBRANCH  54  68
BRANCH  55  79
ATOM     79  C   UNL     1      -7.614   7.750 -16.358  1.00  0.00     0.064 A 
ATOM     80  C   UNL     1      -8.186   8.941 -16.827  1.00  0.00     0.173 A 
ATOM     81  C   UNL     1      -6.265   7.512 -16.663  1.00  0.00     0.173 A 
ATOM     82  F   UNL     1      -9.477   9.207 -16.578  1.00  0.00    -0.203 F 
ATOM     83  C   UNL     1      -7.448   9.845 -17.589  1.00  0.00     0.198 A 
ATOM     84  C   UNL     1      -5.519   8.431 -17.397  1.00  0.00     0.198 A 
ATOM     85  F   UNL     1      -5.667   6.391 -16.232  1.00  0.00    -0.203 F 
ATOM     86  F   UNL     1      -8.034  10.951 -18.066  1.00  0.00    -0.200 F 
ATOM     87  C   UNL     1      -6.113   9.592 -17.868  1.00  0.00     0.200 A 
ATOM     88  F   UNL     1      -4.225   8.191 -17.649  1.00  0.00    -0.200 F 
ATOM     89  F   UNL     1      -5.402  10.463 -18.596  1.00  0.00    -0.200 F 
ENDBRANCH  55  79
BRANCH  67  90
ATOM     90  C   UNL     1     -13.114   3.729 -17.846  1.00  0.00     0.064 A 
ATOM     91  C   UNL     1     -12.614   3.103 -18.998  1.00  0.00     0.173 A 
ATOM     92  C   UNL     1     -14.446   4.170 -17.865  1.00  0.00     0.173 A 
ATOM     93  F   UNL     1     -11.343   2.676 -19.037  1.00  0.00    -0.203 F 
ATOM     94  C   UNL     1     -13.409   2.951 -20.131  1.00  0.00     0.198 A 
ATOM     95  C   UNL     1     -15.248   3.985 -18.987  1.00  0.00     0.198 A 
ATOM     96  F   UNL     1     -14.976   4.769 -16.788  1.00  0.00    -0.203 F 
ATOM     97  F   UNL     1     -12.894   2.399 -21.238  1.00  0.00    -0.200 F 
ATOM     98  C   UNL     1     -14.726   3.384 -20.123  1.00  0.00     0.200 A 
ATOM     99  F   UNL     1     -16.526   4.388 -18.970  1.00  0.00    -0.200 F 
ATOM    100  F   UNL     1     -15.492   3.229 -21.212  1.00  0.00    -0.200 F 
ENDBRANCH  67  90
ENDBRANCH  41  42
ENDBRANCH  33  36
ENDBRANCH  31  32
ENDBRANCH   1  31
TORSDOF 14
