REMARK SMILES Cn1cc([C@@H]2CC(NCCCCNC(=O)c3ccc(-c4c5nc(c(-c6c(F)c(F)c(F)c(F)c6F)c6ccc([nH]6)c(-c6c(F)c(F)c(F)c(F)c6F)c6nc(c(-c7c(F)c(F)c(F)c(F)c7F)c7ccc4[nH]7)C=C6)C=C5)cc3)=[NH+]c3c2sc(C(=O)[O-])c3-c2ccc(Cl)cc2)cn1
REMARK SMILES IDX 11 1 10 2 9 3 8 4 5 5 6 6 81 7 7 8 80 9 82 10 79 11 87 12
REMARK SMILES IDX 83 13 4 16 1 17 2 18 3 19 96 20 95 21 88 22 89 23 94 24
REMARK SMILES IDX 90 25 93 26 91 27 92 28 84 29 85 30 86 31 12 32 13 33 14 34
REMARK SMILES IDX 15 36 16 37 17 38 78 39 18 40 77 41 19 42 20 43 21 44 71 45
REMARK SMILES IDX 22 46 76 47 70 48 72 49 23 50 75 51 69 52 68 53 24 55 56 56
REMARK SMILES IDX 36 57 55 58 37 59 40 60 54 61 73 62 38 63 39 64 53 66 74 67
REMARK SMILES IDX 41 68 25 69 26 70 34 71 27 72 28 73 32 74 35 75 29 76 30 77
REMARK SMILES IDX 33 78 31 79 57 80 58 81 66 82 59 83 60 84 64 85 67 86 61 87
REMARK SMILES IDX 62 88 65 89 63 90 42 91 43 92 51 93 44 94 45 95 49 96 52 97
REMARK SMILES IDX 46 98 47 99 50 100 48 101
REMARK H PARENT 8 14 79 15 13 35 72 54 40 65
REMARK Flexibility Score: inf
ROOT
ATOM      1  C   UNL     1       2.034  -6.729  -3.752  1.00  0.00     0.025 C 
ENDROOT
BRANCH   1   2
ATOM      2  C   UNL     1       2.241  -6.890  -2.239  1.00  0.00     0.048 C 
BRANCH   2   3
ATOM      3  C   UNL     1       3.415  -6.120  -1.628  1.00  0.00     0.233 C 
BRANCH   3   4
ATOM      4  N   UNL     1       3.235  -4.682  -1.750  1.00  0.00    -0.278 N 
ATOM      5  C   UNL     1       2.647  -1.383   0.150  1.00  0.00     0.079 C 
ATOM      6  C   UNL     1       2.948  -2.343  -1.012  1.00  0.00     0.142 C 
ATOM      7  C   UNL     1       2.663  -2.109   1.450  1.00  0.00     0.061 A 
ATOM      8  C   UNL     1       3.043  -3.836  -0.672  1.00  0.00     0.248 C 
ATOM      9  C   UNL     1       2.819  -3.455   1.593  1.00  0.00     0.147 A 
ATOM     10  S   UNL     1       2.491  -1.343   2.957  1.00  0.00    -0.133 S 
ATOM     11  N   UNL     1       2.989  -4.336   0.528  1.00  0.00    -0.243 N 
ATOM     12  C   UNL     1       2.788  -3.904   2.951  1.00  0.00     0.049 A 
ATOM     13  C   UNL     1       2.583  -2.838   3.824  1.00  0.00     0.062 A 
ATOM     14  H   UNL     1       3.252  -4.288  -2.652  1.00  0.00     0.304 HD
ATOM     15  H   UNL     1       3.066  -5.306   0.678  1.00  0.00     0.312 HD
BRANCH   5  16
ATOM     16  C   UNL     1       1.362  -0.626  -0.046  1.00  0.00    -0.001 A 
ATOM     17  C   UNL     1      -2.188  -0.005  -0.136  1.00  0.00     0.173 C 
ATOM     18  N   UNL     1      -0.746  -0.018  -0.173  1.00  0.00    -0.276 N 
ATOM     19  C   UNL     1       0.068  -1.109  -0.085  1.00  0.00     0.112 A 
ATOM     20  N   UNL     1      -0.075   1.142  -0.267  1.00  0.00    -0.182 NA
ATOM     21  C   UNL     1       1.203   0.776  -0.162  1.00  0.00     0.139 A 
ENDBRANCH   5  16
BRANCH  12  22
ATOM     22  C   UNL     1       2.985  -5.288   3.374  1.00  0.00    -0.012 A 
ATOM     23  C   UNL     1       1.966  -6.010   4.007  1.00  0.00     0.010 A 
ATOM     24  C   UNL     1       4.213  -5.914   3.114  1.00  0.00     0.010 A 
ATOM     25  C   UNL     1       2.194  -7.324   4.426  1.00  0.00     0.021 A 
ATOM     26  C   UNL     1       4.436  -7.230   3.520  1.00  0.00     0.021 A 
ATOM     27  C   UNL     1       3.430  -7.925   4.187  1.00  0.00     0.041 A 
ATOM     28  Cl  UNL     1       3.716  -9.535   4.721  1.00  0.00    -0.084 Cl
ENDBRANCH  12  22
BRANCH  13  29
ATOM     29  C   UNL     1       2.458  -2.742   5.269  1.00  0.00     0.082 C 
ATOM     30  O   UNL     1       2.135  -1.780   5.937  1.00  0.00    -0.544 OA
ATOM     31  O   UNL     1       2.755  -3.900   5.902  1.00  0.00    -0.544 OA
ENDBRANCH  13  29
ENDBRANCH   3   4
ENDBRANCH   2   3
ENDBRANCH   1   2
BRANCH   1  32
ATOM     32  C   UNL     1       3.220  -7.146  -4.611  1.00  0.00     0.116 C 
BRANCH  32  33
ATOM     33  N   UNL     1       3.519  -8.576  -4.543  1.00  0.00    -0.352 N 
ATOM     34  C   UNL     1       4.559  -9.249  -5.160  1.00  0.00     0.251 C 
ATOM     35  H   UNL     1       2.910  -9.123  -3.995  1.00  0.00     0.163 HD
ATOM     36  O   UNL     1       4.502 -10.453  -5.374  1.00  0.00    -0.269 OA
BRANCH  34  37
ATOM     37  C   UNL     1       5.750  -8.480  -5.560  1.00  0.00     0.039 A 
ATOM     38  C   UNL     1       6.364  -8.671  -6.800  1.00  0.00     0.014 A 
ATOM     39  C   UNL     1       6.214  -7.512  -4.676  1.00  0.00     0.014 A 
ATOM     40  C   UNL     1       7.391  -7.808  -7.179  1.00  0.00     0.010 A 
ATOM     41  C   UNL     1       7.108  -6.568  -5.113  1.00  0.00     0.010 A 
ATOM     42  C   UNL     1       7.740  -6.736  -6.340  1.00  0.00    -0.014 A 
BRANCH  42  43
ATOM     43  C   UNL     1       8.668  -5.701  -6.796  1.00  0.00     0.031 A 
ATOM     44  C   UNL     1       8.312  -5.096  -8.110  1.00  0.00     0.074 A 
ATOM     45  C   UNL     1       9.631  -5.174  -6.007  1.00  0.00     0.049 A 
ATOM     46  N   UNL     1       8.983  -5.149  -9.212  1.00  0.00    -0.248 NA
ATOM     47  C   UNL     1       6.990  -4.460  -8.253  1.00  0.00     0.031 C 
ATOM     48  C   UNL     1       9.884  -5.459  -4.587  1.00  0.00     0.029 A 
ATOM     49  N   UNL     1      10.527  -4.180  -6.272  1.00  0.00    -0.354 N 
ATOM     50  C   UNL     1       8.272  -4.382 -10.134  1.00  0.00     0.074 A 
ATOM     51  C   UNL     1       6.982  -4.136  -9.548  1.00  0.00     0.031 C 
ATOM     52  C   UNL     1      10.680  -4.503  -4.063  1.00  0.00     0.029 A 
ATOM     53  C   UNL     1      11.147  -3.655  -5.143  1.00  0.00     0.049 A 
ATOM     54  H   UNL     1      10.718  -3.861  -7.184  1.00  0.00     0.167 HD
ATOM     55  C   UNL     1       8.914  -3.782 -11.174  1.00  0.00     0.037 A 
ATOM     56  C   UNL     1      11.989  -2.596  -5.086  1.00  0.00     0.037 A 
ATOM     57  C   UNL     1      10.222  -4.356 -11.362  1.00  0.00     0.049 A 
ATOM     58  C   UNL     1      12.529  -2.394  -6.446  1.00  0.00     0.074 A 
ATOM     59  C   UNL     1      10.726  -5.576 -11.755  1.00  0.00     0.029 A 
ATOM     60  N   UNL     1      11.236  -3.691 -10.725  1.00  0.00    -0.354 N 
ATOM     61  N   UNL     1      13.330  -3.233  -7.039  1.00  0.00    -0.248 NA
ATOM     62  C   UNL     1      11.887  -1.420  -7.316  1.00  0.00     0.031 C 
ATOM     63  C   UNL     1      11.953  -5.732 -11.041  1.00  0.00     0.029 A 
ATOM     64  C   UNL     1      12.178  -4.580 -10.286  1.00  0.00     0.049 A 
ATOM     65  H   UNL     1      11.281  -2.716 -10.601  1.00  0.00     0.167 HD
ATOM     66  C   UNL     1      12.953  -3.187  -8.368  1.00  0.00     0.074 A 
ATOM     67  C   UNL     1      12.203  -1.943  -8.504  1.00  0.00     0.031 C 
ATOM     68  C   UNL     1      13.023  -4.308  -9.143  1.00  0.00     0.037 A 
BRANCH  55  69
ATOM     69  C   UNL     1       8.597  -2.389 -11.688  1.00  0.00     0.064 A 
ATOM     70  C   UNL     1       9.299  -1.901 -12.813  1.00  0.00     0.173 A 
ATOM     71  C   UNL     1       7.905  -1.411 -10.941  1.00  0.00     0.173 A 
ATOM     72  F   UNL     1      10.016  -2.732 -13.584  1.00  0.00    -0.203 F 
ATOM     73  C   UNL     1       9.366  -0.535 -13.111  1.00  0.00     0.198 A 
ATOM     74  C   UNL     1       7.932  -0.056 -11.272  1.00  0.00     0.198 A 
ATOM     75  F   UNL     1       7.277  -1.698  -9.795  1.00  0.00    -0.203 F 
ATOM     76  F   UNL     1      10.152  -0.108 -14.108  1.00  0.00    -0.200 F 
ATOM     77  C   UNL     1       8.687   0.386 -12.336  1.00  0.00     0.200 A 
ATOM     78  F   UNL     1       7.289   0.823 -10.491  1.00  0.00    -0.200 F 
ATOM     79  F   UNL     1       8.801   1.698 -12.578  1.00  0.00    -0.200 F 
ENDBRANCH  55  69
BRANCH  56  80
ATOM     80  C   UNL     1      12.191  -1.616  -3.997  1.00  0.00     0.064 A 
ATOM     81  C   UNL     1      13.357  -0.836  -3.921  1.00  0.00     0.173 A 
ATOM     82  C   UNL     1      11.117  -1.221  -3.177  1.00  0.00     0.173 A 
ATOM     83  F   UNL     1      14.410  -1.122  -4.700  1.00  0.00    -0.203 F 
ATOM     84  C   UNL     1      13.431   0.292  -3.098  1.00  0.00     0.198 A 
ATOM     85  C   UNL     1      11.193  -0.097  -2.354  1.00  0.00     0.198 A 
ATOM     86  F   UNL     1       9.940  -1.862  -3.237  1.00  0.00    -0.203 F 
ATOM     87  F   UNL     1      14.537   1.051  -3.101  1.00  0.00    -0.200 F 
ATOM     88  C   UNL     1      12.345   0.668  -2.325  1.00  0.00     0.200 A 
ATOM     89  F   UNL     1      10.121   0.280  -1.643  1.00  0.00    -0.200 F 
ATOM     90  F   UNL     1      12.391   1.788  -1.589  1.00  0.00    -0.200 F 
ENDBRANCH  56  80
BRANCH  68  91
ATOM     91  C   UNL     1      13.919  -5.416  -8.668  1.00  0.00     0.064 A 
ATOM     92  C   UNL     1      13.720  -6.162  -7.494  1.00  0.00     0.173 A 
ATOM     93  C   UNL     1      14.983  -5.792  -9.498  1.00  0.00     0.173 A 
ATOM     94  F   UNL     1      12.677  -5.923  -6.690  1.00  0.00    -0.203 F 
ATOM     95  C   UNL     1      14.579  -7.205  -7.148  1.00  0.00     0.198 A 
ATOM     96  C   UNL     1      15.813  -6.859  -9.172  1.00  0.00     0.198 A 
ATOM     97  F   UNL     1      15.194  -5.144 -10.655  1.00  0.00    -0.203 F 
ATOM     98  F   UNL     1      14.383  -7.887  -6.010  1.00  0.00    -0.200 F 
ATOM     99  C   UNL     1      15.620  -7.557  -7.991  1.00  0.00     0.200 A 
ATOM    100  F   UNL     1      16.790  -7.223 -10.014  1.00  0.00    -0.200 F 
ATOM    101  F   UNL     1      16.424  -8.582  -7.677  1.00  0.00    -0.200 F 
ENDBRANCH  68  91
ENDBRANCH  42  43
ENDBRANCH  34  37
ENDBRANCH  32  33
ENDBRANCH   1  32
TORSDOF 13
