REMARK SMILES Cn1ccc(S(=O)(=O)N[C@H]2C=C[C@@H](C(=O)NCCCCNC(=O)c3ccc(-c4c5nc(c(-c6c(F)c(F)c(F)c(F)c6F)c6ccc([nH]6)c(-c6c(F)c(F)c(F)c(F)c6F)c6nc(c(-c7c(F)c(F)c(F)c(F)c7F)c7ccc4[nH]7)C=C6)C=C5)cc3)C2)c1
REMARK SMILES IDX 18 1 17 2 16 3 14 4 15 5 13 7 10 8 11 9 87 10 12 11 9 12
REMARK SMILES IDX 6 14 7 15 8 16 5 17 1 18 2 19 3 20 88 21 4 22 19 23 20 24
REMARK SMILES IDX 21 25 22 26 23 28 24 29 25 30 86 31 26 32 85 33 27 34 28 35
REMARK SMILES IDX 29 36 79 37 30 38 84 39 78 40 80 41 31 42 83 43 77 44 76 45
REMARK SMILES IDX 32 47 64 48 44 49 63 50 45 51 48 52 62 53 81 54 46 55 47 56
REMARK SMILES IDX 61 58 82 59 49 60 33 61 34 62 42 63 35 64 36 65 40 66 43 67
REMARK SMILES IDX 37 68 38 69 41 70 39 71 65 72 66 73 74 74 67 75 68 76 72 77
REMARK SMILES IDX 75 78 69 79 70 80 73 81 71 82 50 83 51 84 59 85 52 86 53 87
REMARK SMILES IDX 57 88 60 89 54 90 55 91 58 92 56 93
REMARK H PARENT 16 6 9 13 21 27 80 46 48 57
REMARK Flexibility Score: inf
ROOT
ATOM      1  C   UNL     1      -5.201  -5.217   1.005  1.00  0.00     0.023 C 
ENDROOT
BRANCH   1   2
ATOM      2  C   UNL     1      -4.775  -4.544   2.308  1.00  0.00     0.116 C 
BRANCH   2   3
ATOM      3  N   UNL     1      -4.358  -5.513   3.302  1.00  0.00    -0.356 N 
ATOM      4  C   UNL     1      -3.130  -5.794   3.816  1.00  0.00     0.226 C 
ATOM      5  O   UNL     1      -3.076  -6.670   4.686  1.00  0.00    -0.274 OA
ATOM      6  H   UNL     1      -5.088  -6.063   3.667  1.00  0.00     0.163 HD
BRANCH   4   7
ATOM      7  C   UNL     1      -1.851  -5.073   3.377  1.00  0.00     0.103 C 
ATOM      8  C   UNL     1      -1.241  -3.726   1.395  1.00  0.00     0.093 C 
ATOM      9  C   UNL     1      -1.551  -2.886   2.585  1.00  0.00    -0.011 C 
ATOM     10  C   UNL     1      -1.508  -5.165   1.886  1.00  0.00     0.042 C 
ATOM     11  C   UNL     1      -1.876  -3.608   3.662  1.00  0.00    -0.016 C 
BRANCH   8  12
ATOM     12  N   UNL     1      -2.038  -3.446   0.202  1.00  0.00    -0.204 NA
ATOM     13  H   UNL     1      -1.476  -3.765  -0.587  1.00  0.00     0.142 HD
BRANCH  12  14
ATOM     14  S   UNL     1      -2.592  -1.925  -0.223  1.00  0.00     0.242 S 
ATOM     15  O   UNL     1      -3.511  -1.474   0.796  1.00  0.00    -0.207 OA
ATOM     16  O   UNL     1      -2.993  -2.010  -1.609  1.00  0.00    -0.207 OA
BRANCH  14  17
ATOM     17  C   UNL     1      -1.291  -0.797  -0.204  1.00  0.00     0.100 A 
ATOM     18  C   UNL     1       2.179   0.223  -0.158  1.00  0.00     0.149 C 
ATOM     19  N   UNL     1       0.740   0.094  -0.179  1.00  0.00    -0.356 N 
ATOM     20  C   UNL     1      -0.144   1.127  -0.007  1.00  0.00     0.086 A 
ATOM     21  C   UNL     1       0.054  -1.079  -0.341  1.00  0.00     0.106 A 
ATOM     22  C   UNL     1      -1.419   0.603  -0.018  1.00  0.00     0.041 A 
ENDBRANCH  14  17
ENDBRANCH  12  14
ENDBRANCH   8  12
ENDBRANCH   4   7
ENDBRANCH   2   3
ENDBRANCH   1   2
BRANCH   1  23
ATOM     23  C   UNL     1      -6.495  -6.024   1.104  1.00  0.00     0.023 C 
BRANCH  23  24
ATOM     24  C   UNL     1      -7.713  -5.231   1.559  1.00  0.00     0.116 C 
BRANCH  24  25
ATOM     25  N   UNL     1      -8.026  -4.108   0.688  1.00  0.00    -0.352 N 
ATOM     26  C   UNL     1      -9.258  -3.663   0.274  1.00  0.00     0.251 C 
ATOM     27  H   UNL     1      -7.253  -3.601   0.351  1.00  0.00     0.163 HD
ATOM     28  O   UNL     1      -9.354  -2.773  -0.564  1.00  0.00    -0.269 OA
BRANCH  26  29
ATOM     29  C   UNL     1     -10.478  -4.291   0.821  1.00  0.00     0.039 A 
ATOM     30  C   UNL     1     -11.493  -4.674  -0.059  1.00  0.00     0.014 A 
ATOM     31  C   UNL     1     -10.610  -4.518   2.194  1.00  0.00     0.014 A 
ATOM     32  C   UNL     1     -12.617  -5.341   0.432  1.00  0.00     0.010 A 
ATOM     33  C   UNL     1     -11.692  -5.249   2.671  1.00  0.00     0.010 A 
ATOM     34  C   UNL     1     -12.709  -5.660   1.796  1.00  0.00    -0.014 A 
BRANCH  34  35
ATOM     35  C   UNL     1     -13.871  -6.407   2.335  1.00  0.00     0.031 A 
ATOM     36  C   UNL     1     -14.798  -5.744   3.314  1.00  0.00     0.074 A 
ATOM     37  C   UNL     1     -14.054  -7.696   1.996  1.00  0.00     0.049 A 
ATOM     38  N   UNL     1     -15.831  -6.241   3.947  1.00  0.00    -0.248 NA
ATOM     39  C   UNL     1     -14.505  -4.343   3.651  1.00  0.00     0.031 C 
ATOM     40  C   UNL     1     -13.198  -8.462   1.089  1.00  0.00     0.029 A 
ATOM     41  N   UNL     1     -15.019  -8.592   2.380  1.00  0.00    -0.354 N 
ATOM     42  C   UNL     1     -16.294  -5.223   4.769  1.00  0.00     0.074 A 
ATOM     43  C   UNL     1     -15.398  -4.100   4.598  1.00  0.00     0.031 C 
ATOM     44  C   UNL     1     -13.697  -9.702   0.958  1.00  0.00     0.029 A 
ATOM     45  C   UNL     1     -14.884  -9.828   1.798  1.00  0.00     0.049 A 
ATOM     46  H   UNL     1     -15.740  -8.370   3.013  1.00  0.00     0.167 HD
ATOM     47  C   UNL     1     -17.382  -5.216   5.575  1.00  0.00     0.037 A 
ATOM     48  C   UNL     1     -15.639 -10.935   1.925  1.00  0.00     0.037 A 
ATOM     49  C   UNL     1     -18.288  -6.325   5.717  1.00  0.00     0.049 A 
ATOM     50  C   UNL     1     -16.840 -10.905   2.830  1.00  0.00     0.074 A 
ATOM     51  C   UNL     1     -19.457  -6.397   6.454  1.00  0.00     0.029 A 
ATOM     52  N   UNL     1     -18.122  -7.560   5.107  1.00  0.00    -0.354 N 
ATOM     53  N   UNL     1     -17.310  -9.917   3.550  1.00  0.00    -0.248 NA
ATOM     54  C   UNL     1     -17.617 -12.148   2.935  1.00  0.00     0.031 C 
ATOM     55  C   UNL     1     -19.977  -7.690   6.322  1.00  0.00     0.029 A 
ATOM     56  C   UNL     1     -19.157  -8.409   5.467  1.00  0.00     0.049 A 
ATOM     57  H   UNL     1     -17.379  -7.798   4.507  1.00  0.00     0.167 HD
ATOM     58  C   UNL     1     -18.455 -10.403   4.166  1.00  0.00     0.074 A 
ATOM     59  C   UNL     1     -18.611 -11.776   3.729  1.00  0.00     0.031 C 
ATOM     60  C   UNL     1     -19.303  -9.769   5.013  1.00  0.00     0.037 A 
BRANCH  47  61
ATOM     61  C   UNL     1     -17.642  -3.966   6.365  1.00  0.00     0.064 A 
ATOM     62  C   UNL     1     -18.035  -2.770   5.744  1.00  0.00     0.173 A 
ATOM     63  C   UNL     1     -17.490  -3.960   7.759  1.00  0.00     0.173 A 
ATOM     64  F   UNL     1     -18.182  -2.718   4.411  1.00  0.00    -0.203 F 
ATOM     65  C   UNL     1     -18.223  -1.605   6.483  1.00  0.00     0.198 A 
ATOM     66  C   UNL     1     -17.711  -2.802   8.500  1.00  0.00     0.198 A 
ATOM     67  F   UNL     1     -17.122  -5.077   8.405  1.00  0.00    -0.203 F 
ATOM     68  F   UNL     1     -18.533  -0.460   5.860  1.00  0.00    -0.200 F 
ATOM     69  C   UNL     1     -18.065  -1.623   7.861  1.00  0.00     0.200 A 
ATOM     70  F   UNL     1     -17.569  -2.823   9.832  1.00  0.00    -0.200 F 
ATOM     71  F   UNL     1     -18.241  -0.501   8.571  1.00  0.00    -0.200 F 
ENDBRANCH  47  61
BRANCH  48  72
ATOM     72  C   UNL     1     -15.314 -12.147   1.131  1.00  0.00     0.064 A 
ATOM     73  C   UNL     1     -16.128 -12.531   0.056  1.00  0.00     0.173 A 
ATOM     74  C   UNL     1     -14.189 -12.934   1.413  1.00  0.00     0.173 A 
ATOM     75  F   UNL     1     -17.226 -11.819  -0.239  1.00  0.00    -0.203 F 
ATOM     76  C   UNL     1     -15.836 -13.664  -0.700  1.00  0.00     0.198 A 
ATOM     77  C   UNL     1     -13.885 -14.054   0.643  1.00  0.00     0.198 A 
ATOM     78  F   UNL     1     -13.377 -12.606   2.429  1.00  0.00    -0.203 F 
ATOM     79  F   UNL     1     -16.649 -14.027  -1.700  1.00  0.00    -0.200 F 
ATOM     80  C   UNL     1     -14.711 -14.421  -0.410  1.00  0.00     0.200 A 
ATOM     81  F   UNL     1     -12.791 -14.777   0.918  1.00  0.00    -0.200 F 
ATOM     82  F   UNL     1     -14.426 -15.507  -1.140  1.00  0.00    -0.200 F 
ENDBRANCH  48  72
BRANCH  60  83
ATOM     83  C   UNL     1     -20.500 -10.538   5.489  1.00  0.00     0.064 A 
ATOM     84  C   UNL     1     -20.386 -11.575   6.425  1.00  0.00     0.173 A 
ATOM     85  C   UNL     1     -21.783 -10.206   5.026  1.00  0.00     0.173 A 
ATOM     86  F   UNL     1     -19.180 -11.940   6.885  1.00  0.00    -0.203 F 
ATOM     87  C   UNL     1     -21.511 -12.268   6.864  1.00  0.00     0.198 A 
ATOM     88  C   UNL     1     -22.908 -10.883   5.488  1.00  0.00     0.198 A 
ATOM     89  F   UNL     1     -21.945  -9.218   4.133  1.00  0.00    -0.203 F 
ATOM     90  F   UNL     1     -21.375 -13.286   7.725  1.00  0.00    -0.200 F 
ATOM     91  C   UNL     1     -22.771 -11.917   6.401  1.00  0.00     0.200 A 
ATOM     92  F   UNL     1     -24.125 -10.534   5.049  1.00  0.00    -0.200 F 
ATOM     93  F   UNL     1     -23.853 -12.582   6.830  1.00  0.00    -0.200 F 
ENDBRANCH  60  83
ENDBRANCH  34  35
ENDBRANCH  26  29
ENDBRANCH  24  25
ENDBRANCH  23  24
ENDBRANCH   1  23
TORSDOF 14
