REMARK SMILES Cc1cc2c(c(C)c1Br)C=C(C(=O)NCCCCNC(=O)c1ccc(-c3c4nc(c(-c5c(F)c(F)c(F)c(F)c5F)c5ccc([nH]5)c(-c5c(F)c(F)c(F)c(F)c5F)c5nc(c(-c6c(F)c(F)c(F)c(F)c6F)c6ccc3[nH]6)C=C5)C=C4)cc1)[C@@H](C(F)(F)F)O2
REMARK SMILES IDX 17 1 16 2 15 3 14 4 12 5 13 6 11 8 1 9 2 10 3 11 8 12 4 13
REMARK SMILES IDX 6 14 9 15 5 16 90 17 7 18 10 19 85 20 86 21 87 22 88 23
REMARK SMILES IDX 89 24 18 25 19 26 20 27 21 29 22 30 23 31 84 32 24 33 83 34
REMARK SMILES IDX 25 35 26 36 27 37 77 38 28 39 82 40 76 41 78 42 29 43 81 44
REMARK SMILES IDX 75 45 74 46 30 48 62 49 42 50 61 51 43 52 46 53 60 54 79 55
REMARK SMILES IDX 44 56 45 57 59 59 80 60 47 61 31 62 32 63 40 64 33 65 34 66
REMARK SMILES IDX 38 67 41 68 35 69 36 70 39 71 37 72 63 73 64 74 72 75 65 76
REMARK SMILES IDX 66 77 70 78 73 79 67 80 68 81 71 82 69 83 48 84 49 85 57 86
REMARK SMILES IDX 50 87 51 88 55 89 58 90 52 91 53 92 56 93 54 94
REMARK H PARENT 14 7 19 28 78 47 46 58
REMARK Flexibility Score: inf
ROOT
ATOM      1  C   UNL     1      -5.132   5.636  -7.400  1.00  0.00     0.023 C 
ENDROOT
BRANCH   1   2
ATOM      2  C   UNL     1      -4.413   4.592  -6.542  1.00  0.00     0.023 C 
BRANCH   2   3
ATOM      3  C   UNL     1      -2.896   4.591  -6.702  1.00  0.00     0.116 C 
BRANCH   3   4
ATOM      4  N   UNL     1      -2.261   5.573  -5.842  1.00  0.00    -0.352 N 
ATOM      5  C   UNL     1      -1.531   5.565  -4.702  1.00  0.00     0.251 C 
ATOM      6  O   UNL     1      -1.188   6.681  -4.296  1.00  0.00    -0.270 OA
ATOM      7  H   UNL     1      -2.398   6.488  -6.176  1.00  0.00     0.163 HD
BRANCH   5   8
ATOM      8  C   UNL     1      -1.127   4.346  -3.938  1.00  0.00     0.067 C 
ATOM      9  C   UNL     1       1.038  -0.103   0.299  1.00  0.00     0.046 C 
ATOM     10  C   UNL     1       0.681   1.155  -0.448  1.00  0.00    -0.033 A 
ATOM     11  C   UNL     1      -0.118   1.037  -1.589  1.00  0.00     0.051 A 
ATOM     12  C   UNL     1       1.109   2.439  -0.046  1.00  0.00     0.024 A 
ATOM     13  C   UNL     1      -0.474   2.161  -2.325  1.00  0.00     0.128 A 
ATOM     14  C   UNL     1       0.745   3.596  -0.784  1.00  0.00    -0.026 A 
ATOM     15  Br  UNL     1       2.184   2.578   1.532  1.00  0.00    -0.050 Br
ATOM     16  C   UNL     1      -0.064   3.440  -1.938  1.00  0.00     0.021 A 
ATOM     17  O   UNL     1      -1.278   1.923  -3.402  1.00  0.00    -0.475 OA
ATOM     18  C   UNL     1       1.184   4.985  -0.380  1.00  0.00     0.046 C 
ATOM     19  C   UNL     1      -0.539   4.570  -2.748  1.00  0.00     0.026 C 
ATOM     20  C   UNL     1      -1.301   2.942  -4.433  1.00  0.00     0.314 C 
BRANCH  20  21
ATOM     21  C   UNL     1      -0.300   2.570  -5.542  1.00  0.00     0.429 C 
ATOM     22  F   UNL     1      -0.700   1.441  -6.179  1.00  0.00    -0.167 F 
ATOM     23  F   UNL     1      -0.202   3.529  -6.494  1.00  0.00    -0.167 F 
ATOM     24  F   UNL     1       0.947   2.353  -5.072  1.00  0.00    -0.167 F 
ENDBRANCH  20  21
ENDBRANCH   5   8
ENDBRANCH   3   4
ENDBRANCH   2   3
ENDBRANCH   1   2
BRANCH   1  25
ATOM     25  C   UNL     1      -4.840   5.569  -8.898  1.00  0.00     0.116 C 
BRANCH  25  26
ATOM     26  N   UNL     1      -5.028   4.245  -9.475  1.00  0.00    -0.352 N 
ATOM     27  C   UNL     1      -5.414   3.925 -10.754  1.00  0.00     0.251 C 
ATOM     28  H   UNL     1      -4.856   3.485  -8.873  1.00  0.00     0.163 HD
ATOM     29  O   UNL     1      -5.609   2.759 -11.079  1.00  0.00    -0.269 OA
BRANCH  27  30
ATOM     30  C   UNL     1      -5.636   5.013 -11.722  1.00  0.00     0.039 A 
ATOM     31  C   UNL     1      -6.870   5.096 -12.371  1.00  0.00     0.014 A 
ATOM     32  C   UNL     1      -4.649   5.978 -11.938  1.00  0.00     0.014 A 
ATOM     33  C   UNL     1      -7.145   6.194 -13.185  1.00  0.00     0.010 A 
ATOM     34  C   UNL     1      -4.944   7.099 -12.704  1.00  0.00     0.010 A 
ATOM     35  C   UNL     1      -6.197   7.220 -13.326  1.00  0.00    -0.014 A 
BRANCH  35  36
ATOM     36  C   UNL     1      -6.489   8.438 -14.116  1.00  0.00     0.031 A 
ATOM     37  C   UNL     1      -5.728   8.706 -15.380  1.00  0.00     0.074 A 
ATOM     38  C   UNL     1      -7.379   9.336 -13.651  1.00  0.00     0.049 A 
ATOM     39  N   UNL     1      -5.739   9.768 -16.143  1.00  0.00    -0.248 NA
ATOM     40  C   UNL     1      -4.812   7.647 -15.830  1.00  0.00     0.031 C 
ATOM     41  C   UNL     1      -8.158   9.195 -12.421  1.00  0.00     0.029 A 
ATOM     42  N   UNL     1      -7.765  10.552 -14.154  1.00  0.00    -0.354 N 
ATOM     43  C   UNL     1      -4.823   9.512 -17.154  1.00  0.00     0.074 A 
ATOM     44  C   UNL     1      -4.242   8.214 -16.883  1.00  0.00     0.031 C 
ATOM     45  C   UNL     1      -8.943  10.275 -12.274  1.00  0.00     0.029 A 
ATOM     46  C   UNL     1      -8.693  11.199 -13.376  1.00  0.00     0.049 A 
ATOM     47  H   UNL     1      -7.411  10.926 -14.993  1.00  0.00     0.167 HD
ATOM     48  C   UNL     1      -4.511  10.284 -18.221  1.00  0.00     0.037 A 
ATOM     49  C   UNL     1      -9.268  12.406 -13.531  1.00  0.00     0.037 A 
ATOM     50  C   UNL     1      -5.107  11.563 -18.496  1.00  0.00     0.049 A 
ATOM     51  C   UNL     1      -8.898  13.248 -14.721  1.00  0.00     0.074 A 
ATOM     52  C   UNL     1      -4.881  12.409 -19.567  1.00  0.00     0.029 A 
ATOM     53  N   UNL     1      -6.055  12.180 -17.692  1.00  0.00    -0.354 N 
ATOM     54  N   UNL     1      -8.047  12.989 -15.683  1.00  0.00    -0.248 NA
ATOM     55  C   UNL     1      -9.568  14.550 -14.846  1.00  0.00     0.031 C 
ATOM     56  C   UNL     1      -5.669  13.552 -19.396  1.00  0.00     0.029 A 
ATOM     57  C   UNL     1      -6.418  13.400 -18.239  1.00  0.00     0.049 A 
ATOM     58  H   UNL     1      -6.417  11.806 -16.856  1.00  0.00     0.167 HD
ATOM     59  C   UNL     1      -8.093  14.081 -16.538  1.00  0.00     0.074 A 
ATOM     60  C   UNL     1      -9.066  15.002 -15.987  1.00  0.00     0.031 C 
ATOM     61  C   UNL     1      -7.391  14.300 -17.677  1.00  0.00     0.037 A 
BRANCH  48  62
ATOM     62  C   UNL     1      -3.479   9.758 -19.174  1.00  0.00     0.064 A 
ATOM     63  C   UNL     1      -3.756   8.683 -20.032  1.00  0.00     0.173 A 
ATOM     64  C   UNL     1      -2.212  10.354 -19.254  1.00  0.00     0.173 A 
ATOM     65  F   UNL     1      -4.948   8.069 -19.981  1.00  0.00    -0.203 F 
ATOM     66  C   UNL     1      -2.794   8.209 -20.919  1.00  0.00     0.198 A 
ATOM     67  C   UNL     1      -1.262   9.894 -20.162  1.00  0.00     0.198 A 
ATOM     68  F   UNL     1      -1.897  11.385 -18.457  1.00  0.00    -0.203 F 
ATOM     69  F   UNL     1      -3.067   7.153 -21.698  1.00  0.00    -0.200 F 
ATOM     70  C   UNL     1      -1.551   8.819 -20.989  1.00  0.00     0.200 A 
ATOM     71  F   UNL     1      -0.064  10.491 -20.236  1.00  0.00    -0.200 F 
ATOM     72  F   UNL     1      -0.629   8.366 -21.849  1.00  0.00    -0.200 F 
ENDBRANCH  48  62
BRANCH  49  73
ATOM     73  C   UNL     1     -10.280  12.869 -12.549  1.00  0.00     0.064 A 
ATOM     74  C   UNL     1     -11.639  12.910 -12.891  1.00  0.00     0.173 A 
ATOM     75  C   UNL     1      -9.921  13.249 -11.248  1.00  0.00     0.173 A 
ATOM     76  F   UNL     1     -12.027  12.575 -14.130  1.00  0.00    -0.203 F 
ATOM     77  C   UNL     1     -12.600  13.319 -11.970  1.00  0.00     0.198 A 
ATOM     78  C   UNL     1     -10.886  13.636 -10.321  1.00  0.00     0.198 A 
ATOM     79  F   UNL     1      -8.634  13.222 -10.872  1.00  0.00    -0.203 F 
ATOM     80  F   UNL     1     -13.890  13.374 -12.330  1.00  0.00    -0.200 F 
ATOM     81  C   UNL     1     -12.224  13.674 -10.683  1.00  0.00     0.200 A 
ATOM     82  F   UNL     1     -10.520  13.966  -9.075  1.00  0.00    -0.200 F 
ATOM     83  F   UNL     1     -13.150  14.055  -9.793  1.00  0.00    -0.200 F 
ENDBRANCH  49  73
BRANCH  61  84
ATOM     84  C   UNL     1      -7.666  15.574 -18.419  1.00  0.00     0.064 A 
ATOM     85  C   UNL     1      -7.198  16.810 -17.952  1.00  0.00     0.173 A 
ATOM     86  C   UNL     1      -8.356  15.548 -19.641  1.00  0.00     0.173 A 
ATOM     87  F   UNL     1      -6.545  16.887 -16.783  1.00  0.00    -0.203 F 
ATOM     88  C   UNL     1      -7.427  17.979 -18.674  1.00  0.00     0.198 A 
ATOM     89  C   UNL     1      -8.561  16.715 -20.372  1.00  0.00     0.198 A 
ATOM     90  F   UNL     1      -8.818  14.388 -20.132  1.00  0.00    -0.203 F 
ATOM     91  F   UNL     1      -7.002  19.155 -18.192  1.00  0.00    -0.200 F 
ATOM     92  C   UNL     1      -8.100  17.929 -19.886  1.00  0.00     0.200 A 
ATOM     93  F   UNL     1      -9.201  16.663 -21.548  1.00  0.00    -0.200 F 
ATOM     94  F   UNL     1      -8.310  19.054 -20.583  1.00  0.00    -0.200 F 
ENDBRANCH  61  84
ENDBRANCH  35  36
ENDBRANCH  27  30
ENDBRANCH  25  26
ENDBRANCH   1  25
TORSDOF 12
