REMARK SMILES Cc1ccc([C@@H](CC(=O)NCCCCNC(=O)c2ccc(-c3c4nc(c(-c5c(F)c(F)c(F)c(F)c5F)c5ccc([nH]5)c(-c5c(F)c(F)c(F)c(F)c5F)c5nc(c(-c6c(F)c(F)c(F)c(F)c6F)c6ccc3[nH]6)C=C5)C=C4)cc2)NC(=O)c2ccc(OC(F)F)cc2)cc1
REMARK SMILES IDX 11 1 10 2 8 3 9 4 7 6 6 7 5 8 1 9 2 10 3 11 95 12 4 13 94 14
REMARK SMILES IDX 81 15 82 16 83 18 84 19 85 20 93 21 86 22 92 23 87 24 88 25
REMARK SMILES IDX 89 26 90 27 91 28 12 29 13 30 14 31 15 32 16 33 17 35 18 36
REMARK SMILES IDX 19 37 80 38 20 39 79 40 21 41 22 42 23 43 73 44 24 45 78 46
REMARK SMILES IDX 72 47 74 48 25 49 77 50 71 51 70 52 26 54 58 55 38 56 57 57
REMARK SMILES IDX 39 58 42 59 56 60 75 61 40 62 41 63 55 65 76 66 43 67 27 68
REMARK SMILES IDX 28 69 36 70 29 71 30 72 34 73 37 74 31 75 32 76 35 77 33 78
REMARK SMILES IDX 59 79 60 80 68 81 61 82 62 83 66 84 69 85 63 86 64 87 67 88
REMARK SMILES IDX 65 89 44 90 45 91 53 92 46 93 47 94 51 95 54 96 48 97 49 98
REMARK SMILES IDX 52 99 50 100
REMARK H PARENT 10 5 81 17 15 34 74 53 42 64
REMARK Flexibility Score: inf
ROOT
ATOM      1  C   UNL     1      -0.927  -2.652  -0.931  1.00  0.00     0.116 C 
ENDROOT
BRANCH   1   2
ATOM      2  N   UNL     1      -2.355  -2.811  -1.181  1.00  0.00    -0.356 N 
ATOM      3  C   UNL     1      -3.385  -1.922  -1.208  1.00  0.00     0.222 C 
ATOM      4  O   UNL     1      -4.528  -2.383  -1.276  1.00  0.00    -0.275 OA
ATOM      5  H   UNL     1      -2.625  -3.740  -1.366  1.00  0.00     0.163 HD
BRANCH   3   6
ATOM      6  C   UNL     1      -3.170  -0.424  -1.244  1.00  0.00     0.129 C 
BRANCH   6   7
ATOM      7  C   UNL     1      -3.181   0.341   0.100  1.00  0.00     0.122 C 
BRANCH   7   8
ATOM      8  C   UNL     1      -1.758   0.784   0.440  1.00  0.00    -0.025 A 
ATOM      9  C   UNL     1       2.511   1.408   0.553  1.00  0.00     0.044 C 
ATOM     10  C   UNL     1       1.016   1.298   0.613  1.00  0.00    -0.051 A 
ATOM     11  C   UNL     1       0.411   0.366   1.456  1.00  0.00     0.004 A 
ATOM     12  C   UNL     1       0.211   2.056  -0.239  1.00  0.00     0.004 A 
ATOM     13  C   UNL     1      -0.966   0.132   1.390  1.00  0.00     0.006 A 
ATOM     14  C   UNL     1      -1.161   1.806  -0.321  1.00  0.00     0.006 A 
ENDBRANCH   7   8
BRANCH   7  15
ATOM     15  N   UNL     1      -3.833  -0.367   1.198  1.00  0.00    -0.345 N 
ATOM     16  C   UNL     1      -4.948  -0.030   1.923  1.00  0.00     0.251 C 
ATOM     17  H   UNL     1      -3.406  -1.215   1.459  1.00  0.00     0.164 HD
ATOM     18  O   UNL     1      -5.109  -0.513   3.041  1.00  0.00    -0.269 OA
BRANCH  16  19
ATOM     19  C   UNL     1      -5.977   0.877   1.368  1.00  0.00     0.040 A 
ATOM     20  C   UNL     1      -6.601   1.805   2.207  1.00  0.00     0.017 A 
ATOM     21  C   UNL     1      -6.427   0.726   0.054  1.00  0.00     0.017 A 
ATOM     22  C   UNL     1      -7.633   2.609   1.712  1.00  0.00     0.047 A 
ATOM     23  C   UNL     1      -7.448   1.543  -0.442  1.00  0.00     0.047 A 
ATOM     24  C   UNL     1      -8.054   2.493   0.382  1.00  0.00     0.126 A 
BRANCH  24  25
ATOM     25  O   UNL     1      -9.069   3.335   0.027  1.00  0.00    -0.435 OA
BRANCH  25  26
ATOM     26  C   UNL     1      -9.471   3.364  -1.337  1.00  0.00     0.542 C 
ATOM     27  F   UNL     1      -8.412   3.671  -2.125  1.00  0.00    -0.167 F 
ATOM     28  F   UNL     1      -9.942   2.150  -1.710  1.00  0.00    -0.167 F 
ENDBRANCH  25  26
ENDBRANCH  24  25
ENDBRANCH  16  19
ENDBRANCH   7  15
ENDBRANCH   6   7
ENDBRANCH   3   6
ENDBRANCH   1   2
BRANCH   1  29
ATOM     29  C   UNL     1      -0.576  -3.074   0.503  1.00  0.00     0.023 C 
BRANCH  29  30
ATOM     30  C   UNL     1       0.367  -4.260   0.740  1.00  0.00     0.023 C 
BRANCH  30  31
ATOM     31  C   UNL     1       1.777  -4.199   0.155  1.00  0.00     0.116 C 
BRANCH  31  32
ATOM     32  N   UNL     1       2.538  -2.980   0.463  1.00  0.00    -0.352 N 
ATOM     33  C   UNL     1       3.642  -2.468  -0.205  1.00  0.00     0.251 C 
ATOM     34  H   UNL     1       2.226  -2.462   1.240  1.00  0.00     0.163 HD
ATOM     35  O   UNL     1       4.445  -1.728   0.367  1.00  0.00    -0.269 OA
BRANCH  33  36
ATOM     36  C   UNL     1       3.815  -2.773  -1.637  1.00  0.00     0.039 A 
ATOM     37  C   UNL     1       5.050  -2.881  -2.296  1.00  0.00     0.014 A 
ATOM     38  C   UNL     1       2.640  -2.918  -2.350  1.00  0.00     0.014 A 
ATOM     39  C   UNL     1       5.074  -3.172  -3.670  1.00  0.00     0.010 A 
ATOM     40  C   UNL     1       2.665  -3.465  -3.593  1.00  0.00     0.010 A 
ATOM     41  C   UNL     1       3.865  -3.457  -4.306  1.00  0.00    -0.014 A 
BRANCH  41  42
ATOM     42  C   UNL     1       3.601  -3.547  -5.737  1.00  0.00     0.031 A 
ATOM     43  C   UNL     1       3.751  -4.790  -6.497  1.00  0.00     0.074 A 
ATOM     44  C   UNL     1       2.766  -2.570  -6.165  1.00  0.00     0.049 A 
ATOM     45  N   UNL     1       3.528  -4.883  -7.762  1.00  0.00    -0.248 NA
ATOM     46  C   UNL     1       4.129  -6.052  -5.882  1.00  0.00     0.031 C 
ATOM     47  C   UNL     1       1.785  -2.582  -7.239  1.00  0.00     0.029 A 
ATOM     48  N   UNL     1       2.632  -1.286  -5.610  1.00  0.00    -0.354 N 
ATOM     49  C   UNL     1       3.441  -6.219  -8.079  1.00  0.00     0.074 A 
ATOM     50  C   UNL     1       3.907  -6.903  -6.891  1.00  0.00     0.031 C 
ATOM     51  C   UNL     1       1.386  -1.315  -7.465  1.00  0.00     0.029 A 
ATOM     52  C   UNL     1       2.241  -0.448  -6.668  1.00  0.00     0.049 A 
ATOM     53  H   UNL     1       2.782  -1.027  -4.672  1.00  0.00     0.167 HD
ATOM     54  C   UNL     1       2.866  -6.572  -9.270  1.00  0.00     0.037 A 
ATOM     55  C   UNL     1       3.192   0.412  -7.149  1.00  0.00     0.037 A 
ATOM     56  C   UNL     1       2.462  -5.376 -10.024  1.00  0.00     0.049 A 
ATOM     57  C   UNL     1       3.691   0.026  -8.527  1.00  0.00     0.074 A 
ATOM     58  C   UNL     1       1.268  -4.695 -10.200  1.00  0.00     0.029 A 
ATOM     59  N   UNL     1       3.451  -4.520 -10.472  1.00  0.00    -0.354 N 
ATOM     60  N   UNL     1       3.278  -1.016  -9.195  1.00  0.00    -0.248 NA
ATOM     61  C   UNL     1       4.759   0.740  -9.222  1.00  0.00     0.031 C 
ATOM     62  C   UNL     1       1.575  -3.383 -10.683  1.00  0.00     0.029 A 
ATOM     63  C   UNL     1       2.949  -3.280 -10.824  1.00  0.00     0.049 A 
ATOM     64  H   UNL     1       4.402  -4.764 -10.534  1.00  0.00     0.167 HD
ATOM     65  C   UNL     1       4.027  -1.167 -10.322  1.00  0.00     0.074 A 
ATOM     66  C   UNL     1       4.935  -0.033 -10.307  1.00  0.00     0.031 C 
ATOM     67  C   UNL     1       3.888  -2.224 -11.174  1.00  0.00     0.037 A 
BRANCH  54  68
ATOM     68  C   UNL     1       2.486  -7.977  -9.698  1.00  0.00     0.064 A 
ATOM     69  C   UNL     1       1.531  -8.182 -10.721  1.00  0.00     0.173 A 
ATOM     70  C   UNL     1       3.015  -9.164  -9.156  1.00  0.00     0.173 A 
ATOM     71  F   UNL     1       1.000  -7.156 -11.399  1.00  0.00    -0.203 F 
ATOM     72  C   UNL     1       1.088  -9.455 -11.101  1.00  0.00     0.198 A 
ATOM     73  C   UNL     1       2.537 -10.435  -9.498  1.00  0.00     0.198 A 
ATOM     74  F   UNL     1       4.064  -9.153  -8.329  1.00  0.00    -0.203 F 
ATOM     75  F   UNL     1       0.187  -9.579 -12.085  1.00  0.00    -0.200 F 
ATOM     76  C   UNL     1       1.569 -10.581 -10.469  1.00  0.00     0.200 A 
ATOM     77  F   UNL     1       3.038 -11.519  -8.888  1.00  0.00    -0.200 F 
ATOM     78  F   UNL     1       1.129 -11.798 -10.812  1.00  0.00    -0.200 F 
ENDBRANCH  54  68
BRANCH  55  79
ATOM     79  C   UNL     1       4.048   0.931  -6.025  1.00  0.00     0.064 A 
ATOM     80  C   UNL     1       3.397   1.630  -4.983  1.00  0.00     0.173 A 
ATOM     81  C   UNL     1       5.285   0.341  -5.724  1.00  0.00     0.173 A 
ATOM     82  F   UNL     1       2.203   2.205  -5.207  1.00  0.00    -0.203 F 
ATOM     83  C   UNL     1       3.876   1.593  -3.674  1.00  0.00     0.198 A 
ATOM     84  C   UNL     1       5.773   0.328  -4.414  1.00  0.00     0.198 A 
ATOM     85  F   UNL     1       5.961  -0.338  -6.662  1.00  0.00    -0.203 F 
ATOM     86  F   UNL     1       3.150   2.131  -2.683  1.00  0.00    -0.200 F 
ATOM     87  C   UNL     1       5.047   0.914  -3.386  1.00  0.00     0.200 A 
ATOM     88  F   UNL     1       6.905  -0.333  -4.132  1.00  0.00    -0.200 F 
ATOM     89  F   UNL     1       5.455   0.790  -2.115  1.00  0.00    -0.200 F 
ENDBRANCH  55  79
BRANCH  67  90
ATOM     90  C   UNL     1       4.688  -2.313 -12.434  1.00  0.00     0.064 A 
ATOM     91  C   UNL     1       4.762  -1.230 -13.324  1.00  0.00     0.173 A 
ATOM     92  C   UNL     1       5.316  -3.506 -12.839  1.00  0.00     0.173 A 
ATOM     93  F   UNL     1       4.147  -0.071 -13.044  1.00  0.00    -0.203 F 
ATOM     94  C   UNL     1       5.471  -1.319 -14.520  1.00  0.00     0.198 A 
ATOM     95  C   UNL     1       5.968  -3.611 -14.063  1.00  0.00     0.198 A 
ATOM     96  F   UNL     1       5.341  -4.588 -12.047  1.00  0.00    -0.203 F 
ATOM     97  F   UNL     1       5.580  -0.241 -15.308  1.00  0.00    -0.200 F 
ATOM     98  C   UNL     1       6.062  -2.513 -14.895  1.00  0.00     0.200 A 
ATOM     99  F   UNL     1       6.515  -4.781 -14.424  1.00  0.00    -0.200 F 
ATOM    100  F   UNL     1       6.728  -2.603 -16.054  1.00  0.00    -0.200 F 
ENDBRANCH  67  90
ENDBRANCH  41  42
ENDBRANCH  33  36
ENDBRANCH  31  32
ENDBRANCH  30  31
ENDBRANCH  29  30
ENDBRANCH   1  29
TORSDOF 17
