REMARK SMILES Nc1nonc1C(=O)N1[C@@H]2CC[C@H]1C[C@H](CC(=O)NCCCCNC(=O)c1ccc(-c3c4nc(c(-c5c(F)c(F)c(F)c(F)c5F)c5ccc([nH]5)c(-c5c(F)c(F)c(F)c(F)c5F)c5nc(c(-c6c(F)c(F)c(F)c(F)c6F)c6ccc3[nH]6)C=C5)C=C4)cc1)C2
REMARK SMILES IDX 20 1 19 2 17 3 18 4 16 6 15 7 9 8 10 9 13 10 11 11 90 12
REMARK SMILES IDX 12 13 14 14 7 15 8 16 6 17 2 18 3 19 4 20 5 21 1 22 21 25
REMARK SMILES IDX 22 26 23 27 24 28 25 29 26 31 27 32 28 33 89 34 29 35 88 36
REMARK SMILES IDX 30 37 31 38 32 39 82 40 33 41 87 42 81 43 83 44 34 45 86 46
REMARK SMILES IDX 80 47 79 48 35 50 67 51 47 52 66 53 48 54 51 55 65 56 84 57
REMARK SMILES IDX 49 58 50 59 64 61 85 62 52 63 36 64 37 65 45 66 38 67 39 68
REMARK SMILES IDX 43 69 46 70 40 71 41 72 44 73 42 74 68 75 69 76 77 77 70 78
REMARK SMILES IDX 71 79 75 80 78 81 72 82 73 83 76 84 74 85 53 86 54 87 62 88
REMARK SMILES IDX 55 89 56 90 60 91 63 92 57 93 58 94 61 95 59 96
REMARK H PARENT 19 5 1 23 1 24 24 30 83 49 51 60
REMARK Flexibility Score: inf
ROOT
ATOM      1  C   UNL     1       5.432   0.361   0.416  1.00  0.00     0.116 C 
ENDROOT
BRANCH   1   2
ATOM      2  N   UNL     1       6.386  -0.328  -0.439  1.00  0.00    -0.356 N 
ATOM      3  C   UNL     1       6.209  -1.155  -1.510  1.00  0.00     0.220 C 
ATOM      4  O   UNL     1       7.209  -1.682  -2.001  1.00  0.00    -0.275 OA
ATOM      5  H   UNL     1       7.329  -0.169  -0.202  1.00  0.00     0.163 HD
BRANCH   3   6
ATOM      6  C   UNL     1       4.829  -1.430  -2.092  1.00  0.00     0.103 C 
BRANCH   6   7
ATOM      7  C   UNL     1       4.183  -2.751  -1.603  1.00  0.00     0.002 C 
ATOM      8  N   UNL     1       1.552  -3.011  -0.495  1.00  0.00    -0.331 N 
ATOM      9  C   UNL     1       1.844  -3.831  -1.665  1.00  0.00     0.086 C 
ATOM     10  C   UNL     1       2.616  -3.338   0.429  1.00  0.00     0.086 C 
ATOM     11  C   UNL     1       2.364  -5.167  -1.092  1.00  0.00     0.027 C 
ATOM     12  C   UNL     1       2.930  -3.084  -2.453  1.00  0.00     0.029 C 
ATOM     13  C   UNL     1       2.740  -4.852   0.356  1.00  0.00     0.027 C 
ATOM     14  C   UNL     1       3.884  -2.666  -0.094  1.00  0.00     0.029 C 
BRANCH   8  15
ATOM     15  C   UNL     1       0.233  -2.962  -0.040  1.00  0.00     0.280 C 
ATOM     16  O   UNL     1      -0.371  -3.994   0.251  1.00  0.00    -0.267 OA
BRANCH  15  17
ATOM     17  C   UNL     1      -0.393  -1.637  -0.029  1.00  0.00     0.216 A 
ATOM     18  C   UNL     1       0.140  -0.324   0.081  1.00  0.00     0.201 A 
ATOM     19  N   UNL     1      -0.843   0.568  -0.008  1.00  0.00    -0.032 NA
ATOM     20  O   UNL     1      -2.001  -0.176  -0.140  1.00  0.00    -0.242 OA
ATOM     21  N   UNL     1      -1.728  -1.533  -0.142  1.00  0.00    -0.042 NA
BRANCH  18  22
ATOM     22  N   UNL     1       1.418   0.041   0.280  1.00  0.00    -0.379 N 
ATOM     23  H   UNL     1       1.654   0.995   0.337  1.00  0.00     0.158 HD
ATOM     24  H   UNL     1       2.118  -0.646   0.367  1.00  0.00     0.158 HD
ENDBRANCH  18  22
ENDBRANCH  15  17
ENDBRANCH   8  15
ENDBRANCH   6   7
ENDBRANCH   3   6
ENDBRANCH   1   2
BRANCH   1  25
ATOM     25  C   UNL     1       5.177  -0.427   1.709  1.00  0.00     0.023 C 
BRANCH  25  26
ATOM     26  C   UNL     1       6.022  -0.044   2.906  1.00  0.00     0.023 C 
BRANCH  26  27
ATOM     27  C   UNL     1       5.644   1.286   3.520  1.00  0.00     0.116 C 
BRANCH  27  28
ATOM     28  N   UNL     1       4.303   1.317   4.095  1.00  0.00    -0.352 N 
ATOM     29  C   UNL     1       3.896   1.911   5.272  1.00  0.00     0.251 C 
ATOM     30  H   UNL     1       3.602   0.857   3.579  1.00  0.00     0.163 HD
ATOM     31  O   UNL     1       2.749   1.798   5.670  1.00  0.00    -0.269 OA
BRANCH  29  32
ATOM     32  C   UNL     1       4.904   2.639   6.071  1.00  0.00     0.039 A 
ATOM     33  C   UNL     1       5.045   2.336   7.426  1.00  0.00     0.014 A 
ATOM     34  C   UNL     1       5.783   3.525   5.444  1.00  0.00     0.014 A 
ATOM     35  C   UNL     1       6.132   2.853   8.131  1.00  0.00     0.010 A 
ATOM     36  C   UNL     1       6.925   3.936   6.113  1.00  0.00     0.010 A 
ATOM     37  C   UNL     1       7.106   3.616   7.466  1.00  0.00    -0.014 A 
BRANCH  37  38
ATOM     38  C   UNL     1       8.307   4.133   8.166  1.00  0.00     0.031 A 
ATOM     39  C   UNL     1       8.532   5.619   8.236  1.00  0.00     0.074 A 
ATOM     40  C   UNL     1       9.225   3.280   8.660  1.00  0.00     0.049 A 
ATOM     41  N   UNL     1       9.562   6.282   8.693  1.00  0.00    -0.248 NA
ATOM     42  C   UNL     1       7.474   6.473   7.670  1.00  0.00     0.031 C 
ATOM     43  C   UNL     1       9.151   1.819   8.596  1.00  0.00     0.029 A 
ATOM     44  N   UNL     1      10.410   3.523   9.307  1.00  0.00    -0.354 N 
ATOM     45  C   UNL     1       9.286   7.620   8.444  1.00  0.00     0.074 A 
ATOM     46  C   UNL     1       8.030   7.672   7.730  1.00  0.00     0.031 C 
ATOM     47  C   UNL     1      10.226   1.296   9.211  1.00  0.00     0.029 A 
ATOM     48  C   UNL     1      11.079   2.383   9.681  1.00  0.00     0.049 A 
ATOM     49  H   UNL     1      10.750   4.429   9.487  1.00  0.00     0.167 HD
ATOM     50  C   UNL     1       9.995   8.712   8.811  1.00  0.00     0.037 A 
ATOM     51  C   UNL     1      12.248   2.238  10.334  1.00  0.00     0.037 A 
ATOM     52  C   UNL     1      11.215   8.658   9.568  1.00  0.00     0.049 A 
ATOM     53  C   UNL     1      13.001   3.469  10.763  1.00  0.00     0.074 A 
ATOM     54  C   UNL     1      11.986   9.704  10.041  1.00  0.00     0.029 A 
ATOM     55  N   UNL     1      11.833   7.485   9.976  1.00  0.00    -0.354 N 
ATOM     56  N   UNL     1      12.700   4.731  10.574  1.00  0.00    -0.248 NA
ATOM     57  C   UNL     1      14.250   3.255  11.507  1.00  0.00     0.031 C 
ATOM     58  C   UNL     1      13.087   9.162  10.714  1.00  0.00     0.029 A 
ATOM     59  C   UNL     1      12.978   7.781  10.694  1.00  0.00     0.049 A 
ATOM     60  H   UNL     1      11.505   6.577   9.783  1.00  0.00     0.167 HD
ATOM     61  C   UNL     1      13.700   5.460  11.203  1.00  0.00     0.074 A 
ATOM     62  C   UNL     1      14.611   4.499  11.789  1.00  0.00     0.031 C 
ATOM     63  C   UNL     1      13.854   6.804  11.288  1.00  0.00     0.037 A 
BRANCH  50  64
ATOM     64  C   UNL     1       9.448  10.053   8.417  1.00  0.00     0.064 A 
ATOM     65  C   UNL     1       8.276  10.565   8.995  1.00  0.00     0.173 A 
ATOM     66  C   UNL     1      10.104  10.838   7.458  1.00  0.00     0.173 A 
ATOM     67  F   UNL     1       7.601   9.844   9.902  1.00  0.00    -0.203 F 
ATOM     68  C   UNL     1       7.761  11.797   8.602  1.00  0.00     0.198 A 
ATOM     69  C   UNL     1       9.604  12.085   7.091  1.00  0.00     0.198 A 
ATOM     70  F   UNL     1      11.228  10.396   6.874  1.00  0.00    -0.203 F 
ATOM     71  F   UNL     1       6.608  12.236   9.123  1.00  0.00    -0.200 F 
ATOM     72  C   UNL     1       8.429  12.559   7.655  1.00  0.00     0.200 A 
ATOM     73  F   UNL     1      10.255  12.825   6.182  1.00  0.00    -0.200 F 
ATOM     74  F   UNL     1       7.934  13.746   7.279  1.00  0.00    -0.200 F 
ENDBRANCH  50  64
BRANCH  51  75
ATOM     75  C   UNL     1      12.757   0.882  10.667  1.00  0.00     0.064 A 
ATOM     76  C   UNL     1      12.774   0.430  11.995  1.00  0.00     0.173 A 
ATOM     77  C   UNL     1      13.249   0.018   9.679  1.00  0.00     0.173 A 
ATOM     78  F   UNL     1      12.331   1.228  12.978  1.00  0.00    -0.203 F 
ATOM     79  C   UNL     1      13.287  -0.822  12.325  1.00  0.00     0.198 A 
ATOM     80  C   UNL     1      13.739  -1.246  10.007  1.00  0.00     0.198 A 
ATOM     81  F   UNL     1      13.249   0.398   8.393  1.00  0.00    -0.203 F 
ATOM     82  F   UNL     1      13.336  -1.207  13.607  1.00  0.00    -0.200 F 
ATOM     83  C   UNL     1      13.766  -1.661  11.330  1.00  0.00     0.200 A 
ATOM     84  F   UNL     1      14.189  -2.059   9.042  1.00  0.00    -0.200 F 
ATOM     85  F   UNL     1      14.262  -2.864  11.647  1.00  0.00    -0.200 F 
ENDBRANCH  51  75
BRANCH  63  86
ATOM     86  C   UNL     1      15.018   7.312  12.083  1.00  0.00     0.064 A 
ATOM     87  C   UNL     1      16.332   7.229  11.600  1.00  0.00     0.173 A 
ATOM     88  C   UNL     1      14.809   7.930  13.325  1.00  0.00     0.173 A 
ATOM     89  F   UNL     1      16.582   6.635  10.423  1.00  0.00    -0.203 F 
ATOM     90  C   UNL     1      17.398   7.726  12.344  1.00  0.00     0.198 A 
ATOM     91  C   UNL     1      15.874   8.450  14.054  1.00  0.00     0.198 A 
ATOM     92  F   UNL     1      13.569   8.040  13.826  1.00  0.00    -0.203 F 
ATOM     93  F   UNL     1      18.650   7.597  11.885  1.00  0.00    -0.200 F 
ATOM     94  C   UNL     1      17.168   8.341  13.566  1.00  0.00     0.200 A 
ATOM     95  F   UNL     1      15.649   9.055  15.228  1.00  0.00    -0.200 F 
ATOM     96  F   UNL     1      18.195   8.824  14.278  1.00  0.00    -0.200 F 
ENDBRANCH  63  86
ENDBRANCH  37  38
ENDBRANCH  29  32
ENDBRANCH  27  28
ENDBRANCH  26  27
ENDBRANCH  25  26
ENDBRANCH   1  25
TORSDOF 15
