REMARK SMILES Cc1ccc(C)c([C@H]2[NH2+][C@@H](C(=O)NCCCCNC(=O)c3ccc(-c4c5nc(c(-c6c(F)c(F)c(F)c(F)c6F)c6ccc([nH]6)c(-c6c(F)c(F)c(F)c(F)c6F)c6nc(c(-c7c(F)c(F)c(F)c(F)c7F)c7ccc4[nH]7)C=C6)C=C5)cc3)Cc3c2[nH]c2ccccc32)c1
REMARK SMILES IDX 16 1 15 2 14 3 13 4 11 5 12 6 10 8 8 9 9 10 86 11 85 14
REMARK SMILES IDX 87 15 84 16 93 17 88 18 92 20 89 21 91 22 90 23 7 24 1 25
REMARK SMILES IDX 2 26 3 27 94 28 4 29 5 30 6 31 17 32 18 33 19 34 20 36 21 37
REMARK SMILES IDX 22 38 83 39 23 40 82 41 24 42 25 43 26 44 76 45 27 46 81 47
REMARK SMILES IDX 75 48 77 49 28 50 80 51 74 52 73 53 29 55 61 56 41 57 60 58
REMARK SMILES IDX 42 59 45 60 59 61 78 62 43 63 44 64 58 66 79 67 46 68 30 69
REMARK SMILES IDX 31 70 39 71 32 72 33 73 37 74 40 75 34 76 35 77 38 78 36 79
REMARK SMILES IDX 62 80 63 81 71 82 64 83 65 84 69 85 72 86 66 87 67 88 70 89
REMARK SMILES IDX 68 90 47 91 48 92 56 93 49 94 50 95 54 96 57 97 51 98 52 99
REMARK SMILES IDX 55 100 53 101
REMARK H PARENT 13 7 9 12 9 13 87 19 18 35 77 54 45 65
REMARK Flexibility Score: inf
ROOT
ATOM      1  C   UNL     1      -2.511  10.325   0.157  1.00  0.00     0.023 C 
ENDROOT
BRANCH   1   2
ATOM      2  C   UNL     1      -2.445   8.904   0.739  1.00  0.00     0.023 C 
BRANCH   2   3
ATOM      3  C   UNL     1      -2.985   7.818  -0.192  1.00  0.00     0.116 C 
BRANCH   3   4
ATOM      4  N   UNL     1      -2.032   7.349  -1.166  1.00  0.00    -0.351 N 
ATOM      5  C   UNL     1      -1.217   6.276  -1.260  1.00  0.00     0.278 C 
ATOM      6  O   UNL     1      -0.603   6.179  -2.335  1.00  0.00    -0.268 OA
ATOM      7  H   UNL     1      -1.958   7.949  -1.943  1.00  0.00     0.163 HD
BRANCH   5   8
ATOM      8  C   UNL     1      -1.042   5.160  -0.207  1.00  0.00     0.277 C 
ATOM      9  C   UNL     1      -1.326   2.667  -0.075  1.00  0.00     0.262 C 
ATOM     10  N   UNL     1      -1.573   3.919  -0.823  1.00  0.00    -0.325 N 
ATOM     11  C   UNL     1      -1.404   2.926   1.418  1.00  0.00     0.083 A 
ATOM     12  H   UNL     1      -2.582   4.028  -0.925  1.00  0.00     0.347 HD
ATOM     13  H   UNL     1      -1.073   3.815  -1.706  1.00  0.00     0.347 HD
ATOM     14  C   UNL     1      -1.492   4.174   2.000  1.00  0.00    -0.006 A 
ATOM     15  N   UNL     1      -1.325   2.017   2.448  1.00  0.00    -0.353 N 
ATOM     16  C   UNL     1      -1.659   5.383   1.168  1.00  0.00     0.114 C 
ATOM     17  C   UNL     1      -1.487   4.043   3.401  1.00  0.00     0.003 A 
ATOM     18  C   UNL     1      -1.407   2.676   3.668  1.00  0.00     0.046 A 
ATOM     19  H   UNL     1      -1.226   1.044   2.336  1.00  0.00     0.166 HD
ATOM     20  C   UNL     1      -1.573   4.963   4.461  1.00  0.00     0.010 A 
ATOM     21  C   UNL     1      -1.426   2.189   4.983  1.00  0.00     0.026 A 
ATOM     22  C   UNL     1      -1.590   4.492   5.773  1.00  0.00     0.001 A 
ATOM     23  C   UNL     1      -1.523   3.124   6.027  1.00  0.00     0.002 A 
BRANCH   9  24
ATOM     24  C   UNL     1      -2.295   1.634  -0.665  1.00  0.00     0.019 A 
ATOM     25  C   UNL     1      -5.806   0.275   0.060  1.00  0.00     0.044 C 
ATOM     26  C   UNL     1      -4.487   0.513  -0.615  1.00  0.00    -0.051 A 
ATOM     27  C   UNL     1      -4.241  -0.029  -1.875  1.00  0.00     0.004 A 
ATOM     28  C   UNL     1      -3.522   1.347  -0.028  1.00  0.00     0.014 A 
ATOM     29  C   UNL     1      -3.042   0.239  -2.529  1.00  0.00     0.004 A 
ATOM     30  C   UNL     1      -2.068   1.072  -1.952  1.00  0.00    -0.042 A 
ATOM     31  C   UNL     1      -0.888   1.437  -2.820  1.00  0.00     0.045 C 
ENDBRANCH   9  24
ENDBRANCH   5   8
ENDBRANCH   3   4
ENDBRANCH   2   3
ENDBRANCH   1   2
BRANCH   1  32
ATOM     32  C   UNL     1      -3.913  10.912  -0.094  1.00  0.00     0.116 C 
BRANCH  32  33
ATOM     33  N   UNL     1      -4.756  11.036   1.110  1.00  0.00    -0.352 N 
ATOM     34  C   UNL     1      -6.140  10.905   1.274  1.00  0.00     0.251 C 
ATOM     35  H   UNL     1      -4.263  11.246   1.935  1.00  0.00     0.163 HD
ATOM     36  O   UNL     1      -6.711  11.448   2.203  1.00  0.00    -0.269 OA
BRANCH  34  37
ATOM     37  C   UNL     1      -6.908  10.034   0.355  1.00  0.00     0.039 A 
ATOM     38  C   UNL     1      -8.271  10.111   0.067  1.00  0.00     0.014 A 
ATOM     39  C   UNL     1      -6.194   9.010  -0.202  1.00  0.00     0.014 A 
ATOM     40  C   UNL     1      -8.828   9.141  -0.785  1.00  0.00     0.010 A 
ATOM     41  C   UNL     1      -6.623   8.504  -1.382  1.00  0.00     0.010 A 
ATOM     42  C   UNL     1      -7.969   8.293  -1.489  1.00  0.00    -0.014 A 
BRANCH  42  43
ATOM     43  C   UNL     1      -8.360   7.284  -2.458  1.00  0.00     0.031 A 
ATOM     44  C   UNL     1      -8.989   7.853  -3.664  1.00  0.00     0.074 A 
ATOM     45  C   UNL     1      -7.908   6.006  -2.439  1.00  0.00     0.049 A 
ATOM     46  N   UNL     1     -10.239   7.831  -3.977  1.00  0.00    -0.248 NA
ATOM     47  C   UNL     1      -8.164   8.705  -4.535  1.00  0.00     0.031 C 
ATOM     48  C   UNL     1      -6.923   5.377  -1.546  1.00  0.00     0.029 A 
ATOM     49  N   UNL     1      -8.185   5.000  -3.314  1.00  0.00    -0.354 N 
ATOM     50  C   UNL     1     -10.322   8.475  -5.204  1.00  0.00     0.074 A 
ATOM     51  C   UNL     1      -9.091   9.202  -5.356  1.00  0.00     0.031 C 
ATOM     52  C   UNL     1      -6.539   4.181  -2.056  1.00  0.00     0.029 A 
ATOM     53  C   UNL     1      -7.356   3.888  -3.219  1.00  0.00     0.049 A 
ATOM     54  H   UNL     1      -8.921   5.055  -3.967  1.00  0.00     0.167 HD
ATOM     55  C   UNL     1     -11.263   8.107  -6.116  1.00  0.00     0.037 A 
ATOM     56  C   UNL     1      -7.324   2.837  -4.079  1.00  0.00     0.037 A 
ATOM     57  C   UNL     1     -12.279   7.282  -5.499  1.00  0.00     0.049 A 
ATOM     58  C   UNL     1      -8.599   2.850  -4.846  1.00  0.00     0.074 A 
ATOM     59  C   UNL     1     -13.120   7.438  -4.411  1.00  0.00     0.029 A 
ATOM     60  N   UNL     1     -12.244   5.927  -5.736  1.00  0.00    -0.354 N 
ATOM     61  N   UNL     1      -9.768   2.618  -4.314  1.00  0.00    -0.248 NA
ATOM     62  C   UNL     1      -8.618   3.608  -6.090  1.00  0.00     0.031 C 
ATOM     63  C   UNL     1     -13.111   6.170  -3.753  1.00  0.00     0.029 A 
ATOM     64  C   UNL     1     -12.344   5.296  -4.522  1.00  0.00     0.049 A 
ATOM     65  H   UNL     1     -12.162   5.491  -6.615  1.00  0.00     0.167 HD
ATOM     66  C   UNL     1     -10.608   3.559  -4.891  1.00  0.00     0.074 A 
ATOM     67  C   UNL     1      -9.861   4.093  -6.029  1.00  0.00     0.031 C 
ATOM     68  C   UNL     1     -11.695   4.041  -4.220  1.00  0.00     0.037 A 
BRANCH  55  69
ATOM     69  C   UNL     1     -11.065   8.152  -7.614  1.00  0.00     0.064 A 
ATOM     70  C   UNL     1     -12.163   7.853  -8.444  1.00  0.00     0.173 A 
ATOM     71  C   UNL     1      -9.811   8.193  -8.264  1.00  0.00     0.173 A 
ATOM     72  F   UNL     1     -13.402   7.779  -7.937  1.00  0.00    -0.203 F 
ATOM     73  C   UNL     1     -12.003   7.526  -9.793  1.00  0.00     0.198 A 
ATOM     74  C   UNL     1      -9.663   7.924  -9.623  1.00  0.00     0.198 A 
ATOM     75  F   UNL     1      -8.661   8.379  -7.609  1.00  0.00    -0.203 F 
ATOM     76  F   UNL     1     -13.060   7.113 -10.504  1.00  0.00    -0.200 F 
ATOM     77  C   UNL     1     -10.753   7.554 -10.380  1.00  0.00     0.200 A 
ATOM     78  F   UNL     1      -8.438   7.945 -10.168  1.00  0.00    -0.200 F 
ATOM     79  F   UNL     1     -10.588   7.179 -11.654  1.00  0.00    -0.200 F 
ENDBRANCH  55  69
BRANCH  56  80
ATOM     80  C   UNL     1      -6.131   2.096  -4.558  1.00  0.00     0.064 A 
ATOM     81  C   UNL     1      -6.250   0.842  -5.178  1.00  0.00     0.173 A 
ATOM     82  C   UNL     1      -4.884   2.741  -4.681  1.00  0.00     0.173 A 
ATOM     83  F   UNL     1      -7.419   0.185  -5.153  1.00  0.00    -0.203 F 
ATOM     84  C   UNL     1      -5.190   0.275  -5.895  1.00  0.00     0.198 A 
ATOM     85  C   UNL     1      -3.829   2.174  -5.396  1.00  0.00     0.198 A 
ATOM     86  F   UNL     1      -4.703   3.980  -4.202  1.00  0.00    -0.203 F 
ATOM     87  F   UNL     1      -5.354  -0.903  -6.516  1.00  0.00    -0.200 F 
ATOM     88  C   UNL     1      -3.985   0.947  -6.013  1.00  0.00     0.200 A 
ATOM     89  F   UNL     1      -2.676   2.846  -5.531  1.00  0.00    -0.200 F 
ATOM     90  F   UNL     1      -2.983   0.424  -6.734  1.00  0.00    -0.200 F 
ENDBRANCH  56  80
BRANCH  68  91
ATOM     91  C   UNL     1     -12.105   3.351  -2.947  1.00  0.00     0.064 A 
ATOM     92  C   UNL     1     -11.303   3.273  -1.794  1.00  0.00     0.173 A 
ATOM     93  C   UNL     1     -13.419   2.877  -2.845  1.00  0.00     0.173 A 
ATOM     94  F   UNL     1     -10.071   3.792  -1.772  1.00  0.00    -0.203 F 
ATOM     95  C   UNL     1     -11.783   2.710  -0.611  1.00  0.00     0.198 A 
ATOM     96  C   UNL     1     -13.907   2.347  -1.653  1.00  0.00     0.198 A 
ATOM     97  F   UNL     1     -14.249   2.971  -3.895  1.00  0.00    -0.203 F 
ATOM     98  F   UNL     1     -10.992   2.640   0.470  1.00  0.00    -0.200 F 
ATOM     99  C   UNL     1     -13.087   2.254  -0.540  1.00  0.00     0.200 A 
ATOM    100  F   UNL     1     -15.185   1.952  -1.576  1.00  0.00    -0.200 F 
ATOM    101  F   UNL     1     -13.563   1.750   0.607  1.00  0.00    -0.200 F 
ENDBRANCH  68  91
ENDBRANCH  42  43
ENDBRANCH  34  37
ENDBRANCH  32  33
ENDBRANCH   1  32
TORSDOF 12
