REMARK SMILES O=C(NCCCCNC(=O)[C@@H]1CCCCC[C@H]1NC(=O)c1ccc(Cl)o1)c1ccc(-c2c3nc(c(-c4c(F)c(F)c(F)c(F)c4F)c4ccc([nH]4)c(-c4c(F)c(F)c(F)c(F)c4F)c4nc(c(-c5c(F)c(F)c(F)c(F)c5F)c5ccc2[nH]5)C=C4)C=C3)cc1
REMARK SMILES IDX 6 1 5 2 4 3 3 4 1 5 2 6 27 8 28 9 89 10 29 11 88 12 30 13
REMARK SMILES IDX 31 14 32 15 82 16 33 17 87 18 81 19 83 20 34 21 86 22 80 23
REMARK SMILES IDX 79 24 35 26 67 27 47 28 66 29 48 30 51 31 65 32 84 33 49 34
REMARK SMILES IDX 50 35 64 37 85 38 52 39 36 40 37 41 45 42 38 43 39 44 43 45
REMARK SMILES IDX 46 46 40 47 41 48 44 49 42 50 68 51 69 52 77 53 70 54 71 55
REMARK SMILES IDX 75 56 78 57 72 58 73 59 76 60 74 61 53 62 54 63 62 64 55 65
REMARK SMILES IDX 56 66 60 67 63 68 57 69 58 70 61 71 59 72 7 73 8 74 9 75
REMARK SMILES IDX 10 77 11 78 12 79 13 80 14 81 17 83 16 84 15 85 18 87 19 88
REMARK SMILES IDX 20 90 21 91 22 92 26 93 23 94 24 95 25 96
REMARK H PARENT 3 7 83 25 51 36 8 76 18 89
REMARK Flexibility Score: 100.00
ROOT
ATOM      1  C   UNL     1       4.413  -1.101   3.582  1.00  0.00     0.023 C 
ENDROOT
BRANCH   1   2
ATOM      2  C   UNL     1       4.884  -0.129   2.499  1.00  0.00     0.023 C 
BRANCH   2   3
ATOM      3  C   UNL     1       4.534  -0.526   1.068  1.00  0.00     0.116 C 
BRANCH   3   4
ATOM      4  N   UNL     1       3.101  -0.629   0.847  1.00  0.00    -0.352 N 
ATOM      5  O   UNL     1       1.082  -0.050   0.026  1.00  0.00    -0.269 OA
ATOM      6  C   UNL     1       2.304   0.035  -0.051  1.00  0.00     0.251 C 
ATOM      7  H   UNL     1       2.633  -1.270   1.429  1.00  0.00     0.163 HD
BRANCH   6   8
ATOM      8  C   UNL     1       2.908   0.884  -1.100  1.00  0.00     0.039 A 
ATOM      9  C   UNL     1       4.002   0.444  -1.852  1.00  0.00     0.014 A 
ATOM     10  C   UNL     1       2.343   2.137  -1.348  1.00  0.00     0.014 A 
ATOM     11  C   UNL     1       4.609   1.306  -2.761  1.00  0.00     0.010 A 
ATOM     12  C   UNL     1       2.911   2.975  -2.307  1.00  0.00     0.010 A 
ATOM     13  C   UNL     1       4.067   2.578  -2.998  1.00  0.00    -0.014 A 
BRANCH  13  14
ATOM     14  C   UNL     1       4.684   3.489  -3.992  1.00  0.00     0.031 A 
ATOM     15  C   UNL     1       5.309   4.781  -3.555  1.00  0.00     0.074 A 
ATOM     16  C   UNL     1       4.632   3.168  -5.298  1.00  0.00     0.049 A 
ATOM     17  N   UNL     1       5.794   5.755  -4.283  1.00  0.00    -0.248 NA
ATOM     18  C   UNL     1       5.390   5.015  -2.106  1.00  0.00     0.031 C 
ATOM     19  C   UNL     1       4.044   1.942  -5.839  1.00  0.00     0.029 A 
ATOM     20  N   UNL     1       5.060   3.853  -6.406  1.00  0.00    -0.354 N 
ATOM     21  C   UNL     1       6.210   6.728  -3.385  1.00  0.00     0.074 A 
ATOM     22  C   UNL     1       5.904   6.236  -2.058  1.00  0.00     0.031 C 
ATOM     23  C   UNL     1       4.142   1.964  -7.176  1.00  0.00     0.029 A 
ATOM     24  C   UNL     1       4.748   3.227  -7.586  1.00  0.00     0.049 A 
ATOM     25  H   UNL     1       5.543   4.710  -6.359  1.00  0.00     0.167 HD
ATOM     26  C   UNL     1       6.795   7.921  -3.648  1.00  0.00     0.037 A 
ATOM     27  C   UNL     1       4.895   3.640  -8.859  1.00  0.00     0.037 A 
ATOM     28  C   UNL     1       7.106   8.395  -4.972  1.00  0.00     0.049 A 
ATOM     29  C   UNL     1       5.521   4.977  -9.129  1.00  0.00     0.074 A 
ATOM     30  C   UNL     1       7.748   9.563  -5.343  1.00  0.00     0.029 A 
ATOM     31  N   UNL     1       6.785   7.725  -6.145  1.00  0.00    -0.354 N 
ATOM     32  N   UNL     1       5.951   5.873  -8.274  1.00  0.00    -0.248 NA
ATOM     33  C   UNL     1       5.683   5.363 -10.537  1.00  0.00     0.031 C 
ATOM     34  C   UNL     1       7.770   9.624  -6.741  1.00  0.00     0.029 A 
ATOM     35  C   UNL     1       7.190   8.469  -7.241  1.00  0.00     0.049 A 
ATOM     36  H   UNL     1       6.336   6.850  -6.191  1.00  0.00     0.167 HD
ATOM     37  C   UNL     1       6.454   6.918  -9.035  1.00  0.00     0.074 A 
ATOM     38  C   UNL     1       6.280   6.543 -10.424  1.00  0.00     0.031 C 
ATOM     39  C   UNL     1       7.015   8.079  -8.618  1.00  0.00     0.037 A 
BRANCH  26  40
ATOM     40  C   UNL     1       7.109   8.812  -2.480  1.00  0.00     0.064 A 
ATOM     41  C   UNL     1       8.126   8.504  -1.564  1.00  0.00     0.173 A 
ATOM     42  C   UNL     1       6.391  10.002  -2.285  1.00  0.00     0.173 A 
ATOM     43  F   UNL     1       8.836   7.373  -1.698  1.00  0.00    -0.203 F 
ATOM     44  C   UNL     1       8.388   9.335  -0.477  1.00  0.00     0.198 A 
ATOM     45  C   UNL     1       6.676  10.846  -1.214  1.00  0.00     0.198 A 
ATOM     46  F   UNL     1       5.414  10.350  -3.136  1.00  0.00    -0.203 F 
ATOM     47  F   UNL     1       9.327   8.991   0.415  1.00  0.00    -0.200 F 
ATOM     48  C   UNL     1       7.666  10.506  -0.306  1.00  0.00     0.200 A 
ATOM     49  F   UNL     1       5.985  11.984  -1.058  1.00  0.00    -0.200 F 
ATOM     50  F   UNL     1       7.919  11.304   0.741  1.00  0.00    -0.200 F 
ENDBRANCH  26  40
BRANCH  27  51
ATOM     51  C   UNL     1       4.423   2.763  -9.958  1.00  0.00     0.064 A 
ATOM     52  C   UNL     1       5.330   2.071 -10.770  1.00  0.00     0.173 A 
ATOM     53  C   UNL     1       3.053   2.547 -10.174  1.00  0.00     0.173 A 
ATOM     54  F   UNL     1       6.649   2.258 -10.610  1.00  0.00    -0.203 F 
ATOM     55  C   UNL     1       4.885   1.194 -11.756  1.00  0.00     0.198 A 
ATOM     56  C   UNL     1       2.610   1.651 -11.143  1.00  0.00     0.198 A 
ATOM     57  F   UNL     1       2.147   3.181  -9.415  1.00  0.00    -0.203 F 
ATOM     58  F   UNL     1       5.773   0.556 -12.532  1.00  0.00    -0.200 F 
ATOM     59  C   UNL     1       3.527   0.977 -11.935  1.00  0.00     0.200 A 
ATOM     60  F   UNL     1       1.298   1.430 -11.299  1.00  0.00    -0.200 F 
ATOM     61  F   UNL     1       3.101   0.115 -12.868  1.00  0.00    -0.200 F 
ENDBRANCH  27  51
BRANCH  39  62
ATOM     62  C   UNL     1       7.518   9.020  -9.671  1.00  0.00     0.064 A 
ATOM     63  C   UNL     1       6.643   9.803 -10.437  1.00  0.00     0.173 A 
ATOM     64  C   UNL     1       8.897   9.192  -9.863  1.00  0.00     0.173 A 
ATOM     65  F   UNL     1       5.316   9.663 -10.300  1.00  0.00    -0.203 F 
ATOM     66  C   UNL     1       7.132  10.720 -11.364  1.00  0.00     0.198 A 
ATOM     67  C   UNL     1       9.382  10.127 -10.773  1.00  0.00     0.198 A 
ATOM     68  F   UNL     1       9.774   8.468  -9.152  1.00  0.00    -0.203 F 
ATOM     69  F   UNL     1       6.279  11.440 -12.105  1.00  0.00    -0.200 F 
ATOM     70  C   UNL     1       8.500  10.888 -11.524  1.00  0.00     0.200 A 
ATOM     71  F   UNL     1      10.704  10.296 -10.917  1.00  0.00    -0.200 F 
ATOM     72  F   UNL     1       8.968  11.783 -12.404  1.00  0.00    -0.200 F 
ENDBRANCH  39  62
ENDBRANCH  13  14
ENDBRANCH   6   8
ENDBRANCH   3   4
ENDBRANCH   2   3
ENDBRANCH   1   2
BRANCH   1  73
ATOM     73  C   UNL     1       4.865  -2.543   3.390  1.00  0.00     0.116 C 
BRANCH  73  74
ATOM     74  N   UNL     1       6.308  -2.689   3.437  1.00  0.00    -0.356 N 
ATOM     75  C   UNL     1       7.072  -3.534   4.188  1.00  0.00     0.225 C 
ATOM     76  H   UNL     1       6.810  -2.089   2.839  1.00  0.00     0.163 HD
ATOM     77  O   UNL     1       8.288  -3.531   3.997  1.00  0.00    -0.275 OA
BRANCH  75  78
ATOM     78  C   UNL     1       6.396  -4.480   5.184  1.00  0.00     0.101 C 
BRANCH  78  79
ATOM     79  C   UNL     1       7.393  -4.838   6.298  1.00  0.00     0.015 C 
BRANCH  79  80
ATOM     80  C   UNL     1       6.907  -5.909   7.268  1.00  0.00     0.001 C 
BRANCH  80  81
ATOM     81  C   UNL     1       7.297  -7.315   6.827  1.00  0.00     0.000 CG0
ATOM     82  G   UNL     1       6.587  -7.841   5.586  1.00  0.00     0.000 G0
ENDBRANCH  80  81
ENDBRANCH  79  80
ENDBRANCH  78  79
BRANCH  78  83
ATOM     83  C   UNL     1       5.785  -5.667   4.398  1.00  0.00     0.094 C 
BRANCH  83  84
ATOM     84  C   UNL     1       6.641  -6.943   4.348  1.00  0.00     0.026 C 
BRANCH  84  85
ATOM     85  C   UNL     1       6.587  -7.841   5.586  1.00  0.00     0.002 CG0
ATOM     86  G   UNL     1       7.297  -7.315   6.827  1.00  0.00     0.000 G0
ENDBRANCH  84  85
ENDBRANCH  83  84
BRANCH  83  87
ATOM     87  N   UNL     1       4.431  -5.968   4.887  1.00  0.00    -0.346 N 
ATOM     88  C   UNL     1       3.200  -5.857   4.287  1.00  0.00     0.287 C 
ATOM     89  H   UNL     1       4.401  -6.310   5.809  1.00  0.00     0.164 HD
ATOM     90  O   UNL     1       2.218  -5.974   5.023  1.00  0.00    -0.266 OA
BRANCH  88  91
ATOM     91  C   UNL     1       3.095  -5.580   2.872  1.00  0.00     0.193 A 
ATOM     92  C   UNL     1       3.781  -6.022   1.755  1.00  0.00     0.058 A 
ATOM     93  O   UNL     1       2.102  -4.724   2.472  1.00  0.00    -0.440 OA
ATOM     94  C   UNL     1       3.189  -5.392   0.632  1.00  0.00     0.064 A 
ATOM     95  C   UNL     1       2.160  -4.617   1.118  1.00  0.00     0.194 A 
ATOM     96  Cl  UNL     1       1.091  -3.638   0.201  1.00  0.00    -0.043 Cl
ENDBRANCH  88  91
ENDBRANCH  83  87
ENDBRANCH  78  83
ENDBRANCH  75  78
ENDBRANCH  73  74
ENDBRANCH   1  73
TORSDOF 13
