REMARK SMILES Cc1c(I)cccc1[C@H]([NH3+])C(=O)NCCCCNC(=O)c1ccc(-c2c3nc(c(-c4c(F)c(F)c(F)c(F)c4F)c4ccc([nH]4)c(-c4c(F)c(F)c(F)c(F)c4F)c4nc(c(-c5c(F)c(F)c(F)c(F)c5F)c5ccc2[nH]5)C=C4)C=C3)cc1
REMARK SMILES IDX 16 1 15 2 14 3 13 4 11 5 12 6 9 8 8 9 1 10 2 11 3 12 4 13
REMARK SMILES IDX 5 14 7 15 6 16 10 17 17 21 18 22 19 23 20 25 21 26 22 27
REMARK SMILES IDX 83 28 23 29 82 30 24 31 25 32 26 33 76 34 27 35 81 36 75 37
REMARK SMILES IDX 77 38 28 39 80 40 74 41 73 42 29 44 61 45 41 46 60 47 42 48
REMARK SMILES IDX 45 49 59 50 78 51 43 52 44 53 58 55 79 56 46 57 30 58 31 59
REMARK SMILES IDX 39 60 32 61 33 62 37 63 40 64 34 65 35 66 38 67 36 68 62 69
REMARK SMILES IDX 63 70 71 71 64 72 65 73 69 74 72 75 66 76 67 77 70 78 68 79
REMARK SMILES IDX 47 80 48 81 56 82 49 83 50 84 54 85 57 86 51 87 52 88 55 89
REMARK SMILES IDX 53 90
REMARK H PARENT 13 7 10 18 10 19 10 20 18 24 77 43 45 54
REMARK Flexibility Score: inf
ROOT
ATOM      1  C   UNL     1      -3.204   3.558  -4.185  1.00  0.00     0.023 C 
ENDROOT
BRANCH   1   2
ATOM      2  C   UNL     1      -2.007   2.611  -4.174  1.00  0.00     0.023 C 
BRANCH   2   3
ATOM      3  C   UNL     1      -0.708   3.212  -3.649  1.00  0.00     0.116 C 
BRANCH   3   4
ATOM      4  N   UNL     1      -0.790   3.579  -2.249  1.00  0.00    -0.351 N 
ATOM      5  C   UNL     1       0.035   3.224  -1.219  1.00  0.00     0.283 C 
ATOM      6  O   UNL     1      -0.242   3.656  -0.094  1.00  0.00    -0.268 OA
ATOM      7  H   UNL     1      -1.543   4.165  -2.008  1.00  0.00     0.163 HD
BRANCH   5   8
ATOM      8  C   UNL     1       1.261   2.288  -1.431  1.00  0.00     0.302 C 
BRANCH   8   9
ATOM      9  C   UNL     1       2.325   2.909  -2.347  1.00  0.00     0.023 A 
ATOM     10  C   UNL     1       2.796   4.747  -0.639  1.00  0.00     0.046 C 
ATOM     11  C   UNL     1       2.990   4.120  -2.000  1.00  0.00    -0.028 A 
ATOM     12  C   UNL     1       3.799   4.748  -2.975  1.00  0.00     0.016 A 
ATOM     13  I   UNL     1       4.699   6.636  -2.690  1.00  0.00    -0.044 I 
ATOM     14  C   UNL     1       4.019   4.159  -4.224  1.00  0.00     0.015 A 
ATOM     15  C   UNL     1       2.615   2.314  -3.595  1.00  0.00     0.011 A 
ATOM     16  C   UNL     1       3.447   2.931  -4.524  1.00  0.00     0.002 A 
ENDBRANCH   8   9
BRANCH   8  17
ATOM     17  N   UNL     1       0.777   0.947  -1.846  1.00  0.00    -0.343 N 
ATOM     18  H   UNL     1       0.268   1.027  -2.727  1.00  0.00     0.345 HD
ATOM     19  H   UNL     1       0.157   0.573  -1.128  1.00  0.00     0.345 HD
ATOM     20  H   UNL     1       1.572   0.321  -1.969  1.00  0.00     0.345 HD
ENDBRANCH   8  17
ENDBRANCH   5   8
ENDBRANCH   3   4
ENDBRANCH   2   3
ENDBRANCH   1   2
BRANCH   1  21
ATOM     21  C   UNL     1      -2.993   4.867  -4.936  1.00  0.00     0.116 C 
BRANCH  21  22
ATOM     22  N   UNL     1      -2.692   4.688  -6.350  1.00  0.00    -0.352 N 
ATOM     23  C   UNL     1      -3.254   5.307  -7.443  1.00  0.00     0.251 C 
ATOM     24  H   UNL     1      -1.986   4.032  -6.552  1.00  0.00     0.163 HD
ATOM     25  O   UNL     1      -2.948   4.966  -8.581  1.00  0.00    -0.269 OA
BRANCH  23  26
ATOM     26  C   UNL     1      -4.273   6.359  -7.236  1.00  0.00     0.039 A 
ATOM     27  C   UNL     1      -4.058   7.379  -6.308  1.00  0.00     0.014 A 
ATOM     28  C   UNL     1      -5.483   6.281  -7.931  1.00  0.00     0.014 A 
ATOM     29  C   UNL     1      -5.117   8.199  -5.936  1.00  0.00     0.010 A 
ATOM     30  C   UNL     1      -6.519   7.165  -7.617  1.00  0.00     0.010 A 
ATOM     31  C   UNL     1      -6.365   8.091  -6.574  1.00  0.00    -0.014 A 
BRANCH  31  32
ATOM     32  C   UNL     1      -7.494   8.936  -6.105  1.00  0.00     0.031 A 
ATOM     33  C   UNL     1      -8.698   8.315  -5.447  1.00  0.00     0.074 A 
ATOM     34  C   UNL     1      -7.391  10.276  -6.191  1.00  0.00     0.049 A 
ATOM     35  N   UNL     1      -9.751   8.901  -4.932  1.00  0.00    -0.248 NA
ATOM     36  C   UNL     1      -8.728   6.847  -5.351  1.00  0.00     0.031 C 
ATOM     37  C   UNL     1      -6.263  10.994  -6.785  1.00  0.00     0.029 A 
ATOM     38  N   UNL     1      -8.222  11.271  -5.745  1.00  0.00    -0.354 N 
ATOM     39  C   UNL     1     -10.568   7.879  -4.467  1.00  0.00     0.074 A 
ATOM     40  C   UNL     1      -9.907   6.632  -4.784  1.00  0.00     0.031 C 
ATOM     41  C   UNL     1      -6.436  12.311  -6.603  1.00  0.00     0.029 A 
ATOM     42  C   UNL     1      -7.715  12.533  -5.936  1.00  0.00     0.049 A 
ATOM     43  H   UNL     1      -9.097  11.098  -5.329  1.00  0.00     0.167 HD
ATOM     44  C   UNL     1     -11.754   7.974  -3.820  1.00  0.00     0.037 A 
ATOM     45  C   UNL     1      -8.223  13.737  -5.611  1.00  0.00     0.037 A 
ATOM     46  C   UNL     1     -12.401   9.214  -3.482  1.00  0.00     0.049 A 
ATOM     47  C   UNL     1      -9.562  13.811  -4.935  1.00  0.00     0.074 A 
ATOM     48  C   UNL     1     -13.607   9.409  -2.830  1.00  0.00     0.029 A 
ATOM     49  N   UNL     1     -11.889  10.473  -3.758  1.00  0.00    -0.354 N 
ATOM     50  N   UNL     1     -10.332  12.836  -4.521  1.00  0.00    -0.248 NA
ATOM     51  C   UNL     1     -10.108  15.154  -4.695  1.00  0.00     0.031 C 
ATOM     52  C   UNL     1     -13.839  10.784  -2.740  1.00  0.00     0.029 A 
ATOM     53  C   UNL     1     -12.761  11.447  -3.301  1.00  0.00     0.049 A 
ATOM     54  H   UNL     1     -11.033  10.647  -4.212  1.00  0.00     0.167 HD
ATOM     55  C   UNL     1     -11.448  13.444  -3.963  1.00  0.00     0.074 A 
ATOM     56  C   UNL     1     -11.247  14.874  -4.075  1.00  0.00     0.031 C 
ATOM     57  C   UNL     1     -12.543  12.866  -3.415  1.00  0.00     0.037 A 
BRANCH  44  58
ATOM     58  C   UNL     1     -12.443   6.700  -3.427  1.00  0.00     0.064 A 
ATOM     59  C   UNL     1     -11.992   5.929  -2.346  1.00  0.00     0.173 A 
ATOM     60  C   UNL     1     -13.610   6.287  -4.088  1.00  0.00     0.173 A 
ATOM     61  F   UNL     1     -10.875   6.276  -1.690  1.00  0.00    -0.203 F 
ATOM     62  C   UNL     1     -12.680   4.787  -1.946  1.00  0.00     0.198 A 
ATOM     63  C   UNL     1     -14.308   5.157  -3.671  1.00  0.00     0.198 A 
ATOM     64  F   UNL     1     -14.086   6.994  -5.124  1.00  0.00    -0.203 F 
ATOM     65  F   UNL     1     -12.218   4.051  -0.925  1.00  0.00    -0.200 F 
ATOM     66  C   UNL     1     -13.842   4.407  -2.602  1.00  0.00     0.200 A 
ATOM     67  F   UNL     1     -15.437   4.798  -4.298  1.00  0.00    -0.200 F 
ATOM     68  F   UNL     1     -14.512   3.316  -2.204  1.00  0.00    -0.200 F 
ENDBRANCH  44  58
BRANCH  45  69
ATOM     69  C   UNL     1      -7.446  14.966  -5.910  1.00  0.00     0.064 A 
ATOM     70  C   UNL     1      -6.869  15.716  -4.877  1.00  0.00     0.173 A 
ATOM     71  C   UNL     1      -7.239  15.396  -7.228  1.00  0.00     0.173 A 
ATOM     72  F   UNL     1      -7.058  15.354  -3.600  1.00  0.00    -0.203 F 
ATOM     73  C   UNL     1      -6.114  16.854  -5.152  1.00  0.00     0.198 A 
ATOM     74  C   UNL     1      -6.462  16.519  -7.503  1.00  0.00     0.198 A 
ATOM     75  F   UNL     1      -7.770  14.709  -8.250  1.00  0.00    -0.203 F 
ATOM     76  F   UNL     1      -5.594  17.570  -4.146  1.00  0.00    -0.200 F 
ATOM     77  C   UNL     1      -5.904  17.249  -6.465  1.00  0.00     0.200 A 
ATOM     78  F   UNL     1      -6.250  16.888  -8.774  1.00  0.00    -0.200 F 
ATOM     79  F   UNL     1      -5.165  18.335  -6.730  1.00  0.00    -0.200 F 
ENDBRANCH  45  69
BRANCH  57  80
ATOM     80  C   UNL     1     -13.607  13.774  -2.879  1.00  0.00     0.064 A 
ATOM     81  C   UNL     1     -14.487  14.450  -3.736  1.00  0.00     0.173 A 
ATOM     82  C   UNL     1     -13.792  13.916  -1.496  1.00  0.00     0.173 A 
ATOM     83  F   UNL     1     -14.340  14.354  -5.066  1.00  0.00    -0.203 F 
ATOM     84  C   UNL     1     -15.509  15.246  -3.226  1.00  0.00     0.198 A 
ATOM     85  C   UNL     1     -14.828  14.695  -0.990  1.00  0.00     0.198 A 
ATOM     86  F   UNL     1     -12.978  13.284  -0.637  1.00  0.00    -0.203 F 
ATOM     87  F   UNL     1     -16.322  15.905  -4.062  1.00  0.00    -0.200 F 
ATOM     88  C   UNL     1     -15.684  15.361  -1.855  1.00  0.00     0.200 A 
ATOM     89  F   UNL     1     -15.003  14.797   0.335  1.00  0.00    -0.200 F 
ATOM     90  F   UNL     1     -16.676  16.117  -1.366  1.00  0.00    -0.200 F 
ENDBRANCH  57  80
ENDBRANCH  31  32
ENDBRANCH  23  26
ENDBRANCH  21  22
ENDBRANCH   1  21
TORSDOF 13
