REMARK SMILES CC(=O)Nc1nc(C[N@@H+]2CCO[C@@H](CC(=O)NCCCCNC(=O)c3ccc(-c4c5nc(c(-c6c(F)c(F)c(F)c(F)c6F)c6ccc([nH]6)c(-c6c(F)c(F)c(F)c(F)c6F)c6nc(c(-c7c(F)c(F)c(F)c(F)c7F)c7ccc4[nH]7)C=C6)C=C5)cc3)C2)cs1
REMARK SMILES IDX 18 1 17 2 15 3 16 4 14 6 13 7 9 8 10 9 88 10 11 12 12 13
REMARK SMILES IDX 8 14 7 15 5 16 6 17 90 18 89 19 4 20 1 21 2 22 3 23 19 25
REMARK SMILES IDX 20 26 21 27 22 28 23 29 24 31 25 32 26 33 87 34 27 35 86 36
REMARK SMILES IDX 28 37 29 38 30 39 80 40 31 41 85 42 79 43 81 44 32 45 84 46
REMARK SMILES IDX 78 47 77 48 33 50 65 51 45 52 64 53 46 54 49 55 63 56 82 57
REMARK SMILES IDX 47 58 48 59 62 61 83 62 50 63 34 64 35 65 43 66 36 67 37 68
REMARK SMILES IDX 41 69 44 70 38 71 39 72 42 73 40 74 66 75 67 76 75 77 68 78
REMARK SMILES IDX 69 79 73 80 76 81 70 82 71 83 74 84 72 85 51 86 52 87 60 88
REMARK SMILES IDX 53 89 54 90 58 91 61 92 55 93 56 94 59 95 57 96
REMARK H PARENT 17 5 9 11 4 24 22 30 81 49 49 60
REMARK Flexibility Score: inf
ROOT
ATOM      1  C   UNL     1       8.224  -1.230  -0.089  1.00  0.00     0.116 C 
ENDROOT
BRANCH   1   2
ATOM      2  N   UNL     1       7.541  -1.839   1.042  1.00  0.00    -0.356 N 
ATOM      3  C   UNL     1       7.117  -3.121   1.246  1.00  0.00     0.222 C 
ATOM      4  O   UNL     1       6.469  -3.357   2.267  1.00  0.00    -0.275 OA
ATOM      5  H   UNL     1       7.353  -1.223   1.787  1.00  0.00     0.163 HD
BRANCH   3   6
ATOM      6  C   UNL     1       7.422  -4.223   0.251  1.00  0.00     0.138 C 
BRANCH   6   7
ATOM      7  C   UNL     1       6.262  -4.502  -0.717  1.00  0.00     0.182 C 
ATOM      8  N   UNL     1       5.317  -3.449  -2.866  1.00  0.00    -0.326 N 
ATOM      9  C   UNL     1       5.507  -4.730  -3.511  1.00  0.00     0.291 C 
ATOM     10  C   UNL     1       5.986  -3.270  -1.595  1.00  0.00     0.295 C 
ATOM     11  H   UNL     1       5.884  -2.918  -3.527  1.00  0.00     0.348 HD
ATOM     12  C   UNL     1       5.595  -5.886  -2.506  1.00  0.00     0.222 C 
ATOM     13  O   UNL     1       6.615  -5.639  -1.526  1.00  0.00    -0.366 OA
BRANCH   8  14
ATOM     14  C   UNL     1       4.174  -2.607  -3.165  1.00  0.00     0.320 C 
BRANCH  14  15
ATOM     15  C   UNL     1       2.963  -3.033  -2.392  1.00  0.00     0.108 A 
ATOM     16  C   UNL     1       1.466  -2.814  -0.787  1.00  0.00     0.189 A 
ATOM     17  N   UNL     1       2.468  -2.214  -1.376  1.00  0.00    -0.219 NA
ATOM     18  S   UNL     1       1.035  -4.352  -1.388  1.00  0.00    -0.105 S 
ATOM     19  C   UNL     1       2.243  -4.198  -2.587  1.00  0.00     0.098 A 
BRANCH  16  20
ATOM     20  N   UNL     1       0.693  -2.406   0.257  1.00  0.00    -0.302 N 
ATOM     21  C   UNL     1       1.407  -0.025   0.180  1.00  0.00     0.114 C 
ATOM     22  C   UNL     1       0.663  -1.167   0.815  1.00  0.00     0.223 C 
ATOM     23  O   UNL     1      -0.023  -0.989   1.825  1.00  0.00    -0.275 OA
ATOM     24  H   UNL     1       0.093  -3.079   0.650  1.00  0.00     0.172 HD
ENDBRANCH  16  20
ENDBRANCH  14  15
ENDBRANCH   8  14
ENDBRANCH   6   7
ENDBRANCH   3   6
ENDBRANCH   1   2
BRANCH   1  25
ATOM     25  C   UNL     1       7.249  -0.435  -0.965  1.00  0.00     0.023 C 
BRANCH  25  26
ATOM     26  C   UNL     1       7.075   1.028  -0.607  1.00  0.00     0.023 C 
BRANCH  26  27
ATOM     27  C   UNL     1       8.282   1.884  -0.916  1.00  0.00     0.116 C 
BRANCH  27  28
ATOM     28  N   UNL     1       8.645   1.909  -2.328  1.00  0.00    -0.352 N 
ATOM     29  C   UNL     1       9.024   2.988  -3.096  1.00  0.00     0.251 C 
ATOM     30  H   UNL     1       8.615   1.042  -2.793  1.00  0.00     0.163 HD
ATOM     31  O   UNL     1       9.228   2.867  -4.295  1.00  0.00    -0.269 OA
BRANCH  29  32
ATOM     32  C   UNL     1       9.127   4.312  -2.447  1.00  0.00     0.039 A 
ATOM     33  C   UNL     1       8.496   5.408  -3.037  1.00  0.00     0.014 A 
ATOM     34  C   UNL     1       9.752   4.434  -1.206  1.00  0.00     0.014 A 
ATOM     35  C   UNL     1       8.417   6.610  -2.332  1.00  0.00     0.010 A 
ATOM     36  C   UNL     1       9.560   5.585  -0.458  1.00  0.00     0.010 A 
ATOM     37  C   UNL     1       8.905   6.691  -1.018  1.00  0.00    -0.014 A 
BRANCH  37  38
ATOM     38  C   UNL     1       8.784   7.930  -0.212  1.00  0.00     0.031 A 
ATOM     39  C   UNL     1      10.031   8.601   0.296  1.00  0.00     0.074 A 
ATOM     40  C   UNL     1       7.569   8.397   0.135  1.00  0.00     0.049 A 
ATOM     41  N   UNL     1      10.155   9.618   1.110  1.00  0.00    -0.248 NA
ATOM     42  C   UNL     1      11.315   8.017  -0.129  1.00  0.00     0.031 C 
ATOM     43  C   UNL     1       6.288   7.793  -0.234  1.00  0.00     0.029 A 
ATOM     44  N   UNL     1       7.215   9.488   0.889  1.00  0.00    -0.354 N 
ATOM     45  C   UNL     1      11.519   9.765   1.320  1.00  0.00     0.074 A 
ATOM     46  C   UNL     1      12.180   8.696   0.607  1.00  0.00     0.031 C 
ATOM     47  C   UNL     1       5.289   8.540   0.265  1.00  0.00     0.029 A 
ATOM     48  C   UNL     1       5.858   9.653   1.017  1.00  0.00     0.049 A 
ATOM     49  H   UNL     1       7.873  10.095   1.300  1.00  0.00     0.167 HD
ATOM     50  C   UNL     1      12.167  10.729   2.014  1.00  0.00     0.037 A 
ATOM     51  C   UNL     1       5.157  10.602   1.667  1.00  0.00     0.037 A 
ATOM     52  C   UNL     1      11.508  11.827   2.665  1.00  0.00     0.049 A 
ATOM     53  C   UNL     1       5.901  11.694   2.386  1.00  0.00     0.074 A 
ATOM     54  C   UNL     1      12.072  12.903   3.326  1.00  0.00     0.029 A 
ATOM     55  N   UNL     1      10.132  11.994   2.721  1.00  0.00    -0.354 N 
ATOM     56  N   UNL     1       7.194  11.866   2.519  1.00  0.00    -0.248 NA
ATOM     57  C   UNL     1       5.089  12.730   3.039  1.00  0.00     0.031 C 
ATOM     58  C   UNL     1      11.034  13.708   3.809  1.00  0.00     0.029 A 
ATOM     59  C   UNL     1       9.827  13.153   3.413  1.00  0.00     0.049 A 
ATOM     60  H   UNL     1       9.472  11.380   2.327  1.00  0.00     0.167 HD
ATOM     61  C   UNL     1       7.352  13.040   3.241  1.00  0.00     0.074 A 
ATOM     62  C   UNL     1       6.022  13.547   3.508  1.00  0.00     0.031 C 
ATOM     63  C   UNL     1       8.494  13.645   3.649  1.00  0.00     0.037 A 
BRANCH  50  64
ATOM     64  C   UNL     1      13.664  10.644   2.082  1.00  0.00     0.064 A 
ATOM     65  C   UNL     1      14.465  10.861   0.950  1.00  0.00     0.173 A 
ATOM     66  C   UNL     1      14.307  10.353   3.294  1.00  0.00     0.173 A 
ATOM     67  F   UNL     1      13.898  11.126  -0.238  1.00  0.00    -0.203 F 
ATOM     68  C   UNL     1      15.851  10.754   1.020  1.00  0.00     0.198 A 
ATOM     69  C   UNL     1      15.696  10.279   3.368  1.00  0.00     0.198 A 
ATOM     70  F   UNL     1      13.589  10.138   4.406  1.00  0.00    -0.203 F 
ATOM     71  F   UNL     1      16.590  10.906  -0.087  1.00  0.00    -0.200 F 
ATOM     72  C   UNL     1      16.466  10.470   2.230  1.00  0.00     0.200 A 
ATOM     73  F   UNL     1      16.290  10.014   4.540  1.00  0.00    -0.200 F 
ATOM     74  F   UNL     1      17.800  10.371   2.297  1.00  0.00    -0.200 F 
ENDBRANCH  50  64
BRANCH  51  75
ATOM     75  C   UNL     1       3.672  10.590   1.625  1.00  0.00     0.064 A 
ATOM     76  C   UNL     1       2.969  11.555   0.888  1.00  0.00     0.173 A 
ATOM     77  C   UNL     1       2.925   9.625   2.315  1.00  0.00     0.173 A 
ATOM     78  F   UNL     1       3.640  12.509   0.226  1.00  0.00    -0.203 F 
ATOM     79  C   UNL     1       1.577  11.567   0.860  1.00  0.00     0.198 A 
ATOM     80  C   UNL     1       1.532   9.623   2.265  1.00  0.00     0.198 A 
ATOM     81  F   UNL     1       3.549   8.677   3.028  1.00  0.00    -0.203 F 
ATOM     82  F   UNL     1       0.931  12.526   0.182  1.00  0.00    -0.200 F 
ATOM     83  C   UNL     1       0.859  10.598   1.544  1.00  0.00     0.200 A 
ATOM     84  F   UNL     1       0.842   8.678   2.918  1.00  0.00    -0.200 F 
ATOM     85  F   UNL     1      -0.481  10.609   1.516  1.00  0.00    -0.200 F 
ENDBRANCH  51  75
BRANCH  63  86
ATOM     86  C   UNL     1       8.358  14.942   4.388  1.00  0.00     0.064 A 
ATOM     87  C   UNL     1       7.911  14.986   5.716  1.00  0.00     0.173 A 
ATOM     88  C   UNL     1       8.733  16.148   3.776  1.00  0.00     0.173 A 
ATOM     89  F   UNL     1       7.529  13.861   6.338  1.00  0.00    -0.203 F 
ATOM     90  C   UNL     1       7.822  16.196   6.399  1.00  0.00     0.198 A 
ATOM     91  C   UNL     1       8.669  17.351   4.471  1.00  0.00     0.198 A 
ATOM     92  F   UNL     1       9.175  16.154   2.510  1.00  0.00    -0.203 F 
ATOM     93  F   UNL     1       7.354  16.222   7.654  1.00  0.00    -0.200 F 
ATOM     94  C   UNL     1       8.209  17.375   5.779  1.00  0.00     0.200 A 
ATOM     95  F   UNL     1       9.055  18.488   3.875  1.00  0.00    -0.200 F 
ATOM     96  F   UNL     1       8.132  18.538   6.441  1.00  0.00    -0.200 F 
ENDBRANCH  63  86
ENDBRANCH  37  38
ENDBRANCH  29  32
ENDBRANCH  27  28
ENDBRANCH  26  27
ENDBRANCH  25  26
ENDBRANCH   1  25
TORSDOF 15
