REMARK SMILES C[NH2+][C@@]1(C(=O)NCCCCNC(=O)c2ccc(-c3c4nc(c(-c5c(F)c(F)c(F)c(F)c5F)c5ccc([nH]5)c(-c5c(F)c(F)c(F)c(F)c5F)c5nc(c(-c6c(F)c(F)c(F)c(F)c6F)c6ccc3[nH]6)C=C5)C=C4)cc2)C=CC=C(c2ccccc2)C1
REMARK SMILES IDX 9 1 8 2 7 3 6 4 4 5 5 6 3 8 77 9 87 10 78 11 80 12 79 13
REMARK SMILES IDX 2 14 1 15 81 18 82 19 86 20 83 21 85 22 84 23 10 24 11 25
REMARK SMILES IDX 12 26 13 28 14 29 15 30 76 31 16 32 75 33 17 34 18 35 19 36
REMARK SMILES IDX 69 37 20 38 74 39 68 40 70 41 21 42 73 43 67 44 66 45 22 47
REMARK SMILES IDX 54 48 34 49 53 50 35 51 38 52 52 53 71 54 36 55 37 56 51 58
REMARK SMILES IDX 72 59 39 60 23 61 24 62 32 63 25 64 26 65 30 66 33 67 27 68
REMARK SMILES IDX 28 69 31 70 29 71 55 72 56 73 64 74 57 75 58 76 62 77 65 78
REMARK SMILES IDX 59 79 60 80 63 81 61 82 40 83 41 84 49 85 42 86 43 87 47 88
REMARK SMILES IDX 50 89 44 90 45 91 48 92 46 93
REMARK H PARENT 6 7 2 16 2 17 11 27 70 46 38 57
REMARK Flexibility Score: inf
ROOT
ATOM      1  C   UNL     1      -5.716  -0.582   1.035  1.00  0.00     0.023 C 
ENDROOT
BRANCH   1   2
ATOM      2  C   UNL     1      -4.836   0.012  -0.062  1.00  0.00     0.023 C 
BRANCH   2   3
ATOM      3  C   UNL     1      -4.004   1.216   0.374  1.00  0.00     0.116 C 
BRANCH   3   4
ATOM      4  N   UNL     1      -2.976   0.847   1.327  1.00  0.00    -0.350 N 
ATOM      5  C   UNL     1      -1.613   0.893   1.226  1.00  0.00     0.285 C 
ATOM      6  O   UNL     1      -0.988   0.616   2.259  1.00  0.00    -0.267 OA
ATOM      7  H   UNL     1      -3.313   0.508   2.188  1.00  0.00     0.163 HD
BRANCH   5   8
ATOM      8  C   UNL     1      -0.870   1.340  -0.098  1.00  0.00     0.198 C 
ATOM      9  C   UNL     1      -1.197   2.817  -0.287  1.00  0.00     0.051 C 
ATOM     10  C   UNL     1      -1.299   0.450  -1.313  1.00  0.00     0.120 C 
ATOM     11  C   UNL     1      -1.606   3.341  -1.452  1.00  0.00     0.003 C 
ATOM     12  C   UNL     1      -1.586   1.196  -2.599  1.00  0.00    -0.034 C 
ATOM     13  C   UNL     1      -1.729   2.532  -2.637  1.00  0.00     0.004 C 
BRANCH   8  14
ATOM     14  N   UNL     1       0.608   1.344   0.170  1.00  0.00    -0.332 N 
ATOM     15  C   UNL     1       1.256   0.039   0.147  1.00  0.00     0.332 C 
ATOM     16  H   UNL     1       1.054   1.928  -0.538  1.00  0.00     0.347 HD
ATOM     17  H   UNL     1       0.718   1.693   1.122  1.00  0.00     0.347 HD
ENDBRANCH   8  14
BRANCH  12  18
ATOM     18  C   UNL     1      -1.684   0.401  -3.834  1.00  0.00    -0.022 A 
ATOM     19  C   UNL     1      -0.802   0.647  -4.895  1.00  0.00     0.008 A 
ATOM     20  C   UNL     1      -2.629  -0.625  -3.960  1.00  0.00     0.008 A 
ATOM     21  C   UNL     1      -0.864  -0.117  -6.061  1.00  0.00     0.001 A 
ATOM     22  C   UNL     1      -2.693  -1.386  -5.131  1.00  0.00     0.001 A 
ATOM     23  C   UNL     1      -1.810  -1.132  -6.179  1.00  0.00     0.000 A 
ENDBRANCH  12  18
ENDBRANCH   5   8
ENDBRANCH   3   4
ENDBRANCH   2   3
ENDBRANCH   1   2
BRANCH   1  24
ATOM     24  C   UNL     1      -6.688   0.398   1.677  1.00  0.00     0.116 C 
BRANCH  24  25
ATOM     25  N   UNL     1      -7.588   1.016   0.716  1.00  0.00    -0.352 N 
ATOM     26  C   UNL     1      -8.946   1.202   0.800  1.00  0.00     0.251 C 
ATOM     27  H   UNL     1      -7.166   1.348  -0.109  1.00  0.00     0.163 HD
ATOM     28  O   UNL     1      -9.576   1.615  -0.170  1.00  0.00    -0.269 OA
BRANCH  26  29
ATOM     29  C   UNL     1      -9.652   0.875   2.055  1.00  0.00     0.039 A 
ATOM     30  C   UNL     1     -10.853   0.167   1.990  1.00  0.00     0.014 A 
ATOM     31  C   UNL     1      -9.123   1.252   3.293  1.00  0.00     0.014 A 
ATOM     32  C   UNL     1     -11.496  -0.210   3.169  1.00  0.00     0.010 A 
ATOM     33  C   UNL     1      -9.714   0.796   4.465  1.00  0.00     0.010 A 
ATOM     34  C   UNL     1     -10.916   0.074   4.417  1.00  0.00    -0.014 A 
BRANCH  34  35
ATOM     35  C   UNL     1     -11.566  -0.354   5.680  1.00  0.00     0.031 A 
ATOM     36  C   UNL     1     -12.040   0.676   6.669  1.00  0.00     0.074 A 
ATOM     37  C   UNL     1     -11.686  -1.666   5.959  1.00  0.00     0.049 A 
ATOM     38  N   UNL     1     -12.605   0.506   7.838  1.00  0.00    -0.248 NA
ATOM     39  C   UNL     1     -11.822   2.087   6.311  1.00  0.00     0.031 C 
ATOM     40  C   UNL     1     -11.220  -2.759   5.104  1.00  0.00     0.029 A 
ATOM     41  N   UNL     1     -12.237  -2.303   7.043  1.00  0.00    -0.354 N 
ATOM     42  C   UNL     1     -12.793   1.781   8.355  1.00  0.00     0.074 A 
ATOM     43  C   UNL     1     -12.223   2.711   7.407  1.00  0.00     0.031 C 
ATOM     44  C   UNL     1     -11.540  -3.930   5.676  1.00  0.00     0.029 A 
ATOM     45  C   UNL     1     -12.196  -3.673   6.955  1.00  0.00     0.049 A 
ATOM     46  H   UNL     1     -12.624  -1.824   7.810  1.00  0.00     0.167 HD
ATOM     47  C   UNL     1     -13.410   2.145   9.505  1.00  0.00     0.037 A 
ATOM     48  C   UNL     1     -12.641  -4.613   7.809  1.00  0.00     0.037 A 
ATOM     49  C   UNL     1     -13.997   1.214  10.433  1.00  0.00     0.049 A 
ATOM     50  C   UNL     1     -13.313  -4.182   9.086  1.00  0.00     0.074 A 
ATOM     51  C   UNL     1     -14.703   1.481  11.593  1.00  0.00     0.029 A 
ATOM     52  N   UNL     1     -13.939  -0.167  10.309  1.00  0.00    -0.354 N 
ATOM     53  N   UNL     1     -13.561  -2.973   9.526  1.00  0.00    -0.248 NA
ATOM     54  C   UNL     1     -13.777  -5.252   9.980  1.00  0.00     0.031 C 
ATOM     55  C   UNL     1     -15.021   0.262  12.201  1.00  0.00     0.029 A 
ATOM     56  C   UNL     1     -14.572  -0.766  11.387  1.00  0.00     0.049 A 
ATOM     57  H   UNL     1     -13.512  -0.649   9.565  1.00  0.00     0.167 HD
ATOM     58  C   UNL     1     -14.240  -3.134  10.726  1.00  0.00     0.074 A 
ATOM     59  C   UNL     1     -14.377  -4.561  10.937  1.00  0.00     0.031 C 
ATOM     60  C   UNL     1     -14.709  -2.188  11.577  1.00  0.00     0.037 A 
BRANCH  47  61
ATOM     61  C   UNL     1     -13.476   3.612   9.822  1.00  0.00     0.064 A 
ATOM     62  C   UNL     1     -14.244   4.503   9.055  1.00  0.00     0.173 A 
ATOM     63  C   UNL     1     -12.774   4.135  10.919  1.00  0.00     0.173 A 
ATOM     64  F   UNL     1     -14.926   4.060   7.987  1.00  0.00    -0.203 F 
ATOM     65  C   UNL     1     -14.275   5.864   9.350  1.00  0.00     0.198 A 
ATOM     66  C   UNL     1     -12.837   5.490  11.234  1.00  0.00     0.198 A 
ATOM     67  F   UNL     1     -12.028   3.330  11.691  1.00  0.00    -0.203 F 
ATOM     68  F   UNL     1     -14.964   6.702   8.564  1.00  0.00    -0.200 F 
ATOM     69  C   UNL     1     -13.577   6.355  10.443  1.00  0.00     0.200 A 
ATOM     70  F   UNL     1     -12.174   5.960  12.299  1.00  0.00    -0.200 F 
ATOM     71  F   UNL     1     -13.611   7.664  10.728  1.00  0.00    -0.200 F 
ENDBRANCH  47  61
BRANCH  48  72
ATOM     72  C   UNL     1     -12.505  -6.055   7.470  1.00  0.00     0.064 A 
ATOM     73  C   UNL     1     -13.636  -6.836   7.192  1.00  0.00     0.173 A 
ATOM     74  C   UNL     1     -11.253  -6.685   7.429  1.00  0.00     0.173 A 
ATOM     75  F   UNL     1     -14.858  -6.284   7.237  1.00  0.00    -0.203 F 
ATOM     76  C   UNL     1     -13.523  -8.195   6.910  1.00  0.00     0.198 A 
ATOM     77  C   UNL     1     -11.138  -8.038   7.116  1.00  0.00     0.198 A 
ATOM     78  F   UNL     1     -10.139  -5.983   7.681  1.00  0.00    -0.203 F 
ATOM     79  F   UNL     1     -14.624  -8.928   6.698  1.00  0.00    -0.200 F 
ATOM     80  C   UNL     1     -12.273  -8.794   6.867  1.00  0.00     0.200 A 
ATOM     81  F   UNL     1      -9.927  -8.609   7.060  1.00  0.00    -0.200 F 
ATOM     82  F   UNL     1     -12.163 -10.101   6.593  1.00  0.00    -0.200 F 
ENDBRANCH  48  72
BRANCH  60  83
ATOM     83  C   UNL     1     -15.460  -2.663  12.789  1.00  0.00     0.064 A 
ATOM     84  C   UNL     1     -14.819  -3.328  13.845  1.00  0.00     0.173 A 
ATOM     85  C   UNL     1     -16.839  -2.425  12.904  1.00  0.00     0.173 A 
ATOM     86  F   UNL     1     -13.506  -3.593  13.778  1.00  0.00    -0.203 F 
ATOM     87  C   UNL     1     -15.537  -3.767  14.955  1.00  0.00     0.198 A 
ATOM     88  C   UNL     1     -17.546  -2.833  14.032  1.00  0.00     0.198 A 
ATOM     89  F   UNL     1     -17.500  -1.786  11.927  1.00  0.00    -0.203 F 
ATOM     90  F   UNL     1     -14.915  -4.453  15.923  1.00  0.00    -0.200 F 
ATOM     91  C   UNL     1     -16.897  -3.513  15.051  1.00  0.00     0.200 A 
ATOM     92  F   UNL     1     -18.856  -2.570  14.130  1.00  0.00    -0.200 F 
ATOM     93  F   UNL     1     -17.584  -3.932  16.122  1.00  0.00    -0.200 F 
ENDBRANCH  60  83
ENDBRANCH  34  35
ENDBRANCH  26  29
ENDBRANCH  24  25
ENDBRANCH   1  24
TORSDOF 13
