REMARK SMILES O=C1CC[C@@H](CC(=O)N2CCC(Oc3ccccc3)(C(=O)NCCCCNC(=O)c3ccc(-c4c5nc(c(-c6c(F)c(F)c(F)c(F)c6F)c6ccc([nH]6)c(-c6c(F)c(F)c(F)c(F)c6F)c6nc(c(-c7c(F)c(F)c(F)c(F)c7F)c7ccc4[nH]7)C=C6)C=C5)cc3)CC2)N1
REMARK SMILES IDX 24 1 23 2 22 3 20 4 21 5 12 7 7 8 8 9 9 10 10 11 94 12 11 13
REMARK SMILES IDX 93 14 6 15 5 16 1 17 2 18 3 19 95 20 4 21 13 23 14 24 15 25
REMARK SMILES IDX 19 26 16 27 18 28 17 29 25 30 26 31 27 32 28 33 29 35 30 36
REMARK SMILES IDX 31 37 92 38 32 39 91 40 33 41 34 42 35 43 85 44 36 45 90 46
REMARK SMILES IDX 84 47 86 48 37 49 89 50 83 51 82 52 38 54 70 55 50 56 69 57
REMARK SMILES IDX 51 58 54 59 68 60 87 61 52 62 53 63 67 65 88 66 55 67 39 68
REMARK SMILES IDX 40 69 48 70 41 71 42 72 46 73 49 74 43 75 44 76 47 77 45 78
REMARK SMILES IDX 71 79 72 80 80 81 73 82 74 83 78 84 81 85 75 86 76 87 79 88
REMARK SMILES IDX 77 89 56 90 57 91 65 92 58 93 59 94 63 95 66 96 60 97 61 98
REMARK SMILES IDX 64 99 62 100
REMARK H PARENT 22 6 95 22 27 34 86 53 54 64
REMARK Flexibility Score: inf
ROOT
ATOM      1  C   UNL     1       0.527   1.433  -7.926  1.00  0.00     0.023 C 
ENDROOT
BRANCH   1   2
ATOM      2  C   UNL     1       1.734   1.595  -7.009  1.00  0.00     0.116 C 
BRANCH   2   3
ATOM      3  N   UNL     1       1.352   2.279  -5.797  1.00  0.00    -0.353 N 
ATOM      4  C   UNL     1       1.254   1.810  -4.526  1.00  0.00     0.264 C 
ATOM      5  O   UNL     1       0.931   2.651  -3.680  1.00  0.00    -0.270 OA
ATOM      6  H   UNL     1       1.128   3.231  -5.908  1.00  0.00     0.163 HD
BRANCH   4   7
ATOM      7  C   UNL     1       1.555   0.323  -4.172  1.00  0.00     0.190 C 
ATOM      8  C   UNL     1      -1.572  -1.644  -2.248  1.00  0.00     0.224 C 
ATOM      9  O   UNL     1      -1.837  -2.680  -2.875  1.00  0.00    -0.275 OA
ATOM     10  N   UNL     1      -0.898  -0.618  -2.882  1.00  0.00    -0.342 N 
ATOM     11  C   UNL     1      -0.841  -0.566  -4.341  1.00  0.00     0.124 C 
ATOM     12  C   UNL     1      -0.038   0.338  -2.228  1.00  0.00     0.124 C 
ATOM     13  C   UNL     1       0.593  -0.682  -4.847  1.00  0.00     0.080 C 
ATOM     14  C   UNL     1       1.419   0.177  -2.651  1.00  0.00     0.080 C 
BRANCH   8  15
ATOM     15  C   UNL     1      -2.234  -1.476  -0.867  1.00  0.00     0.125 C 
BRANCH  15  16
ATOM     16  C   UNL     1      -1.643  -0.864   0.405  1.00  0.00     0.091 C 
ATOM     17  O   UNL     1       1.617  -0.155   1.508  1.00  0.00    -0.275 OA
ATOM     18  C   UNL     1       0.445  -0.110   1.165  1.00  0.00     0.220 C 
ATOM     19  C   UNL     1      -0.420   1.125   1.124  1.00  0.00     0.102 C 
ATOM     20  N   UNL     1      -0.279  -1.184   0.700  1.00  0.00    -0.353 N 
ATOM     21  C   UNL     1      -1.750   0.658   0.526  1.00  0.00     0.035 C 
ATOM     22  H   UNL     1       0.103  -2.083   0.583  1.00  0.00     0.163 HD
ENDBRANCH  15  16
ENDBRANCH   8  15
BRANCH   7  23
ATOM     23  O   UNL     1       2.938   0.226  -4.600  1.00  0.00    -0.477 OA
BRANCH  23  24
ATOM     24  C   UNL     1       3.598  -0.947  -4.396  1.00  0.00     0.120 A 
ATOM     25  C   UNL     1       4.576  -0.989  -3.406  1.00  0.00     0.046 A 
ATOM     26  C   UNL     1       3.426  -2.030  -5.255  1.00  0.00     0.046 A 
ATOM     27  C   UNL     1       5.329  -2.149  -3.224  1.00  0.00     0.004 A 
ATOM     28  C   UNL     1       4.162  -3.197  -5.061  1.00  0.00     0.004 A 
ATOM     29  C   UNL     1       5.111  -3.258  -4.041  1.00  0.00     0.000 A 
ENDBRANCH  23  24
ENDBRANCH   7  23
ENDBRANCH   4   7
ENDBRANCH   2   3
ENDBRANCH   1   2
BRANCH   1  30
ATOM     30  C   UNL     1      -0.070   2.755  -8.407  1.00  0.00     0.023 C 
BRANCH  30  31
ATOM     31  C   UNL     1       0.939   3.719  -9.017  1.00  0.00     0.116 C 
BRANCH  31  32
ATOM     32  N   UNL     1       1.704   3.115 -10.097  1.00  0.00    -0.352 N 
ATOM     33  C   UNL     1       1.995   3.630 -11.334  1.00  0.00     0.251 C 
ATOM     34  H   UNL     1       2.060   2.215  -9.915  1.00  0.00     0.163 HD
ATOM     35  O   UNL     1       2.519   2.931 -12.194  1.00  0.00    -0.269 OA
BRANCH  33  36
ATOM     36  C   UNL     1       1.638   5.030 -11.626  1.00  0.00     0.039 A 
ATOM     37  C   UNL     1       0.959   5.320 -12.809  1.00  0.00     0.014 A 
ATOM     38  C   UNL     1       1.942   6.043 -10.711  1.00  0.00     0.014 A 
ATOM     39  C   UNL     1       0.533   6.626 -13.051  1.00  0.00     0.010 A 
ATOM     40  C   UNL     1       1.442   7.323 -10.914  1.00  0.00     0.010 A 
ATOM     41  C   UNL     1       0.742   7.630 -12.090  1.00  0.00    -0.014 A 
BRANCH  41  42
ATOM     42  C   UNL     1       0.257   9.015 -12.309  1.00  0.00     0.031 A 
ATOM     43  C   UNL     1       1.246  10.144 -12.402  1.00  0.00     0.074 A 
ATOM     44  C   UNL     1      -1.066   9.261 -12.374  1.00  0.00     0.049 A 
ATOM     45  N   UNL     1       1.027  11.430 -12.511  1.00  0.00    -0.248 NA
ATOM     46  C   UNL     1       2.673   9.784 -12.336  1.00  0.00     0.031 C 
ATOM     47  C   UNL     1      -2.122   8.254 -12.258  1.00  0.00     0.029 A 
ATOM     48  N   UNL     1      -1.749  10.439 -12.545  1.00  0.00    -0.354 N 
ATOM     49  C   UNL     1       2.281  12.026 -12.523  1.00  0.00     0.074 A 
ATOM     50  C   UNL     1       3.256  10.973 -12.341  1.00  0.00     0.031 C 
ATOM     51  C   UNL     1      -3.318   8.853 -12.384  1.00  0.00     0.029 A 
ATOM     52  C   UNL     1      -3.115  10.289 -12.544  1.00  0.00     0.049 A 
ATOM     53  H   UNL     1      -1.303  11.309 -12.657  1.00  0.00     0.167 HD
ATOM     54  C   UNL     1       2.594  13.330 -12.704  1.00  0.00     0.037 A 
ATOM     55  C   UNL     1      -4.091  11.211 -12.649  1.00  0.00     0.037 A 
ATOM     56  C   UNL     1       1.623  14.373 -12.905  1.00  0.00     0.049 A 
ATOM     57  C   UNL     1      -3.711  12.661 -12.816  1.00  0.00     0.074 A 
ATOM     58  C   UNL     1       1.840  15.722 -13.124  1.00  0.00     0.029 A 
ATOM     59  N   UNL     1       0.250  14.179 -12.916  1.00  0.00    -0.354 N 
ATOM     60  N   UNL     1      -2.519  13.204 -12.884  1.00  0.00    -0.248 NA
ATOM     61  C   UNL     1      -4.814  13.625 -12.931  1.00  0.00     0.031 C 
ATOM     62  C   UNL     1       0.596  16.352 -13.223  1.00  0.00     0.029 A 
ATOM     63  C   UNL     1      -0.393  15.388 -13.125  1.00  0.00     0.049 A 
ATOM     64  H   UNL     1      -0.200  13.313 -12.793  1.00  0.00     0.167 HD
ATOM     65  C   UNL     1      -2.730  14.561 -13.091  1.00  0.00     0.074 A 
ATOM     66  C   UNL     1      -4.162  14.756 -13.154  1.00  0.00     0.031 C 
ATOM     67  C   UNL     1      -1.820  15.558 -13.216  1.00  0.00     0.037 A 
BRANCH  54  68
ATOM     68  C   UNL     1       4.047  13.705 -12.713  1.00  0.00     0.064 A 
ATOM     69  C   UNL     1       4.891  13.334 -13.772  1.00  0.00     0.173 A 
ATOM     70  C   UNL     1       4.589  14.497 -11.690  1.00  0.00     0.173 A 
ATOM     71  F   UNL     1       4.426  12.565 -14.768  1.00  0.00    -0.203 F 
ATOM     72  C   UNL     1       6.226  13.727 -13.796  1.00  0.00     0.198 A 
ATOM     73  C   UNL     1       5.917  14.915 -11.734  1.00  0.00     0.198 A 
ATOM     74  F   UNL     1       3.825  14.883 -10.657  1.00  0.00    -0.203 F 
ATOM     75  F   UNL     1       7.022  13.327 -14.798  1.00  0.00    -0.200 F 
ATOM     76  C   UNL     1       6.735  14.526 -12.784  1.00  0.00     0.200 A 
ATOM     77  F   UNL     1       6.403  15.700 -10.762  1.00  0.00    -0.200 F 
ATOM     78  F   UNL     1       8.015  14.919 -12.818  1.00  0.00    -0.200 F 
ENDBRANCH  54  68
BRANCH  55  79
ATOM     79  C   UNL     1      -5.523  10.808 -12.607  1.00  0.00     0.064 A 
ATOM     80  C   UNL     1      -6.354  10.976 -13.725  1.00  0.00     0.173 A 
ATOM     81  C   UNL     1      -6.105  10.300 -11.436  1.00  0.00     0.173 A 
ATOM     82  F   UNL     1      -5.851  11.475 -14.864  1.00  0.00    -0.203 F 
ATOM     83  C   UNL     1      -7.717  10.696 -13.659  1.00  0.00     0.198 A 
ATOM     84  C   UNL     1      -7.461   9.985 -11.383  1.00  0.00     0.198 A 
ATOM     85  F   UNL     1      -5.356  10.111 -10.340  1.00  0.00    -0.203 F 
ATOM     86  F   UNL     1      -8.500  10.938 -14.719  1.00  0.00    -0.200 F 
ATOM     87  C   UNL     1      -8.270  10.198 -12.489  1.00  0.00     0.200 A 
ATOM     88  F   UNL     1      -7.987   9.489 -10.255  1.00  0.00    -0.200 F 
ATOM     89  F   UNL     1      -9.582   9.939 -12.422  1.00  0.00    -0.200 F 
ENDBRANCH  55  79
BRANCH  67  90
ATOM     90  C   UNL     1      -2.341  16.938 -13.498  1.00  0.00     0.064 A 
ATOM     91  C   UNL     1      -3.035  17.681 -12.533  1.00  0.00     0.173 A 
ATOM     92  C   UNL     1      -2.104  17.539 -14.745  1.00  0.00     0.173 A 
ATOM     93  F   UNL     1      -3.298  17.147 -11.330  1.00  0.00    -0.203 F 
ATOM     94  C   UNL     1      -3.500  18.962 -12.815  1.00  0.00     0.198 A 
ATOM     95  C   UNL     1      -2.539  18.833 -15.011  1.00  0.00     0.198 A 
ATOM     96  F   UNL     1      -1.436  16.875 -15.700  1.00  0.00    -0.203 F 
ATOM     97  F   UNL     1      -4.210  19.632 -11.896  1.00  0.00    -0.200 F 
ATOM     98  C   UNL     1      -3.245  19.540 -14.050  1.00  0.00     0.200 A 
ATOM     99  F   UNL     1      -2.276  19.396 -16.198  1.00  0.00    -0.200 F 
ATOM    100  F   UNL     1      -3.687  20.777 -14.316  1.00  0.00    -0.200 F 
ENDBRANCH  67  90
ENDBRANCH  41  42
ENDBRANCH  33  36
ENDBRANCH  31  32
ENDBRANCH  30  31
ENDBRANCH   1  30
TORSDOF 15
