REMARK SMILES Cc1cc(N2CCOC[C@H]2C(=O)NCCCCNC(=O)c2ccc(-c3c4nc(c(-c5c(F)c(F)c(F)c(F)c5F)c5ccc([nH]5)c(-c5c(F)c(F)c(F)c(F)c5F)c5nc(c(-c6c(F)c(F)c(F)c(F)c6F)c6ccc3[nH]6)C=C5)C=C4)cc2)ncc1[N+](=O)[O-]
REMARK SMILES IDX 15 1 14 2 13 3 11 4 12 5 10 7 5 8 6 9 7 10 9 11 8 12 4 13
REMARK SMILES IDX 1 14 2 15 3 16 86 17 85 18 84 19 87 20 88 21 89 22 16 23
REMARK SMILES IDX 17 24 18 25 19 26 20 28 21 29 22 30 83 31 23 32 82 33 24 34
REMARK SMILES IDX 25 35 26 36 76 37 27 38 81 39 75 40 77 41 28 42 80 43 74 44
REMARK SMILES IDX 73 45 29 47 61 48 41 49 60 50 42 51 45 52 59 53 78 54 43 55
REMARK SMILES IDX 44 56 58 58 79 59 46 60 30 61 31 62 39 63 32 64 33 65 37 66
REMARK SMILES IDX 40 67 34 68 35 69 38 70 36 71 62 72 63 73 71 74 64 75 65 76
REMARK SMILES IDX 69 77 72 78 66 79 67 80 70 81 68 82 47 83 48 84 56 85 49 86
REMARK SMILES IDX 50 87 54 88 57 89 51 90 52 91 55 92 53 93
REMARK H PARENT 13 6 18 27 77 46 45 57
REMARK Flexibility Score: inf
ROOT
ATOM      1  C   UNL     1       2.494   5.008  -2.473  1.00  0.00     0.023 C 
ENDROOT
BRANCH   1   2
ATOM      2  C   UNL     1       2.412   5.491  -1.027  1.00  0.00     0.116 C 
BRANCH   2   3
ATOM      3  N   UNL     1       1.091   5.316  -0.472  1.00  0.00    -0.354 N 
ATOM      4  C   UNL     1       0.613   4.389   0.400  1.00  0.00     0.245 C 
ATOM      5  O   UNL     1      -0.590   4.484   0.681  1.00  0.00    -0.273 OA
ATOM      6  H   UNL     1       0.426   5.975  -0.776  1.00  0.00     0.163 HD
BRANCH   4   7
ATOM      7  C   UNL     1       1.460   3.263   1.037  1.00  0.00     0.199 C 
ATOM      8  N   UNL     1       1.836   2.187   0.086  1.00  0.00    -0.340 N 
ATOM      9  C   UNL     1       3.227   2.111  -0.371  1.00  0.00     0.147 C 
ATOM     10  C   UNL     1       4.209   2.455   0.747  1.00  0.00     0.181 C 
ATOM     11  C   UNL     1       2.626   3.756   1.919  1.00  0.00     0.195 C 
ATOM     12  O   UNL     1       3.920   3.744   1.301  1.00  0.00    -0.377 OA
BRANCH   8  13
ATOM     13  C   UNL     1       1.075   1.030   0.048  1.00  0.00     0.130 A 
ATOM     14  C   UNL     1      -2.592   0.037  -0.025  1.00  0.00     0.052 C 
ATOM     15  C   UNL     1      -1.097  -0.101   0.005  1.00  0.00     0.032 A 
ATOM     16  C   UNL     1      -0.323   1.074   0.035  1.00  0.00     0.057 A 
ATOM     17  C   UNL     1      -0.406  -1.314   0.033  1.00  0.00     0.290 A 
ATOM     18  C   UNL     1       0.978  -1.297   0.023  1.00  0.00     0.199 A 
ATOM     19  N   UNL     1       1.715  -0.159   0.022  1.00  0.00    -0.232 NA
BRANCH  17  20
ATOM     20  N   UNL     1      -1.060  -2.608   0.089  1.00  0.00     0.064 N 
ATOM     21  O   UNL     1      -0.541  -3.533  -0.552  1.00  0.00    -0.258 OA
ATOM     22  O   UNL     1      -2.070  -2.717   0.797  1.00  0.00    -0.258 OA
ENDBRANCH  17  20
ENDBRANCH   8  13
ENDBRANCH   4   7
ENDBRANCH   2   3
ENDBRANCH   1   2
BRANCH   1  23
ATOM     23  C   UNL     1       2.045   6.030  -3.514  1.00  0.00     0.023 C 
BRANCH  23  24
ATOM     24  C   UNL     1       2.803   7.353  -3.501  1.00  0.00     0.116 C 
BRANCH  24  25
ATOM     25  N   UNL     1       4.252   7.213  -3.587  1.00  0.00    -0.352 N 
ATOM     26  C   UNL     1       5.157   8.023  -4.240  1.00  0.00     0.251 C 
ATOM     27  H   UNL     1       4.634   6.437  -3.118  1.00  0.00     0.163 HD
ATOM     28  O   UNL     1       6.338   7.746  -4.280  1.00  0.00    -0.269 OA
BRANCH  26  29
ATOM     29  C   UNL     1       4.642   9.219  -4.944  1.00  0.00     0.039 A 
ATOM     30  C   UNL     1       4.918   9.364  -6.305  1.00  0.00     0.014 A 
ATOM     31  C   UNL     1       3.809  10.122  -4.282  1.00  0.00     0.014 A 
ATOM     32  C   UNL     1       4.263  10.359  -7.032  1.00  0.00     0.010 A 
ATOM     33  C   UNL     1       3.105  11.066  -5.020  1.00  0.00     0.010 A 
ATOM     34  C   UNL     1       3.307  11.175  -6.405  1.00  0.00    -0.014 A 
BRANCH  34  35
ATOM     35  C   UNL     1       2.453  12.102  -7.187  1.00  0.00     0.031 A 
ATOM     36  C   UNL     1       2.523  13.581  -6.945  1.00  0.00     0.074 A 
ATOM     37  C   UNL     1       1.528  11.596  -8.025  1.00  0.00     0.049 A 
ATOM     38  N   UNL     1       1.781  14.536  -7.444  1.00  0.00    -0.248 NA
ATOM     39  C   UNL     1       3.538  14.043  -5.986  1.00  0.00     0.031 C 
ATOM     40  C   UNL     1       1.308  10.171  -8.281  1.00  0.00     0.029 A 
ATOM     41  N   UNL     1       0.581  12.221  -8.797  1.00  0.00    -0.354 N 
ATOM     42  C   UNL     1       2.219  15.706  -6.841  1.00  0.00     0.074 A 
ATOM     43  C   UNL     1       3.263  15.337  -5.909  1.00  0.00     0.031 C 
ATOM     44  C   UNL     1       0.297  10.031  -9.152  1.00  0.00     0.029 A 
ATOM     45  C   UNL     1      -0.223  11.352  -9.492  1.00  0.00     0.049 A 
ATOM     46  H   UNL     1       0.487  13.200  -8.847  1.00  0.00     0.167 HD
ATOM     47  C   UNL     1       1.799  16.974  -7.060  1.00  0.00     0.037 A 
ATOM     48  C   UNL     1      -1.271  11.591 -10.303  1.00  0.00     0.037 A 
ATOM     49  C   UNL     1       0.791  17.338  -8.020  1.00  0.00     0.049 A 
ATOM     50  C   UNL     1      -1.693  13.010 -10.560  1.00  0.00     0.074 A 
ATOM     51  C   UNL     1       0.386  18.603  -8.408  1.00  0.00     0.029 A 
ATOM     52  N   UNL     1       0.024  16.433  -8.739  1.00  0.00    -0.354 N 
ATOM     53  N   UNL     1      -1.202  14.118 -10.063  1.00  0.00    -0.248 NA
ATOM     54  C   UNL     1      -2.810  13.211 -11.493  1.00  0.00     0.031 C 
ATOM     55  C   UNL     1      -0.656  18.463  -9.332  1.00  0.00     0.029 A 
ATOM     56  C   UNL     1      -0.876  17.112  -9.546  1.00  0.00     0.049 A 
ATOM     57  H   UNL     1       0.107  15.454  -8.685  1.00  0.00     0.167 HD
ATOM     58  C   UNL     1      -1.943  15.148 -10.624  1.00  0.00     0.074 A 
ATOM     59  C   UNL     1      -2.904  14.534 -11.517  1.00  0.00     0.031 C 
ATOM     60  C   UNL     1      -1.837  16.483 -10.415  1.00  0.00     0.037 A 
BRANCH  47  61
ATOM     61  C   UNL     1       2.435  18.061  -6.247  1.00  0.00     0.064 A 
ATOM     62  C   UNL     1       3.765  18.455  -6.456  1.00  0.00     0.173 A 
ATOM     63  C   UNL     1       1.700  18.729  -5.257  1.00  0.00     0.173 A 
ATOM     64  F   UNL     1       4.514  17.838  -7.383  1.00  0.00    -0.203 F 
ATOM     65  C   UNL     1       4.346  19.455  -5.681  1.00  0.00     0.198 A 
ATOM     66  C   UNL     1       2.276  19.748  -4.503  1.00  0.00     0.198 A 
ATOM     67  F   UNL     1       0.423  18.393  -5.020  1.00  0.00    -0.203 F 
ATOM     68  F   UNL     1       5.634  19.778  -5.864  1.00  0.00    -0.200 F 
ATOM     69  C   UNL     1       3.600  20.104  -4.709  1.00  0.00     0.200 A 
ATOM     70  F   UNL     1       1.551  20.380  -3.569  1.00  0.00    -0.200 F 
ATOM     71  F   UNL     1       4.161  21.066  -3.964  1.00  0.00    -0.200 F 
ENDBRANCH  47  61
BRANCH  48  72
ATOM     72  C   UNL     1      -1.981  10.452 -10.937  1.00  0.00     0.064 A 
ATOM     73  C   UNL     1      -1.818  10.173 -12.300  1.00  0.00     0.173 A 
ATOM     74  C   UNL     1      -2.809   9.603 -10.188  1.00  0.00     0.173 A 
ATOM     75  F   UNL     1      -1.050  10.969 -13.058  1.00  0.00    -0.203 F 
ATOM     76  C   UNL     1      -2.464   9.091 -12.894  1.00  0.00     0.198 A 
ATOM     77  C   UNL     1      -3.437   8.509 -10.779  1.00  0.00     0.198 A 
ATOM     78  F   UNL     1      -2.991   9.826  -8.878  1.00  0.00    -0.203 F 
ATOM     79  F   UNL     1      -2.313   8.861 -14.205  1.00  0.00    -0.200 F 
ATOM     80  C   UNL     1      -3.267   8.256 -12.132  1.00  0.00     0.200 A 
ATOM     81  F   UNL     1      -4.202   7.697 -10.036  1.00  0.00    -0.200 F 
ATOM     82  F   UNL     1      -3.879   7.209 -12.701  1.00  0.00    -0.200 F 
ENDBRANCH  48  72
BRANCH  60  83
ATOM     83  C   UNL     1      -2.791  17.369 -11.158  1.00  0.00     0.064 A 
ATOM     84  C   UNL     1      -4.138  17.467 -10.780  1.00  0.00     0.173 A 
ATOM     85  C   UNL     1      -2.346  18.161 -12.227  1.00  0.00     0.173 A 
ATOM     86  F   UNL     1      -4.613  16.716  -9.775  1.00  0.00    -0.203 F 
ATOM     87  C   UNL     1      -5.010  18.315 -11.457  1.00  0.00     0.198 A 
ATOM     88  C   UNL     1      -3.215  19.026 -12.886  1.00  0.00     0.198 A 
ATOM     89  F   UNL     1      -1.066  18.104 -12.623  1.00  0.00    -0.203 F 
ATOM     90  F   UNL     1      -6.301  18.367 -11.103  1.00  0.00    -0.200 F 
ATOM     91  C   UNL     1      -4.546  19.099 -12.503  1.00  0.00     0.200 A 
ATOM     92  F   UNL     1      -2.764  19.789 -13.891  1.00  0.00    -0.200 F 
ATOM     93  F   UNL     1      -5.385  19.921 -13.148  1.00  0.00    -0.200 F 
ENDBRANCH  60  83
ENDBRANCH  34  35
ENDBRANCH  26  29
ENDBRANCH  24  25
ENDBRANCH  23  24
ENDBRANCH   1  23
TORSDOF 13
