REMARK SMILES C[N@H+]1CCO[C@H](c2noc(-c3ccccc3C(=O)NCCCCNC(=O)c3ccc(-c4c5nc(c(-c6c(F)c(F)c(F)c(F)c6F)c6ccc([nH]6)c(-c6c(F)c(F)c(F)c(F)c6F)c6nc(c(-c7c(F)c(F)c(F)c(F)c7F)c7ccc4[nH]7)C=C6)C=C5)cc3)n2)C1
REMARK SMILES IDX 21 1 20 2 19 3 17 4 18 5 16 7 11 8 12 9 13 10 15 11 14 12
REMARK SMILES IDX 10 13 7 14 8 15 90 16 9 17 6 18 1 19 2 20 3 21 91 22 4 24
REMARK SMILES IDX 5 25 22 26 23 27 24 28 25 29 26 31 27 32 28 33 89 34 29 35
REMARK SMILES IDX 88 36 30 37 31 38 32 39 82 40 33 41 87 42 81 43 83 44 34 45
REMARK SMILES IDX 86 46 80 47 79 48 35 50 67 51 47 52 66 53 48 54 51 55 65 56
REMARK SMILES IDX 84 57 49 58 50 59 64 61 85 62 52 63 36 64 37 65 45 66 38 67
REMARK SMILES IDX 39 68 43 69 46 70 40 71 41 72 44 73 42 74 68 75 69 76 77 77
REMARK SMILES IDX 70 78 71 79 75 80 78 81 72 82 73 83 76 84 74 85 53 86 54 87
REMARK SMILES IDX 62 88 55 89 56 90 60 91 63 92 57 93 58 94 61 95 59 96
REMARK H PARENT 19 6 2 23 24 30 83 49 51 60
REMARK Flexibility Score: inf
ROOT
ATOM      1  C   UNL     1      -2.911   4.043  -3.035  1.00  0.00     0.023 C 
ENDROOT
BRANCH   1   2
ATOM      2  C   UNL     1      -3.345   2.880  -2.150  1.00  0.00     0.116 C 
BRANCH   2   3
ATOM      3  N   UNL     1      -4.336   3.166  -1.133  1.00  0.00    -0.352 N 
ATOM      4  C   UNL     1      -5.480   2.500  -0.743  1.00  0.00     0.252 C 
ATOM      5  O   UNL     1      -5.996   2.869   0.317  1.00  0.00    -0.269 OA
ATOM      6  H   UNL     1      -4.161   3.991  -0.624  1.00  0.00     0.163 HD
BRANCH   4   7
ATOM      7  C   UNL     1      -6.226   1.480  -1.556  1.00  0.00     0.052 A 
ATOM      8  C   UNL     1      -5.720   0.371  -2.257  1.00  0.00     0.053 A 
ATOM      9  C   UNL     1      -6.605  -0.439  -3.008  1.00  0.00     0.015 A 
ATOM     10  C   UNL     1      -7.979  -0.218  -3.003  1.00  0.00     0.001 A 
ATOM     11  C   UNL     1      -7.630   1.660  -1.538  1.00  0.00     0.014 A 
ATOM     12  C   UNL     1      -8.496   0.819  -2.243  1.00  0.00     0.001 A 
BRANCH   8  13
ATOM     13  C   UNL     1      -4.341  -0.062  -2.195  1.00  0.00     0.258 A 
ATOM     14  C   UNL     1      -2.325  -0.453  -1.806  1.00  0.00     0.206 A 
ATOM     15  N   UNL     1      -2.430  -0.698  -3.121  1.00  0.00    -0.059 NA
ATOM     16  N   UNL     1      -3.497  -0.074  -1.195  1.00  0.00    -0.189 NA
ATOM     17  O   UNL     1      -3.777  -0.446  -3.382  1.00  0.00    -0.334 OA
BRANCH  14  18
ATOM     18  C   UNL     1      -1.007  -0.387  -1.108  1.00  0.00     0.245 C 
ATOM     19  C   UNL     1       1.051  -1.438   1.047  1.00  0.00     0.332 C 
ATOM     20  N   UNL     1       0.054  -0.387   1.238  1.00  0.00    -0.333 N 
ATOM     21  C   UNL     1       0.594   0.930   0.865  1.00  0.00     0.290 C 
ATOM     22  C   UNL     1      -1.166  -0.625   0.422  1.00  0.00     0.303 C 
ATOM     23  H   UNL     1      -0.189  -0.404   2.229  1.00  0.00     0.348 HD
ATOM     24  C   UNL     1       0.810   1.045  -0.644  1.00  0.00     0.222 C 
ATOM     25  O   UNL     1      -0.413   0.905  -1.355  1.00  0.00    -0.358 OA
ENDBRANCH  14  18
ENDBRANCH   8  13
ENDBRANCH   4   7
ENDBRANCH   2   3
ENDBRANCH   1   2
BRANCH   1  26
ATOM     26  C   UNL     1      -1.894   5.038  -2.475  1.00  0.00     0.023 C 
BRANCH  26  27
ATOM     27  C   UNL     1      -0.570   4.481  -1.950  1.00  0.00     0.116 C 
BRANCH  27  28
ATOM     28  N   UNL     1       0.230   3.748  -2.917  1.00  0.00    -0.352 N 
ATOM     29  C   UNL     1       1.587   3.496  -2.969  1.00  0.00     0.251 C 
ATOM     30  H   UNL     1      -0.284   3.364  -3.663  1.00  0.00     0.163 HD
ATOM     31  O   UNL     1       2.023   2.834  -3.907  1.00  0.00    -0.269 OA
BRANCH  29  32
ATOM     32  C   UNL     1       2.550   3.979  -1.930  1.00  0.00     0.039 A 
ATOM     33  C   UNL     1       3.902   4.111  -2.291  1.00  0.00     0.014 A 
ATOM     34  C   UNL     1       2.186   4.244  -0.605  1.00  0.00     0.014 A 
ATOM     35  C   UNL     1       4.835   4.624  -1.382  1.00  0.00     0.010 A 
ATOM     36  C   UNL     1       3.103   4.742   0.307  1.00  0.00     0.010 A 
ATOM     37  C   UNL     1       4.412   5.004  -0.102  1.00  0.00    -0.014 A 
BRANCH  37  38
ATOM     38  C   UNL     1       5.162   5.976   0.718  1.00  0.00     0.031 A 
ATOM     39  C   UNL     1       5.786   5.597   2.020  1.00  0.00     0.074 A 
ATOM     40  C   UNL     1       5.005   7.266   0.363  1.00  0.00     0.049 A 
ATOM     41  N   UNL     1       6.385   6.363   2.893  1.00  0.00    -0.248 NA
ATOM     42  C   UNL     1       5.686   4.186   2.418  1.00  0.00     0.031 C 
ATOM     43  C   UNL     1       4.244   7.725  -0.807  1.00  0.00     0.029 A 
ATOM     44  N   UNL     1       5.404   8.424   0.969  1.00  0.00    -0.354 N 
ATOM     45  C   UNL     1       6.753   5.528   3.938  1.00  0.00     0.074 A 
ATOM     46  C   UNL     1       6.250   4.208   3.620  1.00  0.00     0.031 C 
ATOM     47  C   UNL     1       4.221   9.063  -0.825  1.00  0.00     0.029 A 
ATOM     48  C   UNL     1       4.966   9.555   0.324  1.00  0.00     0.049 A 
ATOM     49  H   UNL     1       5.952   8.446   1.786  1.00  0.00     0.167 HD
ATOM     50  C   UNL     1       7.465   5.850   5.046  1.00  0.00     0.037 A 
ATOM     51  C   UNL     1       5.158  10.850   0.623  1.00  0.00     0.037 A 
ATOM     52  C   UNL     1       7.913   7.190   5.338  1.00  0.00     0.049 A 
ATOM     53  C   UNL     1       6.003  11.174   1.817  1.00  0.00     0.074 A 
ATOM     54  C   UNL     1       8.729   7.629   6.365  1.00  0.00     0.029 A 
ATOM     55  N   UNL     1       7.555   8.316   4.605  1.00  0.00    -0.354 N 
ATOM     56  N   UNL     1       6.517  10.360   2.707  1.00  0.00    -0.248 NA
ATOM     57  C   UNL     1       6.325  12.588   2.030  1.00  0.00     0.031 C 
ATOM     58  C   UNL     1       8.820   9.024   6.285  1.00  0.00     0.029 A 
ATOM     59  C   UNL     1       8.110   9.452   5.173  1.00  0.00     0.049 A 
ATOM     60  H   UNL     1       6.989   8.308   3.799  1.00  0.00     0.167 HD
ATOM     61  C   UNL     1       7.249  11.155   3.572  1.00  0.00     0.074 A 
ATOM     62  C   UNL     1       7.127  12.516   3.083  1.00  0.00     0.031 C 
ATOM     63  C   UNL     1       7.960  10.796   4.669  1.00  0.00     0.037 A 
BRANCH  50  64
ATOM     64  C   UNL     1       7.823   4.743   6.000  1.00  0.00     0.064 A 
ATOM     65  C   UNL     1       8.695   3.708   5.624  1.00  0.00     0.173 A 
ATOM     66  C   UNL     1       7.343   4.739   7.319  1.00  0.00     0.173 A 
ATOM     67  F   UNL     1       9.188   3.659   4.377  1.00  0.00    -0.203 F 
ATOM     68  C   UNL     1       9.045   2.698   6.517  1.00  0.00     0.198 A 
ATOM     69  C   UNL     1       7.720   3.744   8.220  1.00  0.00     0.198 A 
ATOM     70  F   UNL     1       6.515   5.706   7.742  1.00  0.00    -0.203 F 
ATOM     71  F   UNL     1       9.841   1.697   6.116  1.00  0.00    -0.200 F 
ATOM     72  C   UNL     1       8.564   2.721   7.816  1.00  0.00     0.200 A 
ATOM     73  F   UNL     1       7.268   3.777   9.481  1.00  0.00    -0.200 F 
ATOM     74  F   UNL     1       8.910   1.754   8.678  1.00  0.00    -0.200 F 
ENDBRANCH  50  64
BRANCH  51  75
ATOM     75  C   UNL     1       4.634  11.897  -0.287  1.00  0.00     0.064 A 
ATOM     76  C   UNL     1       5.506  12.607  -1.123  1.00  0.00     0.173 A 
ATOM     77  C   UNL     1       3.262  12.165  -0.394  1.00  0.00     0.173 A 
ATOM     78  F   UNL     1       6.826  12.379  -1.060  1.00  0.00    -0.203 F 
ATOM     79  C   UNL     1       5.030  13.567  -2.012  1.00  0.00     0.198 A 
ATOM     80  C   UNL     1       2.784  13.107  -1.304  1.00  0.00     0.198 A 
ATOM     81  F   UNL     1       2.383  11.489   0.360  1.00  0.00    -0.203 F 
ATOM     82  F   UNL     1       5.891  14.255  -2.774  1.00  0.00    -0.200 F 
ATOM     83  C   UNL     1       3.669  13.813  -2.106  1.00  0.00     0.200 A 
ATOM     84  F   UNL     1       1.466  13.323  -1.411  1.00  0.00    -0.200 F 
ATOM     85  F   UNL     1       3.210  14.729  -2.969  1.00  0.00    -0.200 F 
ENDBRANCH  51  75
BRANCH  63  86
ATOM     86  C   UNL     1       8.667  11.897   5.400  1.00  0.00     0.064 A 
ATOM     87  C   UNL     1       7.962  12.859   6.139  1.00  0.00     0.173 A 
ATOM     88  C   UNL     1      10.067  11.979   5.378  1.00  0.00     0.173 A 
ATOM     89  F   UNL     1       6.621  12.835   6.173  1.00  0.00    -0.203 F 
ATOM     90  C   UNL     1       8.633  13.880   6.805  1.00  0.00     0.198 A 
ATOM     91  C   UNL     1      10.736  12.980   6.074  1.00  0.00     0.198 A 
ATOM     92  F   UNL     1      10.786  11.081   4.687  1.00  0.00    -0.203 F 
ATOM     93  F   UNL     1       7.936  14.821   7.457  1.00  0.00    -0.200 F 
ATOM     94  C   UNL     1      10.018  13.935   6.779  1.00  0.00     0.200 A 
ATOM     95  F   UNL     1      12.075  13.024   6.059  1.00  0.00    -0.200 F 
ATOM     96  F   UNL     1      10.662  14.915   7.427  1.00  0.00    -0.200 F 
ENDBRANCH  63  86
ENDBRANCH  37  38
ENDBRANCH  29  32
ENDBRANCH  27  28
ENDBRANCH  26  27
ENDBRANCH   1  26
TORSDOF 13
