REMARK SMILES C[C@@H](O)[C@H](C)[N@@H+]1CCOC[C@@H]1C(=O)NCCCCNC(=O)c1ccc(-c2c3nc(c(-c4c(F)c(F)c(F)c(F)c4F)c4ccc([nH]4)c(-c4c(F)c(F)c(F)c(F)c4F)c4nc(c(-c5c(F)c(F)c(F)c(F)c5F)c5ccc2[nH]5)C=C4)C=C3)cc1
REMARK SMILES IDX 16 1 15 2 14 3 12 4 13 5 11 7 6 8 7 9 8 11 10 12 9 13 4 14
REMARK SMILES IDX 5 15 2 16 1 17 3 18 17 20 18 21 19 22 20 23 21 25 22 26
REMARK SMILES IDX 23 27 84 28 24 29 83 30 25 31 26 32 27 33 77 34 28 35 82 36
REMARK SMILES IDX 76 37 78 38 29 39 81 40 75 41 74 42 30 44 62 45 42 46 61 47
REMARK SMILES IDX 43 48 46 49 60 50 79 51 44 52 45 53 59 55 80 56 47 57 31 58
REMARK SMILES IDX 32 59 40 60 33 61 34 62 38 63 41 64 35 65 36 66 39 67 37 68
REMARK SMILES IDX 63 69 64 70 72 71 65 72 66 73 70 74 73 75 67 76 68 77 71 78
REMARK SMILES IDX 69 79 48 80 49 81 57 82 50 83 51 84 55 85 58 86 52 87 53 88
REMARK SMILES IDX 56 89 54 90
REMARK H PARENT 14 6 6 10 3 19 19 24 78 43 46 54
REMARK Flexibility Score: inf
ROOT
ATOM      1  C   UNL     1       0.509   7.608   1.195  1.00  0.00     0.023 C 
ENDROOT
BRANCH   1   2
ATOM      2  C   UNL     1       0.339   6.306   0.418  1.00  0.00     0.116 C 
BRANCH   2   3
ATOM      3  N   UNL     1       0.902   5.170   1.126  1.00  0.00    -0.351 N 
ATOM      4  C   UNL     1       0.346   3.948   1.401  1.00  0.00     0.280 C 
ATOM      5  O   UNL     1       0.944   3.264   2.233  1.00  0.00    -0.268 OA
ATOM      6  H   UNL     1       1.820   5.296   1.457  1.00  0.00     0.163 HD
BRANCH   4   7
ATOM      7  C   UNL     1      -0.992   3.560   0.741  1.00  0.00     0.300 C 
ATOM      8  N   UNL     1      -1.645   2.297   1.257  1.00  0.00    -0.317 N 
ATOM      9  C   UNL     1      -3.054   2.412   0.744  1.00  0.00     0.292 C 
ATOM     10  H   UNL     1      -1.530   2.256   2.269  1.00  0.00     0.349 HD
ATOM     11  C   UNL     1      -3.182   2.655  -0.780  1.00  0.00     0.221 C 
ATOM     12  C   UNL     1      -1.023   3.613  -0.797  1.00  0.00     0.235 C 
ATOM     13  O   UNL     1      -2.385   3.758  -1.235  1.00  0.00    -0.369 OA
BRANCH   8  14
ATOM     14  C   UNL     1      -1.052   0.989   0.824  1.00  0.00     0.210 C 
ATOM     15  C   UNL     1       0.489   0.932   0.675  1.00  0.00     0.078 C 
BRANCH  14  16
ATOM     16  C   UNL     1      -1.405  -0.247   1.740  1.00  0.00     0.169 C 
ATOM     17  C   UNL     1      -2.743  -0.263   2.466  1.00  0.00     0.045 C 
BRANCH  16  18
ATOM     18  O   UNL     1      -1.364  -1.421   0.906  1.00  0.00    -0.387 OA
ATOM     19  H   UNL     1      -2.058  -1.363   0.231  1.00  0.00     0.211 HD
ENDBRANCH  16  18
ENDBRANCH  14  16
ENDBRANCH   8  14
ENDBRANCH   4   7
ENDBRANCH   2   3
ENDBRANCH   1   2
BRANCH   1  20
ATOM     20  C   UNL     1       1.957   8.028   1.456  1.00  0.00     0.023 C 
BRANCH  20  21
ATOM     21  C   UNL     1       2.850   8.104   0.222  1.00  0.00     0.116 C 
BRANCH  21  22
ATOM     22  N   UNL     1       2.363   9.049  -0.770  1.00  0.00    -0.352 N 
ATOM     23  C   UNL     1       2.990  10.125  -1.346  1.00  0.00     0.251 C 
ATOM     24  H   UNL     1       1.441   8.892  -1.077  1.00  0.00     0.163 HD
ATOM     25  O   UNL     1       2.344  10.897  -2.054  1.00  0.00    -0.269 OA
BRANCH  23  26
ATOM     26  C   UNL     1       4.424  10.387  -1.100  1.00  0.00     0.039 A 
ATOM     27  C   UNL     1       4.832  11.704  -0.866  1.00  0.00     0.014 A 
ATOM     28  C   UNL     1       5.369   9.358  -1.107  1.00  0.00     0.014 A 
ATOM     29  C   UNL     1       6.168  11.975  -0.568  1.00  0.00     0.010 A 
ATOM     30  C   UNL     1       6.686   9.618  -0.728  1.00  0.00     0.010 A 
ATOM     31  C   UNL     1       7.100  10.929  -0.452  1.00  0.00    -0.014 A 
BRANCH  31  32
ATOM     32  C   UNL     1       8.493  11.201  -0.011  1.00  0.00     0.031 A 
ATOM     33  C   UNL     1       9.658  10.922  -0.920  1.00  0.00     0.074 A 
ATOM     34  C   UNL     1       8.710  11.665   1.235  1.00  0.00     0.049 A 
ATOM     35  N   UNL     1      10.938  11.100  -0.702  1.00  0.00    -0.248 NA
ATOM     36  C   UNL     1       9.350  10.347  -2.238  1.00  0.00     0.031 C 
ATOM     37  C   UNL     1       7.670  11.921   2.233  1.00  0.00     0.029 A 
ATOM     38  N   UNL     1       9.875  12.007   1.877  1.00  0.00    -0.354 N 
ATOM     39  C   UNL     1      11.584  10.656  -1.849  1.00  0.00     0.074 A 
ATOM     40  C   UNL     1      10.561  10.146  -2.737  1.00  0.00     0.031 C 
ATOM     41  C   UNL     1       8.238  12.414   3.345  1.00  0.00     0.029 A 
ATOM     42  C   UNL     1       9.683  12.470   3.156  1.00  0.00     0.049 A 
ATOM     43  H   UNL     1      10.764  11.927   1.461  1.00  0.00     0.167 HD
ATOM     44  C   UNL     1      12.906  10.694  -2.144  1.00  0.00     0.037 A 
ATOM     45  C   UNL     1      10.573  12.892   4.076  1.00  0.00     0.037 A 
ATOM     46  C   UNL     1      13.920  11.213  -1.262  1.00  0.00     0.049 A 
ATOM     47  C   UNL     1      12.036  12.908   3.725  1.00  0.00     0.074 A 
ATOM     48  C   UNL     1      15.277  11.351  -1.495  1.00  0.00     0.029 A 
ATOM     49  N   UNL     1      13.689  11.670   0.028  1.00  0.00    -0.354 N 
ATOM     50  N   UNL     1      12.625  12.567   2.605  1.00  0.00    -0.248 NA
ATOM     51  C   UNL     1      12.958  13.378   4.769  1.00  0.00     0.031 C 
ATOM     52  C   UNL     1      15.876  11.834  -0.326  1.00  0.00     0.029 A 
ATOM     53  C   UNL     1      14.884  12.059   0.614  1.00  0.00     0.049 A 
ATOM     54  H   UNL     1      12.807  11.711   0.462  1.00  0.00     0.167 HD
ATOM     55  C   UNL     1      13.979  12.804   2.799  1.00  0.00     0.074 A 
ATOM     56  C   UNL     1      14.121  13.343   4.135  1.00  0.00     0.031 C 
ATOM     57  C   UNL     1      15.013  12.590   1.948  1.00  0.00     0.037 A 
BRANCH  44  58
ATOM     58  C   UNL     1      13.337  10.156  -3.480  1.00  0.00     0.064 A 
ATOM     59  C   UNL     1      13.008  10.807  -4.679  1.00  0.00     0.173 A 
ATOM     60  C   UNL     1      14.128   8.999  -3.561  1.00  0.00     0.173 A 
ATOM     61  F   UNL     1      12.248  11.912  -4.661  1.00  0.00    -0.203 F 
ATOM     62  C   UNL     1      13.429  10.305  -5.909  1.00  0.00     0.198 A 
ATOM     63  C   UNL     1      14.575   8.519  -4.790  1.00  0.00     0.198 A 
ATOM     64  F   UNL     1      14.479   8.339  -2.447  1.00  0.00    -0.203 F 
ATOM     65  F   UNL     1      13.059  10.917  -7.042  1.00  0.00    -0.200 F 
ATOM     66  C   UNL     1      14.218   9.167  -5.963  1.00  0.00     0.200 A 
ATOM     67  F   UNL     1      15.351   7.427  -4.839  1.00  0.00    -0.200 F 
ATOM     68  F   UNL     1      14.630   8.690  -7.146  1.00  0.00    -0.200 F 
ENDBRANCH  44  58
BRANCH  45  69
ATOM     69  C   UNL     1      10.104  13.355   5.409  1.00  0.00     0.064 A 
ATOM     70  C   UNL     1      10.224  14.700   5.788  1.00  0.00     0.173 A 
ATOM     71  C   UNL     1       9.540  12.466   6.335  1.00  0.00     0.173 A 
ATOM     72  F   UNL     1      10.775  15.586   4.946  1.00  0.00    -0.203 F 
ATOM     73  C   UNL     1       9.823  15.131   7.051  1.00  0.00     0.198 A 
ATOM     74  C   UNL     1       9.108  12.904   7.585  1.00  0.00     0.198 A 
ATOM     75  F   UNL     1       9.397  11.169   6.021  1.00  0.00    -0.203 F 
ATOM     76  F   UNL     1      10.001  16.411   7.407  1.00  0.00    -0.200 F 
ATOM     77  C   UNL     1       9.260  14.234   7.946  1.00  0.00     0.200 A 
ATOM     78  F   UNL     1       8.550  12.038   8.440  1.00  0.00    -0.200 F 
ATOM     79  F   UNL     1       8.872  14.650   9.159  1.00  0.00    -0.200 F 
ENDBRANCH  45  69
BRANCH  57  80
ATOM     80  C   UNL     1      16.386  12.966   2.431  1.00  0.00     0.064 A 
ATOM     81  C   UNL     1      17.028  12.256   3.457  1.00  0.00     0.173 A 
ATOM     82  C   UNL     1      17.074  14.043   1.851  1.00  0.00     0.173 A 
ATOM     83  F   UNL     1      16.410  11.227   4.056  1.00  0.00    -0.203 F 
ATOM     84  C   UNL     1      18.289  12.636   3.911  1.00  0.00     0.198 A 
ATOM     85  C   UNL     1      18.350  14.396   2.281  1.00  0.00     0.198 A 
ATOM     86  F   UNL     1      16.512  14.751   0.860  1.00  0.00    -0.203 F 
ATOM     87  F   UNL     1      18.853  11.984   4.937  1.00  0.00    -0.200 F 
ATOM     88  C   UNL     1      18.951  13.701   3.319  1.00  0.00     0.200 A 
ATOM     89  F   UNL     1      18.995  15.415   1.697  1.00  0.00    -0.200 F 
ATOM     90  F   UNL     1      20.165  14.063   3.757  1.00  0.00    -0.200 F 
ENDBRANCH  57  80
ENDBRANCH  31  32
ENDBRANCH  23  26
ENDBRANCH  21  22
ENDBRANCH  20  21
ENDBRANCH   1  20
TORSDOF 14
