REMARK SMILES CC1(C)C(CNC(=O)N2C[C@H](O)C[C@@H]2C(=O)NCCCCNC(=O)c2ccc(-c3c4nc(c(-c5c(F)c(F)c(F)c(F)c5F)c5ccc([nH]5)c(-c5c(F)c(F)c(F)c(F)c5F)c5nc(c(-c6c(F)c(F)c(F)c(F)c6F)c6ccc3[nH]6)C=C5)C=C4)cc2)C1(C)C
REMARK SMILES IDX 19 1 18 2 17 3 15 4 16 5 14 7 9 8 10 9 11 10 13 11 7 12 6 13
REMARK SMILES IDX 8 15 5 16 4 17 1 18 2 19 3 20 88 21 89 22 90 23 12 24 20 26
REMARK SMILES IDX 21 27 22 28 23 29 24 31 25 32 26 33 87 34 27 35 86 36 28 37
REMARK SMILES IDX 29 38 30 39 80 40 31 41 85 42 79 43 81 44 32 45 84 46 78 47
REMARK SMILES IDX 77 48 33 50 65 51 45 52 64 53 46 54 49 55 63 56 82 57 47 58
REMARK SMILES IDX 48 59 62 61 83 62 50 63 34 64 35 65 43 66 36 67 37 68 41 69
REMARK SMILES IDX 44 70 38 71 39 72 42 73 40 74 66 75 67 76 75 77 68 78 69 79
REMARK SMILES IDX 73 80 76 81 70 82 71 83 74 84 72 85 51 86 52 87 60 88 53 89
REMARK SMILES IDX 54 90 58 91 61 92 55 93 56 94 59 95 57 96
REMARK H PARENT 17 6 6 14 12 25 22 30 81 49 49 60
REMARK Flexibility Score: inf
ROOT
ATOM      1  C   UNL     1       8.543   2.693  -3.029  1.00  0.00     0.023 C 
ENDROOT
BRANCH   1   2
ATOM      2  C   UNL     1       8.069   1.505  -3.862  1.00  0.00     0.116 C 
BRANCH   2   3
ATOM      3  N   UNL     1       7.033   0.738  -3.198  1.00  0.00    -0.354 N 
ATOM      4  C   UNL     1       5.762   0.468  -3.619  1.00  0.00     0.242 C 
ATOM      5  O   UNL     1       5.095  -0.345  -2.972  1.00  0.00    -0.273 OA
ATOM      6  H   UNL     1       7.279   0.359  -2.323  1.00  0.00     0.163 HD
BRANCH   4   7
ATOM      7  C   UNL     1       5.258   1.079  -4.939  1.00  0.00     0.179 C 
ATOM      8  N   UNL     1       3.797   0.991  -5.010  1.00  0.00    -0.310 N 
ATOM      9  C   UNL     1       3.393   0.241  -6.192  1.00  0.00     0.154 C 
ATOM     10  C   UNL     1       4.583  -0.679  -6.431  1.00  0.00     0.136 C 
ATOM     11  C   UNL     1       5.766   0.234  -6.116  1.00  0.00     0.069 C 
BRANCH   8  12
ATOM     12  C   UNL     1       3.038   1.813  -4.240  1.00  0.00     0.318 C 
ATOM     13  N   UNL     1       1.790   1.441  -3.879  1.00  0.00    -0.338 N 
ATOM     14  H   UNL     1       1.169   2.180  -3.685  1.00  0.00     0.165 HD
ATOM     15  O   UNL     1       3.478   2.879  -3.806  1.00  0.00    -0.249 OA
BRANCH  13  16
ATOM     16  C   UNL     1       1.232   0.112  -3.736  1.00  0.00     0.122 C 
BRANCH  16  17
ATOM     17  C   UNL     1       1.456  -0.408  -2.351  1.00  0.00     0.021 C 
ATOM     18  C   UNL     1       1.049  -0.099   0.192  1.00  0.00     0.012 C 
ATOM     19  C   UNL     1       0.470  -0.326  -1.191  1.00  0.00    -0.025 C 
ATOM     20  C   UNL     1      -0.859   0.373  -1.361  1.00  0.00     0.012 C 
ATOM     21  C   UNL     1       0.744  -1.677  -1.891  1.00  0.00    -0.025 C 
ATOM     22  C   UNL     1       1.601  -2.726  -1.212  1.00  0.00     0.012 C 
ATOM     23  C   UNL     1      -0.300  -2.313  -2.785  1.00  0.00     0.012 C 
ENDBRANCH  16  17
ENDBRANCH  13  16
ENDBRANCH   8  12
BRANCH  10  24
ATOM     24  O   UNL     1       4.559  -1.791  -5.535  1.00  0.00    -0.391 OA
ATOM     25  H   UNL     1       4.537  -1.469  -4.621  1.00  0.00     0.211 HD
ENDBRANCH  10  24
ENDBRANCH   4   7
ENDBRANCH   2   3
ENDBRANCH   1   2
BRANCH   1  26
ATOM     26  C   UNL     1       9.086   2.338  -1.642  1.00  0.00     0.023 C 
BRANCH  26  27
ATOM     27  C   UNL     1      10.212   1.310  -1.618  1.00  0.00     0.116 C 
BRANCH  27  28
ATOM     28  N   UNL     1      11.416   1.769  -2.293  1.00  0.00    -0.352 N 
ATOM     29  C   UNL     1      12.712   1.810  -1.840  1.00  0.00     0.251 C 
ATOM     30  H   UNL     1      11.282   2.100  -3.210  1.00  0.00     0.163 HD
ATOM     31  O   UNL     1      13.578   2.367  -2.512  1.00  0.00    -0.269 OA
BRANCH  29  32
ATOM     32  C   UNL     1      13.071   1.217  -0.532  1.00  0.00     0.039 A 
ATOM     33  C   UNL     1      13.915   1.933   0.322  1.00  0.00     0.014 A 
ATOM     34  C   UNL     1      12.590  -0.036  -0.144  1.00  0.00     0.014 A 
ATOM     35  C   UNL     1      14.216   1.428   1.590  1.00  0.00     0.010 A 
ATOM     36  C   UNL     1      12.828  -0.503   1.148  1.00  0.00     0.010 A 
ATOM     37  C   UNL     1      13.641   0.224   2.031  1.00  0.00    -0.014 A 
BRANCH  37  38
ATOM     38  C   UNL     1      13.870  -0.279   3.412  1.00  0.00     0.031 A 
ATOM     39  C   UNL     1      14.575  -1.588   3.639  1.00  0.00     0.074 A 
ATOM     40  C   UNL     1      13.392   0.416   4.464  1.00  0.00     0.049 A 
ATOM     41  N   UNL     1      14.806  -2.222   4.761  1.00  0.00    -0.248 NA
ATOM     42  C   UNL     1      15.067  -2.290   2.443  1.00  0.00     0.031 C 
ATOM     43  C   UNL     1      12.658   1.680   4.379  1.00  0.00     0.029 A 
ATOM     44  N   UNL     1      13.443   0.154   5.811  1.00  0.00    -0.354 N 
ATOM     45  C   UNL     1      15.460  -3.395   4.407  1.00  0.00     0.074 A 
ATOM     46  C   UNL     1      15.539  -3.414   2.962  1.00  0.00     0.031 C 
ATOM     47  C   UNL     1      12.349   2.094   5.618  1.00  0.00     0.029 A 
ATOM     48  C   UNL     1      12.821   1.105   6.583  1.00  0.00     0.049 A 
ATOM     49  H   UNL     1      13.885  -0.641   6.189  1.00  0.00     0.167 HD
ATOM     50  C   UNL     1      15.972  -4.357   5.213  1.00  0.00     0.037 A 
ATOM     51  C   UNL     1      12.639   1.168   7.916  1.00  0.00     0.037 A 
ATOM     52  C   UNL     1      15.905  -4.330   6.652  1.00  0.00     0.049 A 
ATOM     53  C   UNL     1      13.187   0.066   8.785  1.00  0.00     0.074 A 
ATOM     54  C   UNL     1      16.432  -5.236   7.556  1.00  0.00     0.029 A 
ATOM     55  N   UNL     1      15.268  -3.348   7.396  1.00  0.00    -0.354 N 
ATOM     56  N   UNL     1      13.860  -1.004   8.442  1.00  0.00    -0.248 NA
ATOM     57  C   UNL     1      12.951   0.186  10.232  1.00  0.00     0.031 C 
ATOM     58  C   UNL     1      16.069  -4.832   8.844  1.00  0.00     0.029 A 
ATOM     59  C   UNL     1      15.368  -3.640   8.748  1.00  0.00     0.049 A 
ATOM     60  H   UNL     1      14.813  -2.561   7.020  1.00  0.00     0.167 HD
ATOM     61  C   UNL     1      14.159  -1.665   9.627  1.00  0.00     0.074 A 
ATOM     62  C   UNL     1      13.607  -0.866  10.700  1.00  0.00     0.031 C 
ATOM     63  C   UNL     1      14.828  -2.829   9.809  1.00  0.00     0.037 A 
BRANCH  50  64
ATOM     64  C   UNL     1      16.656  -5.523   4.559  1.00  0.00     0.064 A 
ATOM     65  C   UNL     1      17.886  -5.378   3.899  1.00  0.00     0.173 A 
ATOM     66  C   UNL     1      16.104  -6.811   4.637  1.00  0.00     0.173 A 
ATOM     67  F   UNL     1      18.454  -4.168   3.788  1.00  0.00    -0.203 F 
ATOM     68  C   UNL     1      18.523  -6.472   3.319  1.00  0.00     0.198 A 
ATOM     69  C   UNL     1      16.760  -7.908   4.085  1.00  0.00     0.198 A 
ATOM     70  F   UNL     1      14.934  -7.009   5.263  1.00  0.00    -0.203 F 
ATOM     71  F   UNL     1      19.674  -6.300   2.653  1.00  0.00    -0.200 F 
ATOM     72  C   UNL     1      17.965  -7.737   3.420  1.00  0.00     0.200 A 
ATOM     73  F   UNL     1      16.227  -9.133   4.198  1.00  0.00    -0.200 F 
ATOM     74  F   UNL     1      18.585  -8.791   2.872  1.00  0.00    -0.200 F 
ENDBRANCH  50  64
BRANCH  51  75
ATOM     75  C   UNL     1      11.916   2.319   8.522  1.00  0.00     0.064 A 
ATOM     76  C   UNL     1      12.582   3.232   9.352  1.00  0.00     0.173 A 
ATOM     77  C   UNL     1      10.543   2.513   8.312  1.00  0.00     0.173 A 
ATOM     78  F   UNL     1      13.891   3.077   9.602  1.00  0.00    -0.203 F 
ATOM     79  C   UNL     1      11.898   4.275   9.972  1.00  0.00     0.198 A 
ATOM     80  C   UNL     1       9.866   3.576   8.905  1.00  0.00     0.198 A 
ATOM     81  F   UNL     1       9.857   1.671   7.524  1.00  0.00    -0.203 F 
ATOM     82  F   UNL     1      12.548   5.095  10.809  1.00  0.00    -0.200 F 
ATOM     83  C   UNL     1      10.541   4.449   9.745  1.00  0.00     0.200 A 
ATOM     84  F   UNL     1       8.558   3.750   8.671  1.00  0.00    -0.200 F 
ATOM     85  F   UNL     1       9.883   5.451  10.344  1.00  0.00    -0.200 F 
ENDBRANCH  51  75
BRANCH  63  86
ATOM     86  C   UNL     1      15.044  -3.289  11.223  1.00  0.00     0.064 A 
ATOM     87  C   UNL     1      13.989  -3.757  12.019  1.00  0.00     0.173 A 
ATOM     88  C   UNL     1      16.335  -3.294  11.776  1.00  0.00     0.173 A 
ATOM     89  F   UNL     1      12.734  -3.758  11.544  1.00  0.00    -0.203 F 
ATOM     90  C   UNL     1      14.212  -4.184  13.326  1.00  0.00     0.198 A 
ATOM     91  C   UNL     1      16.560  -3.755  13.070  1.00  0.00     0.198 A 
ATOM     92  F   UNL     1      17.382  -2.865  11.055  1.00  0.00    -0.203 F 
ATOM     93  F   UNL     1      13.180  -4.575  14.086  1.00  0.00    -0.200 F 
ATOM     94  C   UNL     1      15.498  -4.191  13.847  1.00  0.00     0.200 A 
ATOM     95  F   UNL     1      17.805  -3.777  13.565  1.00  0.00    -0.200 F 
ATOM     96  F   UNL     1      15.711  -4.611  15.101  1.00  0.00    -0.200 F 
ENDBRANCH  63  86
ENDBRANCH  37  38
ENDBRANCH  29  32
ENDBRANCH  27  28
ENDBRANCH  26  27
ENDBRANCH   1  26
TORSDOF 15
