REMARK SMILES C[C@@H](C(=O)NCCCCNC(=O)c1ccc(-c2c3nc(c(-c4c(F)c(F)c(F)c(F)c4F)c4ccc([nH]4)c(-c4c(F)c(F)c(F)c(F)c4F)c4nc(c(-c5c(F)c(F)c(F)c(F)c5F)c5ccc2[nH]5)C=C4)C=C3)cc1)c1ccc(-c2ccc3[nH]ccc3c2)cc1
REMARK SMILES IDX 7 1 6 2 5 3 3 4 4 5 2 7 1 8 76 9 77 10 90 11 78 12 89 13
REMARK SMILES IDX 79 14 80 15 81 16 88 17 82 18 87 19 83 20 86 21 84 22 85 23
REMARK SMILES IDX 8 25 9 26 10 27 11 28 12 30 13 31 14 32 75 33 15 34 74 35
REMARK SMILES IDX 16 36 17 37 18 38 68 39 19 40 73 41 67 42 69 43 20 44 72 45
REMARK SMILES IDX 66 46 65 47 21 49 53 50 33 51 52 52 34 53 37 54 51 55 70 56
REMARK SMILES IDX 35 57 36 58 50 60 71 61 38 62 22 63 23 64 31 65 24 66 25 67
REMARK SMILES IDX 29 68 32 69 26 70 27 71 30 72 28 73 54 74 55 75 63 76 56 77
REMARK SMILES IDX 57 78 61 79 64 80 58 81 59 82 62 83 60 84 39 85 40 86 48 87
REMARK SMILES IDX 41 88 42 89 46 90 49 91 43 92 44 93 47 94 45 95
REMARK H PARENT 5 6 84 24 10 29 69 48 37 59
REMARK Flexibility Score: inf
ROOT
ATOM      1  C   UNL     1       4.357   1.176  -0.177  1.00  0.00     0.023 C 
ENDROOT
BRANCH   1   2
ATOM      2  C   UNL     1       3.547   1.501   1.082  1.00  0.00     0.116 C 
BRANCH   2   3
ATOM      3  N   UNL     1       2.527   2.487   0.793  1.00  0.00    -0.356 N 
ATOM      4  C   UNL     1       1.207   2.297   0.490  1.00  0.00     0.227 C 
ATOM      5  O   UNL     1       0.647   3.228  -0.091  1.00  0.00    -0.274 OA
ATOM      6  H   UNL     1       2.825   3.425   0.817  1.00  0.00     0.163 HD
BRANCH   4   7
ATOM      7  C   UNL     1       0.530   0.964   0.862  1.00  0.00     0.105 C 
ATOM      8  C   UNL     1       0.851  -0.046  -0.251  1.00  0.00     0.023 C 
BRANCH   7   9
ATOM      9  C   UNL     1      -0.981   1.018   1.116  1.00  0.00    -0.036 A 
ATOM     10  C   UNL     1      -1.691   2.216   1.265  1.00  0.00     0.005 A 
ATOM     11  C   UNL     1      -1.713  -0.182   1.209  1.00  0.00     0.005 A 
ATOM     12  C   UNL     1      -3.087   2.221   1.334  1.00  0.00     0.009 A 
ATOM     13  C   UNL     1      -3.107  -0.179   1.284  1.00  0.00     0.009 A 
ATOM     14  C   UNL     1      -3.811   1.026   1.297  1.00  0.00    -0.018 A 
BRANCH  14  15
ATOM     15  C   UNL     1      -5.269   1.049   1.208  1.00  0.00    -0.018 A 
ATOM     16  C   UNL     1      -5.880   1.329  -0.024  1.00  0.00     0.011 A 
ATOM     17  C   UNL     1      -6.066   0.817   2.340  1.00  0.00     0.019 A 
ATOM     18  C   UNL     1      -7.270   1.375  -0.164  1.00  0.00     0.027 A 
ATOM     19  C   UNL     1      -7.467   0.896   2.231  1.00  0.00    -0.000 A 
ATOM     20  C   UNL     1      -8.034   1.159   0.985  1.00  0.00     0.045 A 
ATOM     21  C   UNL     1      -8.536   0.786   3.162  1.00  0.00     0.028 A 
ATOM     22  N   UNL     1      -9.400   1.160   1.153  1.00  0.00    -0.361 N 
ATOM     23  C   UNL     1      -9.713   0.972   2.473  1.00  0.00     0.083 A 
ATOM     24  H   UNL     1     -10.056   1.279   0.429  1.00  0.00     0.166 HD
ENDBRANCH  14  15
ENDBRANCH   7   9
ENDBRANCH   4   7
ENDBRANCH   2   3
ENDBRANCH   1   2
BRANCH   1  25
ATOM     25  C   UNL     1       5.128   2.358  -0.763  1.00  0.00     0.023 C 
BRANCH  25  26
ATOM     26  C   UNL     1       6.097   3.019   0.201  1.00  0.00     0.116 C 
BRANCH  26  27
ATOM     27  N   UNL     1       7.110   2.099   0.692  1.00  0.00    -0.352 N 
ATOM     28  C   UNL     1       8.465   2.297   0.809  1.00  0.00     0.251 C 
ATOM     29  H   UNL     1       6.781   1.216   0.980  1.00  0.00     0.163 HD
ATOM     30  O   UNL     1       9.210   1.374   1.097  1.00  0.00    -0.269 OA
BRANCH  28  31
ATOM     31  C   UNL     1       9.011   3.645   0.548  1.00  0.00     0.039 A 
ATOM     32  C   UNL     1      10.112   3.778  -0.300  1.00  0.00     0.014 A 
ATOM     33  C   UNL     1       8.407   4.772   1.111  1.00  0.00     0.014 A 
ATOM     34  C   UNL     1      10.573   5.053  -0.632  1.00  0.00     0.010 A 
ATOM     35  C   UNL     1       8.812   6.038   0.713  1.00  0.00     0.010 A 
ATOM     36  C   UNL     1       9.905   6.192  -0.154  1.00  0.00    -0.014 A 
BRANCH  36  37
ATOM     37  C   UNL     1      10.342   7.562  -0.519  1.00  0.00     0.031 A 
ATOM     38  C   UNL     1      10.821   8.497   0.556  1.00  0.00     0.074 A 
ATOM     39  C   UNL     1      10.230   7.989  -1.790  1.00  0.00     0.049 A 
ATOM     40  N   UNL     1      11.127   9.767   0.476  1.00  0.00    -0.248 NA
ATOM     41  C   UNL     1      10.936   7.935   1.911  1.00  0.00     0.031 C 
ATOM     42  C   UNL     1       9.743   7.188  -2.914  1.00  0.00     0.029 A 
ATOM     43  N   UNL     1      10.500   9.214  -2.348  1.00  0.00    -0.354 N 
ATOM     44  C   UNL     1      11.447  10.158   1.769  1.00  0.00     0.074 A 
ATOM     45  C   UNL     1      11.242   9.009   2.623  1.00  0.00     0.031 C 
ATOM     46  C   UNL     1       9.764   7.937  -4.028  1.00  0.00     0.029 A 
ATOM     47  C   UNL     1      10.220   9.282  -3.690  1.00  0.00     0.049 A 
ATOM     48  H   UNL     1      10.859   9.973  -1.833  1.00  0.00     0.167 HD
ATOM     49  C   UNL     1      11.895  11.360   2.201  1.00  0.00     0.037 A 
ATOM     50  C   UNL     1      10.308  10.317  -4.547  1.00  0.00     0.037 A 
ATOM     51  C   UNL     1      12.120  12.492   1.341  1.00  0.00     0.049 A 
ATOM     52  C   UNL     1      10.795  11.649  -4.041  1.00  0.00     0.074 A 
ATOM     53  C   UNL     1      12.625  13.737   1.669  1.00  0.00     0.029 A 
ATOM     54  N   UNL     1      11.848  12.514  -0.019  1.00  0.00    -0.354 N 
ATOM     55  N   UNL     1      11.154  11.993  -2.828  1.00  0.00    -0.248 NA
ATOM     56  C   UNL     1      10.895  12.735  -5.026  1.00  0.00     0.031 C 
ATOM     57  C   UNL     1      12.609  14.531   0.517  1.00  0.00     0.029 A 
ATOM     58  C   UNL     1      12.154  13.761  -0.541  1.00  0.00     0.049 A 
ATOM     59  H   UNL     1      11.492  11.757  -0.537  1.00  0.00     0.167 HD
ATOM     60  C   UNL     1      11.554  13.320  -2.909  1.00  0.00     0.074 A 
ATOM     61  C   UNL     1      11.402  13.717  -4.293  1.00  0.00     0.031 C 
ATOM     62  C   UNL     1      12.010  14.135  -1.926  1.00  0.00     0.037 A 
BRANCH  49  63
ATOM     63  C   UNL     1      12.162  11.511   3.672  1.00  0.00     0.064 A 
ATOM     64  C   UNL     1      13.211  10.828   4.307  1.00  0.00     0.173 A 
ATOM     65  C   UNL     1      11.370  12.364   4.455  1.00  0.00     0.173 A 
ATOM     66  F   UNL     1      13.992   9.990   3.607  1.00  0.00    -0.203 F 
ATOM     67  C   UNL     1      13.431  10.961   5.675  1.00  0.00     0.198 A 
ATOM     68  C   UNL     1      11.615  12.523   5.816  1.00  0.00     0.198 A 
ATOM     69  F   UNL     1      10.357  13.047   3.900  1.00  0.00    -0.203 F 
ATOM     70  F   UNL     1      14.398  10.248   6.269  1.00  0.00    -0.200 F 
ATOM     71  C   UNL     1      12.638  11.813   6.427  1.00  0.00     0.200 A 
ATOM     72  F   UNL     1      10.857  13.359   6.539  1.00  0.00    -0.200 F 
ATOM     73  F   UNL     1      12.852  11.944   7.744  1.00  0.00    -0.200 F 
ENDBRANCH  49  63
BRANCH  50  74
ATOM     74  C   UNL     1       9.948  10.128  -5.977  1.00  0.00     0.064 A 
ATOM     75  C   UNL     1      10.930  10.161  -6.976  1.00  0.00     0.173 A 
ATOM     76  C   UNL     1       8.620   9.910  -6.375  1.00  0.00     0.173 A 
ATOM     77  F   UNL     1      12.211  10.386  -6.648  1.00  0.00    -0.203 F 
ATOM     78  C   UNL     1      10.597  10.002  -8.320  1.00  0.00     0.198 A 
ATOM     79  C   UNL     1       8.292   9.722  -7.715  1.00  0.00     0.198 A 
ATOM     80  F   UNL     1       7.643   9.865  -5.457  1.00  0.00    -0.203 F 
ATOM     81  F   UNL     1      11.550  10.082  -9.258  1.00  0.00    -0.200 F 
ATOM     82  C   UNL     1       9.279   9.776  -8.688  1.00  0.00     0.200 A 
ATOM     83  F   UNL     1       7.020   9.488  -8.065  1.00  0.00    -0.200 F 
ATOM     84  F   UNL     1       8.960   9.617  -9.979  1.00  0.00    -0.200 F 
ENDBRANCH  50  74
BRANCH  62  85
ATOM     85  C   UNL     1      12.430  15.524  -2.316  1.00  0.00     0.064 A 
ATOM     86  C   UNL     1      11.497  16.505  -2.683  1.00  0.00     0.173 A 
ATOM     87  C   UNL     1      13.784  15.890  -2.269  1.00  0.00     0.173 A 
ATOM     88  F   UNL     1      10.192  16.202  -2.758  1.00  0.00    -0.203 F 
ATOM     89  C   UNL     1      11.908  17.794  -3.012  1.00  0.00     0.198 A 
ATOM     90  C   UNL     1      14.187  17.189  -2.566  1.00  0.00     0.198 A 
ATOM     91  F   UNL     1      14.716  14.992  -1.917  1.00  0.00    -0.203 F 
ATOM     92  F   UNL     1      11.004  18.703  -3.405  1.00  0.00    -0.200 F 
ATOM     93  C   UNL     1      13.250  18.138  -2.944  1.00  0.00     0.200 A 
ATOM     94  F   UNL     1      15.482  17.522  -2.482  1.00  0.00    -0.200 F 
ATOM     95  F   UNL     1      13.641  19.383  -3.248  1.00  0.00    -0.200 F 
ENDBRANCH  62  85
ENDBRANCH  36  37
ENDBRANCH  28  31
ENDBRANCH  26  27
ENDBRANCH  25  26
ENDBRANCH   1  25
TORSDOF 13
