REMARK SMILES CCOc1ccc(OCC(=O)N2CCC[C@H](C(=O)NCCCCNC(=O)c3ccc(-c4c5nc(c(-c6c(F)c(F)c(F)c(F)c6F)c6ccc([nH]6)c(-c6c(F)c(F)c(F)c(F)c6F)c6nc(c(-c7c(F)c(F)c(F)c(F)c7F)c7ccc4[nH]7)C=C6)C=C5)cc3)C2)cc1
REMARK SMILES IDX 17 1 18 2 19 3 16 5 12 6 13 7 90 8 14 9 15 10 10 11 11 12
REMARK SMILES IDX 9 13 8 14 7 15 4 16 5 17 92 18 6 19 91 20 3 21 2 22 1 23
REMARK SMILES IDX 20 24 21 25 22 26 23 27 24 28 25 29 26 31 27 32 28 33 89 34
REMARK SMILES IDX 29 35 88 36 30 37 31 38 32 39 82 40 33 41 87 42 81 43 83 44
REMARK SMILES IDX 34 45 86 46 80 47 79 48 35 50 67 51 47 52 66 53 48 54 51 55
REMARK SMILES IDX 65 56 84 57 49 58 50 59 64 61 85 62 52 63 36 64 37 65 45 66
REMARK SMILES IDX 38 67 39 68 43 69 46 70 40 71 41 72 44 73 42 74 68 75 69 76
REMARK SMILES IDX 77 77 70 78 71 79 75 80 78 81 72 82 73 83 76 84 74 85 53 86
REMARK SMILES IDX 54 87 62 88 55 89 56 90 60 91 63 92 57 93 58 94 61 95 59 96
REMARK H PARENT 19 4 24 30 83 49 51 60
REMARK Flexibility Score: inf
ROOT
ATOM      1  C   UNL     1       4.979   1.984  -2.986  1.00  0.00     0.224 C 
ATOM      2  O   UNL     1       3.958   2.007  -3.687  1.00  0.00    -0.275 OA
ATOM      3  N   UNL     1       4.769   2.009  -1.646  1.00  0.00    -0.356 N 
ATOM      4  H   UNL     1       3.830   2.159  -1.391  1.00  0.00     0.163 HD
ENDROOT
BRANCH   1   5
ATOM      5  C   UNL     1       6.353   1.951  -3.672  1.00  0.00     0.098 C 
ATOM      6  N   UNL     1       7.961   0.467  -2.483  1.00  0.00    -0.339 N 
ATOM      7  C   UNL     1       8.946   1.539  -2.329  1.00  0.00     0.119 C 
ATOM      8  C   UNL     1       7.079   0.605  -3.634  1.00  0.00     0.133 C 
ATOM      9  C   UNL     1       8.337   2.940  -2.343  1.00  0.00     0.022 C 
ATOM     10  C   UNL     1       7.263   3.150  -3.406  1.00  0.00     0.017 C 
BRANCH   6  11
ATOM     11  C   UNL     1       7.905  -0.554  -1.540  1.00  0.00     0.260 C 
ATOM     12  O   UNL     1       8.372  -0.391  -0.406  1.00  0.00    -0.271 OA
BRANCH  11  13
ATOM     13  C   UNL     1       7.397  -1.965  -1.933  1.00  0.00     0.329 C 
BRANCH  13  14
ATOM     14  O   UNL     1       6.325  -2.201  -2.813  1.00  0.00    -0.484 OA
BRANCH  14  15
ATOM     15  C   UNL     1       5.047  -2.000  -2.379  1.00  0.00     0.120 A 
ATOM     16  C   UNL     1       2.350  -1.573  -1.811  1.00  0.00     0.119 A 
ATOM     17  C   UNL     1       2.740  -1.821  -3.120  1.00  0.00     0.050 A 
ATOM     18  C   UNL     1       3.289  -1.572  -0.781  1.00  0.00     0.050 A 
ATOM     19  C   UNL     1       4.088  -2.036  -3.400  1.00  0.00     0.050 A 
ATOM     20  C   UNL     1       4.644  -1.771  -1.065  1.00  0.00     0.050 A 
BRANCH  16  21
ATOM     21  O   UNL     1       1.020  -1.441  -1.531  1.00  0.00    -0.494 OA
BRANCH  21  22
ATOM     22  C   UNL     1       0.629  -0.068  -1.406  1.00  0.00     0.226 C 
ATOM     23  C   UNL     1       0.540   0.313   0.063  1.00  0.00     0.049 C 
ENDBRANCH  21  22
ENDBRANCH  16  21
ENDBRANCH  14  15
ENDBRANCH  13  14
ENDBRANCH  11  13
ENDBRANCH   6  11
ENDBRANCH   1   5
BRANCH   3  24
ATOM     24  C   UNL     1       5.665   1.857  -0.523  1.00  0.00     0.116 C 
BRANCH  24  25
ATOM     25  C   UNL     1       5.817   3.128   0.308  1.00  0.00     0.023 C 
BRANCH  25  26
ATOM     26  C   UNL     1       4.921   3.195   1.540  1.00  0.00     0.023 C 
BRANCH  26  27
ATOM     27  C   UNL     1       5.089   2.051   2.538  1.00  0.00     0.116 C 
BRANCH  27  28
ATOM     28  N   UNL     1       6.446   1.865   3.031  1.00  0.00    -0.352 N 
ATOM     29  C   UNL     1       6.842   1.482   4.296  1.00  0.00     0.251 C 
ATOM     30  H   UNL     1       7.169   2.033   2.384  1.00  0.00     0.163 HD
ATOM     31  O   UNL     1       8.024   1.434   4.607  1.00  0.00    -0.269 OA
BRANCH  29  32
ATOM     32  C   UNL     1       5.799   1.177   5.297  1.00  0.00     0.039 A 
ATOM     33  C   UNL     1       5.808   1.859   6.515  1.00  0.00     0.014 A 
ATOM     34  C   UNL     1       4.762   0.295   4.982  1.00  0.00     0.014 A 
ATOM     35  C   UNL     1       4.719   1.733   7.379  1.00  0.00     0.010 A 
ATOM     36  C   UNL     1       3.645   0.233   5.806  1.00  0.00     0.010 A 
ATOM     37  C   UNL     1       3.606   0.962   7.005  1.00  0.00    -0.014 A 
BRANCH  37  38
ATOM     38  C   UNL     1       2.379   0.919   7.838  1.00  0.00     0.031 A 
ATOM     39  C   UNL     1       1.924  -0.380   8.439  1.00  0.00     0.074 A 
ATOM     40  C   UNL     1       1.625   2.028   7.975  1.00  0.00     0.049 A 
ATOM     41  N   UNL     1       0.832  -0.645   9.110  1.00  0.00    -0.248 NA
ATOM     42  C   UNL     1       2.798  -1.544   8.227  1.00  0.00     0.031 C 
ATOM     43  C   UNL     1       1.923   3.335   7.386  1.00  0.00     0.029 A 
ATOM     44  N   UNL     1       0.442   2.229   8.642  1.00  0.00    -0.354 N 
ATOM     45  C   UNL     1       0.876  -2.007   9.374  1.00  0.00     0.074 A 
ATOM     46  C   UNL     1       2.075  -2.523   8.751  1.00  0.00     0.031 C 
ATOM     47  C   UNL     1       0.965   4.207   7.740  1.00  0.00     0.029 A 
ATOM     48  C   UNL     1      -0.032   3.515   8.551  1.00  0.00     0.049 A 
ATOM     49  H   UNL     1      -0.023   1.518   9.140  1.00  0.00     0.167 HD
ATOM     50  C   UNL     1       0.007  -2.756  10.094  1.00  0.00     0.037 A 
ATOM     51  C   UNL     1      -1.146   4.071   9.063  1.00  0.00     0.037 A 
ATOM     52  C   UNL     1      -1.161  -2.233  10.751  1.00  0.00     0.049 A 
ATOM     53  C   UNL     1      -2.078   3.225   9.886  1.00  0.00     0.074 A 
ATOM     54  C   UNL     1      -2.062  -2.894  11.566  1.00  0.00     0.029 A 
ATOM     55  N   UNL     1      -1.585  -0.915  10.671  1.00  0.00    -0.354 N 
ATOM     56  N   UNL     1      -1.989   1.953  10.190  1.00  0.00    -0.248 NA
ATOM     57  C   UNL     1      -3.262   3.894  10.444  1.00  0.00     0.031 C 
ATOM     58  C   UNL     1      -3.050  -1.983  11.956  1.00  0.00     0.029 A 
ATOM     59  C   UNL     1      -2.743  -0.746  11.413  1.00  0.00     0.049 A 
ATOM     60  H   UNL     1      -1.130  -0.205  10.163  1.00  0.00     0.167 HD
ATOM     61  C   UNL     1      -3.086   1.675  10.993  1.00  0.00     0.074 A 
ATOM     62  C   UNL     1      -3.822   2.914  11.140  1.00  0.00     0.031 C 
ATOM     63  C   UNL     1      -3.452   0.499  11.558  1.00  0.00     0.037 A 
BRANCH  50  64
ATOM     64  C   UNL     1       0.300  -4.222  10.217  1.00  0.00     0.064 A 
ATOM     65  C   UNL     1       1.372  -4.693  10.990  1.00  0.00     0.173 A 
ATOM     66  C   UNL     1      -0.510  -5.167   9.571  1.00  0.00     0.173 A 
ATOM     67  F   UNL     1       2.184  -3.828  11.616  1.00  0.00    -0.203 F 
ATOM     68  C   UNL     1       1.642  -6.055  11.085  1.00  0.00     0.198 A 
ATOM     69  C   UNL     1      -0.254  -6.530   9.692  1.00  0.00     0.198 A 
ATOM     70  F   UNL     1      -1.550  -4.769   8.824  1.00  0.00    -0.203 F 
ATOM     71  F   UNL     1       2.703  -6.478  11.786  1.00  0.00    -0.200 F 
ATOM     72  C   UNL     1       0.826  -6.973  10.441  1.00  0.00     0.200 A 
ATOM     73  F   UNL     1      -1.049  -7.417   9.077  1.00  0.00    -0.200 F 
ATOM     74  F   UNL     1       1.086  -8.284  10.535  1.00  0.00    -0.200 F 
ENDBRANCH  50  64
BRANCH  51  75
ATOM     75  C   UNL     1      -1.422   5.514   8.848  1.00  0.00     0.064 A 
ATOM     76  C   UNL     1      -1.300   6.430   9.903  1.00  0.00     0.173 A 
ATOM     77  C   UNL     1      -1.815   6.008   7.597  1.00  0.00     0.173 A 
ATOM     78  F   UNL     1      -0.948   6.000  11.124  1.00  0.00    -0.203 F 
ATOM     79  C   UNL     1      -1.579   7.782   9.719  1.00  0.00     0.198 A 
ATOM     80  C   UNL     1      -2.070   7.365   7.408  1.00  0.00     0.198 A 
ATOM     81  F   UNL     1      -1.940   5.173   6.555  1.00  0.00    -0.203 F 
ATOM     82  F   UNL     1      -1.495   8.628  10.755  1.00  0.00    -0.200 F 
ATOM     83  C   UNL     1      -1.960   8.249   8.470  1.00  0.00     0.200 A 
ATOM     84  F   UNL     1      -2.427   7.815   6.197  1.00  0.00    -0.200 F 
ATOM     85  F   UNL     1      -2.226   9.550   8.293  1.00  0.00    -0.200 F 
ENDBRANCH  51  75
BRANCH  63  86
ATOM     86  C   UNL     1      -4.682   0.503  12.415  1.00  0.00     0.064 A 
ATOM     87  C   UNL     1      -5.966   0.576  11.855  1.00  0.00     0.173 A 
ATOM     88  C   UNL     1      -4.575   0.388  13.809  1.00  0.00     0.173 A 
ATOM     89  F   UNL     1      -6.117   0.704  10.529  1.00  0.00    -0.203 F 
ATOM     90  C   UNL     1      -7.099   0.554  12.664  1.00  0.00     0.198 A 
ATOM     91  C   UNL     1      -5.710   0.341  14.612  1.00  0.00     0.198 A 
ATOM     92  F   UNL     1      -3.368   0.310  14.390  1.00  0.00    -0.203 F 
ATOM     93  F   UNL     1      -8.315   0.665  12.112  1.00  0.00    -0.200 F 
ATOM     94  C   UNL     1      -6.971   0.429  14.040  1.00  0.00     0.200 A 
ATOM     95  F   UNL     1      -5.586   0.210  15.940  1.00  0.00    -0.200 F 
ATOM     96  F   UNL     1      -8.063   0.402  14.815  1.00  0.00    -0.200 F 
ENDBRANCH  63  86
ENDBRANCH  37  38
ENDBRANCH  29  32
ENDBRANCH  27  28
ENDBRANCH  26  27
ENDBRANCH  25  26
ENDBRANCH  24  25
ENDBRANCH   3  24
TORSDOF 17
