REMARK SMILES Cc1nn2c(nnc3c(=O)n(CCCC(=O)NCCCCNC(=O)c4ccc(-c5c6nc(c(-c7c(F)c(F)c(F)c(F)c7F)c7ccc([nH]7)c(-c7c(F)c(F)c(F)c(F)c7F)c7nc(c(-c8c(F)c(F)c(F)c(F)c8F)c8ccc5[nH]8)C=C7)C=C6)cc4)ccc32)c1-c1ccc(F)cc1
REMARK SMILES IDX 18 1 17 2 15 3 16 4 14 6 13 7 12 8 11 9 1 10 2 11 3 12 91 13
REMARK SMILES IDX 4 14 5 15 90 16 6 17 8 18 89 19 7 20 9 21 88 22 10 23 92 24
REMARK SMILES IDX 93 25 98 26 94 27 97 28 95 29 96 30 19 31 20 32 21 33 22 34
REMARK SMILES IDX 23 35 24 37 25 38 26 39 87 40 27 41 86 42 28 43 29 44 30 45
REMARK SMILES IDX 80 46 31 47 85 48 79 49 81 50 32 51 84 52 78 53 77 54 33 56
REMARK SMILES IDX 65 57 45 58 64 59 46 60 49 61 63 62 82 63 47 64 48 65 62 67
REMARK SMILES IDX 83 68 50 69 34 70 35 71 43 72 36 73 37 74 41 75 44 76 38 77
REMARK SMILES IDX 39 78 42 79 40 80 66 81 67 82 75 83 68 84 69 85 73 86 76 87
REMARK SMILES IDX 70 88 71 89 74 90 72 91 51 92 52 93 60 94 53 95 54 96 58 97
REMARK SMILES IDX 61 98 55 99 56 100 59 101 57 102
REMARK H PARENT 17 5 22 36 81 55 49 66
REMARK Flexibility Score: inf
ROOT
ATOM      1  C   UNL     1       0.235   3.639   9.012  1.00  0.00     0.116 C 
ENDROOT
BRANCH   1   2
ATOM      2  N   UNL     1      -0.751   3.607  10.066  1.00  0.00    -0.356 N 
ATOM      3  C   UNL     1      -2.098   3.713  10.098  1.00  0.00     0.220 C 
ATOM      4  O   UNL     1      -2.599   3.517  11.216  1.00  0.00    -0.275 OA
ATOM      5  H   UNL     1      -0.355   3.478  10.958  1.00  0.00     0.163 HD
BRANCH   3   6
ATOM      6  C   UNL     1      -3.038   3.957   8.922  1.00  0.00     0.102 C 
BRANCH   6   7
ATOM      7  C   UNL     1      -2.896   5.053   7.865  1.00  0.00     0.032 C 
BRANCH   7   8
ATOM      8  C   UNL     1      -1.747   5.199   6.857  1.00  0.00     0.126 C 
BRANCH   8   9
ATOM      9  N   UNL     1      -1.408   4.179   5.838  1.00  0.00    -0.313 N 
ATOM     10  C   UNL     1       1.061   0.214  -0.187  1.00  0.00     0.069 C 
ATOM     11  C   UNL     1       0.562   0.387   1.200  1.00  0.00     0.070 A 
ATOM     12  N   UNL     1       0.509   1.614   1.741  1.00  0.00    -0.170 NA
ATOM     13  C   UNL     1       0.082  -0.605   2.085  1.00  0.00     0.051 A 
ATOM     14  N   UNL     1      -0.064   1.431   2.962  1.00  0.00    -0.210 N 
ATOM     15  C   UNL     1      -0.299   0.086   3.211  1.00  0.00     0.186 A 
ATOM     16  C   UNL     1      -0.453   2.376   3.912  1.00  0.00     0.102 A 
ATOM     17  N   UNL     1      -0.843  -0.322   4.391  1.00  0.00    -0.129 NA
ATOM     18  C   UNL     1      -1.051   1.879   5.006  1.00  0.00     0.177 A 
ATOM     19  C   UNL     1      -0.261   3.800   3.770  1.00  0.00     0.049 A 
ATOM     20  N   UNL     1      -1.218   0.527   5.233  1.00  0.00    -0.141 NA
ATOM     21  C   UNL     1      -1.560   2.808   6.055  1.00  0.00     0.280 A 
ATOM     22  C   UNL     1      -0.729   4.636   4.707  1.00  0.00     0.091 A 
ATOM     23  O   UNL     1      -2.034   2.301   7.063  1.00  0.00    -0.267 OA
BRANCH  13  24
ATOM     24  C   UNL     1      -0.057  -2.041   1.982  1.00  0.00    -0.012 A 
ATOM     25  C   UNL     1       1.077  -2.851   1.855  1.00  0.00     0.012 A 
ATOM     26  C   UNL     1      -1.326  -2.632   2.095  1.00  0.00     0.012 A 
ATOM     27  C   UNL     1       0.941  -4.241   1.855  1.00  0.00     0.040 A 
ATOM     28  C   UNL     1      -1.458  -4.020   2.092  1.00  0.00     0.040 A 
ATOM     29  C   UNL     1      -0.323  -4.811   1.976  1.00  0.00     0.123 A 
ATOM     30  F   UNL     1      -0.445  -6.145   1.994  1.00  0.00    -0.207 F 
ENDBRANCH  13  24
ENDBRANCH   8   9
ENDBRANCH   7   8
ENDBRANCH   6   7
ENDBRANCH   3   6
ENDBRANCH   1   2
BRANCH   1  31
ATOM     31  C   UNL     1       1.024   4.955   9.002  1.00  0.00     0.023 C 
BRANCH  31  32
ATOM     32  C   UNL     1       2.276   4.970   9.883  1.00  0.00     0.023 C 
BRANCH  32  33
ATOM     33  C   UNL     1       3.401   4.108   9.333  1.00  0.00     0.116 C 
BRANCH  33  34
ATOM     34  N   UNL     1       3.961   4.610   8.075  1.00  0.00    -0.352 N 
ATOM     35  C   UNL     1       5.029   4.074   7.371  1.00  0.00     0.251 C 
ATOM     36  H   UNL     1       3.534   5.409   7.690  1.00  0.00     0.163 HD
ATOM     37  O   UNL     1       5.631   4.697   6.522  1.00  0.00    -0.269 OA
BRANCH  35  38
ATOM     38  C   UNL     1       5.374   2.675   7.668  1.00  0.00     0.039 A 
ATOM     39  C   UNL     1       6.681   2.265   7.947  1.00  0.00     0.014 A 
ATOM     40  C   UNL     1       4.300   1.791   7.727  1.00  0.00     0.014 A 
ATOM     41  C   UNL     1       6.891   0.944   8.331  1.00  0.00     0.010 A 
ATOM     42  C   UNL     1       4.482   0.559   8.282  1.00  0.00     0.010 A 
ATOM     43  C   UNL     1       5.780   0.106   8.489  1.00  0.00    -0.014 A 
BRANCH  43  44
ATOM     44  C   UNL     1       5.904  -1.288   8.871  1.00  0.00     0.031 A 
ATOM     45  C   UNL     1       6.353  -1.537  10.267  1.00  0.00     0.074 A 
ATOM     46  C   UNL     1       5.358  -2.240   8.083  1.00  0.00     0.049 A 
ATOM     47  N   UNL     1       7.408  -2.171  10.662  1.00  0.00    -0.248 NA
ATOM     48  C   UNL     1       5.588  -0.919  11.365  1.00  0.00     0.031 C 
ATOM     49  C   UNL     1       4.580  -2.076   6.844  1.00  0.00     0.029 A 
ATOM     50  N   UNL     1       5.286  -3.576   8.296  1.00  0.00    -0.354 N 
ATOM     51  C   UNL     1       7.362  -2.174  12.054  1.00  0.00     0.074 A 
ATOM     52  C   UNL     1       6.312  -1.264  12.432  1.00  0.00     0.031 C 
ATOM     53  C   UNL     1       3.932  -3.227   6.557  1.00  0.00     0.029 A 
ATOM     54  C   UNL     1       4.381  -4.247   7.483  1.00  0.00     0.049 A 
ATOM     55  H   UNL     1       5.832  -4.035   8.974  1.00  0.00     0.167 HD
ATOM     56  C   UNL     1       8.060  -3.082  12.793  1.00  0.00     0.037 A 
ATOM     57  C   UNL     1       4.007  -5.543   7.622  1.00  0.00     0.037 A 
ATOM     58  C   UNL     1       9.044  -3.765  11.998  1.00  0.00     0.049 A 
ATOM     59  C   UNL     1       5.053  -6.200   8.452  1.00  0.00     0.074 A 
ATOM     60  C   UNL     1      10.187  -3.367  11.335  1.00  0.00     0.029 A 
ATOM     61  N   UNL     1       8.695  -4.975  11.448  1.00  0.00    -0.354 N 
ATOM     62  N   UNL     1       6.290  -6.359   8.061  1.00  0.00    -0.248 NA
ATOM     63  C   UNL     1       4.846  -6.216   9.893  1.00  0.00     0.031 C 
ATOM     64  C   UNL     1      10.168  -4.092  10.107  1.00  0.00     0.029 A 
ATOM     65  C   UNL     1       9.063  -4.944  10.126  1.00  0.00     0.049 A 
ATOM     66  H   UNL     1       8.262  -5.725  11.916  1.00  0.00     0.167 HD
ATOM     67  C   UNL     1       7.058  -6.087   9.185  1.00  0.00     0.074 A 
ATOM     68  C   UNL     1       6.110  -6.059  10.297  1.00  0.00     0.031 C 
ATOM     69  C   UNL     1       8.336  -5.617   9.072  1.00  0.00     0.037 A 
BRANCH  56  70
ATOM     70  C   UNL     1       7.651  -3.567  14.155  1.00  0.00     0.064 A 
ATOM     71  C   UNL     1       8.580  -4.231  14.976  1.00  0.00     0.173 A 
ATOM     72  C   UNL     1       6.305  -3.631  14.572  1.00  0.00     0.173 A 
ATOM     73  F   UNL     1       9.881  -4.263  14.648  1.00  0.00    -0.203 F 
ATOM     74  C   UNL     1       8.182  -4.936  16.117  1.00  0.00     0.198 A 
ATOM     75  C   UNL     1       5.918  -4.288  15.738  1.00  0.00     0.198 A 
ATOM     76  F   UNL     1       5.311  -3.152  13.813  1.00  0.00    -0.203 F 
ATOM     77  F   UNL     1       9.084  -5.636  16.817  1.00  0.00    -0.200 F 
ATOM     78  C   UNL     1       6.852  -4.961  16.498  1.00  0.00     0.200 A 
ATOM     79  F   UNL     1       4.621  -4.320  16.077  1.00  0.00    -0.200 F 
ATOM     80  F   UNL     1       6.462  -5.670  17.565  1.00  0.00    -0.200 F 
ENDBRANCH  56  70
BRANCH  57  81
ATOM     81  C   UNL     1       2.649  -6.114   7.447  1.00  0.00     0.064 A 
ATOM     82  C   UNL     1       2.459  -7.503   7.354  1.00  0.00     0.173 A 
ATOM     83  C   UNL     1       1.492  -5.338   7.665  1.00  0.00     0.173 A 
ATOM     84  F   UNL     1       3.513  -8.315   7.190  1.00  0.00    -0.203 F 
ATOM     85  C   UNL     1       1.194  -8.082   7.505  1.00  0.00     0.198 A 
ATOM     86  C   UNL     1       0.230  -5.918   7.812  1.00  0.00     0.198 A 
ATOM     87  F   UNL     1       1.578  -4.012   7.843  1.00  0.00    -0.203 F 
ATOM     88  F   UNL     1       1.062  -9.416   7.478  1.00  0.00    -0.200 F 
ATOM     89  C   UNL     1       0.083  -7.290   7.747  1.00  0.00     0.200 A 
ATOM     90  F   UNL     1      -0.829  -5.143   8.088  1.00  0.00    -0.200 F 
ATOM     91  F   UNL     1      -1.116  -7.850   7.964  1.00  0.00    -0.200 F 
ENDBRANCH  57  81
BRANCH  69  92
ATOM     92  C   UNL     1       8.957  -5.583   7.699  1.00  0.00     0.064 A 
ATOM     93  C   UNL     1       8.502  -4.763   6.650  1.00  0.00     0.173 A 
ATOM     94  C   UNL     1      10.159  -6.271   7.494  1.00  0.00     0.173 A 
ATOM     95  F   UNL     1       7.419  -3.996   6.796  1.00  0.00    -0.203 F 
ATOM     96  C   UNL     1       9.200  -4.662   5.447  1.00  0.00     0.198 A 
ATOM     97  C   UNL     1      10.874  -6.142   6.305  1.00  0.00     0.198 A 
ATOM     98  F   UNL     1      10.675  -7.024   8.477  1.00  0.00    -0.203 F 
ATOM     99  F   UNL     1       8.741  -3.869   4.466  1.00  0.00    -0.200 F 
ATOM    100  C   UNL     1      10.391  -5.344   5.279  1.00  0.00     0.200 A 
ATOM    101  F   UNL     1      12.052  -6.765   6.167  1.00  0.00    -0.200 F 
ATOM    102  F   UNL     1      11.091  -5.210   4.144  1.00  0.00    -0.200 F 
ENDBRANCH  69  92
ENDBRANCH  43  44
ENDBRANCH  35  38
ENDBRANCH  33  34
ENDBRANCH  32  33
ENDBRANCH  31  32
ENDBRANCH   1  31
TORSDOF 15
