REMARK SMILES Cc1ccc(S(=O)(=O)N[C@@H](Cc2cccc(F)c2)C(=O)NCCCCNC(=O)c2ccc(-c3c4nc(c(-c5c(F)c(F)c(F)c(F)c5F)c5ccc([nH]5)c(-c5c(F)c(F)c(F)c(F)c5F)c5nc(c(-c6c(F)c(F)c(F)c(F)c6F)c6ccc3[nH]6)C=C5)C=C4)cc2)cc1
REMARK SMILES IDX 23 1 22 2 21 3 19 4 20 5 10 7 9 8 6 10 7 11 8 12 5 13 1 14
REMARK SMILES IDX 2 15 3 16 93 17 4 18 92 19 11 20 12 21 13 22 18 23 14 24
REMARK SMILES IDX 16 25 15 26 17 27 24 28 25 29 26 30 27 31 28 33 29 34 30 35
REMARK SMILES IDX 91 36 31 37 90 38 32 39 33 40 34 41 84 42 35 43 89 44 83 45
REMARK SMILES IDX 85 46 36 47 88 48 82 49 81 50 37 52 69 53 49 54 68 55 50 56
REMARK SMILES IDX 53 57 67 58 86 59 51 60 52 61 66 63 87 64 54 65 38 66 39 67
REMARK SMILES IDX 47 68 40 69 41 70 45 71 48 72 42 73 43 74 46 75 44 76 70 77
REMARK SMILES IDX 71 78 79 79 72 80 73 81 77 82 80 83 74 84 75 85 78 86 76 87
REMARK SMILES IDX 55 88 56 89 64 90 57 91 58 92 62 93 65 94 59 95 60 96 63 97
REMARK SMILES IDX 61 98
REMARK H PARENT 21 6 9 9 26 32 85 51 53 62
REMARK Flexibility Score: inf
ROOT
ATOM      1  C   UNL     1      -7.520   2.676   0.440  1.00  0.00     0.023 C 
ENDROOT
BRANCH   1   2
ATOM      2  C   UNL     1      -6.663   2.843  -0.819  1.00  0.00     0.116 C 
BRANCH   2   3
ATOM      3  N   UNL     1      -5.578   3.788  -0.615  1.00  0.00    -0.355 N 
ATOM      4  C   UNL     1      -4.236   3.642  -0.792  1.00  0.00     0.238 C 
ATOM      5  O   UNL     1      -3.510   4.589  -0.473  1.00  0.00    -0.273 OA
ATOM      6  H   UNL     1      -5.858   4.677  -0.297  1.00  0.00     0.163 HD
BRANCH   4   7
ATOM      7  C   UNL     1      -3.625   2.329  -1.307  1.00  0.00     0.163 C 
BRANCH   7   8
ATOM      8  N   UNL     1      -3.898   1.389  -0.193  1.00  0.00    -0.198 NA
ATOM      9  H   UNL     1      -3.526   1.847   0.639  1.00  0.00     0.142 HD
BRANCH   8  10
ATOM     10  S   UNL     1      -3.383  -0.181  -0.089  1.00  0.00     0.241 S 
ATOM     11  O   UNL     1      -3.692  -0.823  -1.356  1.00  0.00    -0.207 OA
ATOM     12  O   UNL     1      -3.900  -0.674   1.157  1.00  0.00    -0.207 OA
BRANCH  10  13
ATOM     13  C   UNL     1      -1.623  -0.118   0.059  1.00  0.00     0.082 A 
ATOM     14  C   UNL     1       2.670  -0.076   0.059  1.00  0.00     0.044 C 
ATOM     15  C   UNL     1       1.170  -0.090   0.087  1.00  0.00    -0.051 A 
ATOM     16  C   UNL     1       0.480  -1.286  -0.146  1.00  0.00     0.005 A 
ATOM     17  C   UNL     1       0.448   1.078   0.366  1.00  0.00     0.005 A 
ATOM     18  C   UNL     1      -0.914  -1.300  -0.173  1.00  0.00     0.022 A 
ATOM     19  C   UNL     1      -0.948   1.064   0.367  1.00  0.00     0.022 A 
ENDBRANCH  10  13
ENDBRANCH   8  10
ENDBRANCH   7   8
BRANCH   7  20
ATOM     20  C   UNL     1      -4.105   1.835  -2.683  1.00  0.00     0.065 C 
BRANCH  20  21
ATOM     21  C   UNL     1      -4.503   2.783  -3.803  1.00  0.00    -0.043 A 
ATOM     22  C   UNL     1      -5.016   2.195  -4.976  1.00  0.00     0.004 A 
ATOM     23  C   UNL     1      -4.428   4.181  -3.764  1.00  0.00     0.043 A 
ATOM     24  C   UNL     1      -5.479   2.973  -6.039  1.00  0.00     0.003 A 
ATOM     25  C   UNL     1      -4.943   4.950  -4.809  1.00  0.00     0.123 A 
ATOM     26  C   UNL     1      -5.471   4.359  -5.944  1.00  0.00     0.039 A 
ATOM     27  F   UNL     1      -4.938   6.286  -4.703  1.00  0.00    -0.207 F 
ENDBRANCH  20  21
ENDBRANCH   7  20
ENDBRANCH   4   7
ENDBRANCH   2   3
ENDBRANCH   1   2
BRANCH   1  28
ATOM     28  C   UNL     1      -8.173   3.960   0.951  1.00  0.00     0.023 C 
BRANCH  28  29
ATOM     29  C   UNL     1      -9.233   4.529   0.019  1.00  0.00     0.116 C 
BRANCH  29  30
ATOM     30  N   UNL     1     -10.575   4.022   0.261  1.00  0.00    -0.352 N 
ATOM     31  C   UNL     1     -11.756   4.293  -0.403  1.00  0.00     0.251 C 
ATOM     32  H   UNL     1     -10.653   3.390   1.012  1.00  0.00     0.163 HD
ATOM     33  O   UNL     1     -12.817   3.875   0.051  1.00  0.00    -0.269 OA
BRANCH  31  34
ATOM     34  C   UNL     1     -11.733   4.942  -1.739  1.00  0.00     0.039 A 
ATOM     35  C   UNL     1     -12.590   4.430  -2.724  1.00  0.00     0.014 A 
ATOM     36  C   UNL     1     -10.754   5.864  -2.088  1.00  0.00     0.014 A 
ATOM     37  C   UNL     1     -12.290   4.632  -4.069  1.00  0.00     0.010 A 
ATOM     38  C   UNL     1     -10.381   5.970  -3.409  1.00  0.00     0.010 A 
ATOM     39  C   UNL     1     -11.110   5.295  -4.390  1.00  0.00    -0.014 A 
BRANCH  39  40
ATOM     40  C   UNL     1     -10.522   5.321  -5.718  1.00  0.00     0.031 A 
ATOM     41  C   UNL     1     -10.677   6.523  -6.556  1.00  0.00     0.074 A 
ATOM     42  C   UNL     1      -9.710   4.310  -6.094  1.00  0.00     0.049 A 
ATOM     43  N   UNL     1     -10.418   6.570  -7.816  1.00  0.00    -0.248 NA
ATOM     44  C   UNL     1     -11.168   7.785  -6.021  1.00  0.00     0.031 C 
ATOM     45  C   UNL     1      -8.803   4.271  -7.236  1.00  0.00     0.029 A 
ATOM     46  N   UNL     1      -9.706   2.993  -5.606  1.00  0.00    -0.354 N 
ATOM     47  C   UNL     1     -10.460   7.887  -8.210  1.00  0.00     0.074 A 
ATOM     48  C   UNL     1     -10.976   8.599  -7.063  1.00  0.00     0.031 C 
ATOM     49  C   UNL     1      -8.587   2.989  -7.569  1.00  0.00     0.029 A 
ATOM     50  C   UNL     1      -9.473   2.184  -6.748  1.00  0.00     0.049 A 
ATOM     51  H   UNL     1      -9.835   2.696  -4.676  1.00  0.00     0.167 HD
ATOM     52  C   UNL     1      -9.950   8.218  -9.431  1.00  0.00     0.037 A 
ATOM     53  C   UNL     1     -10.459   1.370  -7.229  1.00  0.00     0.037 A 
ATOM     54  C   UNL     1      -9.570   7.019 -10.181  1.00  0.00     0.049 A 
ATOM     55  C   UNL     1     -10.909   1.716  -8.636  1.00  0.00     0.074 A 
ATOM     56  C   UNL     1      -8.382   6.335 -10.386  1.00  0.00     0.029 A 
ATOM     57  N   UNL     1     -10.576   6.161 -10.588  1.00  0.00    -0.354 N 
ATOM     58  N   UNL     1     -10.531   2.786  -9.281  1.00  0.00    -0.248 NA
ATOM     59  C   UNL     1     -11.886   0.932  -9.391  1.00  0.00     0.031 C 
ATOM     60  C   UNL     1      -8.700   5.034 -10.878  1.00  0.00     0.029 A 
ATOM     61  C   UNL     1     -10.076   4.937 -10.985  1.00  0.00     0.049 A 
ATOM     62  H   UNL     1     -11.532   6.395 -10.594  1.00  0.00     0.167 HD
ATOM     63  C   UNL     1     -11.187   2.857 -10.475  1.00  0.00     0.074 A 
ATOM     64  C   UNL     1     -12.038   1.682 -10.496  1.00  0.00     0.031 C 
ATOM     65  C   UNL     1     -11.008   3.884 -11.353  1.00  0.00     0.037 A 
BRANCH  52  66
ATOM     66  C   UNL     1      -9.610   9.622  -9.880  1.00  0.00     0.064 A 
ATOM     67  C   UNL     1      -8.613   9.836 -10.857  1.00  0.00     0.173 A 
ATOM     68  C   UNL     1     -10.190  10.799  -9.370  1.00  0.00     0.173 A 
ATOM     69  F   UNL     1      -8.032   8.815 -11.499  1.00  0.00    -0.203 F 
ATOM     70  C   UNL     1      -8.169  11.114 -11.213  1.00  0.00     0.198 A 
ATOM     71  C   UNL     1      -9.708  12.075  -9.682  1.00  0.00     0.198 A 
ATOM     72  F   UNL     1     -11.287  10.768  -8.607  1.00  0.00    -0.203 F 
ATOM     73  F   UNL     1      -7.221  11.250 -12.151  1.00  0.00    -0.200 F 
ATOM     74  C   UNL     1      -8.692  12.232 -10.600  1.00  0.00     0.200 A 
ATOM     75  F   UNL     1     -10.248  13.151  -9.092  1.00  0.00    -0.200 F 
ATOM     76  F   UNL     1      -8.241  13.455 -10.912  1.00  0.00    -0.200 F 
ENDBRANCH  52  66
BRANCH  53  77
ATOM     77  C   UNL     1     -11.341   0.854  -6.143  1.00  0.00     0.064 A 
ATOM     78  C   UNL     1     -10.741   0.151  -5.076  1.00  0.00     0.173 A 
ATOM     79  C   UNL     1     -12.620   1.378  -5.931  1.00  0.00     0.173 A 
ATOM     80  F   UNL     1      -9.516  -0.379  -5.227  1.00  0.00    -0.203 F 
ATOM     81  C   UNL     1     -11.322   0.123  -3.811  1.00  0.00     0.198 A 
ATOM     82  C   UNL     1     -13.216   1.314  -4.671  1.00  0.00     0.198 A 
ATOM     83  F   UNL     1     -13.246   2.061  -6.901  1.00  0.00    -0.203 F 
ATOM     84  F   UNL     1     -10.653  -0.413  -2.780  1.00  0.00    -0.200 F 
ATOM     85  C   UNL     1     -12.547   0.731  -3.603  1.00  0.00     0.200 A 
ATOM     86  F   UNL     1     -14.396   1.917  -4.464  1.00  0.00    -0.200 F 
ATOM     87  F   UNL     1     -13.063   0.797  -2.368  1.00  0.00    -0.200 F 
ENDBRANCH  53  77
BRANCH  65  88
ATOM     88  C   UNL     1     -11.728   3.955 -12.660  1.00  0.00     0.064 A 
ATOM     89  C   UNL     1     -11.746   2.875 -13.554  1.00  0.00     0.173 A 
ATOM     90  C   UNL     1     -12.332   5.150 -13.099  1.00  0.00     0.173 A 
ATOM     91  F   UNL     1     -11.151   1.715 -13.236  1.00  0.00    -0.203 F 
ATOM     92  C   UNL     1     -12.369   2.972 -14.798  1.00  0.00     0.198 A 
ATOM     93  C   UNL     1     -12.905   5.261 -14.362  1.00  0.00     0.198 A 
ATOM     94  F   UNL     1     -12.402   6.228 -12.303  1.00  0.00    -0.203 F 
ATOM     95  F   UNL     1     -12.416   1.902 -15.603  1.00  0.00    -0.200 F 
ATOM     96  C   UNL     1     -12.937   4.168 -15.206  1.00  0.00     0.200 A 
ATOM     97  F   UNL     1     -13.432   6.430 -14.752  1.00  0.00    -0.200 F 
ATOM     98  F   UNL     1     -13.519   4.264 -16.408  1.00  0.00    -0.200 F 
ENDBRANCH  65  88
ENDBRANCH  39  40
ENDBRANCH  31  34
ENDBRANCH  29  30
ENDBRANCH  28  29
ENDBRANCH   1  28
TORSDOF 16
