REMARK SMILES CCC1(CC)CCN(c2ccc(/C=C/C(=O)NCCCCNC(=O)c3ccc(-c4c5nc(c(-c6c(F)c(F)c(F)c(F)c6F)c6ccc([nH]6)c(-c6c(F)c(F)c(F)c(F)c6F)c6nc(c(-c7c(F)c(F)c(F)c(F)c7F)c7ccc4[nH]7)C=C6)C=C5)cc3)cc2F)C1
REMARK SMILES IDX 19 1 18 2 17 3 15 4 16 5 14 7 13 8 12 9 9 10 10 11 89 12
REMARK SMILES IDX 11 13 88 14 90 15 8 16 3 17 6 18 91 19 7 20 2 21 1 22 4 23
REMARK SMILES IDX 5 24 20 25 21 26 22 27 23 28 24 30 25 31 26 32 87 33 27 34
REMARK SMILES IDX 86 35 28 36 29 37 30 38 80 39 31 40 85 41 79 42 81 43 32 44
REMARK SMILES IDX 84 45 78 46 77 47 33 49 65 50 45 51 64 52 46 53 49 54 63 55
REMARK SMILES IDX 82 56 47 57 48 58 62 60 83 61 50 62 34 63 35 64 43 65 36 66
REMARK SMILES IDX 37 67 41 68 44 69 38 70 39 71 42 72 40 73 66 74 67 75 75 76
REMARK SMILES IDX 68 77 69 78 73 79 76 80 70 81 71 82 74 83 72 84 51 85 52 86
REMARK SMILES IDX 60 87 53 88 54 89 58 90 61 91 55 92 56 93 59 94 57 95
REMARK H PARENT 17 6 22 29 81 48 49 59
REMARK Flexibility Score: inf
ROOT
ATOM      1  C   UNL     1       7.961   8.366   3.713  1.00  0.00     0.023 C 
ENDROOT
BRANCH   1   2
ATOM      2  C   UNL     1       7.530   8.606   2.265  1.00  0.00     0.116 C 
BRANCH   2   3
ATOM      3  N   UNL     1       8.522   8.100   1.334  1.00  0.00    -0.353 N 
ATOM      4  C   UNL     1       8.489   7.010   0.520  1.00  0.00     0.243 C 
ATOM      5  O   UNL     1       9.409   6.810  -0.269  1.00  0.00    -0.270 OA
ATOM      6  H   UNL     1       9.350   8.630   1.284  1.00  0.00     0.163 HD
BRANCH   4   7
ATOM      7  C   UNL     1       7.312   6.114   0.507  1.00  0.00     0.072 C 
ATOM      8  C   UNL     1       6.760   5.591   1.610  1.00  0.00     0.014 C 
BRANCH   8   9
ATOM      9  C   UNL     1       5.581   4.722   1.583  1.00  0.00    -0.022 A 
ATOM     10  C   UNL     1       3.298   3.032   1.646  1.00  0.00     0.073 A 
ATOM     11  C   UNL     1       4.364   2.785   0.770  1.00  0.00     0.029 A 
ATOM     12  C   UNL     1       3.416   4.143   2.495  1.00  0.00     0.147 A 
ATOM     13  C   UNL     1       5.489   3.619   0.731  1.00  0.00     0.010 A 
ATOM     14  C   UNL     1       4.537   4.973   2.475  1.00  0.00     0.049 A 
ATOM     15  F   UNL     1       2.466   4.409   3.406  1.00  0.00    -0.205 F 
BRANCH  10  16
ATOM     16  N   UNL     1       2.228   2.158   1.667  1.00  0.00    -0.369 N 
ATOM     17  C   UNL     1       1.014   0.242   2.401  1.00  0.00    -0.011 C 
ATOM     18  C   UNL     1       0.151   1.509   2.572  1.00  0.00     0.030 C 
ATOM     19  C   UNL     1       2.435   0.836   2.257  1.00  0.00     0.123 C 
ATOM     20  C   UNL     1       0.847   2.607   1.774  1.00  0.00     0.117 C 
BRANCH  17  21
ATOM     21  C   UNL     1       0.588  -0.614   1.173  1.00  0.00     0.005 C 
ATOM     22  C   UNL     1       0.899  -0.077  -0.219  1.00  0.00     0.004 C 
ENDBRANCH  17  21
BRANCH  17  23
ATOM     23  C   UNL     1       0.953  -0.638   3.682  1.00  0.00     0.005 C 
ATOM     24  C   UNL     1      -0.431  -1.168   4.037  1.00  0.00     0.004 C 
ENDBRANCH  17  23
ENDBRANCH  10  16
ENDBRANCH   8   9
ENDBRANCH   4   7
ENDBRANCH   2   3
ENDBRANCH   1   2
BRANCH   1  25
ATOM     25  C   UNL     1       9.066   9.304   4.208  1.00  0.00     0.023 C 
BRANCH  25  26
ATOM     26  C   UNL     1       8.706  10.786   4.206  1.00  0.00     0.116 C 
BRANCH  26  27
ATOM     27  N   UNL     1       7.530  11.096   5.004  1.00  0.00    -0.352 N 
ATOM     28  C   UNL     1       7.255  12.238   5.718  1.00  0.00     0.251 C 
ATOM     29  H   UNL     1       6.839  10.395   5.036  1.00  0.00     0.163 HD
ATOM     30  O   UNL     1       6.259  12.308   6.424  1.00  0.00    -0.269 OA
BRANCH  28  31
ATOM     31  C   UNL     1       8.204  13.370   5.660  1.00  0.00     0.039 A 
ATOM     32  C   UNL     1       8.648  13.934   6.859  1.00  0.00     0.014 A 
ATOM     33  C   UNL     1       8.677  13.847   4.435  1.00  0.00     0.014 A 
ATOM     34  C   UNL     1       9.622  14.932   6.830  1.00  0.00     0.010 A 
ATOM     35  C   UNL     1       9.693  14.797   4.411  1.00  0.00     0.010 A 
ATOM     36  C   UNL     1      10.180  15.343   5.608  1.00  0.00    -0.014 A 
BRANCH  36  37
ATOM     37  C   UNL     1      11.280  16.337   5.562  1.00  0.00     0.031 A 
ATOM     38  C   UNL     1      11.056  17.680   4.929  1.00  0.00     0.074 A 
ATOM     39  C   UNL     1      12.495  16.008   6.045  1.00  0.00     0.049 A 
ATOM     40  N   UNL     1      11.911  18.649   4.723  1.00  0.00    -0.248 NA
ATOM     41  C   UNL     1       9.697  17.964   4.443  1.00  0.00     0.031 C 
ATOM     42  C   UNL     1      12.841  14.724   6.657  1.00  0.00     0.029 A 
ATOM     43  N   UNL     1      13.664  16.725   6.094  1.00  0.00    -0.354 N 
ATOM     44  C   UNL     1      11.197  19.652   4.083  1.00  0.00     0.074 A 
ATOM     45  C   UNL     1       9.852  19.156   3.885  1.00  0.00     0.031 C 
ATOM     46  C   UNL     1      14.124  14.757   7.051  1.00  0.00     0.029 A 
ATOM     47  C   UNL     1      14.703  16.046   6.683  1.00  0.00     0.049 A 
ATOM     48  H   UNL     1      13.750  17.639   5.740  1.00  0.00     0.167 HD
ATOM     49  C   UNL     1      11.618  20.885   3.719  1.00  0.00     0.037 A 
ATOM     50  C   UNL     1      15.978  16.421   6.899  1.00  0.00     0.037 A 
ATOM     51  C   UNL     1      12.949  21.385   3.939  1.00  0.00     0.049 A 
ATOM     52  C   UNL     1      16.426  17.788   6.458  1.00  0.00     0.074 A 
ATOM     53  C   UNL     1      13.464  22.631   3.628  1.00  0.00     0.029 A 
ATOM     54  N   UNL     1      13.974  20.665   4.535  1.00  0.00    -0.354 N 
ATOM     55  N   UNL     1      15.733  18.738   5.880  1.00  0.00    -0.248 NA
ATOM     56  C   UNL     1      17.834  18.135   6.699  1.00  0.00     0.031 C 
ATOM     57  C   UNL     1      14.809  22.655   4.006  1.00  0.00     0.029 A 
ATOM     58  C   UNL     1      15.121  21.439   4.592  1.00  0.00     0.049 A 
ATOM     59  H   UNL     1      13.897  19.741   4.868  1.00  0.00     0.167 HD
ATOM     60  C   UNL     1      16.608  19.803   5.715  1.00  0.00     0.074 A 
ATOM     61  C   UNL     1      17.883  19.386   6.261  1.00  0.00     0.031 C 
ATOM     62  C   UNL     1      16.375  21.015   5.158  1.00  0.00     0.037 A 
BRANCH  49  63
ATOM     63  C   UNL     1      10.626  21.798   3.065  1.00  0.00     0.064 A 
ATOM     64  C   UNL     1      10.754  22.145   1.712  1.00  0.00     0.173 A 
ATOM     65  C   UNL     1       9.589  22.391   3.801  1.00  0.00     0.173 A 
ATOM     66  F   UNL     1      11.732  21.610   0.966  1.00  0.00    -0.203 F 
ATOM     67  C   UNL     1       9.889  23.064   1.124  1.00  0.00     0.198 A 
ATOM     68  C   UNL     1       8.710  23.290   3.203  1.00  0.00     0.198 A 
ATOM     69  F   UNL     1       9.418  22.081   5.095  1.00  0.00    -0.203 F 
ATOM     70  F   UNL     1      10.049  23.406  -0.162  1.00  0.00    -0.200 F 
ATOM     71  C   UNL     1       8.867  23.634   1.869  1.00  0.00     0.200 A 
ATOM     72  F   UNL     1       7.709  23.821   3.919  1.00  0.00    -0.200 F 
ATOM     73  F   UNL     1       8.031  24.513   1.300  1.00  0.00    -0.200 F 
ENDBRANCH  49  63
BRANCH  50  74
ATOM     74  C   UNL     1      16.912  15.505   7.603  1.00  0.00     0.064 A 
ATOM     75  C   UNL     1      17.382  14.329   7.001  1.00  0.00     0.173 A 
ATOM     76  C   UNL     1      17.348  15.792   8.904  1.00  0.00     0.173 A 
ATOM     77  F   UNL     1      16.992  14.007   5.759  1.00  0.00    -0.203 F 
ATOM     78  C   UNL     1      18.243  13.469   7.680  1.00  0.00     0.198 A 
ATOM     79  C   UNL     1      18.229  14.945   9.572  1.00  0.00     0.198 A 
ATOM     80  F   UNL     1      16.942  16.916   9.512  1.00  0.00    -0.203 F 
ATOM     81  F   UNL     1      18.658  12.338   7.093  1.00  0.00    -0.200 F 
ATOM     82  C   UNL     1      18.671  13.780   8.962  1.00  0.00     0.200 A 
ATOM     83  F   UNL     1      18.659  15.263  10.800  1.00  0.00    -0.200 F 
ATOM     84  F   UNL     1      19.513  12.962   9.607  1.00  0.00    -0.200 F 
ENDBRANCH  50  74
BRANCH  62  85
ATOM     85  C   UNL     1      17.505  22.001   5.138  1.00  0.00     0.064 A 
ATOM     86  C   UNL     1      17.469  23.136   5.963  1.00  0.00     0.173 A 
ATOM     87  C   UNL     1      18.578  21.868   4.246  1.00  0.00     0.173 A 
ATOM     88  F   UNL     1      16.458  23.312   6.827  1.00  0.00    -0.203 F 
ATOM     89  C   UNL     1      18.459  24.110   5.882  1.00  0.00     0.198 A 
ATOM     90  C   UNL     1      19.580  22.832   4.186  1.00  0.00     0.198 A 
ATOM     91  F   UNL     1      18.662  20.793   3.447  1.00  0.00    -0.203 F 
ATOM     92  F   UNL     1      18.386  25.203   6.654  1.00  0.00    -0.200 F 
ATOM     93  C   UNL     1      19.514  23.957   4.996  1.00  0.00     0.200 A 
ATOM     94  F   UNL     1      20.611  22.672   3.345  1.00  0.00    -0.200 F 
ATOM     95  F   UNL     1      20.470  24.893   4.923  1.00  0.00    -0.200 F 
ENDBRANCH  62  85
ENDBRANCH  36  37
ENDBRANCH  28  31
ENDBRANCH  26  27
ENDBRANCH  25  26
ENDBRANCH   1  25
TORSDOF 15
