REMARK SMILES Cn1ccc(-c2n[nH]c(=O)n2-c2ccc(C(=O)NCCCCNC(=O)c3ccc(-c4c5nc(c(-c6c(F)c(F)c(F)c(F)c6F)c6ccc([nH]6)c(-c6c(F)c(F)c(F)c(F)c6F)c6nc(c(-c7c(F)c(F)c(F)c(F)c7F)c7ccc4[nH]7)C=C6)C=C5)cc3)cc2)n1
REMARK SMILES IDX 20 1 19 2 18 3 16 4 17 5 15 7 12 8 13 9 90 10 14 11 89 12
REMARK SMILES IDX 11 13 6 14 7 15 8 16 9 17 10 19 5 20 1 21 2 22 3 23 91 24
REMARK SMILES IDX 4 25 21 26 22 27 23 28 24 29 25 31 26 32 27 33 88 34 28 35
REMARK SMILES IDX 87 36 29 37 30 38 31 39 81 40 32 41 86 42 80 43 82 44 33 45
REMARK SMILES IDX 85 46 79 47 78 48 34 50 66 51 46 52 65 53 47 54 50 55 64 56
REMARK SMILES IDX 83 57 48 58 49 59 63 61 84 62 51 63 35 64 36 65 44 66 37 67
REMARK SMILES IDX 38 68 42 69 45 70 39 71 40 72 43 73 41 74 67 75 68 76 76 77
REMARK SMILES IDX 69 78 70 79 74 80 77 81 71 82 72 83 75 84 73 85 52 86 53 87
REMARK SMILES IDX 61 88 54 89 55 90 59 91 62 92 56 93 57 94 60 95 58 96
REMARK H PARENT 18 6 8 18 23 30 82 49 50 60
REMARK Flexibility Score: inf
ROOT
ATOM      1  C   UNL     1       1.295   0.624   7.329  1.00  0.00     0.023 C 
ENDROOT
BRANCH   1   2
ATOM      2  C   UNL     1       0.045   1.054   6.546  1.00  0.00     0.116 C 
BRANCH   2   3
ATOM      3  N   UNL     1      -0.117   2.496   6.564  1.00  0.00    -0.352 N 
ATOM      4  C   UNL     1       0.279   3.500   5.713  1.00  0.00     0.251 C 
ATOM      5  O   UNL     1      -0.023   4.650   6.036  1.00  0.00    -0.269 OA
ATOM      6  H   UNL     1      -0.615   2.823   7.348  1.00  0.00     0.163 HD
BRANCH   4   7
ATOM      7  C   UNL     1       0.991   3.274   4.419  1.00  0.00     0.039 A 
ATOM      8  C   UNL     1       2.117   2.939   1.853  1.00  0.00     0.052 A 
ATOM      9  C   UNL     1       1.558   4.164   2.209  1.00  0.00     0.028 A 
ATOM     10  C   UNL     1       2.191   1.920   2.805  1.00  0.00     0.028 A 
ATOM     11  C   UNL     1       0.969   4.316   3.473  1.00  0.00     0.016 A 
ATOM     12  C   UNL     1       1.680   2.109   4.088  1.00  0.00     0.016 A 
BRANCH   8  13
ATOM     13  N   UNL     1       2.679   2.728   0.588  1.00  0.00    -0.242 N 
ATOM     14  C   UNL     1       2.560   1.632  -0.214  1.00  0.00     0.189 A 
ATOM     15  N   UNL     1       3.483   1.518  -1.131  1.00  0.00    -0.150 NA
ATOM     16  N   UNL     1       4.255   2.636  -0.949  1.00  0.00    -0.226 N 
ATOM     17  C   UNL     1       3.778   3.402   0.115  1.00  0.00     0.348 A 
ATOM     18  H   UNL     1       5.040   2.867  -1.495  1.00  0.00     0.195 HD
ATOM     19  O   UNL     1       4.326   4.405   0.556  1.00  0.00    -0.246 OA
BRANCH  14  20
ATOM     20  C   UNL     1       1.464   0.682  -0.110  1.00  0.00     0.130 A 
ATOM     21  C   UNL     1      -1.972   0.017   0.008  1.00  0.00     0.173 C 
ATOM     22  N   UNL     1      -0.530  -0.051   0.005  1.00  0.00    -0.275 N 
ATOM     23  C   UNL     1       0.235  -1.173  -0.103  1.00  0.00     0.109 A 
ATOM     24  N   UNL     1       0.190   1.083   0.069  1.00  0.00    -0.170 NA
ATOM     25  C   UNL     1       1.533  -0.732  -0.218  1.00  0.00     0.054 A 
ENDBRANCH  14  20
ENDBRANCH   8  13
ENDBRANCH   4   7
ENDBRANCH   2   3
ENDBRANCH   1   2
BRANCH   1  26
ATOM     26  C   UNL     1       1.150   0.648   8.858  1.00  0.00     0.023 C 
BRANCH  26  27
ATOM     27  C   UNL     1       0.199  -0.399   9.422  1.00  0.00     0.116 C 
BRANCH  27  28
ATOM     28  N   UNL     1       0.615  -1.781   9.141  1.00  0.00    -0.352 N 
ATOM     29  C   UNL     1      -0.114  -2.952   9.310  1.00  0.00     0.251 C 
ATOM     30  H   UNL     1       1.527  -1.891   8.787  1.00  0.00     0.163 HD
ATOM     31  O   UNL     1       0.423  -4.041   9.406  1.00  0.00    -0.269 OA
BRANCH  29  32
ATOM     32  C   UNL     1      -1.581  -2.838   9.319  1.00  0.00     0.039 A 
ATOM     33  C   UNL     1      -2.416  -3.528  10.204  1.00  0.00     0.014 A 
ATOM     34  C   UNL     1      -2.097  -1.920   8.418  1.00  0.00     0.014 A 
ATOM     35  C   UNL     1      -3.779  -3.233  10.192  1.00  0.00     0.010 A 
ATOM     36  C   UNL     1      -3.341  -1.423   8.630  1.00  0.00     0.010 A 
ATOM     37  C   UNL     1      -4.223  -2.173   9.392  1.00  0.00    -0.014 A 
BRANCH  37  38
ATOM     38  C   UNL     1      -5.610  -1.757   9.279  1.00  0.00     0.031 A 
ATOM     39  C   UNL     1      -6.197  -1.176  10.513  1.00  0.00     0.074 A 
ATOM     40  C   UNL     1      -6.164  -1.621   8.050  1.00  0.00     0.049 A 
ATOM     41  N   UNL     1      -7.215  -1.603  11.181  1.00  0.00    -0.248 NA
ATOM     42  C   UNL     1      -5.497  -0.052  11.158  1.00  0.00     0.031 C 
ATOM     43  C   UNL     1      -5.548  -1.833   6.728  1.00  0.00     0.029 A 
ATOM     44  N   UNL     1      -7.385  -1.129   7.720  1.00  0.00    -0.354 N 
ATOM     45  C   UNL     1      -7.396  -0.709  12.235  1.00  0.00     0.074 A 
ATOM     46  C   UNL     1      -6.215   0.112  12.270  1.00  0.00     0.031 C 
ATOM     47  C   UNL     1      -6.304  -1.253   5.769  1.00  0.00     0.029 A 
ATOM     48  C   UNL     1      -7.533  -0.789   6.377  1.00  0.00     0.049 A 
ATOM     49  H   UNL     1      -8.109  -1.020   8.378  1.00  0.00     0.167 HD
ATOM     50  C   UNL     1      -8.603  -0.586  12.856  1.00  0.00     0.037 A 
ATOM     51  C   UNL     1      -8.589  -0.126   5.843  1.00  0.00     0.037 A 
ATOM     52  C   UNL     1      -9.467  -1.687  12.508  1.00  0.00     0.049 A 
ATOM     53  C   UNL     1      -9.709  -0.261   6.815  1.00  0.00     0.074 A 
ATOM     54  C   UNL     1      -9.419  -3.050  12.720  1.00  0.00     0.029 A 
ATOM     55  N   UNL     1     -10.364  -1.497  11.485  1.00  0.00    -0.354 N 
ATOM     56  N   UNL     1     -10.270  -1.405   7.107  1.00  0.00    -0.248 NA
ATOM     57  C   UNL     1      -9.835   0.776   7.829  1.00  0.00     0.031 C 
ATOM     58  C   UNL     1      -9.882  -3.623  11.499  1.00  0.00     0.029 A 
ATOM     59  C   UNL     1     -10.271  -2.584  10.652  1.00  0.00     0.049 A 
ATOM     60  H   UNL     1     -10.963  -0.724  11.370  1.00  0.00     0.167 HD
ATOM     61  C   UNL     1     -10.454  -1.371   8.483  1.00  0.00     0.074 A 
ATOM     62  C   UNL     1     -10.210   0.020   8.866  1.00  0.00     0.031 C 
ATOM     63  C   UNL     1     -10.482  -2.518   9.224  1.00  0.00     0.037 A 
BRANCH  50  64
ATOM     64  C   UNL     1      -9.141   0.669  13.499  1.00  0.00     0.064 A 
ATOM     65  C   UNL     1     -10.360   0.603  14.207  1.00  0.00     0.173 A 
ATOM     66  C   UNL     1      -8.678   1.970  13.211  1.00  0.00     0.173 A 
ATOM     67  F   UNL     1     -10.896  -0.581  14.539  1.00  0.00    -0.203 F 
ATOM     68  C   UNL     1     -11.102   1.747  14.512  1.00  0.00     0.198 A 
ATOM     69  C   UNL     1      -9.396   3.112  13.565  1.00  0.00     0.198 A 
ATOM     70  F   UNL     1      -7.578   2.192  12.483  1.00  0.00    -0.203 F 
ATOM     71  F   UNL     1     -12.315   1.625  15.067  1.00  0.00    -0.200 F 
ATOM     72  C   UNL     1     -10.623   3.001  14.181  1.00  0.00     0.200 A 
ATOM     73  F   UNL     1      -8.920   4.318  13.225  1.00  0.00    -0.200 F 
ATOM     74  F   UNL     1     -11.361   4.094  14.412  1.00  0.00    -0.200 F 
ENDBRANCH  50  64
BRANCH  51  75
ATOM     75  C   UNL     1      -8.560   0.914   4.783  1.00  0.00     0.064 A 
ATOM     76  C   UNL     1      -9.726   1.297   4.102  1.00  0.00     0.173 A 
ATOM     77  C   UNL     1      -7.435   1.747   4.612  1.00  0.00     0.173 A 
ATOM     78  F   UNL     1     -10.853   0.585   4.245  1.00  0.00    -0.203 F 
ATOM     79  C   UNL     1      -9.770   2.455   3.314  1.00  0.00     0.198 A 
ATOM     80  C   UNL     1      -7.480   2.900   3.825  1.00  0.00     0.198 A 
ATOM     81  F   UNL     1      -6.296   1.509   5.279  1.00  0.00    -0.203 F 
ATOM     82  F   UNL     1     -10.916   2.818   2.721  1.00  0.00    -0.200 F 
ATOM     83  C   UNL     1      -8.651   3.261   3.186  1.00  0.00     0.200 A 
ATOM     84  F   UNL     1      -6.399   3.688   3.740  1.00  0.00    -0.200 F 
ATOM     85  F   UNL     1      -8.709   4.400   2.482  1.00  0.00    -0.200 F 
ENDBRANCH  51  75
BRANCH  63  86
ATOM     86  C   UNL     1     -10.508  -3.837   8.495  1.00  0.00     0.064 A 
ATOM     87  C   UNL     1      -9.454  -4.319   7.698  1.00  0.00     0.173 A 
ATOM     88  C   UNL     1     -11.555  -4.724   8.772  1.00  0.00     0.173 A 
ATOM     89  F   UNL     1      -8.370  -3.574   7.464  1.00  0.00    -0.203 F 
ATOM     90  C   UNL     1      -9.463  -5.615   7.183  1.00  0.00     0.198 A 
ATOM     91  C   UNL     1     -11.547  -6.029   8.287  1.00  0.00     0.198 A 
ATOM     92  F   UNL     1     -12.561  -4.342   9.575  1.00  0.00    -0.203 F 
ATOM     93  F   UNL     1      -8.441  -6.048   6.429  1.00  0.00    -0.200 F 
ATOM     94  C   UNL     1     -10.506  -6.473   7.487  1.00  0.00     0.200 A 
ATOM     95  F   UNL     1     -12.532  -6.870   8.628  1.00  0.00    -0.200 F 
ATOM     96  F   UNL     1     -10.493  -7.735   7.036  1.00  0.00    -0.200 F 
ENDBRANCH  63  86
ENDBRANCH  37  38
ENDBRANCH  29  32
ENDBRANCH  27  28
ENDBRANCH  26  27
ENDBRANCH   1  26
TORSDOF 13
