REMARK SMILES C=CCSc1ccccc1C(=O)NCCCCNC(=O)c1ccc(-c2c3nc(c(-c4c(F)c(F)c(F)c(F)c4F)c4ccc([nH]4)c(-c4c(F)c(F)c(F)c(F)c4F)c4nc(c(-c5c(F)c(F)c(F)c(F)c5F)c5ccc2[nH]5)C=C4)C=C3)cc1
REMARK SMILES IDX 15 1 14 2 13 3 11 4 12 5 10 7 5 8 6 9 7 10 9 11 8 12 4 13
REMARK SMILES IDX 3 14 2 15 1 16 16 17 17 18 18 19 19 20 20 22 21 23 22 24
REMARK SMILES IDX 83 25 23 26 82 27 24 28 25 29 26 30 76 31 27 32 81 33 75 34
REMARK SMILES IDX 77 35 28 36 80 37 74 38 73 39 29 41 61 42 41 43 60 44 42 45
REMARK SMILES IDX 45 46 59 47 78 48 43 49 44 50 58 52 79 53 46 54 30 55 31 56
REMARK SMILES IDX 39 57 32 58 33 59 37 60 40 61 34 62 35 63 38 64 36 65 62 66
REMARK SMILES IDX 63 67 71 68 64 69 65 70 69 71 72 72 66 73 67 74 70 75 68 76
REMARK SMILES IDX 47 77 48 78 56 79 49 80 50 81 54 82 57 83 51 84 52 85 55 86
REMARK SMILES IDX 53 87
REMARK H PARENT 13 6 18 21 77 40 45 51
REMARK Flexibility Score: inf
ROOT
ATOM      1  C   UNL     1      -2.636  -1.516  -0.264  1.00  0.00     0.023 C 
ENDROOT
BRANCH   1   2
ATOM      2  C   UNL     1      -3.306  -0.860  -1.476  1.00  0.00     0.116 C 
BRANCH   2   3
ATOM      3  N   UNL     1      -3.140   0.572  -1.362  1.00  0.00    -0.352 N 
ATOM      4  C   UNL     1      -2.192   1.434  -1.841  1.00  0.00     0.252 C 
ATOM      5  O   UNL     1      -2.155   2.547  -1.307  1.00  0.00    -0.269 OA
ATOM      6  H   UNL     1      -3.848   1.012  -0.839  1.00  0.00     0.163 HD
BRANCH   4   7
ATOM      7  C   UNL     1      -1.316   1.205  -3.027  1.00  0.00     0.053 A 
ATOM      8  C   UNL     1      -0.433   0.148  -3.317  1.00  0.00     0.020 A 
ATOM      9  C   UNL     1       0.334   0.216  -4.504  1.00  0.00     0.016 A 
ATOM     10  C   UNL     1       0.283   1.316  -5.360  1.00  0.00     0.001 A 
ATOM     11  C   UNL     1      -1.348   2.312  -3.913  1.00  0.00     0.015 A 
ATOM     12  C   UNL     1      -0.556   2.373  -5.059  1.00  0.00     0.001 A 
BRANCH   8  13
ATOM     13  S   UNL     1      -0.101  -1.348  -2.399  1.00  0.00    -0.121 SA
BRANCH  13  14
ATOM     14  C   UNL     1       0.512  -0.709  -0.818  1.00  0.00     0.101 C 
BRANCH  14  15
ATOM     15  C   UNL     1       1.982  -0.462  -0.861  1.00  0.00    -0.024 C 
ATOM     16  C   UNL     1       2.550   0.624  -0.322  1.00  0.00     0.005 C 
ENDBRANCH  14  15
ENDBRANCH  13  14
ENDBRANCH   8  13
ENDBRANCH   4   7
ENDBRANCH   2   3
ENDBRANCH   1   2
BRANCH   1  17
ATOM     17  C   UNL     1      -3.545  -1.784   0.923  1.00  0.00     0.023 C 
BRANCH  17  18
ATOM     18  C   UNL     1      -4.507  -2.936   0.707  1.00  0.00     0.116 C 
BRANCH  18  19
ATOM     19  N   UNL     1      -3.848  -4.204   0.413  1.00  0.00    -0.352 N 
ATOM     20  C   UNL     1      -4.104  -5.456   0.928  1.00  0.00     0.251 C 
ATOM     21  H   UNL     1      -3.119  -4.159  -0.246  1.00  0.00     0.163 HD
ATOM     22  O   UNL     1      -3.401  -6.412   0.637  1.00  0.00    -0.269 OA
BRANCH  20  23
ATOM     23  C   UNL     1      -5.218  -5.609   1.884  1.00  0.00     0.039 A 
ATOM     24  C   UNL     1      -4.988  -6.269   3.093  1.00  0.00     0.014 A 
ATOM     25  C   UNL     1      -6.449  -5.008   1.623  1.00  0.00     0.014 A 
ATOM     26  C   UNL     1      -5.968  -6.234   4.085  1.00  0.00     0.010 A 
ATOM     27  C   UNL     1      -7.369  -4.873   2.651  1.00  0.00     0.010 A 
ATOM     28  C   UNL     1      -7.141  -5.487   3.892  1.00  0.00    -0.014 A 
BRANCH  28  29
ATOM     29  C   UNL     1      -8.159  -5.336   4.960  1.00  0.00     0.031 A 
ATOM     30  C   UNL     1      -9.569  -5.792   4.706  1.00  0.00     0.074 A 
ATOM     31  C   UNL     1      -7.845  -4.697   6.105  1.00  0.00     0.049 A 
ATOM     32  N   UNL     1     -10.641  -5.620   5.437  1.00  0.00    -0.248 NA
ATOM     33  C   UNL     1      -9.820  -6.486   3.432  1.00  0.00     0.031 C 
ATOM     34  C   UNL     1      -6.534  -4.135   6.435  1.00  0.00     0.029 A 
ATOM     35  N   UNL     1      -8.617  -4.398   7.200  1.00  0.00    -0.354 N 
ATOM     36  C   UNL     1     -11.690  -6.140   4.691  1.00  0.00     0.074 A 
ATOM     37  C   UNL     1     -11.140  -6.582   3.430  1.00  0.00     0.031 C 
ATOM     38  C   UNL     1      -6.584  -3.587   7.660  1.00  0.00     0.029 A 
ATOM     39  C   UNL     1      -7.938  -3.727   8.187  1.00  0.00     0.049 A 
ATOM     40  H   UNL     1      -9.568  -4.642   7.271  1.00  0.00     0.167 HD
ATOM     41  C   UNL     1     -12.991  -6.265   5.039  1.00  0.00     0.037 A 
ATOM     42  C   UNL     1      -8.364  -3.276   9.382  1.00  0.00     0.037 A 
ATOM     43  C   UNL     1     -13.516  -5.899   6.326  1.00  0.00     0.049 A 
ATOM     44  C   UNL     1      -9.796  -3.507   9.780  1.00  0.00     0.074 A 
ATOM     45  C   UNL     1     -14.796  -6.077   6.818  1.00  0.00     0.029 A 
ATOM     46  N   UNL     1     -12.776  -5.298   7.333  1.00  0.00    -0.354 N 
ATOM     47  N   UNL     1     -10.764  -4.066   9.095  1.00  0.00    -0.248 NA
ATOM     48  C   UNL     1     -10.194  -3.054  11.120  1.00  0.00     0.031 C 
ATOM     49  C   UNL     1     -14.837  -5.561   8.117  1.00  0.00     0.029 A 
ATOM     50  C   UNL     1     -13.575  -5.093   8.445  1.00  0.00     0.049 A 
ATOM     51  H   UNL     1     -11.825  -5.052   7.266  1.00  0.00     0.167 HD
ATOM     52  C   UNL     1     -11.875  -4.056   9.927  1.00  0.00     0.074 A 
ATOM     53  C   UNL     1     -11.458  -3.448  11.174  1.00  0.00     0.031 C 
ATOM     54  C   UNL     1     -13.130  -4.505   9.680  1.00  0.00     0.037 A 
BRANCH  41  55
ATOM     55  C   UNL     1     -13.930  -6.843   4.022  1.00  0.00     0.064 A 
ATOM     56  C   UNL     1     -13.878  -8.198   3.660  1.00  0.00     0.173 A 
ATOM     57  C   UNL     1     -14.910  -6.040   3.421  1.00  0.00     0.173 A 
ATOM     58  F   UNL     1     -12.948  -9.004   4.195  1.00  0.00    -0.203 F 
ATOM     59  C   UNL     1     -14.753  -8.720   2.712  1.00  0.00     0.198 A 
ATOM     60  C   UNL     1     -15.803  -6.572   2.495  1.00  0.00     0.198 A 
ATOM     61  F   UNL     1     -15.004  -4.739   3.734  1.00  0.00    -0.203 F 
ATOM     62  F   UNL     1     -14.649 -10.004   2.344  1.00  0.00    -0.200 F 
ATOM     63  C   UNL     1     -15.719  -7.909   2.136  1.00  0.00     0.200 A 
ATOM     64  F   UNL     1     -16.743  -5.790   1.946  1.00  0.00    -0.200 F 
ATOM     65  F   UNL     1     -16.564  -8.415   1.227  1.00  0.00    -0.200 F 
ENDBRANCH  41  55
BRANCH  42  66
ATOM     66  C   UNL     1      -7.418  -2.598  10.306  1.00  0.00     0.064 A 
ATOM     67  C   UNL     1      -6.982  -3.234  11.477  1.00  0.00     0.173 A 
ATOM     68  C   UNL     1      -6.939  -1.306  10.048  1.00  0.00     0.173 A 
ATOM     69  F   UNL     1      -7.428  -4.464  11.776  1.00  0.00    -0.203 F 
ATOM     70  C   UNL     1      -6.124  -2.594  12.368  1.00  0.00     0.198 A 
ATOM     71  C   UNL     1      -6.060  -0.677  10.928  1.00  0.00     0.198 A 
ATOM     72  F   UNL     1      -7.320  -0.658   8.938  1.00  0.00    -0.203 F 
ATOM     73  F   UNL     1      -5.761  -3.207  13.503  1.00  0.00    -0.200 F 
ATOM     74  C   UNL     1      -5.660  -1.317  12.091  1.00  0.00     0.200 A 
ATOM     75  F   UNL     1      -5.605   0.553  10.651  1.00  0.00    -0.200 F 
ATOM     76  F   UNL     1      -4.836  -0.701  12.949  1.00  0.00    -0.200 F 
ENDBRANCH  42  66
BRANCH  54  77
ATOM     77  C   UNL     1     -14.130  -4.390  10.790  1.00  0.00     0.064 A 
ATOM     78  C   UNL     1     -14.697  -3.157  11.139  1.00  0.00     0.173 A 
ATOM     79  C   UNL     1     -14.562  -5.535  11.474  1.00  0.00     0.173 A 
ATOM     80  F   UNL     1     -14.303  -2.033  10.521  1.00  0.00    -0.203 F 
ATOM     81  C   UNL     1     -15.651  -3.072  12.149  1.00  0.00     0.198 A 
ATOM     82  C   UNL     1     -15.534  -5.450  12.466  1.00  0.00     0.198 A 
ATOM     83  F   UNL     1     -14.052  -6.738  11.170  1.00  0.00    -0.203 F 
ATOM     84  F   UNL     1     -16.155  -1.879  12.493  1.00  0.00    -0.200 F 
ATOM     85  C   UNL     1     -16.074  -4.219  12.805  1.00  0.00     0.200 A 
ATOM     86  F   UNL     1     -15.950  -6.560  13.091  1.00  0.00    -0.200 F 
ATOM     87  F   UNL     1     -17.000  -4.136  13.771  1.00  0.00    -0.200 F 
ENDBRANCH  54  77
ENDBRANCH  28  29
ENDBRANCH  20  23
ENDBRANCH  18  19
ENDBRANCH  17  18
ENDBRANCH   1  17
TORSDOF 14
