REMARK SMILES C[C@@H](CCCO)[NH2+][C@@H](C)CC(=O)NCCCCNC(=O)c1ccc(-c2c3nc(c(-c4c(F)c(F)c(F)c(F)c4F)c4ccc([nH]4)c(-c4c(F)c(F)c(F)c(F)c4F)c4nc(c(-c5c(F)c(F)c(F)c(F)c5F)c5ccc2[nH]5)C=C4)C=C3)cc1
REMARK SMILES IDX 11 1 12 2 13 3 10 5 8 6 9 7 7 8 2 11 1 12 3 13 4 14 5 15
REMARK SMILES IDX 6 16 14 18 15 19 16 20 17 21 18 22 19 23 20 25 21 26 22 27
REMARK SMILES IDX 83 28 23 29 82 30 24 31 25 32 26 33 76 34 27 35 81 36 75 37
REMARK SMILES IDX 77 38 28 39 80 40 74 41 73 42 29 44 61 45 41 46 60 47 42 48
REMARK SMILES IDX 45 49 59 50 78 51 43 52 44 53 58 55 79 56 46 57 30 58 31 59
REMARK SMILES IDX 39 60 32 61 33 62 37 63 40 64 34 65 35 66 38 67 36 68 62 69
REMARK SMILES IDX 63 70 71 71 64 72 65 73 69 74 72 75 66 76 67 77 70 78 68 79
REMARK SMILES IDX 47 80 48 81 56 82 49 83 50 84 54 85 57 86 51 87 52 88 55 89
REMARK SMILES IDX 53 90
REMARK H PARENT 13 4 7 9 7 10 6 17 18 24 77 43 45 54
REMARK Flexibility Score: inf
ROOT
ATOM      1  C   UNL     1      -3.419  -0.702   2.760  1.00  0.00     0.225 C 
ATOM      2  O   UNL     1      -3.790  -1.318   3.760  1.00  0.00    -0.275 OA
ATOM      3  N   UNL     1      -3.554  -1.299   1.541  1.00  0.00    -0.356 N 
ATOM      4  H   UNL     1      -4.073  -2.135   1.530  1.00  0.00     0.163 HD
ENDROOT
BRANCH   1   5
ATOM      5  C   UNL     1      -2.867   0.706   2.871  1.00  0.00     0.164 C 
BRANCH   5   6
ATOM      6  C   UNL     1      -1.334   0.766   3.055  1.00  0.00     0.188 C 
ATOM      7  C   UNL     1      -0.998   1.925   4.003  1.00  0.00     0.075 C 
BRANCH   6   8
ATOM      8  N   UNL     1      -0.691   0.907   1.739  1.00  0.00    -0.341 N 
ATOM      9  H   UNL     1      -0.892   0.058   1.211  1.00  0.00     0.346 HD
ATOM     10  H   UNL     1      -1.081   1.768   1.356  1.00  0.00     0.346 HD
BRANCH   8  11
ATOM     11  C   UNL     1       0.755   1.112   1.700  1.00  0.00     0.179 C 
ATOM     12  C   UNL     1       1.350   0.233   0.593  1.00  0.00     0.075 C 
BRANCH  11  13
ATOM     13  C   UNL     1       1.148   2.593   1.496  1.00  0.00     0.067 C 
BRANCH  13  14
ATOM     14  C   UNL     1       0.884   3.247   0.129  1.00  0.00     0.034 C 
BRANCH  14  15
ATOM     15  C   UNL     1      -0.566   3.446  -0.302  1.00  0.00     0.156 C 
BRANCH  15  16
ATOM     16  O   UNL     1      -1.325   4.120   0.689  1.00  0.00    -0.396 OA
ATOM     17  H   UNL     1      -1.337   3.592   1.502  1.00  0.00     0.210 HD
ENDBRANCH  15  16
ENDBRANCH  14  15
ENDBRANCH  13  14
ENDBRANCH  11  13
ENDBRANCH   8  11
ENDBRANCH   6   8
ENDBRANCH   5   6
ENDBRANCH   1   5
BRANCH   3  18
ATOM     18  C   UNL     1      -3.032  -0.865   0.262  1.00  0.00     0.116 C 
BRANCH  18  19
ATOM     19  C   UNL     1      -1.646  -1.454   0.012  1.00  0.00     0.023 C 
BRANCH  19  20
ATOM     20  C   UNL     1      -1.627  -2.894  -0.478  1.00  0.00     0.023 C 
BRANCH  20  21
ATOM     21  C   UNL     1      -2.190  -3.090  -1.875  1.00  0.00     0.116 C 
BRANCH  21  22
ATOM     22  N   UNL     1      -1.456  -2.374  -2.911  1.00  0.00    -0.352 N 
ATOM     23  C   UNL     1      -1.179  -2.781  -4.195  1.00  0.00     0.251 C 
ATOM     24  H   UNL     1      -1.114  -1.486  -2.659  1.00  0.00     0.163 HD
ATOM     25  O   UNL     1      -0.478  -2.099  -4.934  1.00  0.00    -0.269 OA
BRANCH  23  26
ATOM     26  C   UNL     1      -1.698  -4.085  -4.656  1.00  0.00     0.039 A 
ATOM     27  C   UNL     1      -0.818  -4.993  -5.248  1.00  0.00     0.014 A 
ATOM     28  C   UNL     1      -3.029  -4.438  -4.422  1.00  0.00     0.014 A 
ATOM     29  C   UNL     1      -1.254  -6.290  -5.528  1.00  0.00     0.010 A 
ATOM     30  C   UNL     1      -3.434  -5.752  -4.615  1.00  0.00     0.010 A 
ATOM     31  C   UNL     1      -2.550  -6.691  -5.170  1.00  0.00    -0.014 A 
BRANCH  31  32
ATOM     32  C   UNL     1      -3.023  -8.082  -5.377  1.00  0.00     0.031 A 
ATOM     33  C   UNL     1      -4.187  -8.339  -6.293  1.00  0.00     0.074 A 
ATOM     34  C   UNL     1      -2.471  -9.093  -4.678  1.00  0.00     0.049 A 
ATOM     35  N   UNL     1      -4.844  -9.450  -6.508  1.00  0.00    -0.248 NA
ATOM     36  C   UNL     1      -4.707  -7.180  -7.037  1.00  0.00     0.031 C 
ATOM     37  C   UNL     1      -1.373  -8.963  -3.719  1.00  0.00     0.029 A 
ATOM     38  N   UNL     1      -2.774 -10.432  -4.656  1.00  0.00    -0.354 N 
ATOM     39  C   UNL     1      -5.867  -9.116  -7.385  1.00  0.00     0.074 A 
ATOM     40  C   UNL     1      -5.779  -7.692  -7.622  1.00  0.00     0.031 C 
ATOM     41  C   UNL     1      -1.078 -10.175  -3.221  1.00  0.00     0.029 A 
ATOM     42  C   UNL     1      -1.990 -11.160  -3.795  1.00  0.00     0.049 A 
ATOM     43  H   UNL     1      -3.486 -10.832  -5.206  1.00  0.00     0.167 HD
ATOM     44  C   UNL     1      -6.781  -9.929  -7.963  1.00  0.00     0.037 A 
ATOM     45  C   UNL     1      -2.011 -12.474  -3.501  1.00  0.00     0.037 A 
ATOM     46  C   UNL     1      -6.835 -11.352  -7.765  1.00  0.00     0.049 A 
ATOM     47  C   UNL     1      -3.020 -13.361  -4.180  1.00  0.00     0.074 A 
ATOM     48  C   UNL     1      -7.687 -12.274  -8.347  1.00  0.00     0.029 A 
ATOM     49  N   UNL     1      -5.990 -12.061  -6.924  1.00  0.00    -0.354 N 
ATOM     50  N   UNL     1      -3.950 -13.043  -5.046  1.00  0.00    -0.248 NA
ATOM     51  C   UNL     1      -2.978 -14.791  -3.843  1.00  0.00     0.031 C 
ATOM     52  C   UNL     1      -7.373 -13.539  -7.839  1.00  0.00     0.029 A 
ATOM     53  C   UNL     1      -6.302 -13.409  -6.969  1.00  0.00     0.049 A 
ATOM     54  H   UNL     1      -5.274 -11.664  -6.377  1.00  0.00     0.167 HD
ATOM     55  C   UNL     1      -4.581 -14.232  -5.382  1.00  0.00     0.074 A 
ATOM     56  C   UNL     1      -3.922 -15.281  -4.634  1.00  0.00     0.031 C 
ATOM     57  C   UNL     1      -5.615 -14.438  -6.234  1.00  0.00     0.037 A 
BRANCH  44  58
ATOM     58  C   UNL     1      -7.786  -9.297  -8.880  1.00  0.00     0.064 A 
ATOM     59  C   UNL     1      -7.416  -8.796 -10.137  1.00  0.00     0.173 A 
ATOM     60  C   UNL     1      -9.137  -9.215  -8.511  1.00  0.00     0.173 A 
ATOM     61  F   UNL     1      -6.134  -8.836 -10.530  1.00  0.00    -0.203 F 
ATOM     62  C   UNL     1      -8.357  -8.209 -10.979  1.00  0.00     0.198 A 
ATOM     63  C   UNL     1     -10.080  -8.654  -9.368  1.00  0.00     0.198 A 
ATOM     64  F   UNL     1      -9.543  -9.682  -7.321  1.00  0.00    -0.203 F 
ATOM     65  F   UNL     1      -7.971  -7.691 -12.154  1.00  0.00    -0.200 F 
ATOM     66  C   UNL     1      -9.688  -8.145 -10.598  1.00  0.00     0.200 A 
ATOM     67  F   UNL     1     -11.368  -8.602  -9.003  1.00  0.00    -0.200 F 
ATOM     68  F   UNL     1     -10.593  -7.585 -11.412  1.00  0.00    -0.200 F 
ENDBRANCH  44  58
BRANCH  45  69
ATOM     69  C   UNL     1      -1.026 -13.041  -2.544  1.00  0.00     0.064 A 
ATOM     70  C   UNL     1       0.006 -13.877  -2.993  1.00  0.00     0.173 A 
ATOM     71  C   UNL     1      -1.102 -12.778  -1.169  1.00  0.00     0.173 A 
ATOM     72  F   UNL     1       0.106 -14.175  -4.296  1.00  0.00    -0.203 F 
ATOM     73  C   UNL     1       0.911 -14.447  -2.100  1.00  0.00     0.198 A 
ATOM     74  C   UNL     1      -0.180 -13.328  -0.280  1.00  0.00     0.198 A 
ATOM     75  F   UNL     1      -2.068 -11.980  -0.690  1.00  0.00    -0.203 F 
ATOM     76  F   UNL     1       1.859 -15.281  -2.551  1.00  0.00    -0.200 F 
ATOM     77  C   UNL     1       0.820 -14.169  -0.745  1.00  0.00     0.200 A 
ATOM     78  F   UNL     1      -0.265 -13.048   1.028  1.00  0.00    -0.200 F 
ATOM     79  F   UNL     1       1.689 -14.719   0.114  1.00  0.00    -0.200 F 
ENDBRANCH  45  69
BRANCH  57  80
ATOM     80  C   UNL     1      -6.065 -15.853  -6.439  1.00  0.00     0.064 A 
ATOM     81  C   UNL     1      -6.801 -16.540  -5.463  1.00  0.00     0.173 A 
ATOM     82  C   UNL     1      -5.797 -16.511  -7.649  1.00  0.00     0.173 A 
ATOM     83  F   UNL     1      -7.068 -15.956  -4.285  1.00  0.00    -0.203 F 
ATOM     84  C   UNL     1      -7.235 -17.843  -5.683  1.00  0.00     0.198 A 
ATOM     85  C   UNL     1      -6.255 -17.805  -7.875  1.00  0.00     0.198 A 
ATOM     86  F   UNL     1      -5.102 -15.893  -8.615  1.00  0.00    -0.203 F 
ATOM     87  F   UNL     1      -7.904 -18.496  -4.722  1.00  0.00    -0.200 F 
ATOM     88  C   UNL     1      -6.969 -18.472  -6.891  1.00  0.00     0.200 A 
ATOM     89  F   UNL     1      -6.007 -18.407  -9.047  1.00  0.00    -0.200 F 
ATOM     90  F   UNL     1      -7.396 -19.724  -7.104  1.00  0.00    -0.200 F 
ENDBRANCH  57  80
ENDBRANCH  31  32
ENDBRANCH  23  26
ENDBRANCH  21  22
ENDBRANCH  20  21
ENDBRANCH  19  20
ENDBRANCH  18  19
ENDBRANCH   3  18
TORSDOF 18
