REMARK SMILES C[C@H](Nc1ccc(F)cc1Br)[C@@H](C)C(=O)NCCCCNC(=O)c1ccc(-c2c3nc(c(-c4c(F)c(F)c(F)c(F)c4F)c4ccc([nH]4)c(-c4c(F)c(F)c(F)c(F)c4F)c4nc(c(-c5c(F)c(F)c(F)c(F)c5F)c5ccc2[nH]5)C=C4)C=C3)cc1
REMARK SMILES IDX 18 1 17 2 16 3 14 4 15 5 12 7 13 8 2 9 1 10 3 11 4 13 5 14
REMARK SMILES IDX 10 15 6 16 9 17 11 18 7 19 8 20 19 21 20 22 21 23 22 24
REMARK SMILES IDX 23 26 24 27 25 28 86 29 26 30 85 31 27 32 28 33 29 34 79 35
REMARK SMILES IDX 30 36 84 37 78 38 80 39 31 40 83 41 77 42 76 43 32 45 64 46
REMARK SMILES IDX 44 47 63 48 45 49 48 50 62 51 81 52 46 53 47 54 61 56 82 57
REMARK SMILES IDX 49 58 33 59 34 60 42 61 35 62 36 63 40 64 43 65 37 66 38 67
REMARK SMILES IDX 41 68 39 69 65 70 66 71 74 72 67 73 68 74 72 75 75 76 69 77
REMARK SMILES IDX 70 78 73 79 71 80 50 81 51 82 59 83 52 84 53 85 57 86 60 87
REMARK SMILES IDX 54 88 55 89 58 90 56 91
REMARK H PARENT 16 6 3 12 21 25 80 44 48 55
REMARK Flexibility Score: inf
ROOT
ATOM      1  C   UNL     1       0.878  -1.781   4.243  1.00  0.00     0.023 C 
ENDROOT
BRANCH   1   2
ATOM      2  C   UNL     1      -0.419  -1.989   3.461  1.00  0.00     0.116 C 
BRANCH   2   3
ATOM      3  N   UNL     1      -1.298  -0.838   3.543  1.00  0.00    -0.356 N 
ATOM      4  C   UNL     1      -1.600   0.135   2.640  1.00  0.00     0.224 C 
ATOM      5  O   UNL     1      -2.387   1.012   3.005  1.00  0.00    -0.275 OA
ATOM      6  H   UNL     1      -1.760  -0.744   4.408  1.00  0.00     0.163 HD
BRANCH   4   7
ATOM      7  C   UNL     1      -1.022   0.155   1.226  1.00  0.00     0.097 C 
ATOM      8  C   UNL     1      -1.628  -1.007   0.433  1.00  0.00     0.020 C 
BRANCH   7   9
ATOM      9  C   UNL     1       0.524   0.266   1.211  1.00  0.00     0.088 C 
ATOM     10  C   UNL     1       0.991   1.438   2.081  1.00  0.00     0.031 C 
BRANCH   9  11
ATOM     11  N   UNL     1       1.053   0.261  -0.169  1.00  0.00    -0.381 N 
ATOM     12  H   UNL     1       1.163  -0.628  -0.579  1.00  0.00     0.160 HD
BRANCH  11  13
ATOM     13  C   UNL     1       1.417   1.336  -0.965  1.00  0.00     0.049 A 
ATOM     14  C   UNL     1       2.321   2.313  -0.526  1.00  0.00     0.030 A 
ATOM     15  C   UNL     1       0.892   1.496  -2.267  1.00  0.00     0.044 A 
ATOM     16  C   UNL     1       2.645   3.424  -1.310  1.00  0.00     0.041 A 
ATOM     17  C   UNL     1       1.206   2.606  -3.057  1.00  0.00     0.057 A 
ATOM     18  Br  UNL     1      -0.245   0.188  -3.051  1.00  0.00    -0.048 Br
ATOM     19  C   UNL     1       2.073   3.566  -2.563  1.00  0.00     0.124 A 
ATOM     20  F   UNL     1       2.380   4.631  -3.313  1.00  0.00    -0.207 F 
ENDBRANCH  11  13
ENDBRANCH   9  11
ENDBRANCH   7   9
ENDBRANCH   4   7
ENDBRANCH   2   3
ENDBRANCH   1   2
BRANCH   1  21
ATOM     21  C   UNL     1       0.711  -1.745   5.761  1.00  0.00     0.023 C 
BRANCH  21  22
ATOM     22  C   UNL     1       0.001  -2.952   6.361  1.00  0.00     0.116 C 
BRANCH  22  23
ATOM     23  N   UNL     1       0.623  -4.220   6.008  1.00  0.00    -0.352 N 
ATOM     24  C   UNL     1       0.833  -5.324   6.797  1.00  0.00     0.251 C 
ATOM     25  H   UNL     1       0.935  -4.296   5.078  1.00  0.00     0.163 HD
ATOM     26  O   UNL     1       1.473  -6.279   6.370  1.00  0.00    -0.269 OA
BRANCH  24  27
ATOM     27  C   UNL     1       0.316  -5.337   8.180  1.00  0.00     0.039 A 
ATOM     28  C   UNL     1       1.171  -5.724   9.214  1.00  0.00     0.014 A 
ATOM     29  C   UNL     1      -0.993  -4.935   8.457  1.00  0.00     0.014 A 
ATOM     30  C   UNL     1       0.735  -5.639  10.536  1.00  0.00     0.010 A 
ATOM     31  C   UNL     1      -1.399  -4.777   9.778  1.00  0.00     0.010 A 
ATOM     32  C   UNL     1      -0.540  -5.128  10.830  1.00  0.00    -0.014 A 
BRANCH  32  33
ATOM     33  C   UNL     1      -0.992  -4.950  12.232  1.00  0.00     0.031 A 
ATOM     34  C   UNL     1      -2.164  -5.734  12.751  1.00  0.00     0.074 A 
ATOM     35  C   UNL     1      -0.388  -4.035  13.015  1.00  0.00     0.049 A 
ATOM     36  N   UNL     1      -2.748  -5.673  13.921  1.00  0.00    -0.248 NA
ATOM     37  C   UNL     1      -2.782  -6.692  11.821  1.00  0.00     0.031 C 
ATOM     38  C   UNL     1       0.723  -3.174  12.608  1.00  0.00     0.029 A 
ATOM     39  N   UNL     1      -0.633  -3.668  14.315  1.00  0.00    -0.354 N 
ATOM     40  C   UNL     1      -3.806  -6.570  13.861  1.00  0.00     0.074 A 
ATOM     41  C   UNL     1      -3.820  -7.121  12.524  1.00  0.00     0.031 C 
ATOM     42  C   UNL     1       1.079  -2.396  13.642  1.00  0.00     0.029 A 
ATOM     43  C   UNL     1       0.199  -2.676  14.773  1.00  0.00     0.049 A 
ATOM     44  H   UNL     1      -1.339  -4.076  14.866  1.00  0.00     0.167 HD
ATOM     45  C   UNL     1      -4.672  -6.921  14.841  1.00  0.00     0.037 A 
ATOM     46  C   UNL     1       0.243  -2.059  15.969  1.00  0.00     0.037 A 
ATOM     47  C   UNL     1      -4.637  -6.391  16.179  1.00  0.00     0.049 A 
ATOM     48  C   UNL     1      -0.728  -2.471  17.042  1.00  0.00     0.074 A 
ATOM     49  C   UNL     1      -5.428  -6.729  17.262  1.00  0.00     0.029 A 
ATOM     50  N   UNL     1      -3.763  -5.405  16.614  1.00  0.00    -0.354 N 
ATOM     51  N   UNL     1      -1.676  -3.376  16.998  1.00  0.00    -0.248 NA
ATOM     52  C   UNL     1      -0.617  -1.781  18.335  1.00  0.00     0.031 C 
ATOM     53  C   UNL     1      -5.064  -5.916  18.340  1.00  0.00     0.029 A 
ATOM     54  C   UNL     1      -4.011  -5.108  17.944  1.00  0.00     0.049 A 
ATOM     55  H   UNL     1      -3.070  -4.979  16.059  1.00  0.00     0.167 HD
ATOM     56  C   UNL     1      -2.254  -3.385  18.260  1.00  0.00     0.074 A 
ATOM     57  C   UNL     1      -1.540  -2.406  19.053  1.00  0.00     0.031 C 
ATOM     58  C   UNL     1      -3.284  -4.136  18.721  1.00  0.00     0.037 A 
BRANCH  45  59
ATOM     59  C   UNL     1      -5.729  -7.933  14.504  1.00  0.00     0.064 A 
ATOM     60  C   UNL     1      -5.410  -9.278  14.262  1.00  0.00     0.173 A 
ATOM     61  C   UNL     1      -7.081  -7.562  14.456  1.00  0.00     0.173 A 
ATOM     62  F   UNL     1      -4.131  -9.683  14.283  1.00  0.00    -0.203 F 
ATOM     63  C   UNL     1      -6.401 -10.206  13.954  1.00  0.00     0.198 A 
ATOM     64  C   UNL     1      -8.073  -8.499  14.179  1.00  0.00     0.198 A 
ATOM     65  F   UNL     1      -7.442  -6.290  14.684  1.00  0.00    -0.203 F 
ATOM     66  F   UNL     1      -6.066 -11.474  13.676  1.00  0.00    -0.200 F 
ATOM     67  C   UNL     1      -7.731  -9.818  13.921  1.00  0.00     0.200 A 
ATOM     68  F   UNL     1      -9.360  -8.126  14.160  1.00  0.00    -0.200 F 
ATOM     69  F   UNL     1      -8.685 -10.715  13.632  1.00  0.00    -0.200 F 
ENDBRANCH  45  59
BRANCH  46  70
ATOM     70  C   UNL     1       1.260  -1.006  16.225  1.00  0.00     0.064 A 
ATOM     71  C   UNL     1       2.319  -1.230  17.116  1.00  0.00     0.173 A 
ATOM     72  C   UNL     1       1.193   0.244  15.593  1.00  0.00     0.173 A 
ATOM     73  F   UNL     1       2.415  -2.403  17.760  1.00  0.00    -0.203 F 
ATOM     74  C   UNL     1       3.259  -0.237  17.382  1.00  0.00     0.198 A 
ATOM     75  C   UNL     1       2.150   1.226  15.838  1.00  0.00     0.198 A 
ATOM     76  F   UNL     1       0.203   0.507  14.727  1.00  0.00    -0.203 F 
ATOM     77  F   UNL     1       4.234  -0.462  18.274  1.00  0.00    -0.200 F 
ATOM     78  C   UNL     1       3.177   0.988  16.739  1.00  0.00     0.200 A 
ATOM     79  F   UNL     1       2.076   2.404  15.203  1.00  0.00    -0.200 F 
ATOM     80  F   UNL     1       4.084   1.942  16.993  1.00  0.00    -0.200 F 
ENDBRANCH  46  70
BRANCH  58  81
ATOM     81  C   UNL     1      -3.677  -3.956  20.159  1.00  0.00     0.064 A 
ATOM     82  C   UNL     1      -4.331  -2.798  20.604  1.00  0.00     0.173 A 
ATOM     83  C   UNL     1      -3.430  -4.972  21.094  1.00  0.00     0.173 A 
ATOM     84  F   UNL     1      -4.577  -1.791  19.752  1.00  0.00    -0.203 F 
ATOM     85  C   UNL     1      -4.699  -2.654  21.939  1.00  0.00     0.198 A 
ATOM     86  C   UNL     1      -3.827  -4.838  22.421  1.00  0.00     0.198 A 
ATOM     87  F   UNL     1      -2.814  -6.103  20.717  1.00  0.00    -0.203 F 
ATOM     88  F   UNL     1      -5.279  -1.518  22.353  1.00  0.00    -0.200 F 
ATOM     89  C   UNL     1      -4.454  -3.676  22.844  1.00  0.00     0.200 A 
ATOM     90  F   UNL     1      -3.603  -5.833  23.290  1.00  0.00    -0.200 F 
ATOM     91  F   UNL     1      -4.816  -3.538  24.127  1.00  0.00    -0.200 F 
ENDBRANCH  58  81
ENDBRANCH  32  33
ENDBRANCH  24  27
ENDBRANCH  22  23
ENDBRANCH  21  22
ENDBRANCH   1  21
TORSDOF 14
