REMARK SMILES Cc1ccn2c([C@@H]3C[C@H]3C(=O)NCCCCNC(=O)c3ccc(-c4c5nc(c(-c6c(F)c(F)c(F)c(F)c6F)c6ccc([nH]6)c(-c6c(F)c(F)c(F)c(F)c6F)c6nc(c(-c7c(F)c(F)c(F)c(F)c7F)c7ccc4[nH]7)C=C6)C=C5)cc3)nnc2c1
REMARK SMILES IDX 15 1 14 2 13 3 12 4 10 5 11 6 9 8 7 9 8 10 6 11 1 12 2 13
REMARK SMILES IDX 3 14 86 15 4 16 85 17 5 18 84 19 83 20 16 21 17 22 18 23
REMARK SMILES IDX 19 25 20 26 21 27 82 28 22 29 81 30 23 31 24 32 25 33 75 34
REMARK SMILES IDX 26 35 80 36 74 37 76 38 27 39 79 40 73 41 72 42 28 44 60 45
REMARK SMILES IDX 40 46 59 47 41 48 44 49 58 50 77 51 42 52 43 53 57 55 78 56
REMARK SMILES IDX 45 57 29 58 30 59 38 60 31 61 32 62 36 63 39 64 33 65 34 66
REMARK SMILES IDX 37 67 35 68 61 69 62 70 70 71 63 72 64 73 68 74 71 75 65 76
REMARK SMILES IDX 66 77 69 78 67 79 46 80 47 81 55 82 48 83 49 84 53 85 56 86
REMARK SMILES IDX 50 87 51 88 54 89 52 90
REMARK H PARENT 12 7 17 24 76 43 44 54
REMARK Flexibility Score: inf
ROOT
ATOM      1  C   UNL     1      -4.965  -3.944   9.159  1.00  0.00     0.023 C 
ENDROOT
BRANCH   1   2
ATOM      2  C   UNL     1      -3.929  -2.845   8.883  1.00  0.00     0.023 C 
BRANCH   2   3
ATOM      3  C   UNL     1      -2.548  -3.348   8.470  1.00  0.00     0.116 C 
BRANCH   3   4
ATOM      4  N   UNL     1      -2.625  -4.135   7.260  1.00  0.00    -0.356 N 
ATOM      5  C   UNL     1      -2.032  -4.059   6.036  1.00  0.00     0.223 C 
ATOM      6  O   UNL     1      -2.372  -4.882   5.201  1.00  0.00    -0.275 OA
ATOM      7  H   UNL     1      -3.244  -4.897   7.339  1.00  0.00     0.163 HD
BRANCH   5   8
ATOM      8  C   UNL     1      -0.992  -3.079   5.650  1.00  0.00     0.090 C 
ATOM      9  C   UNL     1      -1.011  -1.614   6.007  1.00  0.00     0.071 C 
ATOM     10  C   UNL     1       0.086  -2.525   6.522  1.00  0.00     0.026 C 
BRANCH   9  11
ATOM     11  C   UNL     1      -0.686  -0.516   4.996  1.00  0.00     0.141 A 
ATOM     12  C   UNL     1       1.156   0.248  -0.238  1.00  0.00     0.044 C 
ATOM     13  C   UNL     1       0.735   0.042   1.185  1.00  0.00    -0.046 A 
ATOM     14  C   UNL     1       0.867  -1.309   1.718  1.00  0.00     0.022 A 
ATOM     15  C   UNL     1       0.245   1.036   1.957  1.00  0.00     0.053 A 
ATOM     16  C   UNL     1       0.471  -1.567   2.976  1.00  0.00     0.095 A 
ATOM     17  C   UNL     1      -0.193   0.758   3.281  1.00  0.00     0.161 A 
ATOM     18  N   UNL     1      -0.086  -0.549   3.750  1.00  0.00    -0.286 N 
ATOM     19  N   UNL     1      -0.742   1.520   4.199  1.00  0.00    -0.130 NA
ATOM     20  N   UNL     1      -1.069   0.720   5.261  1.00  0.00    -0.134 NA
ENDBRANCH   9  11
ENDBRANCH   5   8
ENDBRANCH   3   4
ENDBRANCH   2   3
ENDBRANCH   1   2
BRANCH   1  21
ATOM     21  C   UNL     1      -4.489  -5.072  10.079  1.00  0.00     0.116 C 
BRANCH  21  22
ATOM     22  N   UNL     1      -3.935  -4.610  11.335  1.00  0.00    -0.352 N 
ATOM     23  C   UNL     1      -4.453  -4.273  12.553  1.00  0.00     0.251 C 
ATOM     24  H   UNL     1      -2.955  -4.517  11.303  1.00  0.00     0.163 HD
ATOM     25  O   UNL     1      -3.632  -4.013  13.436  1.00  0.00    -0.269 OA
BRANCH  23  26
ATOM     26  C   UNL     1      -5.903  -4.154  12.868  1.00  0.00     0.039 A 
ATOM     27  C   UNL     1      -6.947  -4.413  11.983  1.00  0.00     0.014 A 
ATOM     28  C   UNL     1      -6.220  -3.690  14.160  1.00  0.00     0.014 A 
ATOM     29  C   UNL     1      -8.259  -4.126  12.339  1.00  0.00     0.010 A 
ATOM     30  C   UNL     1      -7.535  -3.426  14.532  1.00  0.00     0.010 A 
ATOM     31  C   UNL     1      -8.551  -3.601  13.601  1.00  0.00    -0.014 A 
BRANCH  31  32
ATOM     32  C   UNL     1      -9.954  -3.323  13.894  1.00  0.00     0.031 A 
ATOM     33  C   UNL     1     -10.864  -4.497  13.813  1.00  0.00     0.074 A 
ATOM     34  C   UNL     1     -10.423  -2.112  14.255  1.00  0.00     0.049 A 
ATOM     35  N   UNL     1     -11.859  -4.678  13.006  1.00  0.00    -0.248 NA
ATOM     36  C   UNL     1     -10.580  -5.648  14.682  1.00  0.00     0.031 C 
ATOM     37  C   UNL     1      -9.646  -0.935  14.650  1.00  0.00     0.029 A 
ATOM     38  N   UNL     1     -11.718  -1.705  14.424  1.00  0.00    -0.354 N 
ATOM     39  C   UNL     1     -12.428  -5.898  13.363  1.00  0.00     0.074 A 
ATOM     40  C   UNL     1     -11.542  -6.501  14.324  1.00  0.00     0.031 C 
ATOM     41  C   UNL     1     -10.472  -0.027  15.215  1.00  0.00     0.029 A 
ATOM     42  C   UNL     1     -11.843  -0.490  15.078  1.00  0.00     0.049 A 
ATOM     43  H   UNL     1     -12.491  -2.228  14.110  1.00  0.00     0.167 HD
ATOM     44  C   UNL     1     -13.698  -6.222  12.995  1.00  0.00     0.037 A 
ATOM     45  C   UNL     1     -12.988   0.083  15.515  1.00  0.00     0.037 A 
ATOM     46  C   UNL     1     -14.187  -5.365  11.952  1.00  0.00     0.049 A 
ATOM     47  C   UNL     1     -14.116  -0.458  14.725  1.00  0.00     0.074 A 
ATOM     48  C   UNL     1     -14.079  -5.285  10.582  1.00  0.00     0.029 A 
ATOM     49  N   UNL     1     -14.700  -4.178  12.393  1.00  0.00    -0.354 N 
ATOM     50  N   UNL     1     -14.294  -0.220  13.456  1.00  0.00    -0.248 NA
ATOM     51  C   UNL     1     -14.951  -1.516  15.285  1.00  0.00     0.031 C 
ATOM     52  C   UNL     1     -14.377  -3.933  10.236  1.00  0.00     0.029 A 
ATOM     53  C   UNL     1     -14.666  -3.232  11.404  1.00  0.00     0.049 A 
ATOM     54  H   UNL     1     -15.048  -4.023  13.301  1.00  0.00     0.167 HD
ATOM     55  C   UNL     1     -14.929  -1.350  12.985  1.00  0.00     0.074 A 
ATOM     56  C   UNL     1     -15.476  -2.008  14.161  1.00  0.00     0.031 C 
ATOM     57  C   UNL     1     -14.666  -1.826  11.737  1.00  0.00     0.037 A 
BRANCH  44  58
ATOM     58  C   UNL     1     -14.661  -7.015  13.846  1.00  0.00     0.064 A 
ATOM     59  C   UNL     1     -15.884  -7.449  13.295  1.00  0.00     0.173 A 
ATOM     60  C   UNL     1     -14.572  -7.074  15.253  1.00  0.00     0.173 A 
ATOM     61  F   UNL     1     -16.091  -7.404  11.970  1.00  0.00    -0.203 F 
ATOM     62  C   UNL     1     -16.952  -7.862  14.098  1.00  0.00     0.198 A 
ATOM     63  C   UNL     1     -15.621  -7.533  16.048  1.00  0.00     0.198 A 
ATOM     64  F   UNL     1     -13.516  -6.581  15.914  1.00  0.00    -0.203 F 
ATOM     65  F   UNL     1     -18.133  -8.162  13.538  1.00  0.00    -0.200 F 
ATOM     66  C   UNL     1     -16.820  -7.902  15.474  1.00  0.00     0.200 A 
ATOM     67  F   UNL     1     -15.484  -7.538  17.382  1.00  0.00    -0.200 F 
ATOM     68  F   UNL     1     -17.857  -8.246  16.249  1.00  0.00    -0.200 F 
ENDBRANCH  44  58
BRANCH  45  69
ATOM     69  C   UNL     1     -13.201   0.900  16.730  1.00  0.00     0.064 A 
ATOM     70  C   UNL     1     -14.353   1.689  16.876  1.00  0.00     0.173 A 
ATOM     71  C   UNL     1     -12.429   0.690  17.889  1.00  0.00     0.173 A 
ATOM     72  F   UNL     1     -15.159   1.909  15.827  1.00  0.00    -0.203 F 
ATOM     73  C   UNL     1     -14.739   2.195  18.120  1.00  0.00     0.198 A 
ATOM     74  C   UNL     1     -12.811   1.204  19.128  1.00  0.00     0.198 A 
ATOM     75  F   UNL     1     -11.348  -0.102  17.861  1.00  0.00    -0.203 F 
ATOM     76  F   UNL     1     -15.888   2.875  18.237  1.00  0.00    -0.200 F 
ATOM     77  C   UNL     1     -13.976   1.939  19.247  1.00  0.00     0.200 A 
ATOM     78  F   UNL     1     -12.081   0.922  20.216  1.00  0.00    -0.200 F 
ATOM     79  F   UNL     1     -14.384   2.360  20.452  1.00  0.00    -0.200 F 
ENDBRANCH  45  69
BRANCH  57  80
ATOM     80  C   UNL     1     -14.152  -0.853  10.726  1.00  0.00     0.064 A 
ATOM     81  C   UNL     1     -12.896  -0.231  10.798  1.00  0.00     0.173 A 
ATOM     82  C   UNL     1     -14.947  -0.587   9.604  1.00  0.00     0.173 A 
ATOM     83  F   UNL     1     -12.049  -0.501  11.801  1.00  0.00    -0.203 F 
ATOM     84  C   UNL     1     -12.478   0.656   9.808  1.00  0.00     0.198 A 
ATOM     85  C   UNL     1     -14.512   0.269   8.599  1.00  0.00     0.198 A 
ATOM     86  F   UNL     1     -16.139  -1.190   9.467  1.00  0.00    -0.203 F 
ATOM     87  F   UNL     1     -11.284   1.259   9.905  1.00  0.00    -0.200 F 
ATOM     88  C   UNL     1     -13.284   0.900   8.707  1.00  0.00     0.200 A 
ATOM     89  F   UNL     1     -15.277   0.468   7.516  1.00  0.00    -0.200 F 
ATOM     90  F   UNL     1     -12.868   1.728   7.738  1.00  0.00    -0.200 F 
ENDBRANCH  57  80
ENDBRANCH  31  32
ENDBRANCH  23  26
ENDBRANCH  21  22
ENDBRANCH   1  21
TORSDOF 12
