REMARK SMILES C=CCN(CC(=O)NCCCCNC(=O)c1ccc(-c2c3nc(c(-c4c(F)c(F)c(F)c(F)c4F)c4ccc([nH]4)c(-c4c(F)c(F)c(F)c(F)c4F)c4nc(c(-c5c(F)c(F)c(F)c(F)c5F)c5ccc2[nH]5)C=C4)C=C3)cc1)C(=O)c1ccc(C[NH3+])cc1
REMARK SMILES IDX 9 1 8 2 6 3 7 4 5 6 4 7 3 8 2 9 1 10 79 11 80 12 81 13 82 14
REMARK SMILES IDX 88 15 83 16 87 17 84 18 85 19 86 20 10 24 11 25 12 26 13 27
REMARK SMILES IDX 14 28 15 30 16 31 17 32 78 33 18 34 77 35 19 36 20 37 21 38
REMARK SMILES IDX 71 39 22 40 76 41 70 42 72 43 23 44 75 45 69 46 68 47 24 49
REMARK SMILES IDX 56 50 36 51 55 52 37 53 40 54 54 55 73 56 38 57 39 58 53 60
REMARK SMILES IDX 74 61 41 62 25 63 26 64 34 65 27 66 28 67 32 68 35 69 29 70
REMARK SMILES IDX 30 71 33 72 31 73 57 74 58 75 66 76 59 77 60 78 64 79 67 80
REMARK SMILES IDX 61 81 62 82 65 83 63 84 42 85 43 86 51 87 44 88 45 89 49 90
REMARK SMILES IDX 52 91 46 92 47 93 50 94 48 95
REMARK H PARENT 8 5 86 21 86 22 86 23 13 29 72 48 40 59
REMARK Flexibility Score: inf
ROOT
ATOM      1  C   UNL     1      -4.347  -0.429   0.870  1.00  0.00     0.116 C 
ENDROOT
BRANCH   1   2
ATOM      2  N   UNL     1      -4.665  -1.752   1.360  1.00  0.00    -0.355 N 
ATOM      3  C   UNL     1      -3.871  -2.692   1.948  1.00  0.00     0.239 C 
ATOM      4  O   UNL     1      -4.457  -3.588   2.566  1.00  0.00    -0.273 OA
ATOM      5  H   UNL     1      -5.607  -2.017   1.251  1.00  0.00     0.163 HD
BRANCH   3   6
ATOM      6  C   UNL     1      -2.331  -2.601   1.992  1.00  0.00     0.220 C 
BRANCH   6   7
ATOM      7  N   UNL     1      -1.635  -2.141   0.783  1.00  0.00    -0.326 N 
BRANCH   7   8
ATOM      8  C   UNL     1      -1.033  -0.811   0.802  1.00  0.00     0.147 C 
BRANCH   8   9
ATOM      9  C   UNL     1       0.453  -0.893   0.967  1.00  0.00    -0.014 C 
ATOM     10  C   UNL     1       1.312  -0.308   0.120  1.00  0.00     0.006 C 
ENDBRANCH   8   9
ENDBRANCH   7   8
BRANCH   7  11
ATOM     11  C   UNL     1      -1.442  -2.930  -0.358  1.00  0.00     0.254 C 
ATOM     12  O   UNL     1      -0.883  -2.525  -1.375  1.00  0.00    -0.269 OA
BRANCH  11  13
ATOM     13  C   UNL     1      -1.907  -4.335  -0.365  1.00  0.00     0.040 A 
ATOM     14  C   UNL     1      -0.955  -5.357  -0.397  1.00  0.00     0.014 A 
ATOM     15  C   UNL     1      -3.266  -4.642  -0.429  1.00  0.00     0.014 A 
ATOM     16  C   UNL     1      -1.371  -6.692  -0.427  1.00  0.00     0.010 A 
ATOM     17  C   UNL     1      -3.679  -5.976  -0.431  1.00  0.00     0.010 A 
ATOM     18  C   UNL     1      -2.737  -7.015  -0.416  1.00  0.00     0.006 A 
BRANCH  18  19
ATOM     19  C   UNL     1      -3.184  -8.454  -0.436  1.00  0.00     0.295 C 
BRANCH  19  20
ATOM     20  N   UNL     1      -3.117  -9.010  -1.780  1.00  0.00    -0.354 N 
ATOM     21  H   UNL     1      -3.734  -8.481  -2.397  1.00  0.00     0.344 HD
ATOM     22  H   UNL     1      -3.411  -9.986  -1.760  1.00  0.00     0.344 HD
ATOM     23  H   UNL     1      -2.159  -8.950  -2.125  1.00  0.00     0.344 HD
ENDBRANCH  19  20
ENDBRANCH  18  19
ENDBRANCH  11  13
ENDBRANCH   7  11
ENDBRANCH   6   7
ENDBRANCH   3   6
ENDBRANCH   1   2
BRANCH   1  24
ATOM     24  C   UNL     1      -4.134  -0.363  -0.640  1.00  0.00     0.023 C 
BRANCH  24  25
ATOM     25  C   UNL     1      -5.378  -0.599  -1.496  1.00  0.00     0.023 C 
BRANCH  25  26
ATOM     26  C   UNL     1      -6.577   0.283  -1.176  1.00  0.00     0.116 C 
BRANCH  26  27
ATOM     27  N   UNL     1      -6.291   1.708  -1.234  1.00  0.00    -0.352 N 
ATOM     28  C   UNL     1      -7.089   2.730  -1.689  1.00  0.00     0.251 C 
ATOM     29  H   UNL     1      -5.404   1.977  -0.903  1.00  0.00     0.163 HD
ATOM     30  O   UNL     1      -6.658   3.878  -1.738  1.00  0.00    -0.269 OA
BRANCH  28  31
ATOM     31  C   UNL     1      -8.459   2.436  -2.162  1.00  0.00     0.039 A 
ATOM     32  C   UNL     1      -8.877   2.972  -3.383  1.00  0.00     0.014 A 
ATOM     33  C   UNL     1      -9.314   1.613  -1.425  1.00  0.00     0.014 A 
ATOM     34  C   UNL     1     -10.125   2.621  -3.901  1.00  0.00     0.010 A 
ATOM     35  C   UNL     1     -10.523   1.204  -1.977  1.00  0.00     0.010 A 
ATOM     36  C   UNL     1     -10.940   1.701  -3.222  1.00  0.00    -0.014 A 
BRANCH  36  37
ATOM     37  C   UNL     1     -12.230   1.240  -3.794  1.00  0.00     0.031 A 
ATOM     38  C   UNL     1     -13.520   1.551  -3.091  1.00  0.00     0.074 A 
ATOM     39  C   UNL     1     -12.232   0.477  -4.903  1.00  0.00     0.049 A 
ATOM     40  N   UNL     1     -14.738   1.168  -3.384  1.00  0.00    -0.248 NA
ATOM     41  C   UNL     1     -13.425   2.379  -1.880  1.00  0.00     0.031 C 
ATOM     42  C   UNL     1     -11.044   0.071  -5.654  1.00  0.00     0.029 A 
ATOM     43  N   UNL     1     -13.272  -0.103  -5.587  1.00  0.00    -0.354 N 
ATOM     44  C   UNL     1     -15.548   1.694  -2.387  1.00  0.00     0.074 A 
ATOM     45  C   UNL     1     -14.678   2.373  -1.451  1.00  0.00     0.031 C 
ATOM     46  C   UNL     1     -11.422  -0.668  -6.708  1.00  0.00     0.029 A 
ATOM     47  C   UNL     1     -12.873  -0.822  -6.687  1.00  0.00     0.049 A 
ATOM     48  H   UNL     1     -14.213  -0.012  -5.314  1.00  0.00     0.167 HD
ATOM     49  C   UNL     1     -16.897   1.638  -2.276  1.00  0.00     0.037 A 
ATOM     50  C   UNL     1     -13.598  -1.529  -7.575  1.00  0.00     0.037 A 
ATOM     51  C   UNL     1     -17.760   0.977  -3.219  1.00  0.00     0.049 A 
ATOM     52  C   UNL     1     -15.092  -1.595  -7.419  1.00  0.00     0.074 A 
ATOM     53  C   UNL     1     -19.142   0.911  -3.227  1.00  0.00     0.029 A 
ATOM     54  N   UNL     1     -17.320   0.263  -4.325  1.00  0.00    -0.354 N 
ATOM     55  N   UNL     1     -15.855  -1.042  -6.508  1.00  0.00    -0.248 NA
ATOM     56  C   UNL     1     -15.826  -2.384  -8.418  1.00  0.00     0.031 C 
ATOM     57  C   UNL     1     -19.536   0.118  -4.310  1.00  0.00     0.029 A 
ATOM     58  C   UNL     1     -18.403  -0.268  -5.008  1.00  0.00     0.049 A 
ATOM     59  H   UNL     1     -16.377   0.149  -4.585  1.00  0.00     0.167 HD
ATOM     60  C   UNL     1     -17.158  -1.387  -6.840  1.00  0.00     0.074 A 
ATOM     61  C   UNL     1     -17.083  -2.193  -8.041  1.00  0.00     0.031 C 
ATOM     62  C   UNL     1     -18.313  -1.063  -6.207  1.00  0.00     0.037 A 
BRANCH  49  63
ATOM     63  C   UNL     1     -17.515   2.309  -1.083  1.00  0.00     0.064 A 
ATOM     64  C   UNL     1     -17.509   3.706  -0.938  1.00  0.00     0.173 A 
ATOM     65  C   UNL     1     -18.124   1.550  -0.073  1.00  0.00     0.173 A 
ATOM     66  F   UNL     1     -16.929   4.478  -1.869  1.00  0.00    -0.203 F 
ATOM     67  C   UNL     1     -18.049   4.312   0.193  1.00  0.00     0.198 A 
ATOM     68  C   UNL     1     -18.693   2.162   1.041  1.00  0.00     0.198 A 
ATOM     69  F   UNL     1     -18.165   0.212  -0.163  1.00  0.00    -0.203 F 
ATOM     70  F   UNL     1     -17.971   5.643   0.338  1.00  0.00    -0.200 F 
ATOM     71  C   UNL     1     -18.645   3.541   1.179  1.00  0.00     0.200 A 
ATOM     72  F   UNL     1     -19.280   1.417   1.987  1.00  0.00    -0.200 F 
ATOM     73  F   UNL     1     -19.162   4.126   2.268  1.00  0.00    -0.200 F 
ENDBRANCH  49  63
BRANCH  50  74
ATOM     74  C   UNL     1     -12.919  -2.196  -8.715  1.00  0.00     0.064 A 
ATOM     75  C   UNL     1     -13.069  -1.706 -10.020  1.00  0.00     0.173 A 
ATOM     76  C   UNL     1     -12.100  -3.318  -8.528  1.00  0.00     0.173 A 
ATOM     77  F   UNL     1     -13.859  -0.647 -10.250  1.00  0.00    -0.203 F 
ATOM     78  C   UNL     1     -12.434  -2.320 -11.097  1.00  0.00     0.198 A 
ATOM     79  C   UNL     1     -11.445  -3.917  -9.603  1.00  0.00     0.198 A 
ATOM     80  F   UNL     1     -11.922  -3.823  -7.299  1.00  0.00    -0.203 F 
ATOM     81  F   UNL     1     -12.622  -1.852 -12.338  1.00  0.00    -0.200 F 
ATOM     82  C   UNL     1     -11.617  -3.421 -10.887  1.00  0.00     0.200 A 
ATOM     83  F   UNL     1     -10.647  -4.973  -9.395  1.00  0.00    -0.200 F 
ATOM     84  F   UNL     1     -11.000  -4.006 -11.922  1.00  0.00    -0.200 F 
ENDBRANCH  50  74
BRANCH  62  85
ATOM     85  C   UNL     1     -19.594  -1.548  -6.821  1.00  0.00     0.064 A 
ATOM     86  C   UNL     1     -19.971  -2.898  -6.771  1.00  0.00     0.173 A 
ATOM     87  C   UNL     1     -20.475  -0.641  -7.430  1.00  0.00     0.173 A 
ATOM     88  F   UNL     1     -19.156  -3.806  -6.214  1.00  0.00    -0.203 F 
ATOM     89  C   UNL     1     -21.173  -3.325  -7.328  1.00  0.00     0.198 A 
ATOM     90  C   UNL     1     -21.689  -1.067  -7.960  1.00  0.00     0.198 A 
ATOM     91  F   UNL     1     -20.163   0.662  -7.498  1.00  0.00    -0.203 F 
ATOM     92  F   UNL     1     -21.493  -4.627  -7.309  1.00  0.00    -0.200 F 
ATOM     93  C   UNL     1     -22.035  -2.409  -7.914  1.00  0.00     0.200 A 
ATOM     94  F   UNL     1     -22.526  -0.179  -8.514  1.00  0.00    -0.200 F 
ATOM     95  F   UNL     1     -23.195  -2.822  -8.442  1.00  0.00    -0.200 F 
ENDBRANCH  62  85
ENDBRANCH  36  37
ENDBRANCH  28  31
ENDBRANCH  26  27
ENDBRANCH  25  26
ENDBRANCH  24  25
ENDBRANCH   1  24
TORSDOF 18
