REMARK SMILES O=C(NCCCCNC(=O)c1ccc([C@@H]2CC(O)=Nc3c2ncn3-c2cccc(Cl)c2)cc1)c1ccc(-c2c3nc(c(-c4c(F)c(F)c(F)c(F)c4F)c4ccc([nH]4)c(-c4c(F)c(F)c(F)c(F)c4F)c4nc(c(-c5c(F)c(F)c(F)c(F)c5F)c5ccc2[nH]5)C=C4)C=C3)cc1
REMARK SMILES IDX 5 1 4 2 3 3 1 4 2 5 34 7 35 8 96 9 36 10 95 11 37 12 38 13
REMARK SMILES IDX 39 14 89 15 40 16 94 17 88 18 90 19 41 20 93 21 87 22 86 23
REMARK SMILES IDX 42 25 74 26 54 27 73 28 55 29 58 30 72 31 91 32 56 33 57 34
REMARK SMILES IDX 71 36 92 37 59 38 43 39 44 40 52 41 45 42 46 43 50 44 53 45
REMARK SMILES IDX 47 46 48 47 51 48 49 49 75 50 76 51 84 52 77 53 78 54 82 55
REMARK SMILES IDX 85 56 79 57 80 58 83 59 81 60 60 61 61 62 69 63 62 64 63 65
REMARK SMILES IDX 67 66 70 67 64 68 65 69 68 70 66 71 6 72 7 73 8 74 9 75
REMARK SMILES IDX 10 77 11 78 12 79 33 80 13 81 32 82 14 83 15 84 16 85 21 86
REMARK SMILES IDX 17 87 20 88 22 89 19 90 24 91 23 92 18 93 25 95 26 96 31 97
REMARK SMILES IDX 27 98 29 99 28 100 30 101
REMARK H PARENT 3 6 90 24 58 35 8 76 18 94
REMARK Flexibility Score: inf
ROOT
ATOM      1  C   UNL     1       4.947   0.501   2.251  1.00  0.00     0.023 C 
ENDROOT
BRANCH   1   2
ATOM      2  C   UNL     1       4.635  -0.317   1.000  1.00  0.00     0.116 C 
BRANCH   2   3
ATOM      3  N   UNL     1       3.229  -0.580   0.776  1.00  0.00    -0.352 N 
ATOM      4  O   UNL     1       1.163  -0.544  -0.001  1.00  0.00    -0.269 OA
ATOM      5  C   UNL     1       2.200   0.100   0.185  1.00  0.00     0.251 C 
ATOM      6  H   UNL     1       2.947  -1.453   1.133  1.00  0.00     0.163 HD
BRANCH   5   7
ATOM      7  C   UNL     1       2.209   1.545  -0.177  1.00  0.00     0.039 A 
ATOM      8  C   UNL     1       3.333   2.365  -0.262  1.00  0.00     0.014 A 
ATOM      9  C   UNL     1       0.945   2.115  -0.436  1.00  0.00     0.014 A 
ATOM     10  C   UNL     1       3.189   3.731  -0.519  1.00  0.00     0.010 A 
ATOM     11  C   UNL     1       0.795   3.474  -0.698  1.00  0.00     0.010 A 
ATOM     12  C   UNL     1       1.919   4.290  -0.713  1.00  0.00    -0.014 A 
BRANCH  12  13
ATOM     13  C   UNL     1       1.832   5.690  -1.129  1.00  0.00     0.031 A 
ATOM     14  C   UNL     1       2.399   5.950  -2.482  1.00  0.00     0.074 A 
ATOM     15  C   UNL     1       1.195   6.670  -0.455  1.00  0.00     0.049 A 
ATOM     16  N   UNL     1       3.432   6.668  -2.782  1.00  0.00    -0.248 NA
ATOM     17  C   UNL     1       1.815   5.239  -3.629  1.00  0.00     0.031 C 
ATOM     18  C   UNL     1       0.334   6.543   0.722  1.00  0.00     0.029 A 
ATOM     19  N   UNL     1       1.123   8.006  -0.743  1.00  0.00    -0.354 N 
ATOM     20  C   UNL     1       3.538   6.637  -4.170  1.00  0.00     0.074 A 
ATOM     21  C   UNL     1       2.607   5.638  -4.626  1.00  0.00     0.031 C 
ATOM     22  C   UNL     1      -0.331   7.706   0.919  1.00  0.00     0.029 A 
ATOM     23  C   UNL     1       0.151   8.699  -0.028  1.00  0.00     0.049 A 
ATOM     24  H   UNL     1       1.711   8.441  -1.402  1.00  0.00     0.167 HD
ATOM     25  C   UNL     1       4.238   7.590  -4.845  1.00  0.00     0.037 A 
ATOM     26  C   UNL     1      -0.253   9.981  -0.228  1.00  0.00     0.037 A 
ATOM     27  C   UNL     1       5.116   8.312  -3.963  1.00  0.00     0.049 A 
ATOM     28  C   UNL     1       0.815  10.677  -0.984  1.00  0.00     0.074 A 
ATOM     29  C   UNL     1       6.199   7.986  -3.173  1.00  0.00     0.029 A 
ATOM     30  N   UNL     1       4.704   9.550  -3.540  1.00  0.00    -0.354 N 
ATOM     31  N   UNL     1       1.978  10.987  -0.489  1.00  0.00    -0.248 NA
ATOM     32  C   UNL     1       0.729  10.683  -2.435  1.00  0.00     0.031 C 
ATOM     33  C   UNL     1       6.083   8.820  -2.022  1.00  0.00     0.029 A 
ATOM     34  C   UNL     1       4.973   9.645  -2.203  1.00  0.00     0.049 A 
ATOM     35  H   UNL     1       4.288  10.245  -4.099  1.00  0.00     0.167 HD
ATOM     36  C   UNL     1       2.863  10.770  -1.532  1.00  0.00     0.074 A 
ATOM     37  C   UNL     1       2.031  10.702  -2.729  1.00  0.00     0.031 C 
ATOM     38  C   UNL     1       4.147  10.384  -1.280  1.00  0.00     0.037 A 
BRANCH  25  39
ATOM     39  C   UNL     1       3.858   8.142  -6.201  1.00  0.00     0.064 A 
ATOM     40  C   UNL     1       4.723   9.064  -6.830  1.00  0.00     0.173 A 
ATOM     41  C   UNL     1       2.556   8.067  -6.739  1.00  0.00     0.173 A 
ATOM     42  F   UNL     1       5.980   9.230  -6.393  1.00  0.00    -0.203 F 
ATOM     43  C   UNL     1       4.284   9.912  -7.850  1.00  0.00     0.198 A 
ATOM     44  C   UNL     1       2.138   8.879  -7.793  1.00  0.00     0.198 A 
ATOM     45  F   UNL     1       1.604   7.300  -6.197  1.00  0.00    -0.203 F 
ATOM     46  F   UNL     1       5.099  10.868  -8.317  1.00  0.00    -0.200 F 
ATOM     47  C   UNL     1       2.989   9.825  -8.324  1.00  0.00     0.200 A 
ATOM     48  F   UNL     1       0.872   8.794  -8.226  1.00  0.00    -0.200 F 
ATOM     49  F   UNL     1       2.544  10.683  -9.251  1.00  0.00    -0.200 F 
ENDBRANCH  25  39
BRANCH  26  50
ATOM     50  C   UNL     1      -1.592  10.599  -0.054  1.00  0.00     0.064 A 
ATOM     51  C   UNL     1      -1.753  11.997  -0.037  1.00  0.00     0.173 A 
ATOM     52  C   UNL     1      -2.765   9.839  -0.213  1.00  0.00     0.173 A 
ATOM     53  F   UNL     1      -0.684  12.800   0.066  1.00  0.00    -0.203 F 
ATOM     54  C   UNL     1      -3.006  12.597  -0.209  1.00  0.00     0.198 A 
ATOM     55  C   UNL     1      -4.016  10.439  -0.378  1.00  0.00     0.198 A 
ATOM     56  F   UNL     1      -2.709   8.504  -0.315  1.00  0.00    -0.203 F 
ATOM     57  F   UNL     1      -3.108  13.933  -0.262  1.00  0.00    -0.200 F 
ATOM     58  C   UNL     1      -4.134  11.817  -0.393  1.00  0.00     0.200 A 
ATOM     59  F   UNL     1      -5.095   9.674  -0.594  1.00  0.00    -0.200 F 
ATOM     60  F   UNL     1      -5.324  12.388  -0.628  1.00  0.00    -0.200 F 
ENDBRANCH  26  50
BRANCH  38  61
ATOM     61  C   UNL     1       4.662  10.539   0.122  1.00  0.00     0.064 A 
ATOM     62  C   UNL     1       4.127   9.883   1.245  1.00  0.00     0.173 A 
ATOM     63  C   UNL     1       5.827  11.295   0.309  1.00  0.00     0.173 A 
ATOM     64  F   UNL     1       3.074   9.062   1.133  1.00  0.00    -0.203 F 
ATOM     65  C   UNL     1       4.710  10.023   2.504  1.00  0.00     0.198 A 
ATOM     66  C   UNL     1       6.429  11.398   1.558  1.00  0.00     0.198 A 
ATOM     67  F   UNL     1       6.409  11.902  -0.737  1.00  0.00    -0.203 F 
ATOM     68  F   UNL     1       4.172   9.405   3.566  1.00  0.00    -0.200 F 
ATOM     69  C   UNL     1       5.864  10.773   2.657  1.00  0.00     0.200 A 
ATOM     70  F   UNL     1       7.573  12.083   1.690  1.00  0.00    -0.200 F 
ATOM     71  F   UNL     1       6.448  10.873   3.860  1.00  0.00    -0.200 F 
ENDBRANCH  38  61
ENDBRANCH  12  13
ENDBRANCH   5   7
ENDBRANCH   2   3
ENDBRANCH   1   2
BRANCH   1  72
ATOM     72  C   UNL     1       4.449  -0.093   3.573  1.00  0.00     0.023 C 
BRANCH  72  73
ATOM     73  C   UNL     1       4.876  -1.529   3.869  1.00  0.00     0.116 C 
BRANCH  73  74
ATOM     74  N   UNL     1       6.318  -1.687   3.958  1.00  0.00    -0.352 N 
ATOM     75  C   UNL     1       7.076  -2.257   4.956  1.00  0.00     0.251 C 
ATOM     76  H   UNL     1       6.827  -1.335   3.193  1.00  0.00     0.163 HD
ATOM     77  O   UNL     1       8.294  -2.187   4.914  1.00  0.00    -0.269 OA
BRANCH  75  78
ATOM     78  C   UNL     1       6.418  -2.939   6.094  1.00  0.00     0.039 A 
ATOM     79  C   UNL     1       6.837  -2.627   7.388  1.00  0.00     0.014 A 
ATOM     80  C   UNL     1       5.422  -3.899   5.892  1.00  0.00     0.014 A 
ATOM     81  C   UNL     1       6.210  -3.225   8.483  1.00  0.00     0.005 A 
ATOM     82  C   UNL     1       4.786  -4.486   6.988  1.00  0.00     0.005 A 
ATOM     83  C   UNL     1       5.165  -4.150   8.299  1.00  0.00    -0.038 A 
BRANCH  83  84
ATOM     84  C   UNL     1       4.516  -4.786   9.516  1.00  0.00     0.081 C 
ATOM     85  C   UNL     1       4.620  -6.328   9.500  1.00  0.00     0.111 C 
ATOM     86  C   UNL     1       3.100  -4.335   9.539  1.00  0.00     0.093 A 
ATOM     87  C   UNL     1       3.306  -7.063   9.291  1.00  0.00     0.188 C 
ATOM     88  C   UNL     1       2.059  -5.235   9.507  1.00  0.00     0.164 A 
ATOM     89  N   UNL     1       2.649  -3.042   9.560  1.00  0.00    -0.238 NA
ATOM     90  N   UNL     1       2.108  -6.578   9.346  1.00  0.00    -0.198 NA
ATOM     91  N   UNL     1       0.911  -4.467   9.527  1.00  0.00    -0.283 N 
ATOM     92  C   UNL     1       1.336  -3.153   9.503  1.00  0.00     0.206 A 
BRANCH  87  93
ATOM     93  O   UNL     1       3.446  -8.383   9.062  1.00  0.00    -0.496 OA
ATOM     94  H   UNL     1       4.301  -8.762   9.016  1.00  0.00     0.294 HD
ENDBRANCH  87  93
BRANCH  91  95
ATOM     95  C   UNL     1      -0.424  -4.927   9.565  1.00  0.00     0.050 A 
ATOM     96  C   UNL     1      -1.409  -4.300   8.793  1.00  0.00     0.027 A 
ATOM     97  C   UNL     1      -0.749  -6.024  10.374  1.00  0.00     0.047 A 
ATOM     98  C   UNL     1      -2.711  -4.807   8.799  1.00  0.00     0.004 A 
ATOM     99  C   UNL     1      -2.062  -6.485  10.410  1.00  0.00     0.043 A 
ATOM    100  C   UNL     1      -3.040  -5.893   9.614  1.00  0.00     0.020 A 
ATOM    101  Cl  UNL     1      -2.483  -7.784  11.458  1.00  0.00    -0.084 Cl
ENDBRANCH  91  95
ENDBRANCH  83  84
ENDBRANCH  75  78
ENDBRANCH  73  74
ENDBRANCH  72  73
ENDBRANCH   1  72
TORSDOF 14
