REMARK SMILES O=C(/C=C/c1c(Cl)cccc1Cl)NCC(=O)NCCCCNC(=O)c1ccc(-c2c3nc(c(-c4c(F)c(F)c(F)c(F)c4F)c4ccc([nH]4)c(-c4c(F)c(F)c(F)c(F)c4F)c4nc(c(-c5c(F)c(F)c(F)c(F)c5F)c5ccc2[nH]5)C=C4)C=C3)cc1
REMARK SMILES IDX 19 1 18 2 17 3 15 4 16 5 14 7 13 8 1 9 2 10 3 12 4 13 5 14
REMARK SMILES IDX 6 15 11 16 7 17 8 18 10 19 12 20 9 21 20 22 21 23 22 24
REMARK SMILES IDX 23 25 24 27 25 28 26 29 87 30 27 31 86 32 28 33 29 34 30 35
REMARK SMILES IDX 80 36 31 37 85 38 79 39 81 40 32 41 84 42 78 43 77 44 33 46
REMARK SMILES IDX 65 47 45 48 64 49 46 50 49 51 63 52 82 53 47 54 48 55 62 57
REMARK SMILES IDX 83 58 50 59 34 60 35 61 43 62 36 63 37 64 41 65 44 66 38 67
REMARK SMILES IDX 39 68 42 69 40 70 66 71 67 72 75 73 68 74 69 75 73 76 76 77
REMARK SMILES IDX 70 78 71 79 74 80 72 81 51 82 52 83 60 84 53 85 54 86 58 87
REMARK SMILES IDX 61 88 55 89 56 90 59 91 57 92
REMARK H PARENT 17 6 13 11 22 26 81 45 49 56
REMARK Flexibility Score: inf
ROOT
ATOM      1  C   UNL     1       2.594   0.018  -3.370  1.00  0.00     0.023 C 
ENDROOT
BRANCH   1   2
ATOM      2  C   UNL     1       1.645  -1.110  -2.966  1.00  0.00     0.116 C 
BRANCH   2   3
ATOM      3  N   UNL     1       2.339  -2.378  -2.846  1.00  0.00    -0.355 N 
ATOM      4  C   UNL     1       2.733  -3.029  -1.711  1.00  0.00     0.239 C 
ATOM      5  O   UNL     1       3.282  -4.126  -1.829  1.00  0.00    -0.273 OA
ATOM      6  H   UNL     1       2.555  -2.829  -3.694  1.00  0.00     0.163 HD
BRANCH   4   7
ATOM      7  C   UNL     1       2.440  -2.427  -0.334  1.00  0.00     0.216 C 
BRANCH   7   8
ATOM      8  N   UNL     1       3.113  -1.152  -0.145  1.00  0.00    -0.343 N 
ATOM      9  O   UNL     1       1.226   0.011   0.432  1.00  0.00    -0.270 OA
ATOM     10  C   UNL     1       2.435  -0.027   0.234  1.00  0.00     0.244 C 
ATOM     11  H   UNL     1       4.085  -1.098  -0.294  1.00  0.00     0.164 HD
BRANCH  10  12
ATOM     12  C   UNL     1       3.222   1.227   0.295  1.00  0.00     0.072 C 
ATOM     13  C   UNL     1       4.543   1.310   0.515  1.00  0.00     0.017 C 
BRANCH  13  14
ATOM     14  C   UNL     1       5.250   2.605   0.577  1.00  0.00     0.012 A 
ATOM     15  C   UNL     1       4.988   3.558   1.582  1.00  0.00     0.049 A 
ATOM     16  C   UNL     1       6.247   2.909  -0.371  1.00  0.00     0.049 A 
ATOM     17  Cl  UNL     1       3.829   3.285   2.841  1.00  0.00    -0.084 Cl
ATOM     18  C   UNL     1       5.685   4.772   1.623  1.00  0.00     0.021 A 
ATOM     19  C   UNL     1       6.948   4.121  -0.320  1.00  0.00     0.021 A 
ATOM     20  Cl  UNL     1       6.655   1.814  -1.652  1.00  0.00    -0.084 Cl
ATOM     21  C   UNL     1       6.665   5.053   0.675  1.00  0.00     0.003 A 
ENDBRANCH  13  14
ENDBRANCH  10  12
ENDBRANCH   7   8
ENDBRANCH   4   7
ENDBRANCH   2   3
ENDBRANCH   1   2
BRANCH   1  22
ATOM     22  C   UNL     1       3.135  -0.087  -4.800  1.00  0.00     0.023 C 
BRANCH  22  23
ATOM     23  C   UNL     1       2.077  -0.112  -5.899  1.00  0.00     0.116 C 
BRANCH  23  24
ATOM     24  N   UNL     1       1.239   1.078  -5.920  1.00  0.00    -0.352 N 
ATOM     25  C   UNL     1       0.785   1.792  -7.003  1.00  0.00     0.251 C 
ATOM     26  H   UNL     1       0.959   1.416  -5.039  1.00  0.00     0.163 HD
ATOM     27  O   UNL     1       0.173   2.844  -6.847  1.00  0.00    -0.269 OA
BRANCH  25  28
ATOM     28  C   UNL     1       1.081   1.307  -8.367  1.00  0.00     0.039 A 
ATOM     29  C   UNL     1       1.658   2.189  -9.285  1.00  0.00     0.014 A 
ATOM     30  C   UNL     1       0.834  -0.022  -8.721  1.00  0.00     0.014 A 
ATOM     31  C   UNL     1       2.074   1.713 -10.530  1.00  0.00     0.010 A 
ATOM     32  C   UNL     1       1.301  -0.507  -9.939  1.00  0.00     0.010 A 
ATOM     33  C   UNL     1       1.944   0.351 -10.845  1.00  0.00    -0.014 A 
BRANCH  33  34
ATOM     34  C   UNL     1       2.519  -0.213 -12.092  1.00  0.00     0.031 A 
ATOM     35  C   UNL     1       1.621  -0.799 -13.143  1.00  0.00     0.074 A 
ATOM     36  C   UNL     1       3.857  -0.285 -12.229  1.00  0.00     0.049 A 
ATOM     37  N   UNL     1       1.940  -1.447 -14.235  1.00  0.00    -0.248 NA
ATOM     38  C   UNL     1       0.174  -0.658 -12.926  1.00  0.00     0.031 C 
ATOM     39  C   UNL     1       4.834   0.211 -11.259  1.00  0.00     0.029 A 
ATOM     40  N   UNL     1       4.628  -0.826 -13.229  1.00  0.00    -0.354 N 
ATOM     41  C   UNL     1       0.736  -1.805 -14.825  1.00  0.00     0.074 A 
ATOM     42  C   UNL     1      -0.320  -1.338 -13.951  1.00  0.00     0.031 C 
ATOM     43  C   UNL     1       6.072  -0.040 -11.713  1.00  0.00     0.029 A 
ATOM     44  C   UNL     1       5.978  -0.753 -12.983  1.00  0.00     0.049 A 
ATOM     45  H   UNL     1       4.250  -1.228 -14.044  1.00  0.00     0.167 HD
ATOM     46  C   UNL     1       0.532  -2.451 -15.998  1.00  0.00     0.037 A 
ATOM     47  C   UNL     1       7.021  -1.227 -13.690  1.00  0.00     0.037 A 
ATOM     48  C   UNL     1       1.583  -2.891 -16.876  1.00  0.00     0.049 A 
ATOM     49  C   UNL     1       6.765  -1.964 -14.976  1.00  0.00     0.074 A 
ATOM     50  C   UNL     1       1.475  -3.480 -18.123  1.00  0.00     0.029 A 
ATOM     51  N   UNL     1       2.938  -2.796 -16.595  1.00  0.00    -0.354 N 
ATOM     52  N   UNL     1       5.624  -2.235 -15.559  1.00  0.00    -0.248 NA
ATOM     53  C   UNL     1       7.942  -2.467 -15.698  1.00  0.00     0.031 C 
ATOM     54  C   UNL     1       2.763  -3.783 -18.577  1.00  0.00     0.029 A 
ATOM     55  C   UNL     1       3.675  -3.345 -17.631  1.00  0.00     0.049 A 
ATOM     56  H   UNL     1       3.320  -2.397 -15.779  1.00  0.00     0.167 HD
ATOM     57  C   UNL     1       5.943  -2.921 -16.723  1.00  0.00     0.074 A 
ATOM     58  C   UNL     1       7.387  -3.013 -16.771  1.00  0.00     0.031 C 
ATOM     59  C   UNL     1       5.113  -3.431 -17.664  1.00  0.00     0.037 A 
BRANCH  46  60
ATOM     60  C   UNL     1      -0.887  -2.719 -16.405  1.00  0.00     0.064 A 
ATOM     61  C   UNL     1      -1.736  -1.687 -16.832  1.00  0.00     0.173 A 
ATOM     62  C   UNL     1      -1.388  -4.029 -16.413  1.00  0.00     0.173 A 
ATOM     63  F   UNL     1      -1.306  -0.417 -16.832  1.00  0.00    -0.203 F 
ATOM     64  C   UNL     1      -3.043  -1.954 -17.229  1.00  0.00     0.198 A 
ATOM     65  C   UNL     1      -2.688  -4.296 -16.837  1.00  0.00     0.198 A 
ATOM     66  F   UNL     1      -0.615  -5.053 -16.021  1.00  0.00    -0.203 F 
ATOM     67  F   UNL     1      -3.849  -0.948 -17.593  1.00  0.00    -0.200 F 
ATOM     68  C   UNL     1      -3.516  -3.258 -17.238  1.00  0.00     0.200 A 
ATOM     69  F   UNL     1      -3.139  -5.557 -16.856  1.00  0.00    -0.200 F 
ATOM     70  F   UNL     1      -4.772  -3.514 -17.628  1.00  0.00    -0.200 F 
ENDBRANCH  46  60
BRANCH  47  71
ATOM     71  C   UNL     1       8.407  -1.018 -13.197  1.00  0.00     0.064 A 
ATOM     72  C   UNL     1       9.277  -0.137 -13.854  1.00  0.00     0.173 A 
ATOM     73  C   UNL     1       8.889  -1.690 -12.065  1.00  0.00     0.173 A 
ATOM     74  F   UNL     1       8.867   0.510 -14.955  1.00  0.00    -0.203 F 
ATOM     75  C   UNL     1      10.582   0.052 -13.406  1.00  0.00     0.198 A 
ATOM     76  C   UNL     1      10.187  -1.480 -11.602  1.00  0.00     0.198 A 
ATOM     77  F   UNL     1       8.095  -2.541 -11.399  1.00  0.00    -0.203 F 
ATOM     78  F   UNL     1      11.406   0.869 -14.076  1.00  0.00    -0.200 F 
ATOM     79  C   UNL     1      11.034  -0.615 -12.277  1.00  0.00     0.200 A 
ATOM     80  F   UNL     1      10.616  -2.116 -10.504  1.00  0.00    -0.200 F 
ATOM     81  F   UNL     1      12.289  -0.428 -11.844  1.00  0.00    -0.200 F 
ENDBRANCH  47  71
BRANCH  59  82
ATOM     82  C   UNL     1       5.743  -4.123 -18.836  1.00  0.00     0.064 A 
ATOM     83  C   UNL     1       6.308  -5.401 -18.712  1.00  0.00     0.173 A 
ATOM     84  C   UNL     1       5.733  -3.527 -20.105  1.00  0.00     0.173 A 
ATOM     85  F   UNL     1       6.356  -6.003 -17.514  1.00  0.00    -0.203 F 
ATOM     86  C   UNL     1       6.851  -6.051 -19.816  1.00  0.00     0.198 A 
ATOM     87  C   UNL     1       6.255  -4.191 -21.212  1.00  0.00     0.198 A 
ATOM     88  F   UNL     1       5.201  -2.307 -20.276  1.00  0.00    -0.203 F 
ATOM     89  F   UNL     1       7.417  -7.258 -19.669  1.00  0.00    -0.200 F 
ATOM     90  C   UNL     1       6.816  -5.451 -21.065  1.00  0.00     0.200 A 
ATOM     91  F   UNL     1       6.210  -3.615 -22.421  1.00  0.00    -0.200 F 
ATOM     92  F   UNL     1       7.330  -6.084 -22.129  1.00  0.00    -0.200 F 
ENDBRANCH  59  82
ENDBRANCH  33  34
ENDBRANCH  25  28
ENDBRANCH  23  24
ENDBRANCH  22  23
ENDBRANCH   1  22
TORSDOF 14
