REMARK SMILES COc1ccc([C@@H]2C3=C(C[C@@H](c4ccccc4)CC3=O)Nc3ccccc3N2C(=O)CCC(=O)NCCCCNC(=O)c2ccc(-c3c4nc(c(-c5c(F)c(F)c(F)c(F)c5F)c5ccc([nH]5)c(-c5c(F)c(F)c(F)c(F)c5F)c5nc(c(-c6c(F)c(F)c(F)c(F)c6F)c6ccc3[nH]6)C=C5)C=C4)cc2)cc1
REMARK SMILES IDX 33 1 34 2 35 3 32 5 31 6 29 7 30 8 28 9 7 10 6 12 3 13 4 14
REMARK SMILES IDX 107 15 5 16 106 17 2 18 1 19 27 20 22 21 26 22 23 23 25 24
REMARK SMILES IDX 24 25 21 26 9 28 8 29 10 30 19 31 11 33 18 34 20 35 12 36
REMARK SMILES IDX 13 37 17 38 14 39 16 40 15 41 36 42 37 43 38 44 39 45 40 46
REMARK SMILES IDX 41 47 42 49 43 50 44 51 105 52 45 53 104 54 46 55 47 56
REMARK SMILES IDX 48 57 98 58 49 59 103 60 97 61 99 62 50 63 102 64 96 65
REMARK SMILES IDX 95 66 51 68 83 69 63 70 82 71 64 72 67 73 81 74 100 75 65 76
REMARK SMILES IDX 66 77 80 79 101 80 68 81 52 82 53 83 61 84 54 85 55 86 59 87
REMARK SMILES IDX 62 88 56 89 57 90 60 91 58 92 84 93 85 94 93 95 86 96 87 97
REMARK SMILES IDX 91 98 94 99 88 100 89 101 92 102 90 103 69 104 70 105 78 106
REMARK SMILES IDX 71 107 72 108 76 109 79 110 73 111 74 112 77 113 75 114
REMARK H PARENT 35 4 21 27 40 48 99 67 67 78
REMARK Flexibility Score: 90.00
ROOT
ATOM      1  C   UNL     1      -0.267   5.732  -3.250  1.00  0.00     0.220 C 
ATOM      2  O   UNL     1      -0.056   6.861  -2.804  1.00  0.00    -0.275 OA
ATOM      3  N   UNL     1       0.133   4.666  -2.512  1.00  0.00    -0.356 N 
ATOM      4  H   UNL     1       0.700   4.893  -1.740  1.00  0.00     0.163 HD
ENDROOT
BRANCH   1   5
ATOM      5  C   UNL     1      -0.914   5.532  -4.596  1.00  0.00     0.110 C 
BRANCH   5   6
ATOM      6  C   UNL     1       0.010   6.037  -5.694  1.00  0.00     0.110 C 
BRANCH   6   7
ATOM      7  C   UNL     1       1.203   5.101  -5.901  1.00  0.00     0.228 C 
ATOM      8  O   UNL     1       0.982   3.950  -6.294  1.00  0.00    -0.274 OA
BRANCH   7   9
ATOM      9  N   UNL     1       2.494   5.579  -5.658  1.00  0.00    -0.298 N 
BRANCH   9  10
ATOM     10  C   UNL     1       3.653   4.850  -6.251  1.00  0.00     0.156 CG0
ATOM     11  G   UNL     1       4.208   5.500  -7.532  1.00  0.00     0.000 G0
BRANCH  10  12
ATOM     12  C   UNL     1       4.788   4.366  -5.345  1.00  0.00    -0.020 A 
ATOM     13  C   UNL     1       7.444   4.168  -4.612  1.00  0.00     0.118 A 
ATOM     14  C   UNL     1       6.605   4.988  -3.873  1.00  0.00     0.047 A 
ATOM     15  C   UNL     1       6.932   3.275  -5.546  1.00  0.00     0.047 A 
ATOM     16  C   UNL     1       5.267   5.090  -4.246  1.00  0.00     0.010 A 
ATOM     17  C   UNL     1       5.591   3.340  -5.883  1.00  0.00     0.010 A 
BRANCH  13  18
ATOM     18  O   UNL     1       8.795   4.304  -4.458  1.00  0.00    -0.497 OA
ATOM     19  C   UNL     1       9.293   5.071  -5.563  1.00  0.00     0.278 C 
ENDBRANCH  13  18
ENDBRANCH  10  12
ENDBRANCH   9  10
BRANCH   9  20
ATOM     20  C   UNL     1       2.700   6.958  -5.432  1.00  0.00     0.068 A 
ATOM     21  C   UNL     1       2.832   7.803  -6.548  1.00  0.00     0.062 A 
ATOM     22  C   UNL     1       2.792   7.443  -4.127  1.00  0.00     0.028 A 
ATOM     23  C   UNL     1       3.295   9.101  -6.320  1.00  0.00     0.028 A 
ATOM     24  C   UNL     1       3.212   8.749  -3.917  1.00  0.00     0.002 A 
ATOM     25  C   UNL     1       3.510   9.560  -5.011  1.00  0.00     0.002 A 
BRANCH  21  26
ATOM     26  N   UNL     1       2.654   7.280  -7.859  1.00  0.00    -0.357 N 
ATOM     27  H   UNL     1       1.927   7.627  -8.425  1.00  0.00     0.166 HD
BRANCH  26  28
ATOM     28  C   UNL     1       3.490   6.288  -8.349  1.00  0.00     0.025 C 
ATOM     29  C   UNL     1       4.208   5.500  -7.532  1.00  0.00     0.042 CG0
ATOM     30  C   UNL     1       3.894   6.272  -9.808  1.00  0.00     0.063 C 
ATOM     31  C   UNL     1       5.582   6.140  -7.568  1.00  0.00     0.163 C 
ATOM     32  G   UNL     1       3.653   4.850  -6.251  1.00  0.00     0.000 G0
ATOM     33  C   UNL     1       5.349   6.728 -10.040  1.00  0.00     0.033 C 
ATOM     34  C   UNL     1       6.280   6.288  -8.904  1.00  0.00     0.089 C 
ATOM     35  O   UNL     1       6.130   6.585  -6.562  1.00  0.00    -0.294 OA
BRANCH  33  36
ATOM     36  C   UNL     1       5.467   8.199 -10.429  1.00  0.00    -0.044 A 
ATOM     37  C   UNL     1       4.540   9.165 -10.021  1.00  0.00     0.004 A 
ATOM     38  C   UNL     1       6.473   8.602 -11.320  1.00  0.00     0.004 A 
ATOM     39  C   UNL     1       4.551  10.460 -10.535  1.00  0.00     0.000 A 
ATOM     40  C   UNL     1       6.492   9.903 -11.835  1.00  0.00     0.000 A 
ATOM     41  C   UNL     1       5.519  10.825 -11.457  1.00  0.00     0.000 A 
ENDBRANCH  33  36
ENDBRANCH  26  28
ENDBRANCH  21  26
ENDBRANCH   9  20
ENDBRANCH   7   9
ENDBRANCH   6   7
ENDBRANCH   5   6
ENDBRANCH   1   5
BRANCH   3  42
ATOM     42  C   UNL     1      -0.133   3.246  -2.666  1.00  0.00     0.116 C 
BRANCH  42  43
ATOM     43  C   UNL     1       1.000   2.412  -3.280  1.00  0.00     0.023 C 
BRANCH  43  44
ATOM     44  C   UNL     1       2.406   2.958  -3.037  1.00  0.00     0.023 C 
BRANCH  44  45
ATOM     45  C   UNL     1       3.523   1.941  -2.800  1.00  0.00     0.116 C 
BRANCH  45  46
ATOM     46  N   UNL     1       3.582   0.833  -3.731  1.00  0.00    -0.352 N 
ATOM     47  C   UNL     1       4.612   0.039  -4.180  1.00  0.00     0.251 C 
ATOM     48  H   UNL     1       2.708   0.601  -4.121  1.00  0.00     0.163 HD
ATOM     49  O   UNL     1       4.293  -0.923  -4.888  1.00  0.00    -0.269 OA
BRANCH  47  50
ATOM     50  C   UNL     1       6.070   0.278  -3.932  1.00  0.00     0.039 A 
ATOM     51  C   UNL     1       6.979  -0.359  -4.801  1.00  0.00     0.014 A 
ATOM     52  C   UNL     1       6.602   1.089  -2.934  1.00  0.00     0.014 A 
ATOM     53  C   UNL     1       8.366  -0.141  -4.716  1.00  0.00     0.010 A 
ATOM     54  C   UNL     1       7.976   1.380  -2.908  1.00  0.00     0.010 A 
ATOM     55  C   UNL     1       8.884   0.772  -3.795  1.00  0.00    -0.014 A 
BRANCH  55  56
ATOM     56  C   UNL     1      10.345   1.089  -3.696  1.00  0.00     0.031 A 
ATOM     57  C   UNL     1      11.059   0.886  -2.381  1.00  0.00     0.074 A 
ATOM     58  C   UNL     1      11.033   1.629  -4.726  1.00  0.00     0.049 A 
ATOM     59  N   UNL     1      12.278   1.217  -2.031  1.00  0.00    -0.248 NA
ATOM     60  C   UNL     1      10.293   0.223  -1.313  1.00  0.00     0.031 C 
ATOM     61  C   UNL     1      10.514   1.879  -6.069  1.00  0.00     0.029 A 
ATOM     62  N   UNL     1      12.320   2.121  -4.783  1.00  0.00    -0.354 N 
ATOM     63  C   UNL     1      12.421   0.793  -0.716  1.00  0.00     0.074 A 
ATOM     64  C   UNL     1      11.139   0.273  -0.297  1.00  0.00     0.031 C 
ATOM     65  C   UNL     1      11.433   2.545  -6.789  1.00  0.00     0.029 A 
ATOM     66  C   UNL     1      12.611   2.772  -5.960  1.00  0.00     0.049 A 
ATOM     67  H   UNL     1      12.970   2.017  -4.051  1.00  0.00     0.167 HD
ATOM     68  C   UNL     1      13.532   0.776   0.059  1.00  0.00     0.037 A 
ATOM     69  C   UNL     1      13.690   3.491  -6.330  1.00  0.00     0.037 A 
ATOM     70  C   UNL     1      14.820   1.266  -0.351  1.00  0.00     0.049 A 
ATOM     71  C   UNL     1      14.881   3.569  -5.416  1.00  0.00     0.074 A 
ATOM     72  C   UNL     1      16.022   1.212   0.332  1.00  0.00     0.029 A 
ATOM     73  N   UNL     1      15.070   1.913  -1.551  1.00  0.00    -0.354 N 
ATOM     74  N   UNL     1      15.034   3.072  -4.215  1.00  0.00    -0.248 NA
ATOM     75  C   UNL     1      16.068   4.269  -5.930  1.00  0.00     0.031 C 
ATOM     76  C   UNL     1      16.992   1.865  -0.436  1.00  0.00     0.029 A 
ATOM     77  C   UNL     1      16.403   2.285  -1.617  1.00  0.00     0.049 A 
ATOM     78  H   UNL     1      14.400   2.083  -2.252  1.00  0.00     0.167 HD
ATOM     79  C   UNL     1      16.349   3.337  -3.857  1.00  0.00     0.074 A 
ATOM     80  C   UNL     1      16.946   4.060  -4.959  1.00  0.00     0.031 C 
ATOM     81  C   UNL     1      17.004   2.985  -2.724  1.00  0.00     0.037 A 
BRANCH  68  82
ATOM     82  C   UNL     1      13.404   0.162   1.423  1.00  0.00     0.064 A 
ATOM     83  C   UNL     1      13.200  -1.218   1.583  1.00  0.00     0.173 A 
ATOM     84  C   UNL     1      13.505   0.949   2.579  1.00  0.00     0.173 A 
ATOM     85  F   UNL     1      13.088  -2.014   0.508  1.00  0.00    -0.203 F 
ATOM     86  C   UNL     1      13.063  -1.781   2.848  1.00  0.00     0.198 A 
ATOM     87  C   UNL     1      13.399   0.377   3.844  1.00  0.00     0.198 A 
ATOM     88  F   UNL     1      13.709   2.271   2.483  1.00  0.00    -0.203 F 
ATOM     89  F   UNL     1      12.810  -3.091   2.973  1.00  0.00    -0.200 F 
ATOM     90  C   UNL     1      13.168  -0.984   3.978  1.00  0.00     0.200 A 
ATOM     91  F   UNL     1      13.514   1.145   4.937  1.00  0.00    -0.200 F 
ATOM     92  F   UNL     1      13.038  -1.527   5.196  1.00  0.00    -0.200 F 
ENDBRANCH  68  82
BRANCH  69  93
ATOM     93  C   UNL     1      13.710   4.182  -7.647  1.00  0.00     0.064 A 
ATOM     94  C   UNL     1      14.481   3.696  -8.710  1.00  0.00     0.173 A 
ATOM     95  C   UNL     1      12.979   5.361  -7.856  1.00  0.00     0.173 A 
ATOM     96  F   UNL     1      15.220   2.589  -8.548  1.00  0.00    -0.203 F 
ATOM     97  C   UNL     1      14.535   4.372  -9.928  1.00  0.00     0.198 A 
ATOM     98  C   UNL     1      13.015   6.024  -9.082  1.00  0.00     0.198 A 
ATOM     99  F   UNL     1      12.233   5.874  -6.868  1.00  0.00    -0.203 F 
ATOM    100  F   UNL     1      15.315   3.909 -10.915  1.00  0.00    -0.200 F 
ATOM    101  C   UNL     1      13.799   5.532 -10.115  1.00  0.00     0.200 A 
ATOM    102  F   UNL     1      12.298   7.141  -9.260  1.00  0.00    -0.200 F 
ATOM    103  F   UNL     1      13.852   6.182 -11.286  1.00  0.00    -0.200 F 
ENDBRANCH  69  93
BRANCH  81 104
ATOM    104  C   UNL     1      18.468   3.301  -2.642  1.00  0.00     0.064 A 
ATOM    105  C   UNL     1      18.937   4.610  -2.466  1.00  0.00     0.173 A 
ATOM    106  C   UNL     1      19.415   2.266  -2.703  1.00  0.00     0.173 A 
ATOM    107  F   UNL     1      18.074   5.636  -2.421  1.00  0.00    -0.203 F 
ATOM    108  C   UNL     1      20.302   4.874  -2.374  1.00  0.00     0.198 A 
ATOM    109  C   UNL     1      20.776   2.530  -2.581  1.00  0.00     0.198 A 
ATOM    110  F   UNL     1      19.018   0.995  -2.868  1.00  0.00    -0.203 F 
ATOM    111  F   UNL     1      20.731   6.138  -2.251  1.00  0.00    -0.200 F 
ATOM    112  C   UNL     1      21.219   3.834  -2.423  1.00  0.00     0.200 A 
ATOM    113  F   UNL     1      21.659   1.522  -2.616  1.00  0.00    -0.200 F 
ATOM    114  F   UNL     1      22.530   4.090  -2.325  1.00  0.00    -0.200 F 
ENDBRANCH  81 104
ENDBRANCH  55  56
ENDBRANCH  47  50
ENDBRANCH  45  46
ENDBRANCH  44  45
ENDBRANCH  43  44
ENDBRANCH  42  43
ENDBRANCH   3  42
TORSDOF 17
