REMARK SMILES O=C(COc1ccccc1/C=C1/SC(=S)N(c2ccc(F)c(Cl)c2)C1=O)NCCCCNC(=O)c1ccc(-c2c3nc(c(-c4c(F)c(F)c(F)c(F)c4F)c4ccc([nH]4)c(-c4c(F)c(F)c(F)c(F)c4F)c4nc(c(-c5c(F)c(F)c(F)c(F)c5F)c5ccc2[nH]5)C=C4)C=C3)cc1
REMARK SMILES IDX 28 1 27 2 1 3 2 4 3 6 4 7 5 8 6 9 10 10 7 11 9 12 8 13 11 14
REMARK SMILES IDX 12 15 13 16 25 17 14 18 16 19 26 20 15 21 17 22 18 23 24 24
REMARK SMILES IDX 19 25 22 26 20 27 23 28 21 29 29 30 30 31 31 32 32 33 33 34
REMARK SMILES IDX 34 36 35 37 36 38 97 39 37 40 96 41 38 42 39 43 40 44 90 45
REMARK SMILES IDX 41 46 95 47 89 48 91 49 42 50 94 51 88 52 87 53 43 55 75 56
REMARK SMILES IDX 55 57 74 58 56 59 59 60 73 61 92 62 57 63 58 64 72 66 93 67
REMARK SMILES IDX 60 68 44 69 45 70 53 71 46 72 47 73 51 74 54 75 48 76 49 77
REMARK SMILES IDX 52 78 50 79 76 80 77 81 85 82 78 83 79 84 83 85 86 86 80 87
REMARK SMILES IDX 81 88 84 89 82 90 61 91 62 92 70 93 63 94 64 95 68 96 71 97
REMARK SMILES IDX 65 98 66 99 69 100 67 101
REMARK H PARENT 27 5 32 35 91 54 59 65
REMARK Flexibility Score: inf
ROOT
ATOM      1  C   UNL     1       2.689   1.383   2.491  1.00  0.00     0.116 C 
ENDROOT
BRANCH   1   2
ATOM      2  N   UNL     1       3.240   0.421   0.690  1.00  0.00    -0.353 N 
ATOM      3  O   UNL     1       2.481  -1.736  -0.275  1.00  0.00    -0.271 OA
ATOM      4  C   UNL     1       3.081  -0.667  -0.330  1.00  0.00     0.257 C 
ATOM      5  H   UNL     1       3.982   0.967   0.344  1.00  0.00     0.163 HD
BRANCH   4   6
ATOM      6  C   UNL     1       3.773  -0.306  -1.640  1.00  0.00     0.329 C 
BRANCH   6   7
ATOM      7  O   UNL     1       4.020   1.081  -1.721  1.00  0.00    -0.483 OA
BRANCH   7   8
ATOM      8  C   UNL     1       3.022   1.849  -2.281  1.00  0.00     0.127 A 
ATOM      9  C   UNL     1       3.531   2.663  -3.302  1.00  0.00     0.047 A 
ATOM     10  C   UNL     1       1.714   2.060  -1.757  1.00  0.00     0.018 A 
ATOM     11  C   UNL     1       2.797   3.741  -3.774  1.00  0.00     0.004 A 
ATOM     12  C   UNL     1       0.997   3.159  -2.253  1.00  0.00     0.012 A 
ATOM     13  C   UNL     1       1.544   4.003  -3.231  1.00  0.00     0.001 A 
BRANCH  10  14
ATOM     14  C   UNL     1       1.083   1.311  -0.632  1.00  0.00     0.033 C 
ATOM     15  C   UNL     1       1.580   1.425   0.625  1.00  0.00     0.081 C 
ATOM     16  S   UNL     1       1.686  -0.482   1.879  1.00  0.00    -0.054 SA
ATOM     17  C   UNL     1       3.256   2.438   0.773  1.00  0.00     0.270 C 
ATOM     18  C   UNL     1       3.990  -0.176   2.298  1.00  0.00     0.152 C 
ATOM     19  N   UNL     1       4.504   1.435   1.604  1.00  0.00    -0.261 N 
ATOM     20  O   UNL     1       3.397   3.591   0.393  1.00  0.00    -0.268 OA
ATOM     21  S   UNL     1       4.936  -1.474   2.829  1.00  0.00    -0.051 S 
BRANCH  19  22
ATOM     22  C   UNL     1       5.860   1.873   1.553  1.00  0.00     0.052 A 
ATOM     23  C   UNL     1       6.222   3.227   1.528  1.00  0.00     0.030 A 
ATOM     24  C   UNL     1       6.868   0.918   1.546  1.00  0.00     0.050 A 
ATOM     25  C   UNL     1       7.557   3.590   1.748  1.00  0.00     0.043 A 
ATOM     26  C   UNL     1       8.178   1.266   1.839  1.00  0.00     0.078 A 
ATOM     27  C   UNL     1       8.511   2.603   1.978  1.00  0.00     0.141 A 
ATOM     28  Cl  UNL     1       9.315   0.008   2.107  1.00  0.00    -0.081 Cl
ATOM     29  F   UNL     1       9.742   2.962   2.365  1.00  0.00    -0.205 F 
ENDBRANCH  19  22
ENDBRANCH  10  14
ENDBRANCH   7   8
ENDBRANCH   6   7
ENDBRANCH   4   6
ENDBRANCH   1   2
BRANCH   1  30
ATOM     30  C   UNL     1       2.267   0.857   4.121  1.00  0.00     0.023 C 
BRANCH  30  31
ATOM     31  C   UNL     1       2.887  -0.155   5.118  1.00  0.00     0.023 C 
BRANCH  31  32
ATOM     32  C   UNL     1       4.022   0.295   6.063  1.00  0.00     0.116 C 
BRANCH  32  33
ATOM     33  N   UNL     1       3.687   1.527   6.756  1.00  0.00    -0.352 N 
ATOM     34  C   UNL     1       4.478   2.548   7.210  1.00  0.00     0.251 C 
ATOM     35  H   UNL     1       2.725   1.648   6.930  1.00  0.00     0.163 HD
ATOM     36  O   UNL     1       3.971   3.506   7.786  1.00  0.00    -0.269 OA
BRANCH  34  37
ATOM     37  C   UNL     1       5.942   2.523   7.044  1.00  0.00     0.039 A 
ATOM     38  C   UNL     1       6.738   2.245   8.158  1.00  0.00     0.014 A 
ATOM     39  C   UNL     1       6.531   2.958   5.854  1.00  0.00     0.014 A 
ATOM     40  C   UNL     1       8.130   2.372   8.070  1.00  0.00     0.010 A 
ATOM     41  C   UNL     1       7.928   3.047   5.760  1.00  0.00     0.010 A 
ATOM     42  C   UNL     1       8.748   2.747   6.862  1.00  0.00    -0.014 A 
BRANCH  42  43
ATOM     43  C   UNL     1      10.239   2.739   6.746  1.00  0.00     0.031 A 
ATOM     44  C   UNL     1      11.034   3.996   6.499  1.00  0.00     0.074 A 
ATOM     45  C   UNL     1      10.885   1.558   6.841  1.00  0.00     0.049 A 
ATOM     46  N   UNL     1      12.334   4.153   6.415  1.00  0.00    -0.248 NA
ATOM     47  C   UNL     1      10.272   5.237   6.300  1.00  0.00     0.031 C 
ATOM     48  C   UNL     1      10.231   0.259   7.010  1.00  0.00     0.029 A 
ATOM     49  N   UNL     1      12.224   1.251   6.817  1.00  0.00    -0.354 N 
ATOM     50  C   UNL     1      12.546   5.501   6.145  1.00  0.00     0.074 A 
ATOM     51  C   UNL     1      11.236   6.109   6.033  1.00  0.00     0.031 C 
ATOM     52  C   UNL     1      11.166  -0.696   7.117  1.00  0.00     0.029 A 
ATOM     53  C   UNL     1      12.486  -0.089   6.986  1.00  0.00     0.049 A 
ATOM     54  H   UNL     1      12.930   1.926   6.690  1.00  0.00     0.167 HD
ATOM     55  C   UNL     1      13.720   6.171   6.022  1.00  0.00     0.037 A 
ATOM     56  C   UNL     1      13.654  -0.757   7.035  1.00  0.00     0.037 A 
ATOM     57  C   UNL     1      15.022   5.560   6.145  1.00  0.00     0.049 A 
ATOM     58  C   UNL     1      14.942   0.012   6.912  1.00  0.00     0.074 A 
ATOM     59  C   UNL     1      16.269   6.161   6.099  1.00  0.00     0.029 A 
ATOM     60  N   UNL     1      15.244   4.202   6.330  1.00  0.00    -0.354 N 
ATOM     61  N   UNL     1      15.124   1.300   6.752  1.00  0.00    -0.248 NA
ATOM     62  C   UNL     1      16.187  -0.765   6.986  1.00  0.00     0.031 C 
ATOM     63  C   UNL     1      17.244   5.162   6.205  1.00  0.00     0.029 A 
ATOM     64  C   UNL     1      16.606   3.945   6.377  1.00  0.00     0.049 A 
ATOM     65  H   UNL     1      14.537   3.522   6.415  1.00  0.00     0.167 HD
ATOM     66  C   UNL     1      16.498   1.492   6.732  1.00  0.00     0.074 A 
ATOM     67  C   UNL     1      17.104   0.190   6.919  1.00  0.00     0.031 C 
ATOM     68  C   UNL     1      17.195   2.643   6.570  1.00  0.00     0.037 A 
BRANCH  55  69
ATOM     69  C   UNL     1      13.659   7.650   5.740  1.00  0.00     0.064 A 
ATOM     70  C   UNL     1      13.186   8.563   6.696  1.00  0.00     0.173 A 
ATOM     71  C   UNL     1      14.120   8.169   4.519  1.00  0.00     0.173 A 
ATOM     72  F   UNL     1      12.736   8.126   7.882  1.00  0.00    -0.203 F 
ATOM     73  C   UNL     1      13.135   9.929   6.425  1.00  0.00     0.198 A 
ATOM     74  C   UNL     1      14.098   9.540   4.264  1.00  0.00     0.198 A 
ATOM     75  F   UNL     1      14.602   7.349   3.573  1.00  0.00    -0.203 F 
ATOM     76  F   UNL     1      12.627  10.773   7.334  1.00  0.00    -0.200 F 
ATOM     77  C   UNL     1      13.596  10.417   5.212  1.00  0.00     0.200 A 
ATOM     78  F   UNL     1      14.562  10.011   3.098  1.00  0.00    -0.200 F 
ATOM     79  F   UNL     1      13.549  11.732   4.954  1.00  0.00    -0.200 F 
ENDBRANCH  55  69
BRANCH  56  80
ATOM     80  C   UNL     1      13.662  -2.231   7.248  1.00  0.00     0.064 A 
ATOM     81  C   UNL     1      14.153  -2.786   8.438  1.00  0.00     0.173 A 
ATOM     82  C   UNL     1      13.179  -3.114   6.271  1.00  0.00     0.173 A 
ATOM     83  F   UNL     1      14.645  -1.987   9.397  1.00  0.00    -0.203 F 
ATOM     84  C   UNL     1      14.182  -4.166   8.633  1.00  0.00     0.198 A 
ATOM     85  C   UNL     1      13.178  -4.492   6.480  1.00  0.00     0.198 A 
ATOM     86  F   UNL     1      12.691  -2.637   5.116  1.00  0.00    -0.203 F 
ATOM     87  F   UNL     1      14.703  -4.670   9.760  1.00  0.00    -0.200 F 
ATOM     88  C   UNL     1      13.688  -5.018   7.657  1.00  0.00     0.200 A 
ATOM     89  F   UNL     1      12.683  -5.310   5.542  1.00  0.00    -0.200 F 
ATOM     90  F   UNL     1      13.710  -6.344   7.848  1.00  0.00    -0.200 F 
ENDBRANCH  56  80
BRANCH  68  91
ATOM     91  C   UNL     1      18.694   2.553   6.623  1.00  0.00     0.064 A 
ATOM     92  C   UNL     1      19.434   1.950   5.595  1.00  0.00     0.173 A 
ATOM     93  C   UNL     1      19.401   3.108   7.701  1.00  0.00     0.173 A 
ATOM     94  F   UNL     1      18.807   1.390   4.550  1.00  0.00    -0.203 F 
ATOM     95  C   UNL     1      20.824   1.884   5.657  1.00  0.00     0.198 A 
ATOM     96  C   UNL     1      20.791   3.070   7.744  1.00  0.00     0.198 A 
ATOM     97  F   UNL     1      18.742   3.700   8.709  1.00  0.00    -0.203 F 
ATOM     98  F   UNL     1      21.507   1.259   4.689  1.00  0.00    -0.200 F 
ATOM     99  C   UNL     1      21.501   2.451   6.727  1.00  0.00     0.200 A 
ATOM    100  F   UNL     1      21.445   3.631   8.771  1.00  0.00    -0.200 F 
ATOM    101  F   UNL     1      22.839   2.394   6.780  1.00  0.00    -0.200 F 
ENDBRANCH  68  91
ENDBRANCH  42  43
ENDBRANCH  34  37
ENDBRANCH  32  33
ENDBRANCH  31  32
ENDBRANCH  30  31
ENDBRANCH   1  30
TORSDOF 15
