REMARK SMILES C[C@H](c1ccccc1)[N@@H+](CC(=O)NCCCCNC(=O)c1ccc(-c2c3nc(c(-c4c(F)c(F)c(F)c(F)c4F)c4ccc([nH]4)c(-c4c(F)c(F)c(F)c(F)c4F)c4nc(c(-c5c(F)c(F)c(F)c(F)c5F)c5ccc2[nH]5)C=C4)C=C3)cc1)CC(F)(F)F
REMARK SMILES IDX 15 1 14 2 13 3 11 4 12 5 10 7 9 8 2 10 1 11 3 12 4 13 8 14
REMARK SMILES IDX 5 15 7 16 6 17 84 18 85 19 86 20 87 21 88 22 16 23 17 24
REMARK SMILES IDX 18 25 19 26 20 28 21 29 22 30 83 31 23 32 82 33 24 34 25 35
REMARK SMILES IDX 26 36 76 37 27 38 81 39 75 40 77 41 28 42 80 43 74 44 73 45
REMARK SMILES IDX 29 47 61 48 41 49 60 50 42 51 45 52 59 53 78 54 43 55 44 56
REMARK SMILES IDX 58 58 79 59 46 60 30 61 31 62 39 63 32 64 33 65 37 66 40 67
REMARK SMILES IDX 34 68 35 69 38 70 36 71 62 72 63 73 71 74 64 75 65 76 69 77
REMARK SMILES IDX 72 78 66 79 67 80 70 81 68 82 47 83 48 84 56 85 49 86 50 87
REMARK SMILES IDX 54 88 57 89 51 90 52 91 55 92 53 93
REMARK H PARENT 13 6 9 9 18 27 77 46 45 57
REMARK Flexibility Score: inf
ROOT
ATOM      1  C   UNL     1       2.767   2.838   0.280  1.00  0.00     0.023 C 
ENDROOT
BRANCH   1   2
ATOM      2  C   UNL     1       1.587   3.706   0.749  1.00  0.00     0.116 C 
BRANCH   2   3
ATOM      3  N   UNL     1       0.579   4.038  -0.252  1.00  0.00    -0.351 N 
ATOM      4  C   UNL     1      -0.730   3.658  -0.408  1.00  0.00     0.275 C 
ATOM      5  O   UNL     1      -1.403   4.311  -1.210  1.00  0.00    -0.269 OA
ATOM      6  H   UNL     1       0.899   4.654  -0.950  1.00  0.00     0.163 HD
BRANCH   4   7
ATOM      7  C   UNL     1      -1.340   2.465   0.352  1.00  0.00     0.364 C 
BRANCH   7   8
ATOM      8  N   UNL     1      -1.179   1.124  -0.287  1.00  0.00    -0.314 N 
ATOM      9  H   UNL     1      -1.271   0.459   0.481  1.00  0.00     0.349 HD
BRANCH   8  10
ATOM     10  C   UNL     1       0.173   0.864  -0.768  1.00  0.00     0.212 C 
ATOM     11  C   UNL     1       0.553   1.348  -2.174  1.00  0.00     0.081 C 
BRANCH  10  12
ATOM     12  C   UNL     1       0.826  -0.466  -0.382  1.00  0.00     0.009 A 
ATOM     13  C   UNL     1       1.225  -1.394  -1.354  1.00  0.00     0.010 A 
ATOM     14  C   UNL     1       1.306  -0.639   0.933  1.00  0.00     0.010 A 
ATOM     15  C   UNL     1       2.189  -2.362  -1.063  1.00  0.00     0.001 A 
ATOM     16  C   UNL     1       2.267  -1.612   1.224  1.00  0.00     0.001 A 
ATOM     17  C   UNL     1       2.733  -2.450   0.216  1.00  0.00     0.000 A 
ENDBRANCH  10  12
ENDBRANCH   8  10
BRANCH   8  18
ATOM     18  C   UNL     1      -2.307   0.657  -1.118  1.00  0.00     0.380 C 
BRANCH  18  19
ATOM     19  C   UNL     1      -2.585   1.106  -2.571  1.00  0.00     0.438 C 
ATOM     20  F   UNL     1      -1.751   0.514  -3.453  1.00  0.00    -0.165 F 
ATOM     21  F   UNL     1      -3.840   0.740  -2.934  1.00  0.00    -0.165 F 
ATOM     22  F   UNL     1      -2.496   2.436  -2.737  1.00  0.00    -0.165 F 
ENDBRANCH  18  19
ENDBRANCH   8  18
ENDBRANCH   7   8
ENDBRANCH   4   7
ENDBRANCH   2   3
ENDBRANCH   1   2
BRANCH   1  23
ATOM     23  C   UNL     1       3.389   3.208  -1.061  1.00  0.00     0.023 C 
BRANCH  23  24
ATOM     24  C   UNL     1       4.456   4.268  -0.928  1.00  0.00     0.116 C 
BRANCH  24  25
ATOM     25  N   UNL     1       5.589   3.797  -0.136  1.00  0.00    -0.352 N 
ATOM     26  C   UNL     1       6.929   3.843  -0.435  1.00  0.00     0.251 C 
ATOM     27  H   UNL     1       5.361   3.392   0.732  1.00  0.00     0.163 HD
ATOM     28  O   UNL     1       7.747   3.237   0.234  1.00  0.00    -0.269 OA
BRANCH  26  29
ATOM     29  C   UNL     1       7.345   4.636  -1.604  1.00  0.00     0.039 A 
ATOM     30  C   UNL     1       8.243   4.091  -2.523  1.00  0.00     0.014 A 
ATOM     31  C   UNL     1       6.770   5.890  -1.814  1.00  0.00     0.014 A 
ATOM     32  C   UNL     1       8.522   4.793  -3.694  1.00  0.00     0.010 A 
ATOM     33  C   UNL     1       6.945   6.518  -3.030  1.00  0.00     0.010 A 
ATOM     34  C   UNL     1       7.848   5.993  -3.967  1.00  0.00    -0.014 A 
BRANCH  34  35
ATOM     35  C   UNL     1       8.100   6.785  -5.189  1.00  0.00     0.031 A 
ATOM     36  C   UNL     1       8.600   8.193  -5.040  1.00  0.00     0.074 A 
ATOM     37  C   UNL     1       7.757   6.294  -6.393  1.00  0.00     0.049 A 
ATOM     38  N   UNL     1       8.696   9.141  -5.934  1.00  0.00    -0.248 NA
ATOM     39  C   UNL     1       8.982   8.610  -3.679  1.00  0.00     0.031 C 
ATOM     40  C   UNL     1       7.205   4.961  -6.639  1.00  0.00     0.029 A 
ATOM     41  N   UNL     1       7.793   6.877  -7.633  1.00  0.00    -0.354 N 
ATOM     42  C   UNL     1       9.102  10.270  -5.235  1.00  0.00     0.074 A 
ATOM     43  C   UNL     1       9.163   9.910  -3.837  1.00  0.00     0.031 C 
ATOM     44  C   UNL     1       6.959   4.825  -7.952  1.00  0.00     0.029 A 
ATOM     45  C   UNL     1       7.291   6.076  -8.628  1.00  0.00     0.049 A 
ATOM     46  H   UNL     1       8.145   7.782  -7.794  1.00  0.00     0.167 HD
ATOM     47  C   UNL     1       9.421  11.490  -5.724  1.00  0.00     0.037 A 
ATOM     48  C   UNL     1       7.099   6.337  -9.934  1.00  0.00     0.037 A 
ATOM     49  C   UNL     1       9.395  11.810  -7.125  1.00  0.00     0.049 A 
ATOM     50  C   UNL     1       7.491   7.687 -10.468  1.00  0.00     0.074 A 
ATOM     51  C   UNL     1       9.786  12.978  -7.751  1.00  0.00     0.029 A 
ATOM     52  N   UNL     1       8.948  10.948  -8.118  1.00  0.00    -0.354 N 
ATOM     53  N   UNL     1       7.953   8.729  -9.818  1.00  0.00    -0.248 NA
ATOM     54  C   UNL     1       7.346   7.898 -11.913  1.00  0.00     0.031 C 
ATOM     55  C   UNL     1       9.518  12.845  -9.117  1.00  0.00     0.029 A 
ATOM     56  C   UNL     1       9.025  11.570  -9.352  1.00  0.00     0.049 A 
ATOM     57  H   UNL     1       8.623  10.031  -7.967  1.00  0.00     0.167 HD
ATOM     58  C   UNL     1       8.180   9.709 -10.774  1.00  0.00     0.074 A 
ATOM     59  C   UNL     1       7.809   9.134 -12.051  1.00  0.00     0.031 C 
ATOM     60  C   UNL     1       8.658  10.968 -10.611  1.00  0.00     0.037 A 
BRANCH  47  61
ATOM     61  C   UNL     1       9.807  12.553  -4.734  1.00  0.00     0.064 A 
ATOM     62  C   UNL     1      10.966  12.453  -3.946  1.00  0.00     0.173 A 
ATOM     63  C   UNL     1       8.993  13.681  -4.553  1.00  0.00     0.173 A 
ATOM     64  F   UNL     1      11.776  11.389  -4.067  1.00  0.00    -0.203 F 
ATOM     65  C   UNL     1      11.263  13.409  -2.979  1.00  0.00     0.198 A 
ATOM     66  C   UNL     1       9.316  14.658  -3.614  1.00  0.00     0.198 A 
ATOM     67  F   UNL     1       7.876  13.834  -5.280  1.00  0.00    -0.203 F 
ATOM     68  F   UNL     1      12.328  13.245  -2.182  1.00  0.00    -0.200 F 
ATOM     69  C   UNL     1      10.441  14.513  -2.817  1.00  0.00     0.200 A 
ATOM     70  F   UNL     1       8.527  15.732  -3.469  1.00  0.00    -0.200 F 
ATOM     71  F   UNL     1      10.724  15.431  -1.882  1.00  0.00    -0.200 F 
ENDBRANCH  47  61
BRANCH  48  72
ATOM     72  C   UNL     1       6.532   5.282 -10.812  1.00  0.00     0.064 A 
ATOM     73  C   UNL     1       7.333   4.618 -11.751  1.00  0.00     0.173 A 
ATOM     74  C   UNL     1       5.194   4.876 -10.692  1.00  0.00     0.173 A 
ATOM     75  F   UNL     1       8.614   4.979 -11.912  1.00  0.00    -0.203 F 
ATOM     76  C   UNL     1       6.816   3.593 -12.542  1.00  0.00     0.198 A 
ATOM     77  C   UNL     1       4.686   3.833 -11.464  1.00  0.00     0.198 A 
ATOM     78  F   UNL     1       4.390   5.471  -9.799  1.00  0.00    -0.203 F 
ATOM     79  F   UNL     1       7.596   2.992 -13.450  1.00  0.00    -0.200 F 
ATOM     80  C   UNL     1       5.496   3.195 -12.391  1.00  0.00     0.200 A 
ATOM     81  F   UNL     1       3.416   3.438 -11.300  1.00  0.00    -0.200 F 
ATOM     82  F   UNL     1       5.005   2.197 -13.138  1.00  0.00    -0.200 F 
ENDBRANCH  48  72
BRANCH  60  83
ATOM     83  C   UNL     1       8.851  11.801 -11.844  1.00  0.00     0.064 A 
ATOM     84  C   UNL     1       7.766  12.343 -12.547  1.00  0.00     0.173 A 
ATOM     85  C   UNL     1      10.146  12.128 -12.274  1.00  0.00     0.173 A 
ATOM     86  F   UNL     1       6.509  12.049 -12.182  1.00  0.00    -0.203 F 
ATOM     87  C   UNL     1       7.972  13.173 -13.645  1.00  0.00     0.198 A 
ATOM     88  C   UNL     1      10.348  12.984 -13.351  1.00  0.00     0.198 A 
ATOM     89  F   UNL     1      11.217  11.640 -11.628  1.00  0.00    -0.203 F 
ATOM     90  F   UNL     1       6.922  13.654 -14.325  1.00  0.00    -0.200 F 
ATOM     91  C   UNL     1       9.261  13.503 -14.038  1.00  0.00     0.200 A 
ATOM     92  F   UNL     1      11.594  13.316 -13.717  1.00  0.00    -0.200 F 
ATOM     93  F   UNL     1       9.457  14.320 -15.082  1.00  0.00    -0.200 F 
ENDBRANCH  60  83
ENDBRANCH  34  35
ENDBRANCH  26  29
ENDBRANCH  24  25
ENDBRANCH  23  24
ENDBRANCH   1  23
TORSDOF 16
