REMARK SMILES CC(C)c1ccc(C(=O)NNC(=O)[C@@H]2CC=CC[C@@H]2C(=O)NCCCCNC(=O)c2ccc(-c3c4nc(c(-c5c(F)c(F)c(F)c(F)c5F)c5ccc([nH]5)c(-c5c(F)c(F)c(F)c(F)c5F)c5nc(c(-c6c(F)c(F)c(F)c(F)c6F)c6ccc3[nH]6)C=C5)C=C4)cc2)cc1
REMARK SMILES IDX 23 1 22 2 20 3 21 4 19 6 14 7 15 8 16 9 18 10 17 11 12 12
REMARK SMILES IDX 11 13 13 15 10 16 8 17 9 18 7 20 4 21 5 22 94 23 6 24 93 25
REMARK SMILES IDX 2 26 1 27 3 28 24 29 25 30 26 31 27 32 28 33 29 35 30 36
REMARK SMILES IDX 31 37 92 38 32 39 91 40 33 41 34 42 35 43 85 44 36 45 90 46
REMARK SMILES IDX 84 47 86 48 37 49 89 50 83 51 82 52 38 54 70 55 50 56 69 57
REMARK SMILES IDX 51 58 54 59 68 60 87 61 52 62 53 63 67 65 88 66 55 67 39 68
REMARK SMILES IDX 40 69 48 70 41 71 42 72 46 73 49 74 43 75 44 76 47 77 45 78
REMARK SMILES IDX 71 79 72 80 80 81 73 82 74 83 78 84 81 85 75 86 76 87 79 88
REMARK SMILES IDX 77 89 56 90 57 91 65 92 58 93 59 94 63 95 66 96 60 97 61 98
REMARK SMILES IDX 64 99 62 100
REMARK H PARENT 22 5 11 14 10 19 27 34 86 53 54 64
REMARK Flexibility Score: inf
ROOT
ATOM      1  C   UNL     1      -9.425  -8.322   0.070  1.00  0.00     0.116 C 
ENDROOT
BRANCH   1   2
ATOM      2  N   UNL     1     -10.080  -7.029   0.143  1.00  0.00    -0.356 N 
ATOM      3  C   UNL     1      -9.555  -5.788   0.347  1.00  0.00     0.224 C 
ATOM      4  O   UNL     1     -10.338  -4.849   0.475  1.00  0.00    -0.275 OA
ATOM      5  H   UNL     1     -11.058  -7.052   0.026  1.00  0.00     0.163 HD
BRANCH   3   6
ATOM      6  C   UNL     1      -8.041  -5.614   0.376  1.00  0.00     0.095 C 
ATOM      7  C   UNL     1      -7.593  -4.457   1.296  1.00  0.00     0.097 C 
ATOM      8  C   UNL     1      -7.816  -3.071   0.647  1.00  0.00     0.041 C 
ATOM      9  C   UNL     1      -7.598  -3.020  -0.835  1.00  0.00    -0.030 C 
ATOM     10  C   UNL     1      -7.500  -5.500  -1.059  1.00  0.00     0.041 C 
ATOM     11  C   UNL     1      -7.451  -4.107  -1.600  1.00  0.00    -0.030 C 
BRANCH   7  12
ATOM     12  C   UNL     1      -8.287  -4.483   2.665  1.00  0.00     0.242 C 
ATOM     13  N   UNL     1      -8.310  -5.631   3.415  1.00  0.00    -0.267 N 
ATOM     14  H   UNL     1      -9.011  -5.703   4.102  1.00  0.00     0.191 HD
ATOM     15  O   UNL     1      -8.808  -3.483   3.164  1.00  0.00    -0.273 OA
BRANCH  13  16
ATOM     16  N   UNL     1      -7.432  -6.700   3.294  1.00  0.00    -0.263 N 
ATOM     17  C   UNL     1      -7.532  -7.903   3.972  1.00  0.00     0.269 C 
ATOM     18  O   UNL     1      -6.902  -8.873   3.550  1.00  0.00    -0.267 OA
ATOM     19  H   UNL     1      -6.675  -6.594   2.673  1.00  0.00     0.191 HD
BRANCH  17  20
ATOM     20  C   UNL     1      -8.371  -8.053   5.193  1.00  0.00     0.041 A 
ATOM     21  C   UNL     1      -9.828  -8.482   7.580  1.00  0.00    -0.045 A 
ATOM     22  C   UNL     1      -9.639  -9.524   6.662  1.00  0.00     0.005 A 
ATOM     23  C   UNL     1      -9.267  -7.229   7.292  1.00  0.00     0.005 A 
ATOM     24  C   UNL     1      -8.922  -9.311   5.477  1.00  0.00     0.014 A 
ATOM     25  C   UNL     1      -8.519  -7.026   6.128  1.00  0.00     0.014 A 
BRANCH  21  26
ATOM     26  C   UNL     1     -10.523  -8.686   8.916  1.00  0.00     0.013 C 
ATOM     27  C   UNL     1     -11.854  -9.433   8.811  1.00  0.00     0.012 C 
ATOM     28  C   UNL     1      -9.580  -9.391   9.895  1.00  0.00     0.012 C 
ENDBRANCH  21  26
ENDBRANCH  17  20
ENDBRANCH  13  16
ENDBRANCH   7  12
ENDBRANCH   3   6
ENDBRANCH   1   2
BRANCH   1  29
ATOM     29  C   UNL     1      -9.775  -9.189   1.277  1.00  0.00     0.023 C 
BRANCH  29  30
ATOM     30  C   UNL     1     -11.254  -9.565   1.395  1.00  0.00     0.023 C 
BRANCH  30  31
ATOM     31  C   UNL     1     -11.872 -10.183   0.147  1.00  0.00     0.116 C 
BRANCH  31  32
ATOM     32  N   UNL     1     -11.175 -11.376  -0.301  1.00  0.00    -0.352 N 
ATOM     33  C   UNL     1     -11.681 -12.576  -0.735  1.00  0.00     0.251 C 
ATOM     34  H   UNL     1     -10.192 -11.315  -0.292  1.00  0.00     0.163 HD
ATOM     35  O   UNL     1     -10.922 -13.512  -0.961  1.00  0.00    -0.269 OA
BRANCH  33  36
ATOM     36  C   UNL     1     -13.142 -12.760  -0.893  1.00  0.00     0.039 A 
ATOM     37  C   UNL     1     -13.710 -13.954  -0.443  1.00  0.00     0.014 A 
ATOM     38  C   UNL     1     -13.948 -11.779  -1.476  1.00  0.00     0.014 A 
ATOM     39  C   UNL     1     -15.092 -14.135  -0.517  1.00  0.00     0.010 A 
ATOM     40  C   UNL     1     -15.334 -11.928  -1.479  1.00  0.00     0.010 A 
ATOM     41  C   UNL     1     -15.921 -13.108  -0.999  1.00  0.00    -0.014 A 
BRANCH  41  42
ATOM     42  C   UNL     1     -17.399 -13.261  -0.980  1.00  0.00     0.031 A 
ATOM     43  C   UNL     1     -18.186 -13.287  -2.260  1.00  0.00     0.074 A 
ATOM     44  C   UNL     1     -18.036 -13.347   0.205  1.00  0.00     0.049 A 
ATOM     45  N   UNL     1     -19.478 -13.418  -2.434  1.00  0.00    -0.248 NA
ATOM     46  C   UNL     1     -17.428 -13.123  -3.511  1.00  0.00     0.031 C 
ATOM     47  C   UNL     1     -17.392 -13.268   1.518  1.00  0.00     0.029 A 
ATOM     48  N   UNL     1     -19.366 -13.519   0.499  1.00  0.00    -0.354 N 
ATOM     49  C   UNL     1     -19.684 -13.356  -3.806  1.00  0.00     0.074 A 
ATOM     50  C   UNL     1     -18.396 -13.111  -4.417  1.00  0.00     0.031 C 
ATOM     51  C   UNL     1     -18.321 -13.422   2.474  1.00  0.00     0.029 A 
ATOM     52  C   UNL     1     -19.629 -13.577   1.846  1.00  0.00     0.049 A 
ATOM     53  H   UNL     1     -20.064 -13.594  -0.190  1.00  0.00     0.167 HD
ATOM     54  C   UNL     1     -20.839 -13.519  -4.495  1.00  0.00     0.037 A 
ATOM     55  C   UNL     1     -20.794 -13.737   2.501  1.00  0.00     0.037 A 
ATOM     56  C   UNL     1     -22.119 -13.773  -3.888  1.00  0.00     0.049 A 
ATOM     57  C   UNL     1     -22.060 -13.919   1.708  1.00  0.00     0.074 A 
ATOM     58  C   UNL     1     -23.340 -13.990  -4.503  1.00  0.00     0.029 A 
ATOM     59  N   UNL     1     -22.344 -13.844  -2.521  1.00  0.00    -0.354 N 
ATOM     60  N   UNL     1     -22.229 -13.932   0.408  1.00  0.00    -0.248 NA
ATOM     61  C   UNL     1     -23.297 -14.123   2.475  1.00  0.00     0.031 C 
ATOM     62  C   UNL     1     -24.311 -14.151  -3.509  1.00  0.00     0.029 A 
ATOM     63  C   UNL     1     -23.687 -14.086  -2.274  1.00  0.00     0.049 A 
ATOM     64  H   UNL     1     -21.653 -13.738  -1.828  1.00  0.00     0.167 HD
ATOM     65  C   UNL     1     -23.582 -14.165   0.202  1.00  0.00     0.074 A 
ATOM     66  C   UNL     1     -24.182 -14.321   1.510  1.00  0.00     0.031 C 
ATOM     67  C   UNL     1     -24.269 -14.237  -0.965  1.00  0.00     0.037 A 
BRANCH  54  68
ATOM     68  C   UNL     1     -20.771 -13.449  -5.994  1.00  0.00     0.064 A 
ATOM     69  C   UNL     1     -20.158 -14.464  -6.745  1.00  0.00     0.173 A 
ATOM     70  C   UNL     1     -21.375 -12.392  -6.691  1.00  0.00     0.173 A 
ATOM     71  F   UNL     1     -19.555 -15.491  -6.127  1.00  0.00    -0.203 F 
ATOM     72  C   UNL     1     -20.136 -14.413  -8.137  1.00  0.00     0.198 A 
ATOM     73  C   UNL     1     -21.377 -12.359  -8.084  1.00  0.00     0.198 A 
ATOM     74  F   UNL     1     -21.979 -11.398  -6.022  1.00  0.00    -0.203 F 
ATOM     75  F   UNL     1     -19.511 -15.374  -8.831  1.00  0.00    -0.200 F 
ATOM     76  C   UNL     1     -20.753 -13.367  -8.805  1.00  0.00     0.200 A 
ATOM     77  F   UNL     1     -21.986 -11.355  -8.728  1.00  0.00    -0.200 F 
ATOM     78  F   UNL     1     -20.744 -13.327 -10.144  1.00  0.00    -0.200 F 
ENDBRANCH  54  68
BRANCH  55  79
ATOM     79  C   UNL     1     -20.822 -13.750   3.988  1.00  0.00     0.064 A 
ATOM     80  C   UNL     1     -21.148 -14.916   4.696  1.00  0.00     0.173 A 
ATOM     81  C   UNL     1     -20.553 -12.591   4.731  1.00  0.00     0.173 A 
ATOM     82  F   UNL     1     -21.433 -16.046   4.032  1.00  0.00    -0.203 F 
ATOM     83  C   UNL     1     -21.237 -14.913   6.087  1.00  0.00     0.198 A 
ATOM     84  C   UNL     1     -20.609 -12.598   6.123  1.00  0.00     0.198 A 
ATOM     85  F   UNL     1     -20.229 -11.451   4.103  1.00  0.00    -0.203 F 
ATOM     86  F   UNL     1     -21.611 -16.025   6.734  1.00  0.00    -0.200 F 
ATOM     87  C   UNL     1     -20.964 -13.755   6.799  1.00  0.00     0.200 A 
ATOM     88  F   UNL     1     -20.328 -11.481   6.808  1.00  0.00    -0.200 F 
ATOM     89  F   UNL     1     -21.052 -13.752   8.136  1.00  0.00    -0.200 F 
ENDBRANCH  55  79
BRANCH  67  90
ATOM     90  C   UNL     1     -25.741 -14.517  -0.872  1.00  0.00     0.064 A 
ATOM     91  C   UNL     1     -26.640 -13.567  -0.362  1.00  0.00     0.173 A 
ATOM     92  C   UNL     1     -26.261 -15.747  -1.303  1.00  0.00     0.173 A 
ATOM     93  F   UNL     1     -26.192 -12.381   0.077  1.00  0.00    -0.203 F 
ATOM     94  C   UNL     1     -27.997 -13.855  -0.247  1.00  0.00     0.198 A 
ATOM     95  C   UNL     1     -27.624 -16.018  -1.218  1.00  0.00     0.198 A 
ATOM     96  F   UNL     1     -25.447 -16.686  -1.807  1.00  0.00    -0.203 F 
ATOM     97  F   UNL     1     -28.826 -12.958   0.305  1.00  0.00    -0.200 F 
ATOM     98  C   UNL     1     -28.489 -15.078  -0.679  1.00  0.00     0.200 A 
ATOM     99  F   UNL     1     -28.099 -17.195  -1.650  1.00  0.00    -0.200 F 
ATOM    100  F   UNL     1     -29.795 -15.354  -0.565  1.00  0.00    -0.200 F 
ENDBRANCH  67  90
ENDBRANCH  41  42
ENDBRANCH  33  36
ENDBRANCH  31  32
ENDBRANCH  30  31
ENDBRANCH  29  30
ENDBRANCH   1  29
TORSDOF 15
