REMARK SMILES COc1ccc([C@@H](CC(=O)NCCCCNC(=O)c2ccc(-c3c4nc(c(-c5c(F)c(F)c(F)c(F)c5F)c5ccc([nH]5)c(-c5c(F)c(F)c(F)c(F)c5F)c5nc(c(-c6c(F)c(F)c(F)c(F)c6F)c6ccc3[nH]6)C=C5)C=C4)cc2)C2CCCCC2)cc1Cl
REMARK SMILES IDX 13 1 12 2 11 3 9 4 10 5 8 7 7 8 6 9 3 10 4 11 89 12 5 13
REMARK SMILES IDX 88 14 90 15 2 16 1 17 82 18 83 19 87 20 84 21 86 22 85 23
REMARK SMILES IDX 14 24 15 25 16 26 17 27 18 29 19 30 20 31 81 32 21 33 80 34
REMARK SMILES IDX 22 35 23 36 24 37 74 38 25 39 79 40 73 41 75 42 26 43 78 44
REMARK SMILES IDX 72 45 71 46 27 48 59 49 39 50 58 51 40 52 43 53 57 54 76 55
REMARK SMILES IDX 41 56 42 57 56 59 77 60 44 61 28 62 29 63 37 64 30 65 31 66
REMARK SMILES IDX 35 67 38 68 32 69 33 70 36 71 34 72 60 73 61 74 69 75 62 76
REMARK SMILES IDX 63 77 67 78 70 79 64 80 65 81 68 82 66 83 45 84 46 85 54 86
REMARK SMILES IDX 47 87 48 88 52 89 55 90 49 91 50 92 53 93 51 94
REMARK H PARENT 11 6 16 28 75 47 43 58
REMARK Flexibility Score: inf
ROOT
ATOM      1  C   UNL     1      -0.653  -3.943  -2.063  1.00  0.00     0.023 C 
ENDROOT
BRANCH   1   2
ATOM      2  C   UNL     1      -0.124  -5.364  -2.155  1.00  0.00     0.116 C 
BRANCH   2   3
ATOM      3  N   UNL     1      -0.412  -5.934  -3.454  1.00  0.00    -0.356 N 
ATOM      4  C   UNL     1       0.319  -5.891  -4.602  1.00  0.00     0.220 C 
ATOM      5  O   UNL     1      -0.124  -6.495  -5.582  1.00  0.00    -0.275 OA
ATOM      6  H   UNL     1      -1.263  -6.425  -3.517  1.00  0.00     0.163 HD
BRANCH   4   7
ATOM      7  C   UNL     1       1.667  -5.192  -4.670  1.00  0.00     0.108 C 
BRANCH   7   8
ATOM      8  C   UNL     1       1.783  -3.674  -5.020  1.00  0.00     0.032 C 
BRANCH   8   9
ATOM      9  C   UNL     1       1.872  -2.766  -3.781  1.00  0.00    -0.042 A 
ATOM     10  C   UNL     1       2.075  -1.218  -1.381  1.00  0.00     0.137 A 
ATOM     11  C   UNL     1       1.101  -0.935  -2.334  1.00  0.00     0.048 A 
ATOM     12  C   UNL     1       2.985  -2.247  -1.660  1.00  0.00     0.083 A 
ATOM     13  C   UNL     1       1.015  -1.688  -3.519  1.00  0.00     0.008 A 
ATOM     14  C   UNL     1       2.892  -2.997  -2.842  1.00  0.00     0.028 A 
ATOM     15  Cl  UNL     1       4.246  -2.662  -0.548  1.00  0.00    -0.080 Cl
BRANCH  10  16
ATOM     16  O   UNL     1       2.185  -0.622  -0.159  1.00  0.00    -0.495 OA
ATOM     17  C   UNL     1       1.504   0.588   0.136  1.00  0.00     0.278 C 
ENDBRANCH  10  16
ENDBRANCH   8   9
BRANCH   8  18
ATOM     18  C   UNL     1       0.944  -3.196  -6.267  1.00  0.00    -0.003 C 
ATOM     19  C   UNL     1      -0.590  -3.278  -6.119  1.00  0.00     0.004 C 
ATOM     20  C   UNL     1       1.448  -1.814  -6.766  1.00  0.00     0.004 C 
ATOM     21  C   UNL     1      -1.365  -2.585  -7.236  1.00  0.00     0.000 C 
ATOM     22  C   UNL     1       0.577  -1.159  -7.832  1.00  0.00     0.000 C 
ATOM     23  C   UNL     1      -0.890  -1.158  -7.434  1.00  0.00     0.000 C 
ENDBRANCH   8  18
ENDBRANCH   7   8
ENDBRANCH   4   7
ENDBRANCH   2   3
ENDBRANCH   1   2
BRANCH   1  24
ATOM     24  C   UNL     1      -2.030  -3.760  -1.455  1.00  0.00     0.023 C 
BRANCH  24  25
ATOM     25  C   UNL     1      -2.083  -3.999   0.043  1.00  0.00     0.116 C 
BRANCH  25  26
ATOM     26  N   UNL     1      -1.197  -3.145   0.829  1.00  0.00    -0.352 N 
ATOM     27  C   UNL     1      -1.440  -2.477   2.010  1.00  0.00     0.251 C 
ATOM     28  H   UNL     1      -0.291  -3.028   0.460  1.00  0.00     0.163 HD
ATOM     29  O   UNL     1      -0.589  -1.747   2.501  1.00  0.00    -0.269 OA
BRANCH  27  30
ATOM     30  C   UNL     1      -2.771  -2.589   2.645  1.00  0.00     0.039 A 
ATOM     31  C   UNL     1      -3.395  -1.430   3.113  1.00  0.00     0.014 A 
ATOM     32  C   UNL     1      -3.440  -3.811   2.685  1.00  0.00     0.014 A 
ATOM     33  C   UNL     1      -4.734  -1.480   3.503  1.00  0.00     0.010 A 
ATOM     34  C   UNL     1      -4.802  -3.832   2.941  1.00  0.00     0.010 A 
ATOM     35  C   UNL     1      -5.467  -2.667   3.350  1.00  0.00    -0.014 A 
BRANCH  35  36
ATOM     36  C   UNL     1      -6.929  -2.729   3.606  1.00  0.00     0.031 A 
ATOM     37  C   UNL     1      -7.468  -3.718   4.604  1.00  0.00     0.074 A 
ATOM     38  C   UNL     1      -7.774  -1.987   2.865  1.00  0.00     0.049 A 
ATOM     39  N   UNL     1      -8.708  -4.043   4.863  1.00  0.00    -0.248 NA
ATOM     40  C   UNL     1      -6.474  -4.487   5.370  1.00  0.00     0.031 C 
ATOM     41  C   UNL     1      -7.384  -1.046   1.813  1.00  0.00     0.029 A 
ATOM     42  N   UNL     1      -9.145  -1.913   2.881  1.00  0.00    -0.354 N 
ATOM     43  C   UNL     1      -8.637  -5.090   5.773  1.00  0.00     0.074 A 
ATOM     44  C   UNL     1      -7.236  -5.382   5.977  1.00  0.00     0.031 C 
ATOM     45  C   UNL     1      -8.484  -0.452   1.322  1.00  0.00     0.029 A 
ATOM     46  C   UNL     1      -9.658  -1.002   1.990  1.00  0.00     0.049 A 
ATOM     47  H   UNL     1      -9.707  -2.462   3.474  1.00  0.00     0.167 HD
ATOM     48  C   UNL     1      -9.649  -5.730   6.406  1.00  0.00     0.037 A 
ATOM     49  C   UNL     1     -10.934  -0.647   1.749  1.00  0.00     0.037 A 
ATOM     50  C   UNL     1     -11.034  -5.374   6.265  1.00  0.00     0.049 A 
ATOM     51  C   UNL     1     -12.037  -1.321   2.516  1.00  0.00     0.074 A 
ATOM     52  C   UNL     1     -12.129  -5.877   6.945  1.00  0.00     0.029 A 
ATOM     53  N   UNL     1     -11.512  -4.408   5.391  1.00  0.00    -0.354 N 
ATOM     54  N   UNL     1     -11.958  -2.260   3.426  1.00  0.00    -0.248 NA
ATOM     55  C   UNL     1     -13.409  -0.883   2.221  1.00  0.00     0.031 C 
ATOM     56  C   UNL     1     -13.274  -5.232   6.462  1.00  0.00     0.029 A 
ATOM     57  C   UNL     1     -12.888  -4.306   5.505  1.00  0.00     0.049 A 
ATOM     58  H   UNL     1     -10.954  -3.875   4.779  1.00  0.00     0.167 HD
ATOM     59  C   UNL     1     -13.261  -2.508   3.833  1.00  0.00     0.074 A 
ATOM     60  C   UNL     1     -14.112  -1.613   3.076  1.00  0.00     0.031 C 
ATOM     61  C   UNL     1     -13.712  -3.397   4.751  1.00  0.00     0.037 A 
BRANCH  48  62
ATOM     62  C   UNL     1      -9.281  -6.868   7.313  1.00  0.00     0.064 A 
ATOM     63  C   UNL     1      -8.592  -6.660   8.518  1.00  0.00     0.173 A 
ATOM     64  C   UNL     1      -9.611  -8.186   6.966  1.00  0.00     0.173 A 
ATOM     65  F   UNL     1      -8.239  -5.419   8.889  1.00  0.00    -0.203 F 
ATOM     66  C   UNL     1      -8.202  -7.732   9.316  1.00  0.00     0.198 A 
ATOM     67  C   UNL     1      -9.250  -9.254   7.784  1.00  0.00     0.198 A 
ATOM     68  F   UNL     1     -10.274  -8.442   5.828  1.00  0.00    -0.203 F 
ATOM     69  F   UNL     1      -7.480  -7.513  10.423  1.00  0.00    -0.200 F 
ATOM     70  C   UNL     1      -8.534  -9.028   8.950  1.00  0.00     0.200 A 
ATOM     71  F   UNL     1      -9.580 -10.505   7.435  1.00  0.00    -0.200 F 
ATOM     72  F   UNL     1      -8.153 -10.059   9.715  1.00  0.00    -0.200 F 
ENDBRANCH  48  62
BRANCH  49  73
ATOM     73  C   UNL     1     -11.229   0.445   0.787  1.00  0.00     0.064 A 
ATOM     74  C   UNL     1     -11.645   1.701   1.250  1.00  0.00     0.173 A 
ATOM     75  C   UNL     1     -11.089   0.272  -0.597  1.00  0.00     0.173 A 
ATOM     76  F   UNL     1     -11.810   1.908   2.565  1.00  0.00    -0.203 F 
ATOM     77  C   UNL     1     -11.921   2.740   0.365  1.00  0.00     0.198 A 
ATOM     78  C   UNL     1     -11.345   1.319  -1.480  1.00  0.00     0.198 A 
ATOM     79  F   UNL     1     -10.687  -0.909  -1.088  1.00  0.00    -0.203 F 
ATOM     80  F   UNL     1     -12.347   3.921   0.833  1.00  0.00    -0.200 F 
ATOM     81  C   UNL     1     -11.766   2.550  -1.000  1.00  0.00     0.200 A 
ATOM     82  F   UNL     1     -11.182   1.136  -2.798  1.00  0.00    -0.200 F 
ATOM     83  F   UNL     1     -12.025   3.552  -1.851  1.00  0.00    -0.200 F 
ENDBRANCH  49  73
BRANCH  61  84
ATOM     84  C   UNL     1     -15.187  -3.419   5.014  1.00  0.00     0.064 A 
ATOM     85  C   UNL     1     -16.085  -3.991   4.104  1.00  0.00     0.173 A 
ATOM     86  C   UNL     1     -15.699  -2.903   6.214  1.00  0.00     0.173 A 
ATOM     87  F   UNL     1     -15.643  -4.482   2.936  1.00  0.00    -0.203 F 
ATOM     88  C   UNL     1     -17.450  -4.030   4.377  1.00  0.00     0.198 A 
ATOM     89  C   UNL     1     -17.060  -2.966   6.495  1.00  0.00     0.198 A 
ATOM     90  F   UNL     1     -14.877  -2.350   7.118  1.00  0.00    -0.203 F 
ATOM     91  F   UNL     1     -18.297  -4.547   3.477  1.00  0.00    -0.200 F 
ATOM     92  C   UNL     1     -17.935  -3.524   5.574  1.00  0.00     0.200 A 
ATOM     93  F   UNL     1     -17.526  -2.486   7.656  1.00  0.00    -0.200 F 
ATOM     94  F   UNL     1     -19.248  -3.570   5.839  1.00  0.00    -0.200 F 
ENDBRANCH  61  84
ENDBRANCH  35  36
ENDBRANCH  27  30
ENDBRANCH  25  26
ENDBRANCH  24  25
ENDBRANCH   1  24
TORSDOF 15
