REMARK SMILES O=C(N[C@@H]1C=C[C@@H](C(=O)NCCCCNC(=O)c2ccc(-c3c4nc(c(-c5c(F)c(F)c(F)c(F)c5F)c5ccc([nH]5)c(-c5c(F)c(F)c(F)c(F)c5F)c5nc(c(-c6c(F)c(F)c(F)c(F)c6F)c6ccc3[nH]6)C=C5)C=C4)cc2)C1)Oc1ccccc1
REMARK SMILES IDX 12 1 11 2 10 3 8 4 9 5 7 7 4 8 5 9 81 10 6 11 3 12 1 13 2 14
REMARK SMILES IDX 82 16 83 17 84 18 88 19 85 20 87 21 86 22 13 23 14 24 15 25
REMARK SMILES IDX 16 26 17 28 18 29 19 30 80 31 20 32 79 33 21 34 22 35 23 36
REMARK SMILES IDX 73 37 24 38 78 39 72 40 74 41 25 42 77 43 71 44 70 45 26 47
REMARK SMILES IDX 58 48 38 49 57 50 39 51 42 52 56 53 75 54 40 55 41 56 55 58
REMARK SMILES IDX 76 59 43 60 27 61 28 62 36 63 29 64 30 65 34 66 37 67 31 68
REMARK SMILES IDX 32 69 35 70 33 71 59 72 60 73 68 74 61 75 62 76 66 77 69 78
REMARK SMILES IDX 63 79 64 80 67 81 65 82 44 83 45 84 53 85 46 86 47 87 51 88
REMARK SMILES IDX 54 89 48 90 49 91 52 92 50 93
REMARK H PARENT 10 6 3 15 15 27 74 46 42 57
REMARK Flexibility Score: inf
ROOT
ATOM      1  C   UNL     1       1.749  -1.163   2.491  1.00  0.00     0.023 C 
ENDROOT
BRANCH   1   2
ATOM      2  C   UNL     1       2.941  -0.241   2.295  1.00  0.00     0.116 C 
BRANCH   2   3
ATOM      3  N   UNL     1       4.178  -0.948   2.534  1.00  0.00    -0.356 N 
ATOM      4  C   UNL     1       5.268  -1.067   1.734  1.00  0.00     0.227 C 
ATOM      5  O   UNL     1       6.175  -1.815   2.111  1.00  0.00    -0.274 OA
ATOM      6  H   UNL     1       4.240  -1.410   3.401  1.00  0.00     0.163 HD
BRANCH   4   7
ATOM      7  C   UNL     1       5.383  -0.311   0.418  1.00  0.00     0.103 C 
ATOM      8  C   UNL     1       4.394   0.397  -1.670  1.00  0.00     0.109 C 
ATOM      9  C   UNL     1       4.418   1.516  -0.695  1.00  0.00    -0.006 C 
ATOM     10  C   UNL     1       4.564  -0.835  -0.757  1.00  0.00     0.047 C 
ATOM     11  C   UNL     1       4.958   1.130   0.469  1.00  0.00    -0.016 C 
BRANCH   8  12
ATOM     12  N   UNL     1       5.436   0.459  -2.687  1.00  0.00    -0.315 N 
ATOM     13  O   UNL     1       7.352   0.840  -3.785  1.00  0.00    -0.224 OA
ATOM     14  C   UNL     1       6.604   1.156  -2.862  1.00  0.00     0.413 C 
ATOM     15  H   UNL     1       5.256  -0.152  -3.437  1.00  0.00     0.167 HD
BRANCH  14  16
ATOM     16  O   UNL     1       6.785   2.334  -2.143  1.00  0.00    -0.410 OA
BRANCH  16  17
ATOM     17  C   UNL     1       7.427   2.448  -0.881  1.00  0.00     0.132 A 
ATOM     18  C   UNL     1       7.124   3.628  -0.194  1.00  0.00     0.047 A 
ATOM     19  C   UNL     1       8.174   1.442  -0.276  1.00  0.00     0.047 A 
ATOM     20  C   UNL     1       7.473   3.760   1.149  1.00  0.00     0.004 A 
ATOM     21  C   UNL     1       8.508   1.575   1.080  1.00  0.00     0.004 A 
ATOM     22  C   UNL     1       8.142   2.721   1.794  1.00  0.00     0.000 A 
ENDBRANCH  16  17
ENDBRANCH  14  16
ENDBRANCH   8  12
ENDBRANCH   4   7
ENDBRANCH   2   3
ENDBRANCH   1   2
BRANCH   1  23
ATOM     23  C   UNL     1       1.515  -1.566   3.943  1.00  0.00     0.023 C 
BRANCH  23  24
ATOM     24  C   UNL     1       1.424  -0.396   4.915  1.00  0.00     0.116 C 
BRANCH  24  25
ATOM     25  N   UNL     1       0.481   0.629   4.484  1.00  0.00    -0.352 N 
ATOM     26  C   UNL     1      -0.561   1.186   5.180  1.00  0.00     0.251 C 
ATOM     27  H   UNL     1       0.609   0.967   3.568  1.00  0.00     0.163 HD
ATOM     28  O   UNL     1      -1.355   1.945   4.635  1.00  0.00    -0.269 OA
BRANCH  26  29
ATOM     29  C   UNL     1      -0.722   0.825   6.596  1.00  0.00     0.039 A 
ATOM     30  C   UNL     1      -1.939   0.296   7.027  1.00  0.00     0.014 A 
ATOM     31  C   UNL     1       0.370   0.926   7.463  1.00  0.00     0.014 A 
ATOM     32  C   UNL     1      -2.041  -0.202   8.323  1.00  0.00     0.010 A 
ATOM     33  C   UNL     1       0.290   0.353   8.724  1.00  0.00     0.010 A 
ATOM     34  C   UNL     1      -0.916  -0.211   9.165  1.00  0.00    -0.014 A 
BRANCH  34  35
ATOM     35  C   UNL     1      -0.983  -0.800  10.522  1.00  0.00     0.031 A 
ATOM     36  C   UNL     1      -0.784   0.077  11.723  1.00  0.00     0.074 A 
ATOM     37  C   UNL     1      -1.143  -2.128  10.664  1.00  0.00     0.049 A 
ATOM     38  N   UNL     1      -0.744  -0.249  12.989  1.00  0.00    -0.248 NA
ATOM     39  C   UNL     1      -0.560   1.508  11.463  1.00  0.00     0.031 C 
ATOM     40  C   UNL     1      -1.264  -3.089   9.566  1.00  0.00     0.029 A 
ATOM     41  N   UNL     1      -1.215  -2.903  11.793  1.00  0.00    -0.354 N 
ATOM     42  C   UNL     1      -0.473   0.929  13.671  1.00  0.00     0.074 A 
ATOM     43  C   UNL     1      -0.293   1.964  12.677  1.00  0.00     0.031 C 
ATOM     44  C   UNL     1      -1.413  -4.322  10.075  1.00  0.00     0.029 A 
ATOM     45  C   UNL     1      -1.374  -4.241  11.532  1.00  0.00     0.049 A 
ATOM     46  H   UNL     1      -1.157  -2.534  12.704  1.00  0.00     0.167 HD
ATOM     47  C   UNL     1      -0.413   1.136  15.007  1.00  0.00     0.037 A 
ATOM     48  C   UNL     1      -1.478  -5.283  12.378  1.00  0.00     0.037 A 
ATOM     49  C   UNL     1      -0.624   0.106  15.989  1.00  0.00     0.049 A 
ATOM     50  C   UNL     1      -1.455  -5.024  13.859  1.00  0.00     0.074 A 
ATOM     51  C   UNL     1      -0.656   0.218  17.367  1.00  0.00     0.029 A 
ATOM     52  N   UNL     1      -0.839  -1.232  15.690  1.00  0.00    -0.354 N 
ATOM     53  N   UNL     1      -1.285  -3.892  14.498  1.00  0.00    -0.248 NA
ATOM     54  C   UNL     1      -1.654  -6.185  14.736  1.00  0.00     0.031 C 
ATOM     55  C   UNL     1      -0.857  -1.059  17.903  1.00  0.00     0.029 A 
ATOM     56  C   UNL     1      -0.991  -1.960  16.858  1.00  0.00     0.049 A 
ATOM     57  H   UNL     1      -0.878  -1.608  14.781  1.00  0.00     0.167 HD
ATOM     58  C   UNL     1      -1.371  -4.198  15.848  1.00  0.00     0.074 A 
ATOM     59  C   UNL     1      -1.631  -5.621  15.936  1.00  0.00     0.031 C 
ATOM     60  C   UNL     1      -1.243  -3.377  16.920  1.00  0.00     0.037 A 
BRANCH  47  61
ATOM     61  C   UNL     1      -0.115   2.531  15.471  1.00  0.00     0.064 A 
ATOM     62  C   UNL     1      -1.037   3.576  15.296  1.00  0.00     0.173 A 
ATOM     63  C   UNL     1       1.108   2.833  16.088  1.00  0.00     0.173 A 
ATOM     64  F   UNL     1      -2.214   3.344  14.696  1.00  0.00    -0.203 F 
ATOM     65  C   UNL     1      -0.729   4.877  15.684  1.00  0.00     0.198 A 
ATOM     66  C   UNL     1       1.399   4.130  16.504  1.00  0.00     0.198 A 
ATOM     67  F   UNL     1       2.024   1.873  16.280  1.00  0.00    -0.203 F 
ATOM     68  F   UNL     1      -1.599   5.868  15.447  1.00  0.00    -0.200 F 
ATOM     69  C   UNL     1       0.486   5.152  16.292  1.00  0.00     0.200 A 
ATOM     70  F   UNL     1       2.571   4.393  17.099  1.00  0.00    -0.200 F 
ATOM     71  F   UNL     1       0.783   6.405  16.661  1.00  0.00    -0.200 F 
ENDBRANCH  47  61
BRANCH  48  72
ATOM     72  C   UNL     1      -1.654  -6.654  11.837  1.00  0.00     0.064 A 
ATOM     73  C   UNL     1      -2.887  -7.314  11.932  1.00  0.00     0.173 A 
ATOM     74  C   UNL     1      -0.602  -7.324  11.195  1.00  0.00     0.173 A 
ATOM     75  F   UNL     1      -3.917  -6.719  12.552  1.00  0.00    -0.203 F 
ATOM     76  C   UNL     1      -3.058  -8.598  11.418  1.00  0.00     0.198 A 
ATOM     77  C   UNL     1      -0.781  -8.598  10.661  1.00  0.00     0.198 A 
ATOM     78  F   UNL     1       0.595  -6.731  11.071  1.00  0.00    -0.203 F 
ATOM     79  F   UNL     1      -4.237  -9.219  11.552  1.00  0.00    -0.200 F 
ATOM     80  C   UNL     1      -2.006  -9.236  10.778  1.00  0.00     0.200 A 
ATOM     81  F   UNL     1       0.233  -9.205  10.029  1.00  0.00    -0.200 F 
ATOM     82  F   UNL     1      -2.174 -10.467  10.275  1.00  0.00    -0.200 F 
ENDBRANCH  48  72
BRANCH  60  83
ATOM     83  C   UNL     1      -1.396  -4.000  18.276  1.00  0.00     0.064 A 
ATOM     84  C   UNL     1      -0.405  -4.833  18.815  1.00  0.00     0.173 A 
ATOM     85  C   UNL     1      -2.530  -3.734  19.057  1.00  0.00     0.173 A 
ATOM     86  F   UNL     1       0.691  -5.128  18.100  1.00  0.00    -0.203 F 
ATOM     87  C   UNL     1      -0.557  -5.399  20.078  1.00  0.00     0.198 A 
ATOM     88  C   UNL     1      -2.666  -4.280  20.330  1.00  0.00     0.198 A 
ATOM     89  F   UNL     1      -3.503  -2.939  18.588  1.00  0.00    -0.203 F 
ATOM     90  F   UNL     1       0.380  -6.231  20.554  1.00  0.00    -0.200 F 
ATOM     91  C   UNL     1      -1.684  -5.118  20.836  1.00  0.00     0.200 A 
ATOM     92  F   UNL     1      -3.750  -3.998  21.066  1.00  0.00    -0.200 F 
ATOM     93  F   UNL     1      -1.827  -5.661  22.052  1.00  0.00    -0.200 F 
ENDBRANCH  60  83
ENDBRANCH  34  35
ENDBRANCH  26  29
ENDBRANCH  24  25
ENDBRANCH  23  24
ENDBRANCH   1  23
TORSDOF 14
