REMARK SMILES Cc1oc2c(C)c3oc(=O)c(CCC(=O)N[C@H](Cc4ccc(Cl)cc4)C(=O)NCCCCNC(=O)c4ccc(-c5c6nc(c(-c7c(F)c(F)c(F)c(F)c7F)c7ccc([nH]7)c(-c7c(F)c(F)c(F)c(F)c7F)c7nc(c(-c8c(F)c(F)c(F)c(F)c8F)c8ccc5[nH]8)C=C7)C=C6)cc4)c(C)c3cc2c1C
REMARK SMILES IDX 29 1 28 2 26 3 27 4 17 6 16 7 14 8 15 9 13 11 12 12 11 13
REMARK SMILES IDX 1 14 2 15 3 16 104 17 4 18 103 19 105 20 5 21 102 22 6 23
REMARK SMILES IDX 7 24 101 25 8 26 99 27 9 28 100 29 10 30 18 31 19 32 20 33
REMARK SMILES IDX 25 34 21 35 24 36 22 37 23 38 30 39 31 40 32 41 33 42 34 43
REMARK SMILES IDX 35 45 36 46 37 47 98 48 38 49 97 50 39 51 40 52 41 53 91 54
REMARK SMILES IDX 42 55 96 56 90 57 92 58 43 59 95 60 89 61 88 62 44 64 76 65
REMARK SMILES IDX 56 66 75 67 57 68 60 69 74 70 93 71 58 72 59 73 73 75 94 76
REMARK SMILES IDX 61 77 45 78 46 79 54 80 47 81 48 82 52 83 55 84 49 85 50 86
REMARK SMILES IDX 53 87 51 88 77 89 78 90 86 91 79 92 80 93 84 94 87 95 81 96
REMARK SMILES IDX 82 97 85 98 83 99 62 100 63 101 71 102 64 103 65 104 69 105
REMARK SMILES IDX 72 106 66 107 67 108 70 109 68 110
REMARK H PARENT 28 5 16 10 33 44 92 63 60 74
REMARK Flexibility Score: inf
ROOT
ATOM      1  C   UNL     1      -2.464   2.331  -2.358  1.00  0.00     0.116 C 
ENDROOT
BRANCH   1   2
ATOM      2  N   UNL     1      -3.302   3.233  -3.205  1.00  0.00    -0.354 N 
ATOM      3  C   UNL     1      -3.137   4.255  -4.285  1.00  0.00     0.242 C 
ATOM      4  O   UNL     1      -4.253   4.010  -4.861  1.00  0.00    -0.273 OA
ATOM      5  H   UNL     1      -4.255   3.119  -2.986  1.00  0.00     0.163 HD
BRANCH   3   6
ATOM      6  C   UNL     1      -1.643   5.780  -4.771  1.00  0.00     0.175 C 
BRANCH   6   7
ATOM      7  N   UNL     1       0.014   5.602  -5.189  1.00  0.00    -0.344 N 
ATOM      8  C   UNL     1       0.744   4.994  -6.172  1.00  0.00     0.220 C 
ATOM      9  O   UNL     1       1.973   5.030  -6.081  1.00  0.00    -0.275 OA
ATOM     10  H   UNL     1       0.598   6.063  -4.544  1.00  0.00     0.164 HD
BRANCH   8  11
ATOM     11  C   UNL     1       0.069   4.203  -7.276  1.00  0.00     0.105 C 
BRANCH  11  12
ATOM     12  C   UNL     1      -0.927   3.173  -6.758  1.00  0.00     0.053 C 
BRANCH  12  13
ATOM     13  C   UNL     1      -1.621   3.800  -5.599  1.00  0.00     0.042 A 
ATOM     14  C   UNL     1      -5.598   6.441   1.913  1.00  0.00     0.088 C 
ATOM     15  C   UNL     1      -4.655   6.287   0.781  1.00  0.00     0.105 A 
ATOM     16  O   UNL     1      -5.122   6.637  -0.435  1.00  0.00    -0.461 OA
ATOM     17  C   UNL     1      -3.356   5.827   0.679  1.00  0.00    -0.002 A 
ATOM     18  C   UNL     1      -4.163   6.342  -1.361  1.00  0.00     0.141 A 
ATOM     19  C   UNL     1      -3.038   5.740  -0.733  1.00  0.00     0.025 A 
ATOM     20  C   UNL     1      -2.500   5.443   1.820  1.00  0.00     0.049 C 
ATOM     21  C   UNL     1      -4.378   6.639  -2.710  1.00  0.00     0.036 A 
ATOM     22  C   UNL     1      -1.870   5.181  -1.453  1.00  0.00     0.024 A 
ATOM     23  C   UNL     1      -5.562   7.312  -3.303  1.00  0.00     0.052 C 
ATOM     24  C   UNL     1      -3.308   6.082  -3.373  1.00  0.00     0.145 A 
ATOM     25  C   UNL     1      -1.940   5.112  -2.828  1.00  0.00     0.022 A 
ATOM     26  O   UNL     1      -3.610   6.009  -5.146  1.00  0.00    -0.422 OA
ATOM     27  C   UNL     1      -1.100   3.889  -4.094  1.00  0.00    -0.030 A 
ATOM     28  C   UNL     1      -2.961   4.918  -6.355  1.00  0.00     0.339 A 
ATOM     29  C   UNL     1       0.139   3.053  -3.774  1.00  0.00     0.046 C 
ATOM     30  O   UNL     1      -3.210   5.052  -7.543  1.00  0.00    -0.246 OA
ENDBRANCH  12  13
ENDBRANCH  11  12
ENDBRANCH   8  11
ENDBRANCH   6   7
BRANCH   6  31
ATOM     31  C   UNL     1      -1.273   7.390  -3.997  1.00  0.00     0.070 C 
BRANCH  31  32
ATOM     32  C   UNL     1      -0.670   7.643  -2.588  1.00  0.00    -0.045 A 
ATOM     33  C   UNL     1       0.600   7.207  -2.163  1.00  0.00     0.005 A 
ATOM     34  C   UNL     1      -1.459   8.317  -1.630  1.00  0.00     0.005 A 
ATOM     35  C   UNL     1       0.999   7.324  -0.814  1.00  0.00     0.021 A 
ATOM     36  C   UNL     1      -1.078   8.403  -0.281  1.00  0.00     0.021 A 
ATOM     37  C   UNL     1       0.145   7.891   0.126  1.00  0.00     0.041 A 
ATOM     38  Cl  UNL     1       0.593   7.936   1.788  1.00  0.00    -0.084 Cl
ENDBRANCH  31  32
ENDBRANCH   6  31
ENDBRANCH   3   6
ENDBRANCH   1   2
BRANCH   1  39
ATOM     39  C   UNL     1      -2.492   2.297  -0.849  1.00  0.00     0.023 C 
BRANCH  39  40
ATOM     40  C   UNL     1      -3.818   2.249  -0.152  1.00  0.00     0.023 C 
BRANCH  40  41
ATOM     41  C   UNL     1      -3.594   1.460   1.123  1.00  0.00     0.116 C 
BRANCH  41  42
ATOM     42  N   UNL     1      -2.590   2.085   1.990  1.00  0.00    -0.352 N 
ATOM     43  C   UNL     1      -2.566   2.127   3.356  1.00  0.00     0.251 C 
ATOM     44  H   UNL     1      -1.841   2.530   1.532  1.00  0.00     0.163 HD
ATOM     45  O   UNL     1      -1.907   2.961   3.964  1.00  0.00    -0.269 OA
BRANCH  43  46
ATOM     46  C   UNL     1      -3.316   1.094   4.073  1.00  0.00     0.039 A 
ATOM     47  C   UNL     1      -3.916   1.386   5.297  1.00  0.00     0.014 A 
ATOM     48  C   UNL     1      -3.364  -0.189   3.521  1.00  0.00     0.014 A 
ATOM     49  C   UNL     1      -4.620   0.384   5.944  1.00  0.00     0.010 A 
ATOM     50  C   UNL     1      -4.130  -1.153   4.112  1.00  0.00     0.010 A 
ATOM     51  C   UNL     1      -4.746  -0.868   5.329  1.00  0.00    -0.014 A 
BRANCH  51  52
ATOM     52  C   UNL     1      -5.544  -1.903   5.982  1.00  0.00     0.031 A 
ATOM     53  C   UNL     1      -6.627  -2.400   5.040  1.00  0.00     0.074 A 
ATOM     54  C   UNL     1      -4.829  -2.818   6.670  1.00  0.00     0.049 A 
ATOM     55  N   UNL     1      -6.477  -3.256   4.069  1.00  0.00    -0.248 NA
ATOM     56  C   UNL     1      -7.909  -1.688   4.984  1.00  0.00     0.031 C 
ATOM     57  C   UNL     1      -3.502  -3.362   6.366  1.00  0.00     0.029 A 
ATOM     58  N   UNL     1      -5.105  -3.269   7.955  1.00  0.00    -0.354 N 
ATOM     59  C   UNL     1      -7.638  -3.233   3.304  1.00  0.00     0.074 A 
ATOM     60  C   UNL     1      -8.486  -2.226   3.899  1.00  0.00     0.031 C 
ATOM     61  C   UNL     1      -3.181  -4.274   7.299  1.00  0.00     0.029 A 
ATOM     62  C   UNL     1      -4.239  -4.329   8.302  1.00  0.00     0.049 A 
ATOM     63  H   UNL     1      -5.805  -2.901   8.541  1.00  0.00     0.167 HD
ATOM     64  C   UNL     1      -7.857  -4.070   2.252  1.00  0.00     0.037 A 
ATOM     65  C   UNL     1      -4.780  -5.480   8.802  1.00  0.00     0.037 A 
ATOM     66  C   UNL     1      -6.788  -4.978   1.964  1.00  0.00     0.049 A 
ATOM     67  C   UNL     1      -5.287  -6.144   7.529  1.00  0.00     0.074 A 
ATOM     68  C   UNL     1      -5.814  -5.165   1.010  1.00  0.00     0.029 A 
ATOM     69  N   UNL     1      -6.620  -6.025   2.836  1.00  0.00    -0.354 N 
ATOM     70  N   UNL     1      -4.551  -6.726   6.613  1.00  0.00    -0.248 NA
ATOM     71  C   UNL     1      -6.629  -5.773   7.074  1.00  0.00     0.031 C 
ATOM     72  C   UNL     1      -4.837  -6.006   1.636  1.00  0.00     0.029 A 
ATOM     73  C   UNL     1      -5.280  -6.271   2.933  1.00  0.00     0.049 A 
ATOM     74  H   UNL     1      -7.336  -6.511   3.306  1.00  0.00     0.167 HD
ATOM     75  C   UNL     1      -5.237  -6.547   5.406  1.00  0.00     0.074 A 
ATOM     76  C   UNL     1      -6.516  -5.973   5.768  1.00  0.00     0.031 C 
ATOM     77  C   UNL     1      -4.670  -6.699   4.172  1.00  0.00     0.037 A 
BRANCH  64  78
ATOM     78  C   UNL     1      -9.173  -4.332   1.624  1.00  0.00     0.064 A 
ATOM     79  C   UNL     1      -9.853  -5.485   2.056  1.00  0.00     0.173 A 
ATOM     80  C   UNL     1      -9.649  -3.681   0.484  1.00  0.00     0.173 A 
ATOM     81  F   UNL     1      -9.422  -6.146   3.144  1.00  0.00    -0.203 F 
ATOM     82  C   UNL     1     -10.924  -6.008   1.345  1.00  0.00     0.198 A 
ATOM     83  C   UNL     1     -10.746  -4.196  -0.218  1.00  0.00     0.198 A 
ATOM     84  F   UNL     1      -9.030  -2.588   0.016  1.00  0.00    -0.203 F 
ATOM     85  F   UNL     1     -11.493  -7.153   1.746  1.00  0.00    -0.200 F 
ATOM     86  C   UNL     1     -11.367  -5.367   0.201  1.00  0.00     0.200 A 
ATOM     87  F   UNL     1     -11.181  -3.581  -1.327  1.00  0.00    -0.200 F 
ATOM     88  F   UNL     1     -12.379  -5.888  -0.505  1.00  0.00    -0.200 F 
ENDBRANCH  64  78
BRANCH  65  89
ATOM     89  C   UNL     1      -5.614  -5.219  10.029  1.00  0.00     0.064 A 
ATOM     90  C   UNL     1      -5.098  -4.341  11.012  1.00  0.00     0.173 A 
ATOM     91  C   UNL     1      -6.920  -5.675  10.242  1.00  0.00     0.173 A 
ATOM     92  F   UNL     1      -3.818  -3.937  10.953  1.00  0.00    -0.203 F 
ATOM     93  C   UNL     1      -5.896  -3.803  12.018  1.00  0.00     0.198 A 
ATOM     94  C   UNL     1      -7.726  -5.128  11.247  1.00  0.00     0.198 A 
ATOM     95  F   UNL     1      -7.458  -6.622   9.462  1.00  0.00    -0.203 F 
ATOM     96  F   UNL     1      -5.387  -2.888  12.854  1.00  0.00    -0.200 F 
ATOM     97  C   UNL     1      -7.224  -4.167  12.110  1.00  0.00     0.200 A 
ATOM     98  F   UNL     1      -9.010  -5.500  11.345  1.00  0.00    -0.200 F 
ATOM     99  F   UNL     1      -8.019  -3.590  13.020  1.00  0.00    -0.200 F 
ENDBRANCH  65  89
BRANCH  77 100
ATOM    100  C   UNL     1      -3.260  -7.179   4.149  1.00  0.00     0.064 A 
ATOM    101  C   UNL     1      -2.952  -8.477   4.568  1.00  0.00     0.173 A 
ATOM    102  C   UNL     1      -2.221  -6.388   3.628  1.00  0.00     0.173 A 
ATOM    103  F   UNL     1      -3.913  -9.280   5.051  1.00  0.00    -0.203 F 
ATOM    104  C   UNL     1      -1.659  -8.976   4.450  1.00  0.00     0.198 A 
ATOM    105  C   UNL     1      -0.938  -6.904   3.476  1.00  0.00     0.198 A 
ATOM    106  F   UNL     1      -2.449  -5.126   3.229  1.00  0.00    -0.203 F 
ATOM    107  F   UNL     1      -1.388 -10.225   4.852  1.00  0.00    -0.200 F 
ATOM    108  C   UNL     1      -0.659  -8.197   3.886  1.00  0.00     0.200 A 
ATOM    109  F   UNL     1       0.020  -6.159   2.906  1.00  0.00    -0.200 F 
ATOM    110  F   UNL     1       0.572  -8.702   3.722  1.00  0.00    -0.200 F 
ENDBRANCH  77 100
ENDBRANCH  51  52
ENDBRANCH  43  46
ENDBRANCH  41  42
ENDBRANCH  40  41
ENDBRANCH  39  40
ENDBRANCH   1  39
TORSDOF 17
