REMARK SMILES O=C(NCCCCNC(=O)[C@H]1CCCN1S(=O)(=O)c1cccc([N+](=O)[O-])c1)c1ccc(-c2c3nc(c(-c4c(F)c(F)c(F)c(F)c4F)c4ccc([nH]4)c(-c4c(F)c(F)c(F)c(F)c4F)c4nc(c(-c5c(F)c(F)c(F)c(F)c5F)c5ccc2[nH]5)C=C4)C=C3)cc1
REMARK SMILES IDX 6 1 5 2 4 3 3 4 1 5 2 6 28 8 29 9 90 10 30 11 89 12 31 13
REMARK SMILES IDX 32 14 33 15 83 16 34 17 88 18 82 19 84 20 35 21 87 22 81 23
REMARK SMILES IDX 80 24 36 26 68 27 48 28 67 29 49 30 52 31 66 32 85 33 50 34
REMARK SMILES IDX 51 35 65 37 86 38 53 39 37 40 38 41 46 42 39 43 40 44 44 45
REMARK SMILES IDX 47 46 41 47 42 48 45 49 43 50 69 51 70 52 78 53 71 54 72 55
REMARK SMILES IDX 76 56 79 57 73 58 74 59 77 60 75 61 54 62 55 63 63 64 56 65
REMARK SMILES IDX 57 66 61 67 64 68 58 69 59 70 62 71 60 72 7 73 8 74 9 75
REMARK SMILES IDX 10 77 11 78 12 79 15 80 13 81 14 82 16 83 17 84 18 85 19 86
REMARK SMILES IDX 20 87 27 88 21 89 23 90 22 91 24 92 25 93 26 94
REMARK H PARENT 3 7 84 25 52 36 8 76
REMARK Flexibility Score: inf
ROOT
ATOM      1  C   UNL     1       5.205  -4.129   3.755  1.00  0.00     0.023 C 
ENDROOT
BRANCH   1   2
ATOM      2  C   UNL     1       3.802  -4.301   3.173  1.00  0.00     0.023 C 
BRANCH   2   3
ATOM      3  C   UNL     1       3.505  -3.450   1.944  1.00  0.00     0.116 C 
BRANCH   3   4
ATOM      4  N   UNL     1       4.367  -3.768   0.817  1.00  0.00    -0.352 N 
ATOM      5  O   UNL     1       4.875  -4.474  -1.264  1.00  0.00    -0.269 OA
ATOM      6  C   UNL     1       4.021  -4.081  -0.476  1.00  0.00     0.251 C 
ATOM      7  H   UNL     1       5.333  -3.759   1.007  1.00  0.00     0.163 HD
BRANCH   6   8
ATOM      8  C   UNL     1       2.611  -3.970  -0.905  1.00  0.00     0.039 A 
ATOM      9  C   UNL     1       1.853  -2.841  -0.581  1.00  0.00     0.014 A 
ATOM     10  C   UNL     1       2.041  -5.012  -1.641  1.00  0.00     0.014 A 
ATOM     11  C   UNL     1       0.494  -2.815  -0.874  1.00  0.00     0.010 A 
ATOM     12  C   UNL     1       0.694  -4.949  -2.003  1.00  0.00     0.010 A 
ATOM     13  C   UNL     1      -0.097  -3.863  -1.597  1.00  0.00    -0.014 A 
BRANCH  13  14
ATOM     14  C   UNL     1      -1.530  -3.776  -1.972  1.00  0.00     0.031 A 
ATOM     15  C   UNL     1      -2.540  -4.737  -1.417  1.00  0.00     0.074 A 
ATOM     16  C   UNL     1      -1.913  -2.809  -2.828  1.00  0.00     0.049 A 
ATOM     17  N   UNL     1      -3.827  -4.808  -1.652  1.00  0.00    -0.248 NA
ATOM     18  C   UNL     1      -2.043  -5.759  -0.485  1.00  0.00     0.031 C 
ATOM     19  C   UNL     1      -1.015  -1.834  -3.449  1.00  0.00     0.029 A 
ATOM     20  N   UNL     1      -3.150  -2.487  -3.323  1.00  0.00    -0.354 N 
ATOM     21  C   UNL     1      -4.289  -5.891  -0.916  1.00  0.00     0.074 A 
ATOM     22  C   UNL     1      -3.142  -6.462  -0.243  1.00  0.00     0.031 C 
ATOM     23  C   UNL     1      -1.732  -1.008  -4.224  1.00  0.00     0.029 A 
ATOM     24  C   UNL     1      -3.128  -1.429  -4.197  1.00  0.00     0.049 A 
ATOM     25  H   UNL     1      -3.973  -2.967  -3.076  1.00  0.00     0.167 HD
ATOM     26  C   UNL     1      -5.557  -6.357  -0.810  1.00  0.00     0.037 A 
ATOM     27  C   UNL     1      -4.118  -0.872  -4.918  1.00  0.00     0.037 A 
ATOM     28  C   UNL     1      -6.696  -5.771  -1.469  1.00  0.00     0.049 A 
ATOM     29  C   UNL     1      -5.511  -1.413  -4.788  1.00  0.00     0.074 A 
ATOM     30  C   UNL     1      -8.030  -6.132  -1.374  1.00  0.00     0.029 A 
ATOM     31  N   UNL     1      -6.635  -4.703  -2.354  1.00  0.00    -0.354 N 
ATOM     32  N   UNL     1      -5.945  -2.404  -4.048  1.00  0.00    -0.248 NA
ATOM     33  C   UNL     1      -6.553  -0.759  -5.591  1.00  0.00     0.031 C 
ATOM     34  C   UNL     1      -8.768  -5.315  -2.238  1.00  0.00     0.029 A 
ATOM     35  C   UNL     1      -7.902  -4.412  -2.835  1.00  0.00     0.049 A 
ATOM     36  H   UNL     1      -5.812  -4.223  -2.603  1.00  0.00     0.167 HD
ATOM     37  C   UNL     1      -7.308  -2.490  -4.288  1.00  0.00     0.074 A 
ATOM     38  C   UNL     1      -7.634  -1.435  -5.227  1.00  0.00     0.031 C 
ATOM     39  C   UNL     1      -8.207  -3.366  -3.778  1.00  0.00     0.037 A 
BRANCH  26  40
ATOM     40  C   UNL     1      -5.781  -7.577   0.037  1.00  0.00     0.064 A 
ATOM     41  C   UNL     1      -5.697  -7.532   1.436  1.00  0.00     0.173 A 
ATOM     42  C   UNL     1      -6.124  -8.800  -0.560  1.00  0.00     0.173 A 
ATOM     43  F   UNL     1      -5.363  -6.390   2.056  1.00  0.00    -0.203 F 
ATOM     44  C   UNL     1      -5.920  -8.672   2.205  1.00  0.00     0.198 A 
ATOM     45  C   UNL     1      -6.372  -9.932   0.212  1.00  0.00     0.198 A 
ATOM     46  F   UNL     1      -6.225  -8.897  -1.894  1.00  0.00    -0.203 F 
ATOM     47  F   UNL     1      -5.790  -8.616   3.538  1.00  0.00    -0.200 F 
ATOM     48  C   UNL     1      -6.263  -9.869   1.593  1.00  0.00     0.200 A 
ATOM     49  F   UNL     1      -6.715 -11.084  -0.380  1.00  0.00    -0.200 F 
ATOM     50  F   UNL     1      -6.482 -10.964   2.335  1.00  0.00    -0.200 F 
ENDBRANCH  26  40
BRANCH  27  51
ATOM     51  C   UNL     1      -3.803   0.254  -5.831  1.00  0.00     0.064 A 
ATOM     52  C   UNL     1      -4.213   1.560  -5.537  1.00  0.00     0.173 A 
ATOM     53  C   UNL     1      -3.041   0.051  -6.992  1.00  0.00     0.173 A 
ATOM     54  F   UNL     1      -4.956   1.800  -4.447  1.00  0.00    -0.203 F 
ATOM     55  C   UNL     1      -3.875   2.623  -6.373  1.00  0.00     0.198 A 
ATOM     56  C   UNL     1      -2.682   1.117  -7.812  1.00  0.00     0.198 A 
ATOM     57  F   UNL     1      -2.619  -1.182  -7.311  1.00  0.00    -0.203 F 
ATOM     58  F   UNL     1      -4.300   3.860  -6.084  1.00  0.00    -0.200 F 
ATOM     59  C   UNL     1      -3.103   2.402  -7.504  1.00  0.00     0.200 A 
ATOM     60  F   UNL     1      -1.920   0.901  -8.893  1.00  0.00    -0.200 F 
ATOM     61  F   UNL     1      -2.764   3.427  -8.297  1.00  0.00    -0.200 F 
ENDBRANCH  27  51
BRANCH  39  62
ATOM     62  C   UNL     1      -9.633  -3.213  -4.218  1.00  0.00     0.064 A 
ATOM     63  C   UNL     1     -10.045  -3.594  -5.504  1.00  0.00     0.173 A 
ATOM     64  C   UNL     1     -10.602  -2.715  -3.336  1.00  0.00     0.173 A 
ATOM     65  F   UNL     1      -9.151  -4.058  -6.390  1.00  0.00    -0.203 F 
ATOM     66  C   UNL     1     -11.374  -3.462  -5.896  1.00  0.00     0.198 A 
ATOM     67  C   UNL     1     -11.934  -2.609  -3.722  1.00  0.00     0.198 A 
ATOM     68  F   UNL     1     -10.257  -2.341  -2.094  1.00  0.00    -0.203 F 
ATOM     69  F   UNL     1     -11.739  -3.792  -7.143  1.00  0.00    -0.200 F 
ATOM     70  C   UNL     1     -12.318  -2.976  -5.003  1.00  0.00     0.200 A 
ATOM     71  F   UNL     1     -12.847  -2.149  -2.856  1.00  0.00    -0.200 F 
ATOM     72  F   UNL     1     -13.598  -2.856  -5.381  1.00  0.00    -0.200 F 
ENDBRANCH  39  62
ENDBRANCH  13  14
ENDBRANCH   6   8
ENDBRANCH   3   4
ENDBRANCH   2   3
ENDBRANCH   1   2
BRANCH   1  73
ATOM     73  C   UNL     1       5.577  -2.691   4.099  1.00  0.00     0.116 C 
BRANCH  73  74
ATOM     74  N   UNL     1       4.742  -2.137   5.136  1.00  0.00    -0.355 N 
ATOM     75  C   UNL     1       5.110  -1.585   6.330  1.00  0.00     0.238 C 
ATOM     76  H   UNL     1       3.773  -2.159   4.960  1.00  0.00     0.163 HD
ATOM     77  O   UNL     1       4.200  -1.180   7.058  1.00  0.00    -0.273 OA
BRANCH  75  78
ATOM     78  C   UNL     1       6.603  -1.464   6.707  1.00  0.00     0.162 C 
ATOM     79  C   UNL     1       6.763  -0.662   7.997  1.00  0.00     0.032 C 
ATOM     80  N   UNL     1       7.180  -2.811   7.049  1.00  0.00    -0.185 NA
ATOM     81  C   UNL     1       6.497  -1.677   9.097  1.00  0.00     0.019 C 
ATOM     82  C   UNL     1       6.761  -3.047   8.476  1.00  0.00     0.103 C 
BRANCH  80  83
ATOM     83  S   UNL     1       8.869  -3.034   6.823  1.00  0.00     0.244 S 
ATOM     84  O   UNL     1       9.559  -1.857   7.301  1.00  0.00    -0.207 OA
ATOM     85  O   UNL     1       9.201  -4.349   7.331  1.00  0.00    -0.207 OA
BRANCH  83  86
ATOM     86  C   UNL     1       9.105  -3.097   5.059  1.00  0.00     0.089 A 
ATOM     87  C   UNL     1       9.310  -4.330   4.426  1.00  0.00     0.022 A 
ATOM     88  C   UNL     1       9.151  -1.909   4.322  1.00  0.00     0.107 A 
ATOM     89  C   UNL     1       9.513  -4.383   3.044  1.00  0.00     0.008 A 
ATOM     90  C   UNL     1       9.293  -1.982   2.931  1.00  0.00     0.270 A 
ATOM     91  C   UNL     1       9.486  -3.211   2.287  1.00  0.00     0.086 A 
BRANCH  90  92
ATOM     92  N   UNL     1       9.161  -0.760   2.135  1.00  0.00     0.062 N 
ATOM     93  O   UNL     1       9.620  -0.766   0.986  1.00  0.00    -0.258 OA
ATOM     94  O   UNL     1       8.557   0.189   2.655  1.00  0.00    -0.258 OA
ENDBRANCH  90  92
ENDBRANCH  83  86
ENDBRANCH  80  83
ENDBRANCH  75  78
ENDBRANCH  73  74
ENDBRANCH   1  73
TORSDOF 14
