REMARK SMILES COc1ccc(-c2ccc(C(=O)NCc3ccc(C(=O)NCCCCNC(=O)c4ccc(-c5c6nc(c(-c7c(F)c(F)c(F)c(F)c7F)c7ccc([nH]7)c(-c7c(F)c(F)c(F)c(F)c7F)c7nc(c(-c8c(F)c(F)c(F)c(F)c8F)c8ccc5[nH]8)C=C7)C=C6)cc4)cc3)o2)c([N+](=O)[O-])c1
REMARK SMILES IDX 22 1 21 2 19 3 20 4 18 6 15 7 16 8 93 9 17 10 92 11 14 12
REMARK SMILES IDX 13 13 11 14 12 15 10 17 7 18 8 19 94 20 9 21 6 22 3 23 4 24
REMARK SMILES IDX 99 25 5 26 95 27 2 28 1 29 96 30 97 31 98 32 23 33 24 34
REMARK SMILES IDX 25 35 26 36 27 37 28 39 29 40 30 41 91 42 31 43 90 44 32 45
REMARK SMILES IDX 33 46 34 47 84 48 35 49 89 50 83 51 85 52 36 53 88 54 82 55
REMARK SMILES IDX 81 56 37 58 69 59 49 60 68 61 50 62 53 63 67 64 86 65 51 66
REMARK SMILES IDX 52 67 66 69 87 70 54 71 38 72 39 73 47 74 40 75 41 76 45 77
REMARK SMILES IDX 48 78 42 79 43 80 46 81 44 82 70 83 71 84 79 85 72 86 73 87
REMARK SMILES IDX 77 88 80 89 74 90 75 91 78 92 76 93 55 94 56 95 64 96 57 97
REMARK SMILES IDX 58 98 62 99 65 100 59 101 60 102 63 103 61 104
REMARK H PARENT 21 5 13 16 26 38 85 57 53 68
REMARK Flexibility Score: inf
ROOT
ATOM      1  C   UNL     1       1.926 -11.938  12.315  1.00  0.00     0.116 C 
ENDROOT
BRANCH   1   2
ATOM      2  N   UNL     1       2.123 -10.581  12.777  1.00  0.00    -0.352 N 
ATOM      3  C   UNL     1       2.516  -9.452  12.103  1.00  0.00     0.251 C 
ATOM      4  O   UNL     1       2.581  -8.395  12.731  1.00  0.00    -0.269 OA
ATOM      5  H   UNL     1       1.945 -10.444  13.736  1.00  0.00     0.163 HD
BRANCH   3   6
ATOM      6  C   UNL     1       2.800  -9.451  10.641  1.00  0.00     0.039 A 
ATOM      7  C   UNL     1       3.178  -9.330   7.840  1.00  0.00    -0.029 A 
ATOM      8  C   UNL     1       2.669  -8.231   8.546  1.00  0.00     0.006 A 
ATOM      9  C   UNL     1       3.530 -10.474   8.560  1.00  0.00     0.006 A 
ATOM     10  C   UNL     1       2.489  -8.288   9.932  1.00  0.00     0.014 A 
ATOM     11  C   UNL     1       3.366 -10.521   9.946  1.00  0.00     0.014 A 
BRANCH   7  12
ATOM     12  C   UNL     1       3.360  -9.313   6.345  1.00  0.00     0.152 C 
BRANCH  12  13
ATOM     13  N   UNL     1       2.096  -9.218   5.660  1.00  0.00    -0.345 N 
ATOM     14  C   UNL     1       1.522  -8.206   4.934  1.00  0.00     0.287 C 
ATOM     15  O   UNL     1       0.478  -8.505   4.347  1.00  0.00    -0.266 OA
ATOM     16  H   UNL     1       1.542 -10.030   5.725  1.00  0.00     0.164 HD
BRANCH  14  17
ATOM     17  C   UNL     1       2.103  -6.876   4.878  1.00  0.00     0.192 A 
ATOM     18  C   UNL     1       2.210  -4.825   4.052  1.00  0.00     0.142 A 
ATOM     19  C   UNL     1       3.155  -4.882   5.047  1.00  0.00     0.052 A 
ATOM     20  O   UNL     1       1.554  -6.010   3.958  1.00  0.00    -0.451 OA
ATOM     21  C   UNL     1       3.092  -6.194   5.568  1.00  0.00     0.057 A 
BRANCH  18  22
ATOM     22  C   UNL     1       1.779  -3.780   3.145  1.00  0.00     0.095 A 
ATOM     23  C   UNL     1       0.882  -1.553   1.652  1.00  0.00     0.125 A 
ATOM     24  C   UNL     1       0.007  -2.249   2.487  1.00  0.00     0.047 A 
ATOM     25  C   UNL     1       2.203  -1.979   1.536  1.00  0.00     0.132 A 
ATOM     26  C   UNL     1       0.444  -3.358   3.215  1.00  0.00     0.023 A 
ATOM     27  C   UNL     1       2.642  -3.091   2.278  1.00  0.00     0.284 A 
BRANCH  23  28
ATOM     28  O   UNL     1       0.343  -0.456   1.042  1.00  0.00    -0.497 OA
ATOM     29  C   UNL     1       1.017   0.025  -0.114  1.00  0.00     0.278 C 
ENDBRANCH  23  28
BRANCH  27  30
ATOM     30  N   UNL     1       4.038  -3.496   2.110  1.00  0.00     0.063 N 
ATOM     31  O   UNL     1       4.302  -4.704   2.076  1.00  0.00    -0.258 OA
ATOM     32  O   UNL     1       4.874  -2.590   1.976  1.00  0.00    -0.258 OA
ENDBRANCH  27  30
ENDBRANCH  18  22
ENDBRANCH  14  17
ENDBRANCH  12  13
ENDBRANCH   7  12
ENDBRANCH   3   6
ENDBRANCH   1   2
BRANCH   1  33
ATOM     33  C   UNL     1       3.178 -12.778  12.584  1.00  0.00     0.023 C 
BRANCH  33  34
ATOM     34  C   UNL     1       3.295 -13.280  14.021  1.00  0.00     0.023 C 
BRANCH  34  35
ATOM     35  C   UNL     1       2.176 -14.216  14.451  1.00  0.00     0.116 C 
BRANCH  35  36
ATOM     36  N   UNL     1       2.054 -15.393  13.603  1.00  0.00    -0.352 N 
ATOM     37  C   UNL     1       1.687 -16.664  13.968  1.00  0.00     0.251 C 
ATOM     38  H   UNL     1       2.261 -15.261  12.649  1.00  0.00     0.163 HD
ATOM     39  O   UNL     1       1.743 -17.590  13.165  1.00  0.00    -0.269 OA
BRANCH  37  40
ATOM     40  C   UNL     1       1.262 -16.905  15.360  1.00  0.00     0.039 A 
ATOM     41  C   UNL     1       1.860 -17.943  16.076  1.00  0.00     0.014 A 
ATOM     42  C   UNL     1       0.326 -16.065  15.968  1.00  0.00     0.014 A 
ATOM     43  C   UNL     1       1.564 -18.098  17.429  1.00  0.00     0.010 A 
ATOM     44  C   UNL     1       0.098 -16.168  17.334  1.00  0.00     0.010 A 
ATOM     45  C   UNL     1       0.711 -17.189  18.077  1.00  0.00    -0.014 A 
BRANCH  45  46
ATOM     46  C   UNL     1       0.444 -17.293  19.532  1.00  0.00     0.031 A 
ATOM     47  C   UNL     1      -0.949 -17.569  20.023  1.00  0.00     0.074 A 
ATOM     48  C   UNL     1       1.444 -17.081  20.409  1.00  0.00     0.049 A 
ATOM     49  N   UNL     1      -1.394 -17.649  21.251  1.00  0.00    -0.248 NA
ATOM     50  C   UNL     1      -1.988 -17.752  18.996  1.00  0.00     0.031 C 
ATOM     51  C   UNL     1       2.826 -16.752  20.054  1.00  0.00     0.029 A 
ATOM     52  N   UNL     1       1.451 -17.103  21.781  1.00  0.00    -0.354 N 
ATOM     53  C   UNL     1      -2.759 -17.879  21.143  1.00  0.00     0.074 A 
ATOM     54  C   UNL     1      -3.082 -17.863  19.734  1.00  0.00     0.031 C 
ATOM     55  C   UNL     1       3.552 -16.632  21.177  1.00  0.00     0.029 A 
ATOM     56  C   UNL     1       2.681 -16.834  22.330  1.00  0.00     0.049 A 
ATOM     57  H   UNL     1       0.650 -17.294  22.321  1.00  0.00     0.167 HD
ATOM     58  C   UNL     1      -3.656 -18.112  22.130  1.00  0.00     0.037 A 
ATOM     59  C   UNL     1       3.060 -16.753  23.620  1.00  0.00     0.037 A 
ATOM     60  C   UNL     1      -3.324 -18.145  23.530  1.00  0.00     0.049 A 
ATOM     61  C   UNL     1       2.039 -17.003  24.698  1.00  0.00     0.074 A 
ATOM     62  C   UNL     1      -4.146 -18.428  24.606  1.00  0.00     0.029 A 
ATOM     63  N   UNL     1      -2.064 -17.879  24.049  1.00  0.00    -0.354 N 
ATOM     64  N   UNL     1       0.766 -17.297  24.583  1.00  0.00    -0.248 NA
ATOM     65  C   UNL     1       2.511 -16.918  26.087  1.00  0.00     0.031 C 
ATOM     66  C   UNL     1      -3.400 -18.278  25.779  1.00  0.00     0.029 A 
ATOM     67  C   UNL     1      -2.095 -17.965  25.432  1.00  0.00     0.049 A 
ATOM     68  H   UNL     1      -1.267 -17.662  23.514  1.00  0.00     0.167 HD
ATOM     69  C   UNL     1       0.294 -17.463  25.878  1.00  0.00     0.074 A 
ATOM     70  C   UNL     1       1.421 -17.254  26.762  1.00  0.00     0.031 C 
ATOM     71  C   UNL     1      -0.961 -17.762  26.298  1.00  0.00     0.037 A 
BRANCH  58  72
ATOM     72  C   UNL     1      -5.084 -18.349  21.729  1.00  0.00     0.064 A 
ATOM     73  C   UNL     1      -5.473 -19.506  21.035  1.00  0.00     0.173 A 
ATOM     74  C   UNL     1      -6.083 -17.425  22.072  1.00  0.00     0.173 A 
ATOM     75  F   UNL     1      -4.556 -20.416  20.672  1.00  0.00    -0.203 F 
ATOM     76  C   UNL     1      -6.801 -19.713  20.672  1.00  0.00     0.198 A 
ATOM     77  C   UNL     1      -7.415 -17.652  21.737  1.00  0.00     0.198 A 
ATOM     78  F   UNL     1      -5.769 -16.305  22.739  1.00  0.00    -0.203 F 
ATOM     79  F   UNL     1      -7.138 -20.798  19.961  1.00  0.00    -0.200 F 
ATOM     80  C   UNL     1      -7.772 -18.790  21.030  1.00  0.00     0.200 A 
ATOM     81  F   UNL     1      -8.355 -16.767  22.097  1.00  0.00    -0.200 F 
ATOM     82  F   UNL     1      -9.051 -18.995  20.687  1.00  0.00    -0.200 F 
ENDBRANCH  58  72
BRANCH  59  83
ATOM     83  C   UNL     1       4.473 -16.445  23.964  1.00  0.00     0.064 A 
ATOM     84  C   UNL     1       5.295 -17.407  24.568  1.00  0.00     0.173 A 
ATOM     85  C   UNL     1       5.029 -15.183  23.709  1.00  0.00     0.173 A 
ATOM     86  F   UNL     1       4.805 -18.623  24.850  1.00  0.00    -0.203 F 
ATOM     87  C   UNL     1       6.608 -17.111  24.928  1.00  0.00     0.198 A 
ATOM     88  C   UNL     1       6.352 -14.897  24.039  1.00  0.00     0.198 A 
ATOM     89  F   UNL     1       4.288 -14.228  23.126  1.00  0.00    -0.203 F 
ATOM     90  F   UNL     1       7.353 -18.032  25.553  1.00  0.00    -0.200 F 
ATOM     91  C   UNL     1       7.137 -15.858  24.658  1.00  0.00     0.200 A 
ATOM     92  F   UNL     1       6.864 -13.691  23.761  1.00  0.00    -0.200 F 
ATOM     93  F   UNL     1       8.401 -15.574  25.002  1.00  0.00    -0.200 F 
ENDBRANCH  59  83
BRANCH  71  94
ATOM     94  C   UNL     1      -1.172 -17.923  27.776  1.00  0.00     0.064 A 
ATOM     95  C   UNL     1      -1.120 -16.831  28.655  1.00  0.00     0.173 A 
ATOM     96  C   UNL     1      -1.467 -19.186  28.315  1.00  0.00     0.173 A 
ATOM     97  F   UNL     1      -0.828 -15.606  28.193  1.00  0.00    -0.203 F 
ATOM     98  C   UNL     1      -1.323 -17.003  30.022  1.00  0.00     0.198 A 
ATOM     99  C   UNL     1      -1.705 -19.347  29.677  1.00  0.00     0.198 A 
ATOM    100  F   UNL     1      -1.538 -20.262  27.518  1.00  0.00    -0.203 F 
ATOM    101  F   UNL     1      -1.212 -15.954  30.850  1.00  0.00    -0.200 F 
ATOM    102  C   UNL     1      -1.624 -18.258  30.530  1.00  0.00     0.200 A 
ATOM    103  F   UNL     1      -2.013 -20.557  30.163  1.00  0.00    -0.200 F 
ATOM    104  F   UNL     1      -1.827 -18.419  31.845  1.00  0.00    -0.200 F 
ENDBRANCH  71  94
ENDBRANCH  45  46
ENDBRANCH  37  40
ENDBRANCH  35  36
ENDBRANCH  34  35
ENDBRANCH  33  34
ENDBRANCH   1  33
TORSDOF 17
