REMARK SMILES CCC([NH3+])(CC)C(=O)N1CCC[N@H+](CC(=O)NCCCCNC(=O)c2ccc(-c3c4nc(c(-c5c(F)c(F)c(F)c(F)c5F)c5ccc([nH]5)c(-c5c(F)c(F)c(F)c(F)c5F)c5nc(c(-c6c(F)c(F)c(F)c(F)c6F)c6ccc3[nH]6)C=C5)C=C4)cc2)CC1
REMARK SMILES IDX 15 1 16 2 17 3 14 5 13 6 88 8 89 9 9 10 7 11 8 12 3 13 2 14
REMARK SMILES IDX 1 15 4 16 5 20 6 21 10 22 11 23 12 25 18 27 19 28 20 29
REMARK SMILES IDX 21 30 22 31 23 32 24 34 25 35 26 36 87 37 27 38 86 39 28 40
REMARK SMILES IDX 29 41 30 42 80 43 31 44 85 45 79 46 81 47 32 48 84 49 78 50
REMARK SMILES IDX 77 51 33 53 65 54 45 55 64 56 46 57 49 58 63 59 82 60 47 61
REMARK SMILES IDX 48 62 62 64 83 65 50 66 34 67 35 68 43 69 36 70 37 71 41 72
REMARK SMILES IDX 44 73 38 74 39 75 42 76 40 77 66 78 67 79 75 80 68 81 69 82
REMARK SMILES IDX 73 83 76 84 70 85 71 86 74 87 72 88 51 89 52 90 60 91 53 92
REMARK SMILES IDX 54 93 58 94 61 95 55 96 56 97 59 98 57 99
REMARK H PARENT 17 4 13 7 4 17 4 18 4 19 22 33 81 52 49 63
REMARK Flexibility Score: 90.00
ROOT
ATOM      1  C   UNL     1       4.252   4.301  -4.009  1.00  0.00     0.275 C 
ATOM      2  O   UNL     1       3.264   5.008  -4.234  1.00  0.00    -0.269 OA
ATOM      3  N   UNL     1       4.106   2.953  -4.180  1.00  0.00    -0.351 N 
ATOM      4  H   UNL     1       3.173   2.640  -4.198  1.00  0.00     0.163 HD
ENDROOT
BRANCH   1   5
ATOM      5  C   UNL     1       5.575   4.909  -3.552  1.00  0.00     0.363 C 
BRANCH   5   6
ATOM      6  N   UNL     1       5.641   5.271  -2.136  1.00  0.00    -0.326 N 
ATOM      7  H   UNL     1       6.608   5.564  -2.276  1.00  0.00     0.348 HD
BRANCH   6   8
ATOM      8  C   UNL     1       5.844   4.267  -1.119  1.00  0.00     0.284 C 
BRANCH   8   9
ATOM      9  C   UNL     1       4.665   3.396  -0.684  1.00  0.00     0.181 C 
BRANCH   9  10
ATOM     10  N   UNL     1       3.331   3.910  -0.373  1.00  0.00    -0.331 N 
BRANCH  10  11
ATOM     11  C   UNL     1       2.513   2.938   0.245  1.00  0.00     0.284 C 
ATOM     12  O   UNL     1       3.051   2.076   0.957  1.00  0.00    -0.268 OA
BRANCH  11  13
ATOM     13  C   UNL     1       0.952   2.809  -0.052  1.00  0.00     0.173 C 
BRANCH  13  14
ATOM     14  C   UNL     1       0.375   1.561   0.711  1.00  0.00     0.075 C 
ATOM     15  C   UNL     1       0.813   0.170   0.240  1.00  0.00     0.011 C 
ENDBRANCH  13  14
BRANCH  13  16
ATOM     16  N   UNL     1       0.737   2.573  -1.505  1.00  0.00    -0.345 N 
ATOM     17  H   UNL     1      -0.263   2.491  -1.692  1.00  0.00     0.345 HD
ATOM     18  H   UNL     1       1.206   1.711  -1.783  1.00  0.00     0.345 HD
ATOM     19  H   UNL     1       1.119   3.355  -2.037  1.00  0.00     0.345 HD
ENDBRANCH  13  16
BRANCH  13  20
ATOM     20  C   UNL     1       0.089   4.025   0.365  1.00  0.00     0.075 C 
ATOM     21  C   UNL     1       0.463   4.623   1.714  1.00  0.00     0.011 C 
ENDBRANCH  13  20
ENDBRANCH  11  13
ENDBRANCH  10  11
BRANCH  10  22
ATOM     22  C   UNL     1       2.837   5.086  -1.080  1.00  0.00     0.126 C 
BRANCH  22  23
ATOM     23  C   UNL     1       3.645   6.373  -0.984  1.00  0.00     0.083 CG0
ATOM     24  G   UNL     1       4.997   6.478  -1.682  1.00  0.00     0.000 G0
ENDBRANCH  22  23
ENDBRANCH  10  22
ENDBRANCH   9  10
ENDBRANCH   8   9
ENDBRANCH   6   8
BRANCH   6  25
ATOM     25  C   UNL     1       4.997   6.478  -1.682  1.00  0.00     0.264 CG0
ATOM     26  G   UNL     1       3.645   6.373  -0.984  1.00  0.00     0.000 G0
ENDBRANCH   6  25
ENDBRANCH   5   6
ENDBRANCH   1   5
BRANCH   3  27
ATOM     27  C   UNL     1       5.101   1.905  -4.340  1.00  0.00     0.116 C 
BRANCH  27  28
ATOM     28  C   UNL     1       5.249   0.946  -3.154  1.00  0.00     0.023 C 
BRANCH  28  29
ATOM     29  C   UNL     1       3.937   0.464  -2.523  1.00  0.00     0.023 C 
BRANCH  29  30
ATOM     30  C   UNL     1       3.236  -0.647  -3.281  1.00  0.00     0.116 C 
BRANCH  30  31
ATOM     31  N   UNL     1       3.954  -1.905  -3.165  1.00  0.00    -0.352 N 
ATOM     32  C   UNL     1       3.530  -3.114  -2.683  1.00  0.00     0.251 C 
ATOM     33  H   UNL     1       4.886  -1.885  -3.481  1.00  0.00     0.163 HD
ATOM     34  O   UNL     1       4.367  -3.993  -2.445  1.00  0.00    -0.269 OA
BRANCH  32  35
ATOM     35  C   UNL     1       2.097  -3.393  -2.450  1.00  0.00     0.039 A 
ATOM     36  C   UNL     1       1.733  -4.243  -1.400  1.00  0.00     0.014 A 
ATOM     37  C   UNL     1       1.110  -2.883  -3.299  1.00  0.00     0.014 A 
ATOM     38  C   UNL     1       0.390  -4.567  -1.195  1.00  0.00     0.010 A 
ATOM     39  C   UNL     1      -0.234  -3.125  -3.035  1.00  0.00     0.010 A 
ATOM     40  C   UNL     1      -0.606  -4.000  -2.005  1.00  0.00    -0.014 A 
BRANCH  40  41
ATOM     41  C   UNL     1      -2.036  -4.364  -1.847  1.00  0.00     0.031 A 
ATOM     42  C   UNL     1      -2.759  -5.046  -2.979  1.00  0.00     0.074 A 
ATOM     43  C   UNL     1      -2.695  -4.029  -0.722  1.00  0.00     0.049 A 
ATOM     44  N   UNL     1      -4.027  -5.352  -3.093  1.00  0.00    -0.248 NA
ATOM     45  C   UNL     1      -1.954  -5.393  -4.162  1.00  0.00     0.031 C 
ATOM     46  C   UNL     1      -2.114  -3.322   0.419  1.00  0.00     0.029 A 
ATOM     47  N   UNL     1      -4.003  -4.230  -0.360  1.00  0.00    -0.354 N 
ATOM     48  C   UNL     1      -4.171  -5.893  -4.365  1.00  0.00     0.074 A 
ATOM     49  C   UNL     1      -2.879  -5.819  -5.008  1.00  0.00     0.031 C 
ATOM     50  C   UNL     1      -3.054  -3.169   1.366  1.00  0.00     0.029 A 
ATOM     51  C   UNL     1      -4.311  -3.734   0.883  1.00  0.00     0.049 A 
ATOM     52  H   UNL     1      -4.658  -4.686  -0.935  1.00  0.00     0.167 HD
ATOM     53  C   UNL     1      -5.276  -6.431  -4.934  1.00  0.00     0.037 A 
ATOM     54  C   UNL     1      -5.479  -3.733   1.552  1.00  0.00     0.037 A 
ATOM     55  C   UNL     1      -6.545  -6.548  -4.267  1.00  0.00     0.049 A 
ATOM     56  C   UNL     1      -6.684  -4.370   0.913  1.00  0.00     0.074 A 
ATOM     57  C   UNL     1      -7.713  -7.133  -4.723  1.00  0.00     0.029 A 
ATOM     58  N   UNL     1      -6.805  -6.075  -2.988  1.00  0.00    -0.354 N 
ATOM     59  N   UNL     1      -6.796  -4.928  -0.268  1.00  0.00    -0.248 NA
ATOM     60  C   UNL     1      -7.922  -4.385   1.704  1.00  0.00     0.031 C 
ATOM     61  C   UNL     1      -8.690  -6.984  -3.733  1.00  0.00     0.029 A 
ATOM     62  C   UNL     1      -8.118  -6.347  -2.643  1.00  0.00     0.049 A 
ATOM     63  H   UNL     1      -6.153  -5.615  -2.412  1.00  0.00     0.167 HD
ATOM     64  C   UNL     1      -8.105  -5.382  -0.353  1.00  0.00     0.074 A 
ATOM     65  C   UNL     1      -8.743  -5.050   0.904  1.00  0.00     0.031 C 
ATOM     66  C   UNL     1      -8.726  -6.014  -1.379  1.00  0.00     0.037 A 
BRANCH  53  67
ATOM     67  C   UNL     1      -5.155  -6.946  -6.341  1.00  0.00     0.064 A 
ATOM     68  C   UNL     1      -4.389  -8.083  -6.646  1.00  0.00     0.173 A 
ATOM     69  C   UNL     1      -5.828  -6.310  -7.395  1.00  0.00     0.173 A 
ATOM     70  F   UNL     1      -3.714  -8.722  -5.679  1.00  0.00    -0.203 F 
ATOM     71  C   UNL     1      -4.271  -8.540  -7.957  1.00  0.00     0.198 A 
ATOM     72  C   UNL     1      -5.735  -6.790  -8.700  1.00  0.00     0.198 A 
ATOM     73  F   UNL     1      -6.579  -5.224  -7.161  1.00  0.00    -0.203 F 
ATOM     74  F   UNL     1      -3.486  -9.591  -8.230  1.00  0.00    -0.200 F 
ATOM     75  C   UNL     1      -4.950  -7.898  -8.981  1.00  0.00     0.200 A 
ATOM     76  F   UNL     1      -6.402  -6.176  -9.687  1.00  0.00    -0.200 F 
ATOM     77  F   UNL     1      -4.839  -8.341 -10.241  1.00  0.00    -0.200 F 
ENDBRANCH  53  67
BRANCH  54  78
ATOM     78  C   UNL     1      -5.553  -3.141   2.913  1.00  0.00     0.064 A 
ATOM     79  C   UNL     1      -5.723  -3.955   4.042  1.00  0.00     0.173 A 
ATOM     80  C   UNL     1      -5.447  -1.758   3.117  1.00  0.00     0.173 A 
ATOM     81  F   UNL     1      -5.848  -5.283   3.897  1.00  0.00    -0.203 F 
ATOM     82  C   UNL     1      -5.805  -3.407   5.320  1.00  0.00     0.198 A 
ATOM     83  C   UNL     1      -5.500  -1.213   4.399  1.00  0.00     0.198 A 
ATOM     84  F   UNL     1      -5.277  -0.936   2.072  1.00  0.00    -0.203 F 
ATOM     85  F   UNL     1      -6.012  -4.205   6.377  1.00  0.00    -0.200 F 
ATOM     86  C   UNL     1      -5.687  -2.037   5.499  1.00  0.00     0.200 A 
ATOM     87  F   UNL     1      -5.372   0.110   4.569  1.00  0.00    -0.200 F 
ATOM     88  F   UNL     1      -5.761  -1.511   6.729  1.00  0.00    -0.200 F 
ENDBRANCH  54  78
BRANCH  66  89
ATOM     89  C   UNL     1     -10.156  -6.416  -1.172  1.00  0.00     0.064 A 
ATOM     90  C   UNL     1     -11.190  -5.470  -1.159  1.00  0.00     0.173 A 
ATOM     91  C   UNL     1     -10.498  -7.769  -1.031  1.00  0.00     0.173 A 
ATOM     92  F   UNL     1     -10.911  -4.163  -1.277  1.00  0.00    -0.203 F 
ATOM     93  C   UNL     1     -12.515  -5.862  -0.988  1.00  0.00     0.198 A 
ATOM     94  C   UNL     1     -11.826  -8.160  -0.889  1.00  0.00     0.198 A 
ATOM     95  F   UNL     1      -9.545  -8.714  -1.045  1.00  0.00    -0.203 F 
ATOM     96  F   UNL     1     -13.483  -4.937  -0.934  1.00  0.00    -0.200 F 
ATOM     97  C   UNL     1     -12.832  -7.206  -0.861  1.00  0.00     0.200 A 
ATOM     98  F   UNL     1     -12.133  -9.460  -0.781  1.00  0.00    -0.200 F 
ATOM     99  F   UNL     1     -14.109  -7.582  -0.705  1.00  0.00    -0.200 F 
ENDBRANCH  66  89
ENDBRANCH  40  41
ENDBRANCH  32  35
ENDBRANCH  30  31
ENDBRANCH  29  30
ENDBRANCH  28  29
ENDBRANCH  27  28
ENDBRANCH   3  27
TORSDOF 17
