REMARK SMILES C[C@H](Oc1ccccc1Cl)C(=O)N1CCCC[C@H]1C(=O)NCCCCNC(=O)c1ccc(-c2c3nc(c(-c4c(F)c(F)c(F)c(F)c4F)c4ccc([nH]4)c(-c4c(F)c(F)c(F)c(F)c4F)c4nc(c(-c5c(F)c(F)c(F)c(F)c5F)c5ccc2[nH]5)C=C4)C=C3)cc1
REMARK SMILES IDX 22 1 21 2 19 3 20 4 18 6 13 7 14 8 15 9 17 10 16 11 11 12
REMARK SMILES IDX 12 13 2 14 1 15 3 16 4 17 5 18 9 19 6 20 8 21 10 22 7 23
REMARK SMILES IDX 23 24 24 25 25 26 26 27 27 28 28 30 29 31 30 32 91 33 31 34
REMARK SMILES IDX 90 35 32 36 33 37 34 38 84 39 35 40 89 41 83 42 85 43 36 44
REMARK SMILES IDX 88 45 82 46 81 47 37 49 69 50 49 51 68 52 50 53 53 54 67 55
REMARK SMILES IDX 86 56 51 57 52 58 66 60 87 61 54 62 38 63 39 64 47 65 40 66
REMARK SMILES IDX 41 67 45 68 48 69 42 70 43 71 46 72 44 73 70 74 71 75 79 76
REMARK SMILES IDX 72 77 73 78 77 79 80 80 74 81 75 82 78 83 76 84 55 85 56 86
REMARK SMILES IDX 64 87 57 88 58 89 62 90 65 91 59 92 60 93 63 94 61 95
REMARK H PARENT 21 5 26 29 85 48 53 59
REMARK Flexibility Score: inf
ROOT
ATOM      1  C   UNL     1       0.022   1.347   3.953  1.00  0.00     0.116 C 
ENDROOT
BRANCH   1   2
ATOM      2  N   UNL     1      -0.428  -0.029   4.035  1.00  0.00    -0.354 N 
ATOM      3  C   UNL     1      -1.083  -0.783   3.099  1.00  0.00     0.242 C 
ATOM      4  O   UNL     1      -1.297  -1.965   3.379  1.00  0.00    -0.273 OA
ATOM      5  H   UNL     1      -0.235  -0.486   4.886  1.00  0.00     0.163 HD
BRANCH   3   6
ATOM      6  C   UNL     1      -1.562  -0.129   1.779  1.00  0.00     0.174 C 
ATOM      7  N   UNL     1      -1.891  -1.089   0.706  1.00  0.00    -0.327 N 
ATOM      8  C   UNL     1      -3.156  -1.814   0.842  1.00  0.00     0.120 C 
ATOM      9  C   UNL     1      -4.337  -0.893   1.114  1.00  0.00     0.022 C 
ATOM     10  C   UNL     1      -2.751   0.815   2.021  1.00  0.00     0.035 C 
ATOM     11  C   UNL     1      -4.050   0.057   2.270  1.00  0.00     0.004 C 
BRANCH   7  12
ATOM     12  C   UNL     1      -1.076  -1.379  -0.388  1.00  0.00     0.264 C 
ATOM     13  O   UNL     1      -1.559  -1.786  -1.451  1.00  0.00    -0.271 OA
BRANCH  12  14
ATOM     14  C   UNL     1       0.467  -1.418  -0.196  1.00  0.00     0.259 C 
ATOM     15  C   UNL     1       0.723  -2.633   0.705  1.00  0.00     0.064 C 
BRANCH  14  16
ATOM     16  O   UNL     1       0.980  -0.163   0.236  1.00  0.00    -0.479 OA
BRANCH  16  17
ATOM     17  C   UNL     1       2.258   0.045   0.666  1.00  0.00     0.139 A 
ATOM     18  C   UNL     1       3.263  -0.920   0.731  1.00  0.00     0.048 A 
ATOM     19  C   UNL     1       2.562   1.341   1.125  1.00  0.00     0.083 A 
ATOM     20  C   UNL     1       4.483  -0.644   1.362  1.00  0.00     0.004 A 
ATOM     21  C   UNL     1       3.782   1.621   1.750  1.00  0.00     0.024 A 
ATOM     22  Cl  UNL     1       1.459   2.658   0.912  1.00  0.00    -0.080 Cl
ATOM     23  C   UNL     1       4.734   0.617   1.893  1.00  0.00     0.002 A 
ENDBRANCH  16  17
ENDBRANCH  14  16
ENDBRANCH  12  14
ENDBRANCH   7  12
ENDBRANCH   3   6
ENDBRANCH   1   2
BRANCH   1  24
ATOM     24  C   UNL     1      -0.641   2.257   4.984  1.00  0.00     0.023 C 
BRANCH  24  25
ATOM     25  C   UNL     1      -0.420   1.860   6.441  1.00  0.00     0.023 C 
BRANCH  25  26
ATOM     26  C   UNL     1       1.035   1.684   6.853  1.00  0.00     0.116 C 
BRANCH  26  27
ATOM     27  N   UNL     1       1.819   2.902   6.713  1.00  0.00    -0.352 N 
ATOM     28  C   UNL     1       2.633   3.520   7.632  1.00  0.00     0.251 C 
ATOM     29  H   UNL     1       1.756   3.347   5.837  1.00  0.00     0.163 HD
ATOM     30  O   UNL     1       3.119   4.620   7.386  1.00  0.00    -0.269 OA
BRANCH  28  31
ATOM     31  C   UNL     1       2.898   2.872   8.935  1.00  0.00     0.039 A 
ATOM     32  C   UNL     1       2.800   3.634  10.101  1.00  0.00     0.014 A 
ATOM     33  C   UNL     1       3.225   1.515   9.008  1.00  0.00     0.014 A 
ATOM     34  C   UNL     1       2.957   3.019  11.346  1.00  0.00     0.010 A 
ATOM     35  C   UNL     1       3.300   0.888  10.249  1.00  0.00     0.010 A 
ATOM     36  C   UNL     1       3.167   1.633  11.432  1.00  0.00    -0.014 A 
BRANCH  36  37
ATOM     37  C   UNL     1       3.260   0.943  12.745  1.00  0.00     0.031 A 
ATOM     38  C   UNL     1       4.532   0.242  13.139  1.00  0.00     0.074 A 
ATOM     39  C   UNL     1       2.184   0.893  13.556  1.00  0.00     0.049 A 
ATOM     40  N   UNL     1       4.780  -0.499  14.189  1.00  0.00    -0.248 NA
ATOM     41  C   UNL     1       5.671   0.373  12.216  1.00  0.00     0.031 C 
ATOM     42  C   UNL     1       0.882   1.500  13.275  1.00  0.00     0.029 A 
ATOM     43  N   UNL     1       2.010   0.291  14.779  1.00  0.00    -0.354 N 
ATOM     44  C   UNL     1       6.096  -0.921  14.052  1.00  0.00     0.074 A 
ATOM     45  C   UNL     1       6.575  -0.409  12.786  1.00  0.00     0.031 C 
ATOM     46  C   UNL     1       0.049   1.251  14.298  1.00  0.00     0.029 A 
ATOM     47  C   UNL     1       0.741   0.431  15.288  1.00  0.00     0.049 A 
ATOM     48  H   UNL     1       2.727  -0.195  15.246  1.00  0.00     0.167 HD
ATOM     49  C   UNL     1       6.848  -1.642  14.917  1.00  0.00     0.037 A 
ATOM     50  C   UNL     1       0.193  -0.063  16.415  1.00  0.00     0.037 A 
ATOM     51  C   UNL     1       6.375  -2.140  16.182  1.00  0.00     0.049 A 
ATOM     52  C   UNL     1       1.044  -0.896  17.340  1.00  0.00     0.074 A 
ATOM     53  C   UNL     1       7.067  -2.866  17.135  1.00  0.00     0.029 A 
ATOM     54  N   UNL     1       5.091  -1.958  16.671  1.00  0.00    -0.354 N 
ATOM     55  N   UNL     1       2.302  -1.244  17.221  1.00  0.00    -0.248 NA
ATOM     56  C   UNL     1       0.399  -1.399  18.562  1.00  0.00     0.031 C 
ATOM     57  C   UNL     1       6.189  -3.159  18.184  1.00  0.00     0.029 A 
ATOM     58  C   UNL     1       4.968  -2.568  17.909  1.00  0.00     0.049 A 
ATOM     59  H   UNL     1       4.373  -1.469  16.208  1.00  0.00     0.167 HD
ATOM     60  C   UNL     1       2.607  -1.969  18.366  1.00  0.00     0.074 A 
ATOM     61  C   UNL     1       1.409  -1.997  19.176  1.00  0.00     0.031 C 
ATOM     62  C   UNL     1       3.775  -2.561  18.716  1.00  0.00     0.037 A 
BRANCH  49  63
ATOM     63  C   UNL     1       8.274  -1.919  14.538  1.00  0.00     0.064 A 
ATOM     64  C   UNL     1       9.235  -0.897  14.520  1.00  0.00     0.173 A 
ATOM     65  C   UNL     1       8.700  -3.225  14.253  1.00  0.00     0.173 A 
ATOM     66  F   UNL     1       8.877   0.371  14.773  1.00  0.00    -0.203 F 
ATOM     67  C   UNL     1      10.565  -1.168  14.212  1.00  0.00     0.198 A 
ATOM     68  C   UNL     1      10.037  -3.498  13.976  1.00  0.00     0.198 A 
ATOM     69  F   UNL     1       7.823  -4.240  14.261  1.00  0.00    -0.203 F 
ATOM     70  F   UNL     1      11.457  -0.169  14.162  1.00  0.00    -0.200 F 
ATOM     71  C   UNL     1      10.967  -2.469  13.951  1.00  0.00     0.200 A 
ATOM     72  F   UNL     1      10.428  -4.758  13.739  1.00  0.00    -0.200 F 
ATOM     73  F   UNL     1      12.251  -2.732  13.671  1.00  0.00    -0.200 F 
ENDBRANCH  49  63
BRANCH  50  74
ATOM     74  C   UNL     1      -1.234   0.206  16.744  1.00  0.00     0.064 A 
ATOM     75  C   UNL     1      -1.586   0.970  17.866  1.00  0.00     0.173 A 
ATOM     76  C   UNL     1      -2.274  -0.340  15.977  1.00  0.00     0.173 A 
ATOM     77  F   UNL     1      -0.630   1.498  18.644  1.00  0.00    -0.203 F 
ATOM     78  C   UNL     1      -2.920   1.140  18.233  1.00  0.00     0.198 A 
ATOM     79  C   UNL     1      -3.608  -0.138  16.324  1.00  0.00     0.198 A 
ATOM     80  F   UNL     1      -1.994  -1.074  14.890  1.00  0.00    -0.203 F 
ATOM     81  F   UNL     1      -3.224   1.812  19.352  1.00  0.00    -0.200 F 
ATOM     82  C   UNL     1      -3.930   0.588  17.460  1.00  0.00     0.200 A 
ATOM     83  F   UNL     1      -4.581  -0.660  15.565  1.00  0.00    -0.200 F 
ATOM     84  F   UNL     1      -5.212   0.743  17.819  1.00  0.00    -0.200 F 
ENDBRANCH  50  74
BRANCH  62  85
ATOM     85  C   UNL     1       3.836  -3.236  20.056  1.00  0.00     0.064 A 
ATOM     86  C   UNL     1       3.153  -4.433  20.315  1.00  0.00     0.173 A 
ATOM     87  C   UNL     1       4.627  -2.696  21.083  1.00  0.00     0.173 A 
ATOM     88  F   UNL     1       2.373  -4.982  19.372  1.00  0.00    -0.203 F 
ATOM     89  C   UNL     1       3.236  -5.050  21.560  1.00  0.00     0.198 A 
ATOM     90  C   UNL     1       4.736  -3.334  22.315  1.00  0.00     0.198 A 
ATOM     91  F   UNL     1       5.308  -1.558  20.885  1.00  0.00    -0.203 F 
ATOM     92  F   UNL     1       2.534  -6.165  21.802  1.00  0.00    -0.200 F 
ATOM     93  C   UNL     1       4.034  -4.505  22.556  1.00  0.00     0.200 A 
ATOM     94  F   UNL     1       5.520  -2.814  23.270  1.00  0.00    -0.200 F 
ATOM     95  F   UNL     1       4.120  -5.105  23.751  1.00  0.00    -0.200 F 
ENDBRANCH  62  85
ENDBRANCH  36  37
ENDBRANCH  28  31
ENDBRANCH  26  27
ENDBRANCH  25  26
ENDBRANCH  24  25
ENDBRANCH   1  24
TORSDOF 15
