REMARK SMILES CCc1n[nH]c(C(=O)N[C@@]2(C(=O)NCCCCNC(=O)c3ccc(-c4c5nc(c(-c6c(F)c(F)c(F)c(F)c6F)c6ccc([nH]6)c(-c6c(F)c(F)c(F)c(F)c6F)c6nc(c(-c7c(F)c(F)c(F)c(F)c7F)c7ccc4[nH]7)C=C6)C=C5)cc3)CCCC[C@H]2C)n1
REMARK SMILES IDX 15 1 14 2 13 3 11 4 12 5 10 7 84 8 88 9 85 10 87 11 89 12
REMARK SMILES IDX 86 13 9 14 7 15 8 16 6 18 3 19 4 20 90 21 5 22 2 24 1 25
REMARK SMILES IDX 16 26 17 27 18 28 19 29 20 31 21 32 22 33 83 34 23 35 82 36
REMARK SMILES IDX 24 37 25 38 26 39 76 40 27 41 81 42 75 43 77 44 28 45 80 46
REMARK SMILES IDX 74 47 73 48 29 50 61 51 41 52 60 53 42 54 45 55 59 56 78 57
REMARK SMILES IDX 43 58 44 59 58 61 79 62 46 63 30 64 31 65 39 66 32 67 33 68
REMARK SMILES IDX 37 69 40 70 34 71 35 72 38 73 36 74 62 75 63 76 71 77 64 78
REMARK SMILES IDX 65 79 69 80 72 81 66 82 67 83 70 84 68 85 47 86 48 87 56 88
REMARK SMILES IDX 49 89 50 90 54 91 57 92 51 93 52 94 55 95 53 96
REMARK H PARENT 13 6 9 17 5 23 18 30 77 49 45 60
REMARK Flexibility Score: inf
ROOT
ATOM      1  C   UNL     1      -0.403   7.868   1.844  1.00  0.00     0.023 C 
ENDROOT
BRANCH   1   2
ATOM      2  C   UNL     1      -1.023   7.007   0.754  1.00  0.00     0.116 C 
BRANCH   2   3
ATOM      3  N   UNL     1      -0.949   7.572  -0.581  1.00  0.00    -0.354 N 
ATOM      4  C   UNL     1      -0.373   7.055  -1.718  1.00  0.00     0.246 C 
ATOM      5  O   UNL     1      -0.523   7.693  -2.767  1.00  0.00    -0.272 OA
ATOM      6  H   UNL     1      -1.373   8.454  -0.689  1.00  0.00     0.163 HD
BRANCH   4   7
ATOM      7  C   UNL     1       0.509   5.738  -1.685  1.00  0.00     0.122 C 
ATOM      8  C   UNL     1      -0.378   4.596  -1.137  1.00  0.00     0.039 C 
ATOM      9  C   UNL     1       1.766   6.115  -0.846  1.00  0.00     0.021 C 
ATOM     10  C   UNL     1       0.124   3.838   0.101  1.00  0.00     0.003 C 
ATOM     11  C   UNL     1       2.481   4.891  -0.305  1.00  0.00     0.006 C 
ATOM     12  C   UNL     1       2.735   7.067  -1.565  1.00  0.00     0.011 C 
ATOM     13  C   UNL     1       1.555   4.082   0.595  1.00  0.00     0.000 C 
BRANCH   7  14
ATOM     14  N   UNL     1       0.878   5.486  -3.119  1.00  0.00    -0.335 N 
ATOM     15  C   UNL     1       1.345   4.425  -3.866  1.00  0.00     0.289 C 
ATOM     16  O   UNL     1       1.588   4.656  -5.054  1.00  0.00    -0.266 OA
ATOM     17  H   UNL     1       0.755   6.291  -3.672  1.00  0.00     0.165 HD
BRANCH  15  18
ATOM     18  C   UNL     1       1.468   3.078  -3.349  1.00  0.00     0.214 A 
ATOM     19  C   UNL     1       1.393   1.302  -2.176  1.00  0.00     0.151 A 
ATOM     20  N   UNL     1       1.431   0.826  -3.425  1.00  0.00    -0.158 NA
ATOM     21  N   UNL     1       1.467   2.669  -2.100  1.00  0.00    -0.207 NA
ATOM     22  N   UNL     1       1.532   1.965  -4.144  1.00  0.00    -0.255 N 
ATOM     23  H   UNL     1       1.639   1.992  -5.122  1.00  0.00     0.192 HD
BRANCH  19  24
ATOM     24  C   UNL     1       1.069   0.500  -0.963  1.00  0.00     0.076 C 
ATOM     25  C   UNL     1       1.677  -0.883  -0.881  1.00  0.00     0.012 C 
ENDBRANCH  19  24
ENDBRANCH  15  18
ENDBRANCH   7  14
ENDBRANCH   4   7
ENDBRANCH   2   3
ENDBRANCH   1   2
BRANCH   1  26
ATOM     26  C   UNL     1      -1.332   8.921   2.426  1.00  0.00     0.023 C 
BRANCH  26  27
ATOM     27  C   UNL     1      -2.649   8.392   2.981  1.00  0.00     0.116 C 
BRANCH  27  28
ATOM     28  N   UNL     1      -2.501   7.388   4.027  1.00  0.00    -0.352 N 
ATOM     29  C   UNL     1      -3.226   7.261   5.190  1.00  0.00     0.251 C 
ATOM     30  H   UNL     1      -1.794   6.717   3.883  1.00  0.00     0.163 HD
ATOM     31  O   UNL     1      -2.940   6.406   6.022  1.00  0.00    -0.269 OA
BRANCH  29  32
ATOM     32  C   UNL     1      -4.329   8.208   5.446  1.00  0.00     0.039 A 
ATOM     33  C   UNL     1      -4.339   8.928   6.642  1.00  0.00     0.014 A 
ATOM     34  C   UNL     1      -5.292   8.448   4.463  1.00  0.00     0.014 A 
ATOM     35  C   UNL     1      -5.265   9.958   6.815  1.00  0.00     0.010 A 
ATOM     36  C   UNL     1      -6.158   9.527   4.602  1.00  0.00     0.010 A 
ATOM     37  C   UNL     1      -6.149  10.297   5.776  1.00  0.00    -0.014 A 
BRANCH  37  38
ATOM     38  C   UNL     1      -7.066  11.457   5.889  1.00  0.00     0.031 A 
ATOM     39  C   UNL     1      -8.553  11.243   5.861  1.00  0.00     0.074 A 
ATOM     40  C   UNL     1      -6.564  12.707   5.934  1.00  0.00     0.049 A 
ATOM     41  N   UNL     1      -9.518  12.127   5.858  1.00  0.00    -0.248 NA
ATOM     42  C   UNL     1      -9.016   9.848   5.795  1.00  0.00     0.031 C 
ATOM     43  C   UNL     1      -5.140  13.049   5.909  1.00  0.00     0.029 A 
ATOM     44  N   UNL     1      -7.196  13.924   5.995  1.00  0.00    -0.354 N 
ATOM     45  C   UNL     1     -10.696  11.397   5.772  1.00  0.00     0.074 A 
ATOM     46  C   UNL     1     -10.325  10.003   5.668  1.00  0.00     0.031 C 
ATOM     47  C   UNL     1      -5.008  14.384   5.978  1.00  0.00     0.029 A 
ATOM     48  C   UNL     1      -6.333  14.993   6.017  1.00  0.00     0.049 A 
ATOM     49  H   UNL     1      -8.175  14.021   6.022  1.00  0.00     0.167 HD
ATOM     50  C   UNL     1     -11.972  11.848   5.803  1.00  0.00     0.037 A 
ATOM     51  C   UNL     1      -6.586  16.315   6.057  1.00  0.00     0.037 A 
ATOM     52  C   UNL     1     -12.338  13.232   5.940  1.00  0.00     0.049 A 
ATOM     53  C   UNL     1      -8.013  16.789   6.101  1.00  0.00     0.074 A 
ATOM     54  C   UNL     1     -13.602  13.784   6.048  1.00  0.00     0.029 A 
ATOM     55  N   UNL     1     -11.436  14.285   5.989  1.00  0.00    -0.354 N 
ATOM     56  N   UNL     1      -9.119  16.086   6.090  1.00  0.00    -0.248 NA
ATOM     57  C   UNL     1      -8.227  18.242   6.168  1.00  0.00     0.031 C 
ATOM     58  C   UNL     1     -13.467  15.175   6.122  1.00  0.00     0.029 A 
ATOM     59  C   UNL     1     -12.117  15.485   6.108  1.00  0.00     0.049 A 
ATOM     60  H   UNL     1     -10.456  14.192   5.946  1.00  0.00     0.167 HD
ATOM     61  C   UNL     1     -10.156  17.004   6.179  1.00  0.00     0.074 A 
ATOM     62  C   UNL     1      -9.548  18.316   6.256  1.00  0.00     0.031 C 
ATOM     63  C   UNL     1     -11.493  16.781   6.195  1.00  0.00     0.037 A 
BRANCH  50  64
ATOM     64  C   UNL     1     -13.068  10.828   5.697  1.00  0.00     0.064 A 
ATOM     65  C   UNL     1     -13.334   9.925   6.738  1.00  0.00     0.173 A 
ATOM     66  C   UNL     1     -13.880  10.771   4.555  1.00  0.00     0.173 A 
ATOM     67  F   UNL     1     -12.577   9.930   7.845  1.00  0.00    -0.203 F 
ATOM     68  C   UNL     1     -14.353   8.983   6.626  1.00  0.00     0.198 A 
ATOM     69  C   UNL     1     -14.918   9.847   4.460  1.00  0.00     0.198 A 
ATOM     70  F   UNL     1     -13.671  11.613   3.532  1.00  0.00    -0.203 F 
ATOM     71  F   UNL     1     -14.555   8.097   7.612  1.00  0.00    -0.200 F 
ATOM     72  C   UNL     1     -15.148   8.949   5.491  1.00  0.00     0.200 A 
ATOM     73  F   UNL     1     -15.693   9.823   3.367  1.00  0.00    -0.200 F 
ATOM     74  F   UNL     1     -16.133   8.046   5.388  1.00  0.00    -0.200 F 
ENDBRANCH  50  64
BRANCH  51  75
ATOM     75  C   UNL     1      -5.461  17.286   6.091  1.00  0.00     0.064 A 
ATOM     76  C   UNL     1      -5.186  18.024   7.251  1.00  0.00     0.173 A 
ATOM     77  C   UNL     1      -4.646  17.502   4.972  1.00  0.00     0.173 A 
ATOM     78  F   UNL     1      -5.951  17.867   8.341  1.00  0.00    -0.203 F 
ATOM     79  C   UNL     1      -4.150  18.956   7.284  1.00  0.00     0.198 A 
ATOM     80  C   UNL     1      -3.593  18.415   5.013  1.00  0.00     0.198 A 
ATOM     81  F   UNL     1      -4.864  16.818   3.839  1.00  0.00    -0.203 F 
ATOM     82  F   UNL     1      -3.937  19.679   8.391  1.00  0.00    -0.200 F 
ATOM     83  C   UNL     1      -3.351  19.146   6.167  1.00  0.00     0.200 A 
ATOM     84  F   UNL     1      -2.815  18.586   3.936  1.00  0.00    -0.200 F 
ATOM     85  F   UNL     1      -2.353  20.040   6.199  1.00  0.00    -0.200 F 
ENDBRANCH  51  75
BRANCH  63  86
ATOM     86  C   UNL     1     -12.389  17.976   6.338  1.00  0.00     0.064 A 
ATOM     87  C   UNL     1     -12.580  18.882   5.285  1.00  0.00     0.173 A 
ATOM     88  C   UNL     1     -13.098  18.192   7.530  1.00  0.00     0.173 A 
ATOM     89  F   UNL     1     -11.913  18.727   4.132  1.00  0.00    -0.203 F 
ATOM     90  C   UNL     1     -13.432  19.974   5.428  1.00  0.00     0.198 A 
ATOM     91  C   UNL     1     -13.970  19.268   7.659  1.00  0.00     0.198 A 
ATOM     92  F   UNL     1     -12.954  17.349   8.564  1.00  0.00    -0.203 F 
ATOM     93  F   UNL     1     -13.566  20.852   4.425  1.00  0.00    -0.200 F 
ATOM     94  C   UNL     1     -14.131  20.162   6.612  1.00  0.00     0.200 A 
ATOM     95  F   UNL     1     -14.655  19.441   8.798  1.00  0.00    -0.200 F 
ATOM     96  F   UNL     1     -14.957  21.209   6.744  1.00  0.00    -0.200 F 
ENDBRANCH  63  86
ENDBRANCH  37  38
ENDBRANCH  29  32
ENDBRANCH  27  28
ENDBRANCH  26  27
ENDBRANCH   1  26
TORSDOF 14
