REMARK SMILES NC(=O)N[C@@H]1CCCCC[C@H]1C(=O)NCCCCNC(=O)c1ccc(-c2c3nc(c(-c4c(F)c(F)c(F)c(F)c4F)c4ccc([nH]4)c(-c4c(F)c(F)c(F)c(F)c4F)c4nc(c(-c5c(F)c(F)c(F)c(F)c5F)c5ccc2[nH]5)C=C4)C=C3)cc1
REMARK SMILES IDX 16 1 15 2 14 3 12 4 13 5 11 7 5 8 4 9 1 10 2 11 3 14 6 16
REMARK SMILES IDX 7 17 10 19 9 20 8 21 17 23 18 24 19 25 20 26 21 28 22 29
REMARK SMILES IDX 23 30 84 31 24 32 83 33 25 34 26 35 27 36 77 37 28 38 82 39
REMARK SMILES IDX 76 40 78 41 29 42 81 43 75 44 74 45 30 47 62 48 42 49 61 50
REMARK SMILES IDX 43 51 46 52 60 53 79 54 44 55 45 56 59 58 80 59 47 60 31 61
REMARK SMILES IDX 32 62 40 63 33 64 34 65 38 66 41 67 35 68 36 69 39 70 37 71
REMARK SMILES IDX 63 72 64 73 72 74 65 75 66 76 70 77 73 78 67 79 68 80 71 81
REMARK SMILES IDX 69 82 48 83 49 84 57 85 50 86 51 87 55 88 58 89 52 90 53 91
REMARK SMILES IDX 56 92 54 93
REMARK H PARENT 14 6 1 12 1 13 4 15 19 27 78 46 46 57
REMARK Flexibility Score: 90.00
ROOT
ATOM      1  C   UNL     1       5.912   0.032   4.317  1.00  0.00     0.023 C 
ENDROOT
BRANCH   1   2
ATOM      2  C   UNL     1       5.786   0.530   2.884  1.00  0.00     0.116 C 
BRANCH   2   3
ATOM      3  N   UNL     1       5.342  -0.470   1.950  1.00  0.00    -0.356 N 
ATOM      4  C   UNL     1       4.286  -0.484   1.099  1.00  0.00     0.225 C 
ATOM      5  O   UNL     1       4.301  -1.386   0.252  1.00  0.00    -0.275 OA
ATOM      6  H   UNL     1       5.899  -1.281   1.925  1.00  0.00     0.163 HD
BRANCH   4   7
ATOM      7  C   UNL     1       3.110   0.512   1.123  1.00  0.00     0.101 C 
BRANCH   7   8
ATOM      8  C   UNL     1       2.261   0.490   2.413  1.00  0.00     0.096 C 
BRANCH   8   9
ATOM      9  N   UNL     1       1.025  -0.322   2.284  1.00  0.00    -0.335 N 
ATOM     10  N   UNL     1      -0.046   0.624   0.454  1.00  0.00    -0.352 N 
ATOM     11  C   UNL     1      -0.075  -0.203   1.510  1.00  0.00     0.312 C 
ATOM     12  H   UNL     1      -0.842   0.719  -0.118  1.00  0.00     0.161 HD
ATOM     13  H   UNL     1       0.770   1.135   0.251  1.00  0.00     0.161 HD
ATOM     14  O   UNL     1      -1.094  -0.830   1.777  1.00  0.00    -0.249 OA
ATOM     15  H   UNL     1       1.003  -1.103   2.882  1.00  0.00     0.165 HD
ENDBRANCH   8   9
BRANCH   8  16
ATOM     16  C   UNL     1       1.851   1.842   3.021  1.00  0.00     0.026 C 
BRANCH  16  17
ATOM     17  C   UNL     1       2.991   2.724   3.500  1.00  0.00     0.002 CG0
ATOM     18  G   UNL     1       3.619   3.594   2.416  1.00  0.00     0.000 G0
ENDBRANCH  16  17
ENDBRANCH   8  16
ENDBRANCH   7   8
BRANCH   7  19
ATOM     19  C   UNL     1       3.360   1.879   0.462  1.00  0.00     0.015 C 
BRANCH  19  20
ATOM     20  C   UNL     1       4.198   2.940   1.162  1.00  0.00     0.001 C 
BRANCH  20  21
ATOM     21  C   UNL     1       3.619   3.594   2.416  1.00  0.00     0.000 CG0
ATOM     22  G   UNL     1       2.991   2.724   3.500  1.00  0.00     0.000 G0
ENDBRANCH  20  21
ENDBRANCH  19  20
ENDBRANCH   7  19
ENDBRANCH   4   7
ENDBRANCH   2   3
ENDBRANCH   1   2
BRANCH   1  23
ATOM     23  C   UNL     1       7.343  -0.246   4.769  1.00  0.00     0.023 C 
BRANCH  23  24
ATOM     24  C   UNL     1       8.328   0.911   4.625  1.00  0.00     0.116 C 
BRANCH  24  25
ATOM     25  N   UNL     1       7.941   2.142   5.301  1.00  0.00    -0.352 N 
ATOM     26  C   UNL     1       8.778   3.078   5.880  1.00  0.00     0.251 C 
ATOM     27  H   UNL     1       6.976   2.328   5.351  1.00  0.00     0.163 HD
ATOM     28  O   UNL     1       8.338   4.063   6.447  1.00  0.00    -0.269 OA
BRANCH  26  29
ATOM     29  C   UNL     1      10.233   2.816   5.845  1.00  0.00     0.039 A 
ATOM     30  C   UNL     1      10.919   2.667   7.051  1.00  0.00     0.014 A 
ATOM     31  C   UNL     1      10.864   2.559   4.626  1.00  0.00     0.014 A 
ATOM     32  C   UNL     1      12.217   2.151   7.040  1.00  0.00     0.010 A 
ATOM     33  C   UNL     1      12.123   1.969   4.625  1.00  0.00     0.010 A 
ATOM     34  C   UNL     1      12.804   1.740   5.832  1.00  0.00    -0.014 A 
BRANCH  34  35
ATOM     35  C   UNL     1      14.113   1.036   5.805  1.00  0.00     0.031 A 
ATOM     36  C   UNL     1      15.273   1.638   5.062  1.00  0.00     0.074 A 
ATOM     37  C   UNL     1      14.227  -0.190   6.355  1.00  0.00     0.049 A 
ATOM     38  N   UNL     1      16.456   1.132   4.824  1.00  0.00    -0.248 NA
ATOM     39  C   UNL     1      15.061   2.970   4.472  1.00  0.00     0.031 C 
ATOM     40  C   UNL     1      13.154  -0.922   7.032  1.00  0.00     0.029 A 
ATOM     41  N   UNL     1      15.298  -1.050   6.414  1.00  0.00    -0.354 N 
ATOM     42  C   UNL     1      17.110   2.062   4.027  1.00  0.00     0.074 A 
ATOM     43  C   UNL     1      16.181   3.144   3.787  1.00  0.00     0.031 C 
ATOM     44  C   UNL     1      13.624  -2.109   7.451  1.00  0.00     0.029 A 
ATOM     45  C   UNL     1      15.020  -2.238   7.048  1.00  0.00     0.049 A 
ATOM     46  H   UNL     1      16.181  -0.835   6.037  1.00  0.00     0.167 HD
ATOM     47  C   UNL     1      18.378   2.026   3.557  1.00  0.00     0.037 A 
ATOM     48  C   UNL     1      15.803  -3.311   7.273  1.00  0.00     0.037 A 
ATOM     49  C   UNL     1      19.323   0.985   3.857  1.00  0.00     0.049 A 
ATOM     50  C   UNL     1      17.233  -3.288   6.802  1.00  0.00     0.074 A 
ATOM     51  C   UNL     1      20.665   0.918   3.526  1.00  0.00     0.029 A 
ATOM     52  N   UNL     1      19.027  -0.167   4.569  1.00  0.00    -0.354 N 
ATOM     53  N   UNL     1      17.869  -2.357   6.134  1.00  0.00    -0.248 NA
ATOM     54  C   UNL     1      18.058  -4.462   7.124  1.00  0.00     0.031 C 
ATOM     55  C   UNL     1      21.174  -0.291   4.009  1.00  0.00     0.029 A 
ATOM     56  C   UNL     1      20.159  -0.959   4.674  1.00  0.00     0.049 A 
ATOM     57  H   UNL     1      18.145  -0.389   4.945  1.00  0.00     0.167 HD
ATOM     58  C   UNL     1      19.170  -2.816   5.983  1.00  0.00     0.074 A 
ATOM     59  C   UNL     1      19.239  -4.104   6.640  1.00  0.00     0.031 C 
ATOM     60  C   UNL     1      20.213  -2.227   5.352  1.00  0.00     0.037 A 
BRANCH  47  61
ATOM     61  C   UNL     1      18.831   3.155   2.681  1.00  0.00     0.064 A 
ATOM     62  C   UNL     1      19.075   4.435   3.199  1.00  0.00     0.173 A 
ATOM     63  C   UNL     1      19.079   2.939   1.317  1.00  0.00     0.173 A 
ATOM     64  F   UNL     1      18.841   4.695   4.494  1.00  0.00    -0.203 F 
ATOM     65  C   UNL     1      19.530   5.464   2.379  1.00  0.00     0.198 A 
ATOM     66  C   UNL     1      19.560   3.963   0.506  1.00  0.00     0.198 A 
ATOM     67  F   UNL     1      18.866   1.731   0.774  1.00  0.00    -0.203 F 
ATOM     68  F   UNL     1      19.718   6.690   2.887  1.00  0.00    -0.200 F 
ATOM     69  C   UNL     1      19.780   5.225   1.036  1.00  0.00     0.200 A 
ATOM     70  F   UNL     1      19.812   3.728  -0.789  1.00  0.00    -0.200 F 
ATOM     71  F   UNL     1      20.230   6.214   0.251  1.00  0.00    -0.200 F 
ENDBRANCH  47  61
BRANCH  48  72
ATOM     72  C   UNL     1      15.269  -4.493   7.999  1.00  0.00     0.064 A 
ATOM     73  C   UNL     1      15.712  -4.804   9.292  1.00  0.00     0.173 A 
ATOM     74  C   UNL     1      14.334  -5.354   7.406  1.00  0.00     0.173 A 
ATOM     75  F   UNL     1      16.622  -4.022   9.893  1.00  0.00    -0.203 F 
ATOM     76  C   UNL     1      15.265  -5.947   9.953  1.00  0.00     0.198 A 
ATOM     77  C   UNL     1      13.867  -6.482   8.078  1.00  0.00     0.198 A 
ATOM     78  F   UNL     1      13.873  -5.098   6.173  1.00  0.00    -0.203 F 
ATOM     79  F   UNL     1      15.749  -6.249  11.165  1.00  0.00    -0.200 F 
ATOM     80  C   UNL     1      14.341  -6.783   9.346  1.00  0.00     0.200 A 
ATOM     81  F   UNL     1      12.964  -7.282   7.494  1.00  0.00    -0.200 F 
ATOM     82  F   UNL     1      13.916  -7.886   9.979  1.00  0.00    -0.200 F 
ENDBRANCH  48  72
BRANCH  60  83
ATOM     83  C   UNL     1      21.529  -2.945   5.376  1.00  0.00     0.064 A 
ATOM     84  C   UNL     1      21.757  -4.084   4.592  1.00  0.00     0.173 A 
ATOM     85  C   UNL     1      22.588  -2.456   6.155  1.00  0.00     0.173 A 
ATOM     86  F   UNL     1      20.770  -4.597   3.843  1.00  0.00    -0.203 F 
ATOM     87  C   UNL     1      22.995  -4.720   4.601  1.00  0.00     0.198 A 
ATOM     88  C   UNL     1      23.833  -3.079   6.141  1.00  0.00     0.198 A 
ATOM     89  F   UNL     1      22.420  -1.365   6.917  1.00  0.00    -0.203 F 
ATOM     90  F   UNL     1      23.181  -5.830   3.874  1.00  0.00    -0.200 F 
ATOM     91  C   UNL     1      24.034  -4.213   5.369  1.00  0.00     0.200 A 
ATOM     92  F   UNL     1      24.838  -2.581   6.874  1.00  0.00    -0.200 F 
ATOM     93  F   UNL     1      25.227  -4.821   5.369  1.00  0.00    -0.200 F 
ENDBRANCH  60  83
ENDBRANCH  34  35
ENDBRANCH  26  29
ENDBRANCH  24  25
ENDBRANCH  23  24
ENDBRANCH   1  23
TORSDOF 12
