REMARK SMILES C[C@@H](C(=O)NCCCCNC(=O)c1ccc(-c2c3nc(c(-c4c(F)c(F)c(F)c(F)c4F)c4ccc([nH]4)c(-c4c(F)c(F)c(F)c(F)c4F)c4nc(c(-c5c(F)c(F)c(F)c(F)c5F)c5ccc2[nH]5)C=C4)C=C3)cc1)c1ccc(C[C@@H]2CCC[C@@H]2O)cc1
REMARK SMILES IDX 6 1 5 2 3 3 4 4 2 6 1 7 76 8 77 9 88 10 78 11 87 12 79 13
REMARK SMILES IDX 80 14 81 15 82 16 85 17 83 18 84 19 86 20 7 22 8 23 9 24
REMARK SMILES IDX 10 25 11 26 12 28 13 29 14 30 75 31 15 32 74 33 16 34 17 35
REMARK SMILES IDX 18 36 68 37 19 38 73 39 67 40 69 41 20 42 72 43 66 44 65 45
REMARK SMILES IDX 21 47 53 48 33 49 52 50 34 51 37 52 51 53 70 54 35 55 36 56
REMARK SMILES IDX 50 58 71 59 38 60 22 61 23 62 31 63 24 64 25 65 29 66 32 67
REMARK SMILES IDX 26 68 27 69 30 70 28 71 54 72 55 73 63 74 56 75 57 76 61 77
REMARK SMILES IDX 64 78 58 79 59 80 62 81 60 82 39 83 40 84 48 85 41 86 42 87
REMARK SMILES IDX 46 88 49 89 43 90 44 91 47 92 45 93
REMARK H PARENT 5 5 86 21 10 27 69 46 37 57
REMARK Flexibility Score: inf
ROOT
ATOM      1  C   UNL     1     -10.639   4.854   9.912  1.00  0.00     0.116 C 
ENDROOT
BRANCH   1   2
ATOM      2  N   UNL     1      -9.844   3.663   9.710  1.00  0.00    -0.356 N 
ATOM      3  C   UNL     1      -9.649   2.918   8.582  1.00  0.00     0.227 C 
ATOM      4  O   UNL     1      -9.234   1.777   8.785  1.00  0.00    -0.274 OA
ATOM      5  H   UNL     1      -9.370   3.338  10.510  1.00  0.00     0.163 HD
BRANCH   3   6
ATOM      6  C   UNL     1      -9.946   3.526   7.196  1.00  0.00     0.105 C 
ATOM      7  C   UNL     1     -11.452   3.521   6.912  1.00  0.00     0.023 C 
BRANCH   6   8
ATOM      8  C   UNL     1      -9.216   2.932   5.987  1.00  0.00    -0.036 A 
ATOM      9  C   UNL     1      -8.548   1.703   5.990  1.00  0.00     0.005 A 
ATOM     10  C   UNL     1      -9.251   3.642   4.771  1.00  0.00     0.005 A 
ATOM     11  C   UNL     1      -7.930   1.207   4.840  1.00  0.00     0.004 A 
ATOM     12  C   UNL     1      -8.632   3.147   3.619  1.00  0.00     0.004 A 
ATOM     13  C   UNL     1      -7.941   1.934   3.649  1.00  0.00    -0.048 A 
BRANCH  13  14
ATOM     14  C   UNL     1      -7.200   1.438   2.435  1.00  0.00     0.041 C 
BRANCH  14  15
ATOM     15  C   UNL     1      -5.670   1.656   2.389  1.00  0.00     0.022 C 
ATOM     16  C   UNL     1      -4.878   0.942   3.492  1.00  0.00     0.007 C 
ATOM     17  C   UNL     1      -5.162   3.098   2.504  1.00  0.00     0.117 C 
ATOM     18  C   UNL     1      -4.579   1.990   4.569  1.00  0.00     0.003 C 
ATOM     19  C   UNL     1      -5.005   3.339   3.998  1.00  0.00     0.032 C 
BRANCH  17  20
ATOM     20  O   UNL     1      -5.998   4.057   1.892  1.00  0.00    -0.393 OA
ATOM     21  H   UNL     1      -6.874   4.034   2.308  1.00  0.00     0.210 HD
ENDBRANCH  17  20
ENDBRANCH  14  15
ENDBRANCH  13  14
ENDBRANCH   6   8
ENDBRANCH   3   6
ENDBRANCH   1   2
BRANCH   1  22
ATOM     22  C   UNL     1     -12.032   4.489  10.438  1.00  0.00     0.023 C 
BRANCH  22  23
ATOM     23  C   UNL     1     -12.041   3.724  11.763  1.00  0.00     0.023 C 
BRANCH  23  24
ATOM     24  C   UNL     1     -11.314   4.414  12.907  1.00  0.00     0.116 C 
BRANCH  24  25
ATOM     25  N   UNL     1     -11.862   5.728  13.202  1.00  0.00    -0.352 N 
ATOM     26  C   UNL     1     -12.200   6.269  14.417  1.00  0.00     0.251 C 
ATOM     27  H   UNL     1     -12.012   6.310  12.423  1.00  0.00     0.163 HD
ATOM     28  O   UNL     1     -12.799   7.339  14.473  1.00  0.00    -0.269 OA
BRANCH  26  29
ATOM     29  C   UNL     1     -11.865   5.542  15.658  1.00  0.00     0.039 A 
ATOM     30  C   UNL     1     -12.839   5.417  16.651  1.00  0.00     0.014 A 
ATOM     31  C   UNL     1     -10.601   4.971  15.833  1.00  0.00     0.014 A 
ATOM     32  C   UNL     1     -12.565   4.668  17.795  1.00  0.00     0.010 A 
ATOM     33  C   UNL     1     -10.358   4.159  16.935  1.00  0.00     0.010 A 
ATOM     34  C   UNL     1     -11.334   4.005  17.930  1.00  0.00    -0.014 A 
BRANCH  34  35
ATOM     35  C   UNL     1     -11.043   3.153  19.111  1.00  0.00     0.031 A 
ATOM     36  C   UNL     1      -9.927   3.525  20.048  1.00  0.00     0.074 A 
ATOM     37  C   UNL     1     -11.737   2.015  19.302  1.00  0.00     0.049 A 
ATOM     38  N   UNL     1      -9.466   2.875  21.086  1.00  0.00    -0.248 NA
ATOM     39  C   UNL     1      -9.216   4.781  19.761  1.00  0.00     0.031 C 
ATOM     40  C   UNL     1     -12.812   1.525  18.439  1.00  0.00     0.029 A 
ATOM     41  N   UNL     1     -11.632   1.057  20.280  1.00  0.00    -0.354 N 
ATOM     42  C   UNL     1      -8.406   3.634  21.565  1.00  0.00     0.074 A 
ATOM     43  C   UNL     1      -8.253   4.761  20.671  1.00  0.00     0.031 C 
ATOM     44  C   UNL     1     -13.283   0.370  18.936  1.00  0.00     0.029 A 
ATOM     45  C   UNL     1     -12.516   0.016  20.127  1.00  0.00     0.049 A 
ATOM     46  H   UNL     1     -10.986   1.111  21.020  1.00  0.00     0.167 HD
ATOM     47  C   UNL     1      -7.644   3.423  22.665  1.00  0.00     0.037 A 
ATOM     48  C   UNL     1     -12.679  -1.102  20.859  1.00  0.00     0.037 A 
ATOM     49  C   UNL     1      -7.814   2.311  23.563  1.00  0.00     0.049 A 
ATOM     50  C   UNL     1     -11.808  -1.322  22.067  1.00  0.00     0.074 A 
ATOM     51  C   UNL     1      -7.133   2.038  24.736  1.00  0.00     0.029 A 
ATOM     52  N   UNL     1      -8.728   1.283  23.382  1.00  0.00    -0.354 N 
ATOM     53  N   UNL     1     -10.855  -0.563  22.550  1.00  0.00    -0.248 NA
ATOM     54  C   UNL     1     -12.040  -2.553  22.834  1.00  0.00     0.031 C 
ATOM     55  C   UNL     1      -7.596   0.816  25.235  1.00  0.00     0.029 A 
ATOM     56  C   UNL     1      -8.610   0.359  24.409  1.00  0.00     0.049 A 
ATOM     57  H   UNL     1      -9.367   1.219  22.635  1.00  0.00     0.167 HD
ATOM     58  C   UNL     1     -10.397  -1.205  23.693  1.00  0.00     0.074 A 
ATOM     59  C   UNL     1     -11.187  -2.410  23.838  1.00  0.00     0.031 C 
ATOM     60  C   UNL     1      -9.411  -0.831  24.545  1.00  0.00     0.037 A 
BRANCH  47  61
ATOM     61  C   UNL     1      -6.556   4.417  22.957  1.00  0.00     0.064 A 
ATOM     62  C   UNL     1      -6.845   5.733  23.351  1.00  0.00     0.173 A 
ATOM     63  C   UNL     1      -5.207   4.041  22.873  1.00  0.00     0.173 A 
ATOM     64  F   UNL     1      -8.118   6.149  23.437  1.00  0.00    -0.203 F 
ATOM     65  C   UNL     1      -5.825   6.644  23.616  1.00  0.00     0.198 A 
ATOM     66  C   UNL     1      -4.190   4.944  23.172  1.00  0.00     0.198 A 
ATOM     67  F   UNL     1      -4.873   2.794  22.508  1.00  0.00    -0.203 F 
ATOM     68  F   UNL     1      -6.126   7.910  23.935  1.00  0.00    -0.200 F 
ATOM     69  C   UNL     1      -4.500   6.247  23.534  1.00  0.00     0.200 A 
ATOM     70  F   UNL     1      -2.910   4.555  23.107  1.00  0.00    -0.200 F 
ATOM     71  F   UNL     1      -3.519   7.122  23.796  1.00  0.00    -0.200 F 
ENDBRANCH  47  61
BRANCH  48  72
ATOM     72  C   UNL     1     -13.723  -2.092  20.482  1.00  0.00     0.064 A 
ATOM     73  C   UNL     1     -14.851  -2.292  21.291  1.00  0.00     0.173 A 
ATOM     74  C   UNL     1     -13.614  -2.861  19.314  1.00  0.00     0.173 A 
ATOM     75  F   UNL     1     -14.991  -1.595  22.428  1.00  0.00    -0.203 F 
ATOM     76  C   UNL     1     -15.816  -3.241  20.960  1.00  0.00     0.198 A 
ATOM     77  C   UNL     1     -14.596  -3.787  18.968  1.00  0.00     0.198 A 
ATOM     78  F   UNL     1     -12.559  -2.705  18.503  1.00  0.00    -0.203 F 
ATOM     79  F   UNL     1     -16.857  -3.448  21.778  1.00  0.00    -0.200 F 
ATOM     80  C   UNL     1     -15.691  -3.983  19.796  1.00  0.00     0.200 A 
ATOM     81  F   UNL     1     -14.480  -4.492  17.834  1.00  0.00    -0.200 F 
ATOM     82  F   UNL     1     -16.621  -4.893  19.476  1.00  0.00    -0.200 F 
ENDBRANCH  48  72
BRANCH  60  83
ATOM     83  C   UNL     1      -9.156  -1.711  25.736  1.00  0.00     0.064 A 
ATOM     84  C   UNL     1      -8.573  -2.980  25.607  1.00  0.00     0.173 A 
ATOM     85  C   UNL     1      -9.464  -1.258  27.028  1.00  0.00     0.173 A 
ATOM     86  F   UNL     1      -8.273  -3.466  24.393  1.00  0.00    -0.203 F 
ATOM     87  C   UNL     1      -8.332  -3.774  26.726  1.00  0.00     0.198 A 
ATOM     88  C   UNL     1      -9.190  -2.040  28.147  1.00  0.00     0.198 A 
ATOM     89  F   UNL     1     -10.017  -0.049  27.208  1.00  0.00    -0.203 F 
ATOM     90  F   UNL     1      -7.822  -5.004  26.575  1.00  0.00    -0.200 F 
ATOM     91  C   UNL     1      -8.633  -3.300  27.994  1.00  0.00     0.200 A 
ATOM     92  F   UNL     1      -9.466  -1.573  29.372  1.00  0.00    -0.200 F 
ATOM     93  F   UNL     1      -8.392  -4.062  29.070  1.00  0.00    -0.200 F 
ENDBRANCH  60  83
ENDBRANCH  34  35
ENDBRANCH  26  29
ENDBRANCH  24  25
ENDBRANCH  23  24
ENDBRANCH  22  23
ENDBRANCH   1  22
TORSDOF 15
