REMARK SMILES Cc1ccc(F)cc1NC(=O)CSCCC(=O)NCCCCNC(=O)c1ccc(-c2c3nc(c(-c4c(F)c(F)c(F)c(F)c4F)c4ccc([nH]4)c(-c4c(F)c(F)c(F)c(F)c4F)c4nc(c(-c5c(F)c(F)c(F)c(F)c5F)c5ccc2[nH]5)C=C4)C=C3)cc1
REMARK SMILES IDX 19 1 18 2 16 3 17 4 15 6 14 7 13 8 12 9 10 10 9 11 11 13
REMARK SMILES IDX 8 14 1 15 2 16 3 17 4 18 7 19 5 20 6 21 20 22 21 23 22 24
REMARK SMILES IDX 23 25 24 26 25 28 26 29 27 30 88 31 28 32 87 33 29 34 30 35
REMARK SMILES IDX 31 36 81 37 32 38 86 39 80 40 82 41 33 42 85 43 79 44 78 45
REMARK SMILES IDX 34 47 66 48 46 49 65 50 47 51 50 52 64 53 83 54 48 55 49 56
REMARK SMILES IDX 63 58 84 59 51 60 35 61 36 62 44 63 37 64 38 65 42 66 45 67
REMARK SMILES IDX 39 68 40 69 43 70 41 71 67 72 68 73 76 74 69 75 70 76 74 77
REMARK SMILES IDX 77 78 71 79 72 80 75 81 73 82 52 83 53 84 61 85 54 86 55 87
REMARK SMILES IDX 59 88 62 89 56 90 57 91 60 92 58 93
REMARK H PARENT 18 5 9 12 23 27 82 46 50 57
REMARK Flexibility Score: inf
ROOT
ATOM      1  C   UNL     1      -2.936  -4.907   0.397  1.00  0.00     0.116 C 
ENDROOT
BRANCH   1   2
ATOM      2  N   UNL     1      -1.908  -5.880   0.724  1.00  0.00    -0.356 N 
ATOM      3  C   UNL     1      -1.176  -6.049   1.859  1.00  0.00     0.220 C 
ATOM      4  O   UNL     1      -0.304  -6.918   1.859  1.00  0.00    -0.275 OA
ATOM      5  H   UNL     1      -1.708  -6.524   0.006  1.00  0.00     0.163 HD
BRANCH   3   6
ATOM      6  C   UNL     1      -1.450  -5.205   3.083  1.00  0.00     0.111 C 
BRANCH   6   7
ATOM      7  C   UNL     1      -0.198  -4.554   3.675  1.00  0.00     0.080 C 
BRANCH   7   8
ATOM      8  S   UNL     1       0.436  -3.037   2.859  1.00  0.00    -0.151 SA
BRANCH   8   9
ATOM      9  C   UNL     1       1.002  -3.740   1.299  1.00  0.00     0.169 C 
BRANCH   9  10
ATOM     10  C   UNL     1       2.206  -3.091   0.674  1.00  0.00     0.234 C 
ATOM     11  N   UNL     1       2.312  -1.805   0.259  1.00  0.00    -0.325 N 
ATOM     12  H   UNL     1       3.215  -1.621  -0.085  1.00  0.00     0.169 HD
ATOM     13  O   UNL     1       3.206  -3.795   0.456  1.00  0.00    -0.274 OA
BRANCH  11  14
ATOM     14  C   UNL     1       1.501  -0.657   0.179  1.00  0.00     0.047 A 
ATOM     15  C   UNL     1       3.620   0.804  -0.062  1.00  0.00     0.046 C 
ATOM     16  C   UNL     1       2.126   0.593  -0.046  1.00  0.00    -0.027 A 
ATOM     17  C   UNL     1       1.341   1.760  -0.184  1.00  0.00     0.008 A 
ATOM     18  C   UNL     1      -0.046   1.700  -0.133  1.00  0.00     0.039 A 
ATOM     19  C   UNL     1       0.111  -0.682   0.262  1.00  0.00     0.065 A 
ATOM     20  C   UNL     1      -0.648   0.475   0.083  1.00  0.00     0.125 A 
ATOM     21  F   UNL     1      -1.985   0.392   0.112  1.00  0.00    -0.207 F 
ENDBRANCH  11  14
ENDBRANCH   9  10
ENDBRANCH   8   9
ENDBRANCH   7   8
ENDBRANCH   6   7
ENDBRANCH   3   6
ENDBRANCH   1   2
BRANCH   1  22
ATOM     22  C   UNL     1      -2.356  -3.570  -0.075  1.00  0.00     0.023 C 
BRANCH  22  23
ATOM     23  C   UNL     1      -1.306  -3.692  -1.200  1.00  0.00     0.023 C 
BRANCH  23  24
ATOM     24  C   UNL     1      -1.915  -3.583  -2.562  1.00  0.00     0.116 C 
BRANCH  24  25
ATOM     25  N   UNL     1      -2.282  -2.196  -2.885  1.00  0.00    -0.352 N 
ATOM     26  C   UNL     1      -2.626  -1.696  -4.135  1.00  0.00     0.251 C 
ATOM     27  H   UNL     1      -2.283  -1.554  -2.139  1.00  0.00     0.163 HD
ATOM     28  O   UNL     1      -2.584  -0.515  -4.409  1.00  0.00    -0.269 OA
BRANCH  26  29
ATOM     29  C   UNL     1      -3.088  -2.690  -5.113  1.00  0.00     0.039 A 
ATOM     30  C   UNL     1      -2.773  -2.671  -6.473  1.00  0.00     0.014 A 
ATOM     31  C   UNL     1      -3.828  -3.721  -4.562  1.00  0.00     0.014 A 
ATOM     32  C   UNL     1      -3.199  -3.740  -7.255  1.00  0.00     0.010 A 
ATOM     33  C   UNL     1      -3.857  -4.898  -5.214  1.00  0.00     0.010 A 
ATOM     34  C   UNL     1      -3.739  -4.844  -6.595  1.00  0.00    -0.014 A 
BRANCH  34  35
ATOM     35  C   UNL     1      -4.326  -6.018  -7.198  1.00  0.00     0.031 A 
ATOM     36  C   UNL     1      -3.456  -6.916  -7.942  1.00  0.00     0.074 A 
ATOM     37  C   UNL     1      -5.591  -6.273  -6.783  1.00  0.00     0.049 A 
ATOM     38  N   UNL     1      -3.860  -7.689  -8.878  1.00  0.00    -0.248 NA
ATOM     39  C   UNL     1      -2.014  -6.983  -7.717  1.00  0.00     0.031 C 
ATOM     40  C   UNL     1      -6.401  -7.474  -6.810  1.00  0.00     0.029 A 
ATOM     41  N   UNL     1      -6.460  -5.316  -6.212  1.00  0.00    -0.354 N 
ATOM     42  C   UNL     1      -2.859  -8.613  -9.070  1.00  0.00     0.074 A 
ATOM     43  C   UNL     1      -1.677  -8.014  -8.500  1.00  0.00     0.031 C 
ATOM     44  C   UNL     1      -7.693  -7.117  -6.634  1.00  0.00     0.029 A 
ATOM     45  C   UNL     1      -7.755  -5.660  -6.616  1.00  0.00     0.049 A 
ATOM     46  H   UNL     1      -6.204  -4.556  -5.642  1.00  0.00     0.167 HD
ATOM     47  C   UNL     1      -3.218  -9.866  -9.474  1.00  0.00     0.037 A 
ATOM     48  C   UNL     1      -8.320  -4.846  -7.559  1.00  0.00     0.037 A 
ATOM     49  C   UNL     1      -4.686  -9.946  -9.559  1.00  0.00     0.049 A 
ATOM     50  C   UNL     1      -8.335  -5.502  -8.922  1.00  0.00     0.074 A 
ATOM     51  C   UNL     1      -5.670 -10.438  -8.715  1.00  0.00     0.029 A 
ATOM     52  N   UNL     1      -5.341  -9.097 -10.431  1.00  0.00    -0.354 N 
ATOM     53  N   UNL     1      -7.742  -6.633  -9.198  1.00  0.00    -0.248 NA
ATOM     54  C   UNL     1      -8.998  -4.929 -10.085  1.00  0.00     0.031 C 
ATOM     55  C   UNL     1      -6.922  -9.861  -9.106  1.00  0.00     0.029 A 
ATOM     56  C   UNL     1      -6.698  -9.025 -10.185  1.00  0.00     0.049 A 
ATOM     57  H   UNL     1      -4.890  -8.597 -11.149  1.00  0.00     0.167 HD
ATOM     58  C   UNL     1      -7.952  -6.974 -10.500  1.00  0.00     0.074 A 
ATOM     59  C   UNL     1      -8.706  -5.844 -11.027  1.00  0.00     0.031 C 
ATOM     60  C   UNL     1      -7.498  -8.152 -11.036  1.00  0.00     0.037 A 
BRANCH  47  61
ATOM     61  C   UNL     1      -2.313 -11.078  -9.520  1.00  0.00     0.064 A 
ATOM     62  C   UNL     1      -2.868 -12.377  -9.538  1.00  0.00     0.173 A 
ATOM     63  C   UNL     1      -0.904 -11.046  -9.572  1.00  0.00     0.173 A 
ATOM     64  F   UNL     1      -4.192 -12.571  -9.578  1.00  0.00    -0.203 F 
ATOM     65  C   UNL     1      -2.084 -13.534  -9.531  1.00  0.00     0.198 A 
ATOM     66  C   UNL     1      -0.119 -12.204  -9.524  1.00  0.00     0.198 A 
ATOM     67  F   UNL     1      -0.230  -9.903  -9.738  1.00  0.00    -0.203 F 
ATOM     68  F   UNL     1      -2.678 -14.736  -9.556  1.00  0.00    -0.200 F 
ATOM     69  C   UNL     1      -0.709 -13.449  -9.502  1.00  0.00     0.200 A 
ATOM     70  F   UNL     1       1.219 -12.101  -9.517  1.00  0.00    -0.200 F 
ATOM     71  F   UNL     1       0.041 -14.558  -9.485  1.00  0.00    -0.200 F 
ENDBRANCH  47  61
BRANCH  48  72
ATOM     72  C   UNL     1      -8.034  -3.398  -7.244  1.00  0.00     0.064 A 
ATOM     73  C   UNL     1      -8.530  -2.921  -6.009  1.00  0.00     0.173 A 
ATOM     74  C   UNL     1      -6.921  -2.731  -7.780  1.00  0.00     0.173 A 
ATOM     75  F   UNL     1      -9.619  -3.486  -5.464  1.00  0.00    -0.203 F 
ATOM     76  C   UNL     1      -7.815  -1.998  -5.246  1.00  0.00     0.198 A 
ATOM     77  C   UNL     1      -6.236  -1.766  -7.029  1.00  0.00     0.198 A 
ATOM     78  F   UNL     1      -6.410  -3.107  -8.961  1.00  0.00    -0.203 F 
ATOM     79  F   UNL     1      -8.206  -1.720  -3.993  1.00  0.00    -0.200 F 
ATOM     80  C   UNL     1      -6.642  -1.456  -5.739  1.00  0.00     0.200 A 
ATOM     81  F   UNL     1      -5.126  -1.200  -7.524  1.00  0.00    -0.200 F 
ATOM     82  F   UNL     1      -5.884  -0.679  -4.952  1.00  0.00    -0.200 F 
ENDBRANCH  48  72
BRANCH  60  83
ATOM     83  C   UNL     1      -7.723  -8.556 -12.473  1.00  0.00     0.064 A 
ATOM     84  C   UNL     1      -8.893  -8.235 -13.172  1.00  0.00     0.173 A 
ATOM     85  C   UNL     1      -6.786  -9.337 -13.193  1.00  0.00     0.173 A 
ATOM     86  F   UNL     1      -9.946  -7.690 -12.545  1.00  0.00    -0.203 F 
ATOM     87  C   UNL     1      -9.030  -8.500 -14.535  1.00  0.00     0.198 A 
ATOM     88  C   UNL     1      -6.949  -9.652 -14.536  1.00  0.00     0.198 A 
ATOM     89  F   UNL     1      -5.668  -9.822 -12.642  1.00  0.00    -0.203 F 
ATOM     90  F   UNL     1     -10.121  -8.074 -15.184  1.00  0.00    -0.200 F 
ATOM     91  C   UNL     1      -8.050  -9.193 -15.220  1.00  0.00     0.200 A 
ATOM     92  F   UNL     1      -6.017 -10.387 -15.159  1.00  0.00    -0.200 F 
ATOM     93  F   UNL     1      -8.173  -9.434 -16.531  1.00  0.00    -0.200 F 
ENDBRANCH  60  83
ENDBRANCH  34  35
ENDBRANCH  26  29
ENDBRANCH  24  25
ENDBRANCH  23  24
ENDBRANCH  22  23
ENDBRANCH   1  22
TORSDOF 16
