REMARK SMILES C[C@@H]1[C@H](C)CC[C@@H]1NC(=O)N1CCO[C@H](CC(=O)NCCCCNC(=O)c2ccc(-c3c4nc(c(-c5c(F)c(F)c(F)c(F)c5F)c5ccc([nH]5)c(-c5c(F)c(F)c(F)c(F)c5F)c5nc(c(-c6c(F)c(F)c(F)c(F)c6F)c6ccc3[nH]6)C=C5)C=C4)cc2)C1
REMARK SMILES IDX 21 1 20 2 19 3 17 4 18 5 16 7 15 8 11 9 12 10 90 11 13 12
REMARK SMILES IDX 14 13 9 14 8 15 10 17 7 18 1 19 2 20 3 21 4 22 5 23 6 24
REMARK SMILES IDX 22 25 23 26 24 27 25 28 26 30 27 31 28 32 89 33 29 34 88 35
REMARK SMILES IDX 30 36 31 37 32 38 82 39 33 40 87 41 81 42 83 43 34 44 86 45
REMARK SMILES IDX 80 46 79 47 35 49 67 50 47 51 66 52 48 53 51 54 65 55 84 56
REMARK SMILES IDX 49 57 50 58 64 60 85 61 52 62 36 63 37 64 45 65 38 66 39 67
REMARK SMILES IDX 43 68 46 69 40 70 41 71 44 72 42 73 68 74 69 75 77 76 70 77
REMARK SMILES IDX 71 78 75 79 78 80 72 81 73 82 76 83 74 84 53 85 54 86 62 87
REMARK SMILES IDX 55 88 56 89 60 90 63 91 57 92 58 93 61 94 59 95
REMARK H PARENT 19 6 8 16 24 29 83 48 51 59
REMARK Flexibility Score: inf
ROOT
ATOM      1  C   UNL     1      -1.335   7.325   5.935  1.00  0.00     0.023 C 
ENDROOT
BRANCH   1   2
ATOM      2  C   UNL     1      -0.892   7.785   4.550  1.00  0.00     0.116 C 
BRANCH   2   3
ATOM      3  N   UNL     1       0.020   6.845   3.942  1.00  0.00    -0.356 N 
ATOM      4  C   UNL     1      -0.239   5.916   2.983  1.00  0.00     0.222 C 
ATOM      5  O   UNL     1       0.693   5.227   2.574  1.00  0.00    -0.275 OA
ATOM      6  H   UNL     1       0.950   6.881   4.263  1.00  0.00     0.163 HD
BRANCH   4   7
ATOM      7  C   UNL     1      -1.645   5.752   2.455  1.00  0.00     0.133 C 
BRANCH   7   8
ATOM      8  C   UNL     1      -2.570   4.963   3.391  1.00  0.00     0.147 C 
ATOM      9  N   UNL     1      -1.760   2.665   3.048  1.00  0.00    -0.320 N 
ATOM     10  C   UNL     1      -3.000   2.309   2.368  1.00  0.00     0.150 C 
ATOM     11  C   UNL     1      -1.942   3.715   4.041  1.00  0.00     0.154 C 
ATOM     12  C   UNL     1      -3.691   3.548   1.785  1.00  0.00     0.182 C 
ATOM     13  O   UNL     1      -3.814   4.621   2.735  1.00  0.00    -0.374 OA
BRANCH   9  14
ATOM     14  C   UNL     1      -0.610   1.936   3.087  1.00  0.00     0.317 C 
ATOM     15  N   UNL     1      -0.108   1.356   1.976  1.00  0.00    -0.335 N 
ATOM     16  H   UNL     1       0.654   0.761   2.165  1.00  0.00     0.165 HD
ATOM     17  O   UNL     1       0.062   1.837   4.117  1.00  0.00    -0.249 OA
BRANCH  15  18
ATOM     18  C   UNL     1      -0.443   1.414   0.556  1.00  0.00     0.087 C 
ATOM     19  C   UNL     1       1.229  -0.506  -0.029  1.00  0.00     0.010 C 
ATOM     20  C   UNL     1       0.665   0.865  -0.373  1.00  0.00     0.011 C 
ATOM     21  C   UNL     1       1.684   2.018  -0.519  1.00  0.00    -0.009 C 
ATOM     22  C   UNL     1       2.893   1.976   0.412  1.00  0.00     0.008 C 
ATOM     23  C   UNL     1       0.863   3.293  -0.292  1.00  0.00     0.006 C 
ATOM     24  C   UNL     1      -0.557   2.839   0.020  1.00  0.00     0.025 C 
ENDBRANCH  15  18
ENDBRANCH   9  14
ENDBRANCH   7   8
ENDBRANCH   4   7
ENDBRANCH   2   3
ENDBRANCH   1   2
BRANCH   1  25
ATOM     25  C   UNL     1      -0.234   7.326   6.993  1.00  0.00     0.023 C 
BRANCH  25  26
ATOM     26  C   UNL     1       0.549   8.625   7.101  1.00  0.00     0.116 C 
BRANCH  26  27
ATOM     27  N   UNL     1      -0.298   9.801   7.241  1.00  0.00    -0.352 N 
ATOM     28  C   UNL     1      -0.045  10.946   7.957  1.00  0.00     0.251 C 
ATOM     29  H   UNL     1      -1.159   9.772   6.763  1.00  0.00     0.163 HD
ATOM     30  O   UNL     1      -0.878  11.835   8.050  1.00  0.00    -0.269 OA
BRANCH  28  31
ATOM     31  C   UNL     1       1.250  11.054   8.650  1.00  0.00     0.039 A 
ATOM     32  C   UNL     1       1.262  11.261  10.030  1.00  0.00     0.014 A 
ATOM     33  C   UNL     1       2.436  10.855   7.939  1.00  0.00     0.014 A 
ATOM     34  C   UNL     1       2.473  11.202  10.718  1.00  0.00     0.010 A 
ATOM     35  C   UNL     1       3.629  10.727   8.634  1.00  0.00     0.010 A 
ATOM     36  C   UNL     1       3.657  10.900  10.028  1.00  0.00    -0.014 A 
BRANCH  36  37
ATOM     37  C   UNL     1       4.960  10.786  10.723  1.00  0.00     0.031 A 
ATOM     38  C   UNL     1       6.049  11.762  10.392  1.00  0.00     0.074 A 
ATOM     39  C   UNL     1       5.194   9.751  11.550  1.00  0.00     0.049 A 
ATOM     40  N   UNL     1       7.313  11.741  10.727  1.00  0.00    -0.248 NA
ATOM     41  C   UNL     1       5.671  12.892   9.528  1.00  0.00     0.031 C 
ATOM     42  C   UNL     1       4.223   8.719  11.914  1.00  0.00     0.029 A 
ATOM     43  N   UNL     1       6.338   9.381  12.210  1.00  0.00    -0.354 N 
ATOM     44  C   UNL     1       7.886  12.829  10.083  1.00  0.00     0.074 A 
ATOM     45  C   UNL     1       6.844  13.463   9.306  1.00  0.00     0.031 C 
ATOM     46  C   UNL     1       4.811   7.834  12.735  1.00  0.00     0.029 A 
ATOM     47  C   UNL     1       6.209   8.213  12.919  1.00  0.00     0.049 A 
ATOM     48  H   UNL     1       7.172   9.903  12.178  1.00  0.00     0.167 HD
ATOM     49  C   UNL     1       9.166  13.265  10.148  1.00  0.00     0.037 A 
ATOM     50  C   UNL     1       7.124   7.518  13.622  1.00  0.00     0.037 A 
ATOM     51  C   UNL     1      10.183  12.651  10.957  1.00  0.00     0.049 A 
ATOM     52  C   UNL     1       8.533   8.036  13.704  1.00  0.00     0.074 A 
ATOM     53  C   UNL     1      11.492  13.052  11.152  1.00  0.00     0.029 A 
ATOM     54  N   UNL     1       9.998  11.501  11.713  1.00  0.00    -0.354 N 
ATOM     55  N   UNL     1       9.058   9.095  13.136  1.00  0.00    -0.248 NA
ATOM     56  C   UNL     1       9.477   7.269  14.528  1.00  0.00     0.031 C 
ATOM     57  C   UNL     1      12.110  12.124  11.997  1.00  0.00     0.029 A 
ATOM     58  C   UNL     1      11.173  11.171  12.366  1.00  0.00     0.049 A 
ATOM     59  H   UNL     1       9.156  10.995  11.774  1.00  0.00     0.167 HD
ATOM     60  C   UNL     1      10.380   9.140  13.556  1.00  0.00     0.074 A 
ATOM     61  C   UNL     1      10.578   8.001  14.429  1.00  0.00     0.031 C 
ATOM     62  C   UNL     1      11.341  10.044  13.248  1.00  0.00     0.037 A 
BRANCH  49  63
ATOM     63  C   UNL     1       9.529  14.458   9.314  1.00  0.00     0.064 A 
ATOM     64  C   UNL     1       9.034  15.739   9.602  1.00  0.00     0.173 A 
ATOM     65  C   UNL     1      10.380  14.318   8.208  1.00  0.00     0.173 A 
ATOM     66  F   UNL     1       8.203  15.924  10.639  1.00  0.00    -0.203 F 
ATOM     67  C   UNL     1       9.345  16.827   8.791  1.00  0.00     0.198 A 
ATOM     68  C   UNL     1      10.716  15.414   7.418  1.00  0.00     0.198 A 
ATOM     69  F   UNL     1      10.884  13.116   7.890  1.00  0.00    -0.203 F 
ATOM     70  F   UNL     1       8.808  18.028   9.049  1.00  0.00    -0.200 F 
ATOM     71  C   UNL     1      10.189  16.665   7.703  1.00  0.00     0.200 A 
ATOM     72  F   UNL     1      11.540  15.258   6.373  1.00  0.00    -0.200 F 
ATOM     73  F   UNL     1      10.485  17.712   6.921  1.00  0.00    -0.200 F 
ENDBRANCH  49  63
BRANCH  50  74
ATOM     74  C   UNL     1       6.720   6.272  14.322  1.00  0.00     0.064 A 
ATOM     75  C   UNL     1       6.595   6.244  15.718  1.00  0.00     0.173 A 
ATOM     76  C   UNL     1       6.423   5.098  13.615  1.00  0.00     0.173 A 
ATOM     77  F   UNL     1       6.886   7.338  16.438  1.00  0.00    -0.203 F 
ATOM     78  C   UNL     1       6.197   5.086  16.382  1.00  0.00     0.198 A 
ATOM     79  C   UNL     1       6.003   3.947  14.278  1.00  0.00     0.198 A 
ATOM     80  F   UNL     1       6.521   5.077  12.278  1.00  0.00    -0.203 F 
ATOM     81  F   UNL     1       6.114   5.078  17.719  1.00  0.00    -0.200 F 
ATOM     82  C   UNL     1       5.894   3.940  15.661  1.00  0.00     0.200 A 
ATOM     83  F   UNL     1       5.697   2.846  13.578  1.00  0.00    -0.200 F 
ATOM     84  F   UNL     1       5.501   2.830  16.299  1.00  0.00    -0.200 F 
ENDBRANCH  50  74
BRANCH  62  85
ATOM     85  C   UNL     1      12.682   9.877  13.898  1.00  0.00     0.064 A 
ATOM     86  C   UNL     1      13.584   8.889  13.482  1.00  0.00     0.173 A 
ATOM     87  C   UNL     1      13.094  10.770  14.900  1.00  0.00     0.173 A 
ATOM     88  F   UNL     1      13.229   8.005  12.538  1.00  0.00    -0.203 F 
ATOM     89  C   UNL     1      14.850   8.793  14.054  1.00  0.00     0.198 A 
ATOM     90  C   UNL     1      14.369  10.687  15.451  1.00  0.00     0.198 A 
ATOM     91  F   UNL     1      12.267  11.736  15.326  1.00  0.00    -0.203 F 
ATOM     92  F   UNL     1      15.688   7.824  13.663  1.00  0.00    -0.200 F 
ATOM     93  C   UNL     1      15.244   9.697  15.030  1.00  0.00     0.200 A 
ATOM     94  F   UNL     1      14.752  11.569  16.384  1.00  0.00    -0.200 F 
ATOM     95  F   UNL     1      16.469   9.614  15.567  1.00  0.00    -0.200 F 
ENDBRANCH  62  85
ENDBRANCH  36  37
ENDBRANCH  28  31
ENDBRANCH  26  27
ENDBRANCH  25  26
ENDBRANCH   1  25
TORSDOF 14
