REMARK SMILES CCCC[C@H](C(=O)NCCCCNC(=O)c1ccc(-c2c3nc(c(-c4c(F)c(F)c(F)c(F)c4F)c4ccc([nH]4)c(-c4c(F)c(F)c(F)c(F)c4F)c4nc(c(-c5c(F)c(F)c(F)c(F)c5F)c5ccc2[nH]5)C=C4)C=C3)cc1)[C@H](O)c1cccc(C2CC2)c1
REMARK SMILES IDX 10 1 9 2 8 3 6 4 7 5 5 7 4 8 3 9 2 10 1 11 79 12 81 13 82 14
REMARK SMILES IDX 89 15 83 16 85 17 84 18 86 19 87 20 88 21 80 22 11 24 12 25
REMARK SMILES IDX 13 26 14 27 15 29 16 30 17 31 78 32 18 33 77 34 19 35 20 36
REMARK SMILES IDX 21 37 71 38 22 39 76 40 70 41 72 42 23 43 75 44 69 45 68 46
REMARK SMILES IDX 24 48 56 49 36 50 55 51 37 52 40 53 54 54 73 55 38 56 39 57
REMARK SMILES IDX 53 59 74 60 41 61 25 62 26 63 34 64 27 65 28 66 32 67 35 68
REMARK SMILES IDX 29 69 30 70 33 71 31 72 57 73 58 74 66 75 59 76 60 77 64 78
REMARK SMILES IDX 67 79 61 80 62 81 65 82 63 83 42 84 43 85 51 86 44 87 45 88
REMARK SMILES IDX 49 89 52 90 46 91 47 92 50 93 48 94
REMARK H PARENT 8 6 80 23 13 28 72 47 40 58
REMARK Flexibility Score: inf
ROOT
ATOM      1  C   UNL     1      -4.843   1.851   4.188  1.00  0.00     0.023 C 
ENDROOT
BRANCH   1   2
ATOM      2  C   UNL     1      -4.056   0.672   3.632  1.00  0.00     0.116 C 
BRANCH   2   3
ATOM      3  N   UNL     1      -2.824   1.016   2.949  1.00  0.00    -0.356 N 
ATOM      4  C   UNL     1      -1.677   0.306   2.754  1.00  0.00     0.226 C 
ATOM      5  O   UNL     1      -0.953   0.708   1.836  1.00  0.00    -0.275 OA
ATOM      6  H   UNL     1      -2.815   1.919   2.559  1.00  0.00     0.163 HD
BRANCH   4   7
ATOM      7  C   UNL     1      -1.234  -0.870   3.624  1.00  0.00     0.111 C 
BRANCH   7   8
ATOM      8  C   UNL     1      -1.302  -0.598   5.147  1.00  0.00     0.016 C 
BRANCH   8   9
ATOM      9  C   UNL     1      -0.337   0.499   5.663  1.00  0.00     0.001 C 
BRANCH   9  10
ATOM     10  C   UNL     1      -0.673   1.962   5.355  1.00  0.00    -0.003 C 
ATOM     11  C   UNL     1      -1.895   2.475   6.097  1.00  0.00     0.004 C 
ENDBRANCH   9  10
ENDBRANCH   8   9
ENDBRANCH   7   8
BRANCH   7  12
ATOM     12  C   UNL     1      -1.721  -2.293   3.180  1.00  0.00     0.157 C 
BRANCH  12  13
ATOM     13  C   UNL     1      -3.182  -2.618   2.919  1.00  0.00    -0.019 A 
ATOM     14  C   UNL     1      -3.908  -1.904   1.964  1.00  0.00     0.006 A 
ATOM     15  C   UNL     1      -3.806  -3.751   3.492  1.00  0.00     0.010 A 
ATOM     16  C   UNL     1      -5.271  -2.125   1.788  1.00  0.00     0.001 A 
ATOM     17  C   UNL     1      -5.148  -4.099   3.205  1.00  0.00    -0.045 A 
ATOM     18  C   UNL     1      -5.885  -3.189   2.432  1.00  0.00     0.004 A 
BRANCH  17  19
ATOM     19  C   UNL     1      -5.816  -5.418   3.554  1.00  0.00     0.019 C 
ATOM     20  C   UNL     1      -5.015  -6.696   3.444  1.00  0.00     0.009 C 
ATOM     21  C   UNL     1      -5.546  -6.245   4.775  1.00  0.00     0.009 C 
ENDBRANCH  17  19
ENDBRANCH  12  13
BRANCH  12  22
ATOM     22  O   UNL     1      -0.984  -2.677   2.007  1.00  0.00    -0.388 OA
ATOM     23  H   UNL     1      -1.238  -2.107   1.264  1.00  0.00     0.211 HD
ENDBRANCH  12  22
ENDBRANCH   7  12
ENDBRANCH   4   7
ENDBRANCH   2   3
ENDBRANCH   1   2
BRANCH   1  24
ATOM     24  C   UNL     1      -5.248   2.889   3.146  1.00  0.00     0.023 C 
BRANCH  24  25
ATOM     25  C   UNL     1      -5.969   2.320   1.933  1.00  0.00     0.116 C 
BRANCH  25  26
ATOM     26  N   UNL     1      -7.197   1.617   2.287  1.00  0.00    -0.352 N 
ATOM     27  C   UNL     1      -8.495   1.933   1.952  1.00  0.00     0.251 C 
ATOM     28  H   UNL     1      -7.083   0.810   2.840  1.00  0.00     0.163 HD
ATOM     29  O   UNL     1      -9.443   1.356   2.455  1.00  0.00    -0.269 OA
BRANCH  27  30
ATOM     30  C   UNL     1      -8.706   3.014   0.971  1.00  0.00     0.039 A 
ATOM     31  C   UNL     1      -9.513   4.102   1.306  1.00  0.00     0.014 A 
ATOM     32  C   UNL     1      -8.005   2.981  -0.236  1.00  0.00     0.014 A 
ATOM     33  C   UNL     1      -9.552   5.207   0.453  1.00  0.00     0.010 A 
ATOM     34  C   UNL     1      -7.963   4.119  -1.024  1.00  0.00     0.010 A 
ATOM     35  C   UNL     1      -8.744   5.239  -0.695  1.00  0.00    -0.014 A 
BRANCH  35  36
ATOM     36  C   UNL     1      -8.721   6.403  -1.614  1.00  0.00     0.031 A 
ATOM     37  C   UNL     1      -9.135   6.200  -3.046  1.00  0.00     0.074 A 
ATOM     38  C   UNL     1      -8.244   7.593  -1.202  1.00  0.00     0.049 A 
ATOM     39  N   UNL     1      -9.017   7.006  -4.069  1.00  0.00    -0.248 NA
ATOM     40  C   UNL     1      -9.714   4.887  -3.380  1.00  0.00     0.031 C 
ATOM     41  C   UNL     1      -7.775   7.901   0.151  1.00  0.00     0.029 A 
ATOM     42  N   UNL     1      -8.056   8.765  -1.891  1.00  0.00    -0.354 N 
ATOM     43  C   UNL     1      -9.472   6.285  -5.165  1.00  0.00     0.074 A 
ATOM     44  C   UNL     1      -9.805   4.958  -4.698  1.00  0.00     0.031 C 
ATOM     45  C   UNL     1      -7.377   9.184   0.197  1.00  0.00     0.029 A 
ATOM     46  C   UNL     1      -7.518   9.774  -1.130  1.00  0.00     0.049 A 
ATOM     47  H   UNL     1      -8.285   8.872  -2.843  1.00  0.00     0.167 HD
ATOM     48  C   UNL     1      -9.629   6.703  -6.443  1.00  0.00     0.037 A 
ATOM     49  C   UNL     1      -7.173  11.030  -1.474  1.00  0.00     0.037 A 
ATOM     50  C   UNL     1      -9.347   8.040  -6.887  1.00  0.00     0.049 A 
ATOM     51  C   UNL     1      -7.374  11.475  -2.900  1.00  0.00     0.074 A 
ATOM     52  C   UNL     1      -9.509   8.584  -8.147  1.00  0.00     0.029 A 
ATOM     53  N   UNL     1      -8.857   9.049  -6.071  1.00  0.00    -0.354 N 
ATOM     54  N   UNL     1      -7.841  10.799  -3.921  1.00  0.00    -0.248 NA
ATOM     55  C   UNL     1      -7.005  12.861  -3.219  1.00  0.00     0.031 C 
ATOM     56  C   UNL     1      -9.095   9.919  -8.100  1.00  0.00     0.029 A 
ATOM     57  C   UNL     1      -8.715  10.216  -6.801  1.00  0.00     0.049 A 
ATOM     58  H   UNL     1      -8.643   8.950  -5.115  1.00  0.00     0.167 HD
ATOM     59  C   UNL     1      -7.863  11.685  -4.989  1.00  0.00     0.074 A 
ATOM     60  C   UNL     1      -7.366  12.950  -4.492  1.00  0.00     0.031 C 
ATOM     61  C   UNL     1      -8.258  11.473  -6.268  1.00  0.00     0.037 A 
BRANCH  48  62
ATOM     62  C   UNL     1     -10.150   5.707  -7.437  1.00  0.00     0.064 A 
ATOM     63  C   UNL     1     -11.472   5.238  -7.380  1.00  0.00     0.173 A 
ATOM     64  C   UNL     1      -9.330   5.231  -8.470  1.00  0.00     0.173 A 
ATOM     65  F   UNL     1     -12.293   5.650  -6.402  1.00  0.00    -0.203 F 
ATOM     66  C   UNL     1     -11.942   4.304  -8.299  1.00  0.00     0.198 A 
ATOM     67  C   UNL     1      -9.814   4.322  -9.407  1.00  0.00     0.198 A 
ATOM     68  F   UNL     1      -8.059   5.648  -8.572  1.00  0.00    -0.203 F 
ATOM     69  F   UNL     1     -13.190   3.828  -8.188  1.00  0.00    -0.200 F 
ATOM     70  C   UNL     1     -11.116   3.853  -9.316  1.00  0.00     0.200 A 
ATOM     71  F   UNL     1      -9.018   3.895 -10.397  1.00  0.00    -0.200 F 
ATOM     72  F   UNL     1     -11.572   2.958 -10.203  1.00  0.00    -0.200 F 
ENDBRANCH  48  62
BRANCH  49  73
ATOM     73  C   UNL     1      -6.636  11.971  -0.455  1.00  0.00     0.064 A 
ATOM     74  C   UNL     1      -7.388  13.080  -0.041  1.00  0.00     0.173 A 
ATOM     75  C   UNL     1      -5.361  11.803   0.104  1.00  0.00     0.173 A 
ATOM     76  F   UNL     1      -8.605  13.295  -0.561  1.00  0.00    -0.203 F 
ATOM     77  C   UNL     1      -6.873  14.002   0.870  1.00  0.00     0.198 A 
ATOM     78  C   UNL     1      -4.859  12.710   1.037  1.00  0.00     0.198 A 
ATOM     79  F   UNL     1      -4.603  10.756  -0.252  1.00  0.00    -0.203 F 
ATOM     80  F   UNL     1      -7.593  15.082   1.204  1.00  0.00    -0.200 F 
ATOM     81  C   UNL     1      -5.611  13.814   1.410  1.00  0.00     0.200 A 
ATOM     82  F   UNL     1      -3.644  12.519   1.567  1.00  0.00    -0.200 F 
ATOM     83  F   UNL     1      -5.115  14.702   2.282  1.00  0.00    -0.200 F 
ENDBRANCH  49  73
BRANCH  61  84
ATOM     84  C   UNL     1      -8.242  12.647  -7.200  1.00  0.00     0.064 A 
ATOM     85  C   UNL     1      -7.046  13.168  -7.712  1.00  0.00     0.173 A 
ATOM     86  C   UNL     1      -9.450  13.212  -7.637  1.00  0.00     0.173 A 
ATOM     87  F   UNL     1      -5.867  12.668  -7.313  1.00  0.00    -0.203 F 
ATOM     88  C   UNL     1      -7.059  14.227  -8.614  1.00  0.00     0.198 A 
ATOM     89  C   UNL     1      -9.460  14.252  -8.561  1.00  0.00     0.198 A 
ATOM     90  F   UNL     1     -10.621  12.742  -7.181  1.00  0.00    -0.203 F 
ATOM     91  F   UNL     1      -5.904  14.736  -9.063  1.00  0.00    -0.200 F 
ATOM     92  C   UNL     1      -8.265  14.762  -9.045  1.00  0.00     0.200 A 
ATOM     93  F   UNL     1     -10.626  14.757  -8.986  1.00  0.00    -0.200 F 
ATOM     94  F   UNL     1      -8.275  15.772  -9.925  1.00  0.00    -0.200 F 
ENDBRANCH  61  84
ENDBRANCH  35  36
ENDBRANCH  27  30
ENDBRANCH  25  26
ENDBRANCH  24  25
ENDBRANCH   1  24
TORSDOF 18
