REMARK SMILES CC(C)CN(CC(N)=O)C(=O)N1CC[C@H](C(=O)NCCCCNC(=O)c2ccc(-c3c4nc(c(-c5c(F)c(F)c(F)c(F)c5F)c5ccc([nH]5)c(-c5c(F)c(F)c(F)c(F)c5F)c5nc(c(-c6c(F)c(F)c(F)c(F)c6F)c6ccc3[nH]6)C=C5)C=C4)cc2)[C@@H]1C
REMARK SMILES IDX 19 1 18 2 16 3 17 4 15 6 12 7 13 8 89 9 14 10 90 11 10 12
REMARK SMILES IDX 11 13 5 14 4 15 2 16 1 17 3 18 6 19 7 20 8 21 9 22 20 25
REMARK SMILES IDX 21 26 22 27 23 28 24 29 25 31 26 32 27 33 88 34 28 35 87 36
REMARK SMILES IDX 29 37 30 38 31 39 81 40 32 41 86 42 80 43 82 44 33 45 85 46
REMARK SMILES IDX 79 47 78 48 34 50 66 51 46 52 65 53 47 54 50 55 64 56 83 57
REMARK SMILES IDX 48 58 49 59 63 61 84 62 51 63 35 64 36 65 44 66 37 67 38 68
REMARK SMILES IDX 42 69 45 70 39 71 40 72 43 73 41 74 67 75 68 76 76 77 69 78
REMARK SMILES IDX 70 79 74 80 77 81 71 82 72 83 75 84 73 85 52 86 53 87 61 88
REMARK SMILES IDX 54 89 55 90 59 91 62 92 56 93 57 94 60 95 58 96
REMARK H PARENT 18 5 8 23 8 24 23 30 82 49 50 60
REMARK Flexibility Score: inf
ROOT
ATOM      1  C   UNL     1      -5.598   5.012   3.438  1.00  0.00     0.116 C 
ENDROOT
BRANCH   1   2
ATOM      2  N   UNL     1      -4.929   4.324   4.527  1.00  0.00    -0.356 N 
ATOM      3  C   UNL     1      -3.655   3.840   4.601  1.00  0.00     0.225 C 
ATOM      4  O   UNL     1      -3.259   3.405   5.681  1.00  0.00    -0.275 OA
ATOM      5  H   UNL     1      -5.477   4.186   5.333  1.00  0.00     0.163 HD
BRANCH   3   6
ATOM      6  C   UNL     1      -2.802   3.817   3.349  1.00  0.00     0.102 C 
ATOM      7  N   UNL     1      -1.699   2.193   2.039  1.00  0.00    -0.321 N 
ATOM      8  C   UNL     1      -0.782   2.502   3.113  1.00  0.00     0.122 C 
ATOM      9  C   UNL     1      -3.046   2.582   2.454  1.00  0.00     0.096 C 
ATOM     10  C   UNL     1      -1.290   3.824   3.644  1.00  0.00     0.037 C 
ATOM     11  C   UNL     1      -3.791   1.412   3.106  1.00  0.00     0.032 C 
BRANCH   7  12
ATOM     12  C   UNL     1      -1.436   1.090   1.260  1.00  0.00     0.320 C 
ATOM     13  O   UNL     1      -0.948   0.078   1.762  1.00  0.00    -0.248 OA
BRANCH  12  14
ATOM     14  N   UNL     1      -1.608   1.242  -0.104  1.00  0.00    -0.315 N 
BRANCH  14  15
ATOM     15  C   UNL     1      -1.133   0.168  -0.983  1.00  0.00     0.125 C 
BRANCH  15  16
ATOM     16  C   UNL     1       0.363   0.315  -1.355  1.00  0.00     0.002 C 
ATOM     17  C   UNL     1       1.304   0.013  -0.183  1.00  0.00     0.009 C 
ATOM     18  C   UNL     1       0.711  -0.614  -2.520  1.00  0.00     0.009 C 
ENDBRANCH  15  16
ENDBRANCH  14  15
BRANCH  14  19
ATOM     19  C   UNL     1      -2.167   2.429  -0.750  1.00  0.00     0.221 C 
BRANCH  19  20
ATOM     20  C   UNL     1      -3.694   2.342  -0.895  1.00  0.00     0.237 C 
ATOM     21  N   UNL     1      -4.364   3.532  -0.783  1.00  0.00    -0.368 N 
ATOM     22  O   UNL     1      -4.320   1.312  -1.124  1.00  0.00    -0.273 OA
ATOM     23  H   UNL     1      -3.867   4.361  -0.600  1.00  0.00     0.159 HD
ATOM     24  H   UNL     1      -5.343   3.557  -0.886  1.00  0.00     0.159 HD
ENDBRANCH  19  20
ENDBRANCH  14  19
ENDBRANCH  12  14
ENDBRANCH   7  12
ENDBRANCH   3   6
ENDBRANCH   1   2
BRANCH   1  25
ATOM     25  C   UNL     1      -6.939   4.384   3.070  1.00  0.00     0.023 C 
BRANCH  25  26
ATOM     26  C   UNL     1      -7.960   4.295   4.206  1.00  0.00     0.023 C 
BRANCH  26  27
ATOM     27  C   UNL     1      -8.241   5.598   4.949  1.00  0.00     0.116 C 
BRANCH  27  28
ATOM     28  N   UNL     1      -8.799   6.636   4.097  1.00  0.00    -0.352 N 
ATOM     29  C   UNL     1      -9.940   7.391   4.260  1.00  0.00     0.251 C 
ATOM     30  H   UNL     1      -8.283   6.829   3.281  1.00  0.00     0.163 HD
ATOM     31  O   UNL     1     -10.310   8.140   3.369  1.00  0.00    -0.269 OA
BRANCH  29  32
ATOM     32  C   UNL     1     -10.744   7.260   5.497  1.00  0.00     0.039 A 
ATOM     33  C   UNL     1     -12.127   7.095   5.381  1.00  0.00     0.014 A 
ATOM     34  C   UNL     1     -10.144   7.270   6.758  1.00  0.00     0.014 A 
ATOM     35  C   UNL     1     -12.893   6.837   6.521  1.00  0.00     0.010 A 
ATOM     36  C   UNL     1     -10.896   6.946   7.886  1.00  0.00     0.010 A 
ATOM     37  C   UNL     1     -12.274   6.701   7.774  1.00  0.00    -0.014 A 
BRANCH  37  38
ATOM     38  C   UNL     1     -13.035   6.229   8.961  1.00  0.00     0.031 A 
ATOM     39  C   UNL     1     -13.211   7.111  10.162  1.00  0.00     0.074 A 
ATOM     40  C   UNL     1     -13.493   4.961   8.984  1.00  0.00     0.049 A 
ATOM     41  N   UNL     1     -13.765   6.835  11.317  1.00  0.00    -0.248 NA
ATOM     42  C   UNL     1     -12.677   8.477  10.063  1.00  0.00     0.031 C 
ATOM     43  C   UNL     1     -13.345   3.990   7.899  1.00  0.00     0.029 A 
ATOM     44  N   UNL     1     -14.160   4.265   9.962  1.00  0.00    -0.354 N 
ATOM     45  C   UNL     1     -13.639   7.987  12.082  1.00  0.00     0.074 A 
ATOM     46  C   UNL     1     -12.916   8.950  11.278  1.00  0.00     0.031 C 
ATOM     47  C   UNL     1     -13.915   2.831   8.263  1.00  0.00     0.029 A 
ATOM     48  C   UNL     1     -14.428   2.961   9.623  1.00  0.00     0.049 A 
ATOM     49  H   UNL     1     -14.421   4.662  10.824  1.00  0.00     0.167 HD
ATOM     50  C   UNL     1     -14.101   8.222  13.334  1.00  0.00     0.037 A 
ATOM     51  C   UNL     1     -15.005   1.972  10.333  1.00  0.00     0.037 A 
ATOM     52  C   UNL     1     -14.830   7.265  14.126  1.00  0.00     0.049 A 
ATOM     53  C   UNL     1     -15.476   2.252  11.733  1.00  0.00     0.074 A 
ATOM     54  C   UNL     1     -15.400   7.436  15.376  1.00  0.00     0.029 A 
ATOM     55  N   UNL     1     -15.079   5.953  13.751  1.00  0.00    -0.354 N 
ATOM     56  N   UNL     1     -15.421   3.368  12.417  1.00  0.00    -0.248 NA
ATOM     57  C   UNL     1     -16.089   1.131  12.462  1.00  0.00     0.031 C 
ATOM     58  C   UNL     1     -15.944   6.212  15.781  1.00  0.00     0.029 A 
ATOM     59  C   UNL     1     -15.762   5.293  14.761  1.00  0.00     0.049 A 
ATOM     60  H   UNL     1     -14.811   5.550  12.893  1.00  0.00     0.167 HD
ATOM     61  C   UNL     1     -16.005   3.092  13.646  1.00  0.00     0.074 A 
ATOM     62  C   UNL     1     -16.429   1.708  13.606  1.00  0.00     0.031 C 
ATOM     63  C   UNL     1     -16.171   3.912  14.713  1.00  0.00     0.037 A 
BRANCH  50  64
ATOM     64  C   UNL     1     -13.831   9.572  13.933  1.00  0.00     0.064 A 
ATOM     65  C   UNL     1     -14.473  10.728  13.462  1.00  0.00     0.173 A 
ATOM     66  C   UNL     1     -12.959   9.706  15.024  1.00  0.00     0.173 A 
ATOM     67  F   UNL     1     -15.310  10.656  12.416  1.00  0.00    -0.203 F 
ATOM     68  C   UNL     1     -14.232  11.970  14.044  1.00  0.00     0.198 A 
ATOM     69  C   UNL     1     -12.744  10.945  15.623  1.00  0.00     0.198 A 
ATOM     70  F   UNL     1     -12.325   8.633  15.519  1.00  0.00    -0.203 F 
ATOM     71  F   UNL     1     -14.823  13.066  13.549  1.00  0.00    -0.200 F 
ATOM     72  C   UNL     1     -13.375  12.076  15.129  1.00  0.00     0.200 A 
ATOM     73  F   UNL     1     -11.925  11.043  16.680  1.00  0.00    -0.200 F 
ATOM     74  F   UNL     1     -13.152  13.271  15.694  1.00  0.00    -0.200 F 
ENDBRANCH  50  64
BRANCH  51  75
ATOM     75  C   UNL     1     -15.169   0.624   9.730  1.00  0.00     0.064 A 
ATOM     76  C   UNL     1     -16.440   0.129   9.407  1.00  0.00     0.173 A 
ATOM     77  C   UNL     1     -14.063  -0.199   9.466  1.00  0.00     0.173 A 
ATOM     78  F   UNL     1     -17.529   0.869   9.661  1.00  0.00    -0.203 F 
ATOM     79  C   UNL     1     -16.601  -1.143   8.861  1.00  0.00     0.198 A 
ATOM     80  C   UNL     1     -14.223  -1.458   8.893  1.00  0.00     0.198 A 
ATOM     81  F   UNL     1     -12.825   0.229   9.753  1.00  0.00    -0.203 F 
ATOM     82  F   UNL     1     -17.831  -1.608   8.605  1.00  0.00    -0.200 F 
ATOM     83  C   UNL     1     -15.492  -1.932   8.598  1.00  0.00     0.200 A 
ATOM     84  F   UNL     1     -13.147  -2.212   8.626  1.00  0.00    -0.200 F 
ATOM     85  F   UNL     1     -15.647  -3.153   8.068  1.00  0.00    -0.200 F 
ENDBRANCH  51  75
BRANCH  63  86
ATOM     86  C   UNL     1     -16.850   3.336  15.922  1.00  0.00     0.064 A 
ATOM     87  C   UNL     1     -16.210   2.398  16.745  1.00  0.00     0.173 A 
ATOM     88  C   UNL     1     -18.140   3.754  16.282  1.00  0.00     0.173 A 
ATOM     89  F   UNL     1     -14.983   1.954  16.434  1.00  0.00    -0.203 F 
ATOM     90  C   UNL     1     -16.845   1.883  17.872  1.00  0.00     0.198 A 
ATOM     91  C   UNL     1     -18.760   3.259  17.427  1.00  0.00     0.198 A 
ATOM     92  F   UNL     1     -18.795   4.652  15.532  1.00  0.00    -0.203 F 
ATOM     93  F   UNL     1     -16.232   0.953  18.617  1.00  0.00    -0.200 F 
ATOM     94  C   UNL     1     -18.116   2.320  18.216  1.00  0.00     0.200 A 
ATOM     95  F   UNL     1     -19.983   3.692  17.765  1.00  0.00    -0.200 F 
ATOM     96  F   UNL     1     -18.722   1.828  19.306  1.00  0.00    -0.200 F 
ENDBRANCH  63  86
ENDBRANCH  37  38
ENDBRANCH  29  32
ENDBRANCH  27  28
ENDBRANCH  26  27
ENDBRANCH  25  26
ENDBRANCH   1  25
TORSDOF 17
