REMARK SMILES CC(C)[NH2+][C@@]1(C(=O)NCCCCNC(=O)c2ccc(-c3c4nc(c(-c5c(F)c(F)c(F)c(F)c5F)c5ccc([nH]5)c(-c5c(F)c(F)c(F)c(F)c5F)c5nc(c(-c6c(F)c(F)c(F)c(F)c6F)c6ccc3[nH]6)C=C5)C=C4)cc2)CCC[C@@H](Sc2nncn2C)C1
REMARK SMILES IDX 10 1 9 2 8 3 6 4 7 5 5 7 79 8 90 9 80 10 82 11 81 12 4 13
REMARK SMILES IDX 2 16 1 17 3 18 83 19 84 20 85 21 88 22 86 23 87 24 89 25
REMARK SMILES IDX 11 26 12 27 13 28 14 29 15 31 16 32 17 33 78 34 18 35 77 36
REMARK SMILES IDX 19 37 20 38 21 39 71 40 22 41 76 42 70 43 72 44 23 45 75 46
REMARK SMILES IDX 69 47 68 48 24 50 56 51 36 52 55 53 37 54 40 55 54 56 73 57
REMARK SMILES IDX 38 58 39 59 53 61 74 62 41 63 25 64 26 65 34 66 27 67 28 68
REMARK SMILES IDX 32 69 35 70 29 71 30 72 33 73 31 74 57 75 58 76 66 77 59 78
REMARK SMILES IDX 60 79 64 80 67 81 61 82 62 83 65 84 63 85 42 86 43 87 51 88
REMARK SMILES IDX 44 89 45 90 49 91 52 92 46 93 47 94 50 95 48 96
REMARK H PARENT 8 6 4 14 4 15 13 30 72 49 40 60
REMARK Flexibility Score: inf
ROOT
ATOM      1  C   UNL     1      -3.586  -3.776   4.893  1.00  0.00     0.023 C 
ENDROOT
BRANCH   1   2
ATOM      2  C   UNL     1      -3.734  -3.830   3.368  1.00  0.00     0.116 C 
BRANCH   2   3
ATOM      3  N   UNL     1      -3.637  -2.516   2.781  1.00  0.00    -0.351 N 
ATOM      4  C   UNL     1      -2.668  -1.775   2.204  1.00  0.00     0.281 C 
ATOM      5  O   UNL     1      -3.036  -0.603   1.990  1.00  0.00    -0.268 OA
ATOM      6  H   UNL     1      -4.497  -2.037   2.809  1.00  0.00     0.163 HD
BRANCH   4   7
ATOM      7  C   UNL     1      -1.164  -2.196   1.830  1.00  0.00     0.176 C 
ATOM      8  C   UNL     1      -1.058  -3.434   0.904  1.00  0.00     0.079 C 
ATOM      9  C   UNL     1      -0.300  -2.301   3.101  1.00  0.00     0.094 C 
ATOM     10  C   UNL     1      -0.777  -4.801   1.534  1.00  0.00     0.008 C 
ATOM     11  C   UNL     1      -0.297  -3.678   3.746  1.00  0.00     0.061 C 
ATOM     12  C   UNL     1       0.119  -4.771   2.768  1.00  0.00     0.015 C 
BRANCH   7  13
ATOM     13  N   UNL     1      -0.747  -1.037   0.957  1.00  0.00    -0.332 N 
ATOM     14  H   UNL     1      -1.103  -1.236   0.022  1.00  0.00     0.347 HD
ATOM     15  H   UNL     1      -1.123  -0.234   1.460  1.00  0.00     0.347 HD
BRANCH  13  16
ATOM     16  C   UNL     1       0.660  -0.676   0.794  1.00  0.00     0.176 C 
ATOM     17  C   UNL     1       0.785  -0.020  -0.587  1.00  0.00     0.075 C 
ATOM     18  C   UNL     1       1.148   0.334   1.841  1.00  0.00     0.075 C 
ENDBRANCH  13  16
ENDBRANCH   7  13
BRANCH  11  19
ATOM     19  S   UNL     1       0.621  -3.719   5.327  1.00  0.00    -0.082 SA
BRANCH  19  20
ATOM     20  C   UNL     1       2.260  -3.676   4.802  1.00  0.00     0.191 A 
ATOM     21  N   UNL     1       2.813  -2.794   4.004  1.00  0.00    -0.124 NA
ATOM     22  N   UNL     1       3.181  -4.617   5.154  1.00  0.00    -0.312 N 
ATOM     23  N   UNL     1       4.123  -3.171   3.811  1.00  0.00    -0.138 NA
ATOM     24  C   UNL     1       4.327  -4.268   4.506  1.00  0.00     0.226 A 
ATOM     25  C   UNL     1       2.994  -5.769   5.994  1.00  0.00     0.153 C 
ENDBRANCH  19  20
ENDBRANCH  11  19
ENDBRANCH   4   7
ENDBRANCH   2   3
ENDBRANCH   1   2
BRANCH   1  26
ATOM     26  C   UNL     1      -4.880  -3.965   5.673  1.00  0.00     0.023 C 
BRANCH  26  27
ATOM     27  C   UNL     1      -5.563  -5.310   5.454  1.00  0.00     0.116 C 
BRANCH  27  28
ATOM     28  N   UNL     1      -4.726  -6.470   5.736  1.00  0.00    -0.352 N 
ATOM     29  C   UNL     1      -5.123  -7.699   6.221  1.00  0.00     0.251 C 
ATOM     30  H   UNL     1      -3.764  -6.364   5.559  1.00  0.00     0.163 HD
ATOM     31  O   UNL     1      -4.314  -8.582   6.455  1.00  0.00    -0.269 OA
BRANCH  29  32
ATOM     32  C   UNL     1      -6.559  -7.895   6.509  1.00  0.00     0.039 A 
ATOM     33  C   UNL     1      -6.944  -8.240   7.806  1.00  0.00     0.014 A 
ATOM     34  C   UNL     1      -7.513  -7.593   5.535  1.00  0.00     0.014 A 
ATOM     35  C   UNL     1      -8.293  -8.181   8.155  1.00  0.00     0.010 A 
ATOM     36  C   UNL     1      -8.842  -7.449   5.909  1.00  0.00     0.010 A 
ATOM     37  C   UNL     1      -9.244  -7.729   7.225  1.00  0.00    -0.014 A 
BRANCH  37  38
ATOM     38  C   UNL     1     -10.665  -7.525   7.603  1.00  0.00     0.031 A 
ATOM     39  C   UNL     1     -11.740  -8.315   6.910  1.00  0.00     0.074 A 
ATOM     40  C   UNL     1     -10.993  -6.562   8.488  1.00  0.00     0.049 A 
ATOM     41  N   UNL     1     -13.040  -8.204   7.006  1.00  0.00    -0.248 NA
ATOM     42  C   UNL     1     -11.294  -9.337   5.949  1.00  0.00     0.031 C 
ATOM     43  C   UNL     1     -10.047  -5.676   9.171  1.00  0.00     0.029 A 
ATOM     44  N   UNL     1     -12.219  -6.155   8.952  1.00  0.00    -0.354 N 
ATOM     45  C   UNL     1     -13.562  -9.109   6.091  1.00  0.00     0.074 A 
ATOM     46  C   UNL     1     -12.443  -9.732   5.421  1.00  0.00     0.031 C 
ATOM     47  C   UNL     1     -10.726  -4.846   9.980  1.00  0.00     0.029 A 
ATOM     48  C   UNL     1     -12.154  -5.117   9.851  1.00  0.00     0.049 A 
ATOM     49  H   UNL     1     -13.066  -6.568   8.668  1.00  0.00     0.167 HD
ATOM     50  C   UNL     1     -14.859  -9.409   5.851  1.00  0.00     0.037 A 
ATOM     51  C   UNL     1     -13.137  -4.458  10.493  1.00  0.00     0.037 A 
ATOM     52  C   UNL     1     -15.966  -8.844   6.573  1.00  0.00     0.049 A 
ATOM     53  C   UNL     1     -14.568  -4.864  10.255  1.00  0.00     0.074 A 
ATOM     54  C   UNL     1     -17.308  -9.166   6.482  1.00  0.00     0.029 A 
ATOM     55  N   UNL     1     -15.855  -7.845   7.527  1.00  0.00    -0.354 N 
ATOM     56  N   UNL     1     -15.043  -5.787   9.456  1.00  0.00    -0.248 NA
ATOM     57  C   UNL     1     -15.598  -4.140  11.014  1.00  0.00     0.031 C 
ATOM     58  C   UNL     1     -18.014  -8.342   7.363  1.00  0.00     0.029 A 
ATOM     59  C   UNL     1     -17.107  -7.530   8.026  1.00  0.00     0.049 A 
ATOM     60  H   UNL     1     -15.011  -7.423   7.809  1.00  0.00     0.167 HD
ATOM     61  C   UNL     1     -16.419  -5.778   9.639  1.00  0.00     0.074 A 
ATOM     62  C   UNL     1     -16.703  -4.765  10.633  1.00  0.00     0.031 C 
ATOM     63  C   UNL     1     -17.364  -6.537   9.035  1.00  0.00     0.037 A 
BRANCH  50  64
ATOM     64  C   UNL     1     -15.156 -10.411   4.777  1.00  0.00     0.064 A 
ATOM     65  C   UNL     1     -14.895 -11.777   4.955  1.00  0.00     0.173 A 
ATOM     66  C   UNL     1     -15.760 -10.006   3.577  1.00  0.00     0.173 A 
ATOM     67  F   UNL     1     -14.306 -12.211   6.079  1.00  0.00    -0.203 F 
ATOM     68  C   UNL     1     -15.211 -12.701   3.962  1.00  0.00     0.198 A 
ATOM     69  C   UNL     1     -16.098 -10.935   2.597  1.00  0.00     0.198 A 
ATOM     70  F   UNL     1     -16.032  -8.710   3.360  1.00  0.00    -0.203 F 
ATOM     71  F   UNL     1     -14.918 -13.996   4.138  1.00  0.00    -0.200 F 
ATOM     72  C   UNL     1     -15.819 -12.280   2.789  1.00  0.00     0.200 A 
ATOM     73  F   UNL     1     -16.695 -10.530   1.468  1.00  0.00    -0.200 F 
ATOM     74  F   UNL     1     -16.133 -13.172   1.839  1.00  0.00    -0.200 F 
ENDBRANCH  50  64
BRANCH  51  75
ATOM     75  C   UNL     1     -12.814  -3.366  11.448  1.00  0.00     0.064 A 
ATOM     76  C   UNL     1     -13.009  -3.538  12.826  1.00  0.00     0.173 A 
ATOM     77  C   UNL     1     -12.343  -2.123  11.006  1.00  0.00     0.173 A 
ATOM     78  F   UNL     1     -13.479  -4.704  13.294  1.00  0.00    -0.203 F 
ATOM     79  C   UNL     1     -12.774  -2.498  13.723  1.00  0.00     0.198 A 
ATOM     80  C   UNL     1     -12.083  -1.091  11.906  1.00  0.00     0.198 A 
ATOM     81  F   UNL     1     -12.135  -1.909   9.699  1.00  0.00    -0.203 F 
ATOM     82  F   UNL     1     -13.023  -2.673  15.028  1.00  0.00    -0.200 F 
ATOM     83  C   UNL     1     -12.310  -1.276  13.262  1.00  0.00     0.200 A 
ATOM     84  F   UNL     1     -11.624   0.086  11.460  1.00  0.00    -0.200 F 
ATOM     85  F   UNL     1     -12.091  -0.273  14.124  1.00  0.00    -0.200 F 
ENDBRANCH  51  75
BRANCH  63  86
ATOM     86  C   UNL     1     -18.786  -6.336   9.463  1.00  0.00     0.064 A 
ATOM     87  C   UNL     1     -19.518  -5.208   9.069  1.00  0.00     0.173 A 
ATOM     88  C   UNL     1     -19.436  -7.310  10.236  1.00  0.00     0.173 A 
ATOM     89  F   UNL     1     -18.932  -4.244   8.342  1.00  0.00    -0.203 F 
ATOM     90  C   UNL     1     -20.847  -5.052   9.450  1.00  0.00     0.198 A 
ATOM     91  C   UNL     1     -20.773  -7.163  10.594  1.00  0.00     0.198 A 
ATOM     92  F   UNL     1     -18.778  -8.410  10.632  1.00  0.00    -0.203 F 
ATOM     93  F   UNL     1     -21.518  -3.948   9.095  1.00  0.00    -0.200 F 
ATOM     94  C   UNL     1     -21.475  -6.032  10.205  1.00  0.00     0.200 A 
ATOM     95  F   UNL     1     -21.381  -8.115  11.313  1.00  0.00    -0.200 F 
ATOM     96  F   UNL     1     -22.758  -5.883  10.563  1.00  0.00    -0.200 F 
ENDBRANCH  63  86
ENDBRANCH  37  38
ENDBRANCH  29  32
ENDBRANCH  27  28
ENDBRANCH  26  27
ENDBRANCH   1  26
TORSDOF 15
