REMARK SMILES CCc1c(C(=O)NCC(=O)NCCCCNC(=O)c2ccc(-c3c4nc(c(-c5c(F)c(F)c(F)c(F)c5F)c5ccc([nH]5)c(-c5c(F)c(F)c(F)c(F)c5F)c5nc(c(-c6c(F)c(F)c(F)c(F)c6F)c6ccc3[nH]6)C=C5)C=C4)cc2)nnn1-c1ccc(Cl)cc1
REMARK SMILES IDX 13 1 12 2 11 3 9 4 10 5 8 7 7 8 5 9 6 10 4 12 3 13 84 14
REMARK SMILES IDX 82 15 83 16 2 17 1 18 85 19 86 20 91 21 87 22 90 23 88 24
REMARK SMILES IDX 89 25 14 26 15 27 16 28 17 29 18 31 19 32 20 33 81 34 21 35
REMARK SMILES IDX 80 36 22 37 23 38 24 39 74 40 25 41 79 42 73 43 75 44 26 45
REMARK SMILES IDX 78 46 72 47 71 48 27 50 59 51 39 52 58 53 40 54 43 55 57 56
REMARK SMILES IDX 76 57 41 58 42 59 56 61 77 62 44 63 28 64 29 65 37 66 30 67
REMARK SMILES IDX 31 68 35 69 38 70 32 71 33 72 36 73 34 74 60 75 61 76 69 77
REMARK SMILES IDX 62 78 63 79 67 80 70 81 64 82 65 83 68 84 66 85 45 86 46 87
REMARK SMILES IDX 54 88 47 89 48 90 52 91 55 92 49 93 50 94 53 95 51 96
REMARK H PARENT 11 6 7 11 16 30 75 49 43 60
REMARK Flexibility Score: inf
ROOT
ATOM      1  C   UNL     1      -3.479   3.053   2.327  1.00  0.00     0.023 C 
ENDROOT
BRANCH   1   2
ATOM      2  C   UNL     1      -2.564   1.831   2.358  1.00  0.00     0.116 C 
BRANCH   2   3
ATOM      3  N   UNL     1      -2.984   0.789   1.449  1.00  0.00    -0.355 N 
ATOM      4  C   UNL     1      -2.618   0.508   0.173  1.00  0.00     0.239 C 
ATOM      5  O   UNL     1      -3.105  -0.516  -0.323  1.00  0.00    -0.273 OA
ATOM      6  H   UNL     1      -3.655   0.174   1.822  1.00  0.00     0.163 HD
BRANCH   4   7
ATOM      7  C   UNL     1      -1.535   1.272  -0.605  1.00  0.00     0.216 C 
BRANCH   7   8
ATOM      8  N   UNL     1      -1.224   2.659  -0.355  1.00  0.00    -0.342 N 
ATOM      9  C   UNL     1      -0.254   3.362   0.305  1.00  0.00     0.274 C 
ATOM     10  O   UNL     1      -0.313   4.578   0.087  1.00  0.00    -0.267 OA
ATOM     11  H   UNL     1      -1.887   3.258  -0.769  1.00  0.00     0.164 HD
BRANCH   9  12
ATOM     12  C   UNL     1       0.720   2.840   1.279  1.00  0.00     0.174 A 
ATOM     13  C   UNL     1       1.261   1.603   1.648  1.00  0.00     0.077 A 
ATOM     14  N   UNL     1       2.109   1.916   2.718  1.00  0.00    -0.217 N 
ATOM     15  N   UNL     1       1.192   3.782   2.180  1.00  0.00    -0.124 NA
ATOM     16  N   UNL     1       1.920   3.188   3.100  1.00  0.00    -0.061 NA
BRANCH  13  17
ATOM     17  C   UNL     1       0.993   0.184   1.267  1.00  0.00     0.055 C 
ATOM     18  C   UNL     1       1.611  -0.227  -0.060  1.00  0.00     0.011 C 
ENDBRANCH  13  17
BRANCH  14  19
ATOM     19  C   UNL     1       3.005   1.091   3.443  1.00  0.00     0.067 A 
ATOM     20  C   UNL     1       3.095   1.228   4.836  1.00  0.00     0.030 A 
ATOM     21  C   UNL     1       3.809   0.158   2.781  1.00  0.00     0.030 A 
ATOM     22  C   UNL     1       3.925   0.370   5.564  1.00  0.00     0.023 A 
ATOM     23  C   UNL     1       4.652  -0.682   3.510  1.00  0.00     0.023 A 
ATOM     24  C   UNL     1       4.692  -0.586   4.899  1.00  0.00     0.041 A 
ATOM     25  Cl  UNL     1       5.701  -1.652   5.795  1.00  0.00    -0.084 Cl
ENDBRANCH  14  19
ENDBRANCH   9  12
ENDBRANCH   7   8
ENDBRANCH   4   7
ENDBRANCH   2   3
ENDBRANCH   1   2
BRANCH   1  26
ATOM     26  C   UNL     1      -4.893   2.820   2.880  1.00  0.00     0.023 C 
BRANCH  26  27
ATOM     27  C   UNL     1      -4.944   2.416   4.348  1.00  0.00     0.116 C 
BRANCH  27  28
ATOM     28  N   UNL     1      -4.445   3.453   5.254  1.00  0.00    -0.352 N 
ATOM     29  C   UNL     1      -4.277   3.369   6.629  1.00  0.00     0.251 C 
ATOM     30  H   UNL     1      -4.201   4.311   4.839  1.00  0.00     0.163 HD
ATOM     31  O   UNL     1      -4.259   4.359   7.337  1.00  0.00    -0.269 OA
BRANCH  29  32
ATOM     32  C   UNL     1      -4.087   2.031   7.215  1.00  0.00     0.039 A 
ATOM     33  C   UNL     1      -4.695   1.640   8.411  1.00  0.00     0.014 A 
ATOM     34  C   UNL     1      -3.298   1.147   6.489  1.00  0.00     0.014 A 
ATOM     35  C   UNL     1      -4.553   0.318   8.829  1.00  0.00     0.010 A 
ATOM     36  C   UNL     1      -3.337  -0.184   6.785  1.00  0.00     0.010 A 
ATOM     37  C   UNL     1      -3.879  -0.589   7.997  1.00  0.00    -0.014 A 
BRANCH  37  38
ATOM     38  C   UNL     1      -3.793  -2.008   8.305  1.00  0.00     0.031 A 
ATOM     39  C   UNL     1      -5.106  -2.692   8.443  1.00  0.00     0.074 A 
ATOM     40  C   UNL     1      -2.626  -2.680   8.191  1.00  0.00     0.049 A 
ATOM     41  N   UNL     1      -5.579  -3.279   9.490  1.00  0.00    -0.248 NA
ATOM     42  C   UNL     1      -6.064  -2.605   7.327  1.00  0.00     0.031 C 
ATOM     43  C   UNL     1      -1.318  -2.178   7.746  1.00  0.00     0.029 A 
ATOM     44  N   UNL     1      -2.392  -4.011   8.330  1.00  0.00    -0.354 N 
ATOM     45  C   UNL     1      -6.808  -3.811   9.111  1.00  0.00     0.074 A 
ATOM     46  C   UNL     1      -7.136  -3.209   7.846  1.00  0.00     0.031 C 
ATOM     47  C   UNL     1      -0.519  -3.216   7.417  1.00  0.00     0.029 A 
ATOM     48  C   UNL     1      -1.189  -4.448   7.782  1.00  0.00     0.049 A 
ATOM     49  H   UNL     1      -3.023  -4.618   8.780  1.00  0.00     0.167 HD
ATOM     50  C   UNL     1      -7.326  -4.896   9.753  1.00  0.00     0.037 A 
ATOM     51  C   UNL     1      -0.816  -5.741   7.603  1.00  0.00     0.037 A 
ATOM     52  C   UNL     1      -6.681  -5.098  11.028  1.00  0.00     0.049 A 
ATOM     53  C   UNL     1      -1.664  -6.564   8.509  1.00  0.00     0.074 A 
ATOM     54  C   UNL     1      -6.510  -4.308  12.150  1.00  0.00     0.029 A 
ATOM     55  N   UNL     1      -5.731  -6.086  11.130  1.00  0.00    -0.354 N 
ATOM     56  N   UNL     1      -1.584  -6.509   9.812  1.00  0.00    -0.248 NA
ATOM     57  C   UNL     1      -2.934  -7.043   7.980  1.00  0.00     0.031 C 
ATOM     58  C   UNL     1      -5.159  -4.536  12.552  1.00  0.00     0.029 A 
ATOM     59  C   UNL     1      -4.627  -5.521  11.720  1.00  0.00     0.049 A 
ATOM     60  H   UNL     1      -5.823  -7.021  10.835  1.00  0.00     0.167 HD
ATOM     61  C   UNL     1      -2.901  -6.521  10.246  1.00  0.00     0.074 A 
ATOM     62  C   UNL     1      -3.687  -6.912   9.076  1.00  0.00     0.031 C 
ATOM     63  C   UNL     1      -3.273  -5.917  11.414  1.00  0.00     0.037 A 
BRANCH  50  64
ATOM     64  C   UNL     1      -8.131  -5.980   9.078  1.00  0.00     0.064 A 
ATOM     65  C   UNL     1      -8.719  -6.988   9.868  1.00  0.00     0.173 A 
ATOM     66  C   UNL     1      -8.098  -6.240   7.690  1.00  0.00     0.173 A 
ATOM     67  F   UNL     1      -8.788  -6.858  11.201  1.00  0.00    -0.203 F 
ATOM     68  C   UNL     1      -9.161  -8.195   9.318  1.00  0.00     0.198 A 
ATOM     69  C   UNL     1      -8.591  -7.421   7.139  1.00  0.00     0.198 A 
ATOM     70  F   UNL     1      -7.489  -5.425   6.822  1.00  0.00    -0.203 F 
ATOM     71  F   UNL     1      -9.589  -9.175  10.124  1.00  0.00    -0.200 F 
ATOM     72  C   UNL     1      -9.090  -8.413   7.955  1.00  0.00     0.200 A 
ATOM     73  F   UNL     1      -8.495  -7.620   5.816  1.00  0.00    -0.200 F 
ATOM     74  F   UNL     1      -9.452  -9.592   7.432  1.00  0.00    -0.200 F 
ENDBRANCH  50  64
BRANCH  51  75
ATOM     75  C   UNL     1      -0.035  -6.318   6.480  1.00  0.00     0.064 A 
ATOM     76  C   UNL     1       0.495  -7.618   6.553  1.00  0.00     0.173 A 
ATOM     77  C   UNL     1      -0.017  -5.713   5.207  1.00  0.00     0.173 A 
ATOM     78  F   UNL     1       0.477  -8.288   7.714  1.00  0.00    -0.203 F 
ATOM     79  C   UNL     1       0.990  -8.277   5.420  1.00  0.00     0.198 A 
ATOM     80  C   UNL     1       0.483  -6.367   4.079  1.00  0.00     0.198 A 
ATOM     81  F   UNL     1      -0.570  -4.507   5.008  1.00  0.00    -0.203 F 
ATOM     82  F   UNL     1       1.433  -9.538   5.519  1.00  0.00    -0.200 F 
ATOM     83  C   UNL     1       0.974  -7.654   4.183  1.00  0.00     0.200 A 
ATOM     84  F   UNL     1       0.428  -5.765   2.883  1.00  0.00    -0.200 F 
ATOM     85  F   UNL     1       1.392  -8.305   3.088  1.00  0.00    -0.200 F 
ENDBRANCH  51  75
BRANCH  63  86
ATOM     86  C   UNL     1      -2.197  -5.418  12.342  1.00  0.00     0.064 A 
ATOM     87  C   UNL     1      -1.246  -4.439  12.001  1.00  0.00     0.173 A 
ATOM     88  C   UNL     1      -2.237  -5.825  13.682  1.00  0.00     0.173 A 
ATOM     89  F   UNL     1      -1.206  -3.912  10.772  1.00  0.00    -0.203 F 
ATOM     90  C   UNL     1      -0.354  -3.929  12.944  1.00  0.00     0.198 A 
ATOM     91  C   UNL     1      -1.372  -5.288  14.632  1.00  0.00     0.198 A 
ATOM     92  F   UNL     1      -3.159  -6.713  14.085  1.00  0.00    -0.203 F 
ATOM     93  F   UNL     1       0.547  -3.002  12.586  1.00  0.00    -0.200 F 
ATOM     94  C   UNL     1      -0.424  -4.349  14.261  1.00  0.00     0.200 A 
ATOM     95  F   UNL     1      -1.480  -5.659  15.915  1.00  0.00    -0.200 F 
ATOM     96  F   UNL     1       0.403  -3.829  15.179  1.00  0.00    -0.200 F 
ENDBRANCH  63  86
ENDBRANCH  37  38
ENDBRANCH  29  32
ENDBRANCH  27  28
ENDBRANCH  26  27
ENDBRANCH   1  26
TORSDOF 15
