REMARK SMILES CC(C)(Nc1cccc(F)c1C#N)C(C)(C)C(=O)NCCCCNC(=O)c1ccc(-c2c3nc(c(-c4c(F)c(F)c(F)c(F)c4F)c4ccc([nH]4)c(-c4c(F)c(F)c(F)c(F)c4F)c4nc(c(-c5c(F)c(F)c(F)c(F)c5F)c5ccc2[nH]5)C=C4)C=C3)cc1
REMARK SMILES IDX 20 1 19 2 17 3 18 4 14 6 15 7 16 8 2 9 1 10 3 11 4 12 5 14
REMARK SMILES IDX 6 15 11 16 7 17 9 18 8 19 10 20 12 21 13 22 21 23 22 24
REMARK SMILES IDX 23 25 24 26 25 27 26 29 27 30 28 31 89 32 29 33 88 34 30 35
REMARK SMILES IDX 31 36 32 37 82 38 33 39 87 40 81 41 83 42 34 43 86 44 80 45
REMARK SMILES IDX 79 46 35 48 67 49 47 50 66 51 48 52 51 53 65 54 84 55 49 56
REMARK SMILES IDX 50 57 64 59 85 60 52 61 36 62 37 63 45 64 38 65 39 66 43 67
REMARK SMILES IDX 46 68 40 69 41 70 44 71 42 72 68 73 69 74 77 75 70 76 71 77
REMARK SMILES IDX 75 78 78 79 72 80 73 81 76 82 74 83 53 84 54 85 62 86 55 87
REMARK SMILES IDX 56 88 60 89 63 90 57 91 58 92 61 93 59 94
REMARK H PARENT 19 5 4 13 24 28 83 47 51 58
REMARK Flexibility Score: inf
ROOT
ATOM      1  C   UNL     1       2.048  -5.173   1.418  1.00  0.00     0.116 C 
ENDROOT
BRANCH   1   2
ATOM      2  N   UNL     1       1.156  -4.313   2.169  1.00  0.00    -0.356 N 
ATOM      3  C   UNL     1       1.222  -2.955   2.216  1.00  0.00     0.228 C 
ATOM      4  O   UNL     1       1.399  -2.478   3.338  1.00  0.00    -0.274 OA
ATOM      5  H   UNL     1       0.442  -4.748   2.689  1.00  0.00     0.163 HD
BRANCH   3   6
ATOM      6  C   UNL     1       1.192  -2.080   0.951  1.00  0.00     0.066 C 
ATOM      7  C   UNL     1       0.691  -2.786  -0.337  1.00  0.00     0.024 C 
ATOM      8  C   UNL     1       2.698  -1.765   0.709  1.00  0.00     0.024 C 
BRANCH   6   9
ATOM      9  C   UNL     1       0.333  -0.740   1.225  1.00  0.00     0.046 C 
ATOM     10  C   UNL     1       0.376   0.169  -0.038  1.00  0.00     0.035 C 
ATOM     11  C   UNL     1       0.882   0.139   2.383  1.00  0.00     0.035 C 
BRANCH   9  12
ATOM     12  N   UNL     1      -1.122  -0.915   1.553  1.00  0.00    -0.378 N 
ATOM     13  H   UNL     1      -1.574  -0.112   1.901  1.00  0.00     0.161 HD
BRANCH  12  14
ATOM     14  C   UNL     1      -1.918  -2.038   1.437  1.00  0.00     0.056 A 
ATOM     15  C   UNL     1      -2.731  -2.162   0.294  1.00  0.00     0.027 A 
ATOM     16  C   UNL     1      -2.023  -3.041   2.416  1.00  0.00     0.111 A 
ATOM     17  C   UNL     1      -3.490  -3.312   0.052  1.00  0.00     0.005 A 
ATOM     18  C   UNL     1      -2.730  -4.215   2.135  1.00  0.00     0.143 A 
ATOM     19  C   UNL     1      -3.449  -4.365   0.956  1.00  0.00     0.041 A 
ATOM     20  F   UNL     1      -2.739  -5.229   3.015  1.00  0.00    -0.205 F 
BRANCH  16  21
ATOM     21  C   UNL     1      -1.536  -2.884   3.754  1.00  0.00     0.104 C 
ATOM     22  N   UNL     1      -1.226  -2.820   4.873  1.00  0.00    -0.192 NA
ENDBRANCH  16  21
ENDBRANCH  12  14
ENDBRANCH   9  12
ENDBRANCH   6   9
ENDBRANCH   3   6
ENDBRANCH   1   2
BRANCH   1  23
ATOM     23  C   UNL     1       3.249  -5.588   2.267  1.00  0.00     0.023 C 
BRANCH  23  24
ATOM     24  C   UNL     1       2.904  -6.465   3.471  1.00  0.00     0.023 C 
BRANCH  24  25
ATOM     25  C   UNL     1       2.051  -7.684   3.146  1.00  0.00     0.116 C 
BRANCH  25  26
ATOM     26  N   UNL     1       2.639  -8.508   2.100  1.00  0.00    -0.352 N 
ATOM     27  C   UNL     1       2.872  -9.858   2.083  1.00  0.00     0.251 C 
ATOM     28  H   UNL     1       2.908  -8.025   1.286  1.00  0.00     0.163 HD
ATOM     29  O   UNL     1       3.541 -10.354   1.182  1.00  0.00    -0.269 OA
BRANCH  27  30
ATOM     30  C   UNL     1       2.326 -10.712   3.156  1.00  0.00     0.039 A 
ATOM     31  C   UNL     1       3.131 -11.725   3.681  1.00  0.00     0.014 A 
ATOM     32  C   UNL     1       1.023 -10.531   3.627  1.00  0.00     0.014 A 
ATOM     33  C   UNL     1       2.635 -12.539   4.699  1.00  0.00     0.010 A 
ATOM     34  C   UNL     1       0.565 -11.280   4.705  1.00  0.00     0.010 A 
ATOM     35  C   UNL     1       1.354 -12.312   5.231  1.00  0.00    -0.014 A 
BRANCH  35  36
ATOM     36  C   UNL     1       0.811 -13.187   6.299  1.00  0.00     0.031 A 
ATOM     37  C   UNL     1      -0.404 -14.034   6.030  1.00  0.00     0.074 A 
ATOM     38  C   UNL     1       1.395 -13.202   7.512  1.00  0.00     0.049 A 
ATOM     39  N   UNL     1      -1.029 -14.863   6.828  1.00  0.00    -0.248 NA
ATOM     40  C   UNL     1      -1.016 -13.915   4.697  1.00  0.00     0.031 C 
ATOM     41  C   UNL     1       2.543 -12.384   7.909  1.00  0.00     0.029 A 
ATOM     42  N   UNL     1       1.104 -13.933   8.635  1.00  0.00    -0.354 N 
ATOM     43  C   UNL     1      -2.106 -15.350   6.098  1.00  0.00     0.074 A 
ATOM     44  C   UNL     1      -2.092 -14.675   4.820  1.00  0.00     0.031 C 
ATOM     45  C   UNL     1       2.879 -12.684   9.174  1.00  0.00     0.029 A 
ATOM     46  C   UNL     1       1.952 -13.687   9.687  1.00  0.00     0.049 A 
ATOM     47  H   UNL     1       0.358 -14.574   8.683  1.00  0.00     0.167 HD
ATOM     48  C   UNL     1      -3.008 -16.297   6.450  1.00  0.00     0.037 A 
ATOM     49  C   UNL     1       1.977 -14.216  10.925  1.00  0.00     0.037 A 
ATOM     50  C   UNL     1      -3.003 -16.981   7.716  1.00  0.00     0.049 A 
ATOM     51  C   UNL     1       0.967 -15.273  11.286  1.00  0.00     0.074 A 
ATOM     52  C   UNL     1      -3.841 -17.991   8.155  1.00  0.00     0.029 A 
ATOM     53  N   UNL     1      -2.114 -16.722   8.749  1.00  0.00    -0.354 N 
ATOM     54  N   UNL     1      -0.001 -15.781  10.562  1.00  0.00    -0.248 NA
ATOM     55  C   UNL     1       1.069 -15.846  12.635  1.00  0.00     0.031 C 
ATOM     56  C   UNL     1      -3.494 -18.305   9.473  1.00  0.00     0.029 A 
ATOM     57  C   UNL     1      -2.394 -17.542   9.831  1.00  0.00     0.049 A 
ATOM     58  H   UNL     1      -1.391 -16.054   8.718  1.00  0.00     0.167 HD
ATOM     59  C   UNL     1      -0.595 -16.759  11.349  1.00  0.00     0.074 A 
ATOM     60  C   UNL     1       0.134 -16.784  12.600  1.00  0.00     0.031 C 
ATOM     61  C   UNL     1      -1.648 -17.565  11.063  1.00  0.00     0.037 A 
BRANCH  48  62
ATOM     62  C   UNL     1      -4.073 -16.650   5.450  1.00  0.00     0.064 A 
ATOM     63  C   UNL     1      -3.769 -17.314   4.251  1.00  0.00     0.173 A 
ATOM     64  C   UNL     1      -5.420 -16.355   5.711  1.00  0.00     0.173 A 
ATOM     65  F   UNL     1      -2.497 -17.608   3.945  1.00  0.00    -0.203 F 
ATOM     66  C   UNL     1      -4.769 -17.641   3.338  1.00  0.00     0.198 A 
ATOM     67  C   UNL     1      -6.421 -16.715   4.812  1.00  0.00     0.198 A 
ATOM     68  F   UNL     1      -5.768 -15.725   6.842  1.00  0.00    -0.203 F 
ATOM     69  F   UNL     1      -4.447 -18.226   2.176  1.00  0.00    -0.200 F 
ATOM     70  C   UNL     1      -6.094 -17.350   3.623  1.00  0.00     0.200 A 
ATOM     71  F   UNL     1      -7.702 -16.446   5.096  1.00  0.00    -0.200 F 
ATOM     72  F   UNL     1      -7.056 -17.675   2.749  1.00  0.00    -0.200 F 
ENDBRANCH  48  62
BRANCH  49  73
ATOM     73  C   UNL     1       3.010 -13.783  11.903  1.00  0.00     0.064 A 
ATOM     74  C   UNL     1       4.010 -14.665  12.337  1.00  0.00     0.173 A 
ATOM     75  C   UNL     1       3.004 -12.489  12.445  1.00  0.00     0.173 A 
ATOM     76  F   UNL     1       4.050 -15.918  11.863  1.00  0.00    -0.203 F 
ATOM     77  C   UNL     1       4.941 -14.281  13.301  1.00  0.00     0.198 A 
ATOM     78  C   UNL     1       3.957 -12.096  13.383  1.00  0.00     0.198 A 
ATOM     79  F   UNL     1       2.074 -11.603  12.059  1.00  0.00    -0.203 F 
ATOM     80  F   UNL     1       5.846 -15.165  13.743  1.00  0.00    -0.200 F 
ATOM     81  C   UNL     1       4.916 -12.996  13.820  1.00  0.00     0.200 A 
ATOM     82  F   UNL     1       3.939 -10.847  13.869  1.00  0.00    -0.200 F 
ATOM     83  F   UNL     1       5.809 -12.629  14.748  1.00  0.00    -0.200 F 
ENDBRANCH  49  73
BRANCH  61  84
ATOM     84  C   UNL     1      -2.031 -18.587  12.097  1.00  0.00     0.064 A 
ATOM     85  C   UNL     1      -2.584 -18.225  13.334  1.00  0.00     0.173 A 
ATOM     86  C   UNL     1      -1.845 -19.954  11.838  1.00  0.00     0.173 A 
ATOM     87  F   UNL     1      -2.774 -16.932  13.638  1.00  0.00    -0.203 F 
ATOM     88  C   UNL     1      -2.890 -19.189  14.291  1.00  0.00     0.198 A 
ATOM     89  C   UNL     1      -2.190 -20.917  12.780  1.00  0.00     0.198 A 
ATOM     90  F   UNL     1      -1.332 -20.357  10.666  1.00  0.00    -0.203 F 
ATOM     91  F   UNL     1      -3.348 -18.815  15.494  1.00  0.00    -0.200 F 
ATOM     92  C   UNL     1      -2.698 -20.534  14.012  1.00  0.00     0.200 A 
ATOM     93  F   UNL     1      -2.022 -22.217  12.500  1.00  0.00    -0.200 F 
ATOM     94  F   UNL     1      -2.992 -21.460  14.934  1.00  0.00    -0.200 F 
ENDBRANCH  61  84
ENDBRANCH  35  36
ENDBRANCH  27  30
ENDBRANCH  25  26
ENDBRANCH  24  25
ENDBRANCH  23  24
ENDBRANCH   1  23
TORSDOF 15
