REMARK SMILES C[C@H]1C[C@@H]([NH+]2CC(CC(=O)NCCCCNC(=O)c3ccc(-c4c5nc(c(-c6c(F)c(F)c(F)c(F)c6F)c6ccc([nH]6)c(-c6c(F)c(F)c(F)c(F)c6F)c6nc(c(-c7c(F)c(F)c(F)c(F)c7F)c7ccc4[nH]7)C=C6)C=C5)cc3)C2)CS1
REMARK SMILES IDX 13 1 12 2 11 3 9 4 10 5 8 7 7 8 5 9 6 10 82 11 4 13 1 14
REMARK SMILES IDX 2 15 3 16 84 17 83 18 14 19 15 20 16 21 17 22 18 24 19 25
REMARK SMILES IDX 20 26 81 27 21 28 80 29 22 30 23 31 24 32 74 33 25 34 79 35
REMARK SMILES IDX 73 36 75 37 26 38 78 39 72 40 71 41 27 43 59 44 39 45 58 46
REMARK SMILES IDX 40 47 43 48 57 49 76 50 41 51 42 52 56 54 77 55 44 56 28 57
REMARK SMILES IDX 29 58 37 59 30 60 31 61 35 62 38 63 32 64 33 65 36 66 34 67
REMARK SMILES IDX 60 68 61 69 69 70 62 71 63 72 67 73 70 74 64 75 65 76 68 77
REMARK SMILES IDX 66 78 45 79 46 80 54 81 47 82 48 83 52 84 55 85 49 86 50 87
REMARK SMILES IDX 53 88 51 89
REMARK H PARENT 11 6 5 12 16 23 75 42 43 53
REMARK Flexibility Score: inf
ROOT
ATOM      1  C   UNL     1      -1.485   5.223  -3.042  1.00  0.00     0.023 C 
ENDROOT
BRANCH   1   2
ATOM      2  C   UNL     1      -2.957   5.194  -2.633  1.00  0.00     0.116 C 
BRANCH   2   3
ATOM      3  N   UNL     1      -3.462   3.839  -2.590  1.00  0.00    -0.356 N 
ATOM      4  C   UNL     1      -3.694   3.045  -1.509  1.00  0.00     0.220 C 
ATOM      5  O   UNL     1      -4.034   1.877  -1.700  1.00  0.00    -0.275 OA
ATOM      6  H   UNL     1      -3.666   3.434  -3.465  1.00  0.00     0.163 HD
BRANCH   4   7
ATOM      7  C   UNL     1      -3.489   3.581  -0.104  1.00  0.00     0.115 C 
BRANCH   7   8
ATOM      8  C   UNL     1      -2.055   3.407   0.369  1.00  0.00     0.108 C 
ATOM      9  N   UNL     1      -0.456   4.266   1.478  1.00  0.00    -0.331 N 
ATOM     10  C   UNL     1      -1.716   3.600   1.863  1.00  0.00     0.272 C 
ATOM     11  C   UNL     1      -1.036   4.561   0.157  1.00  0.00     0.272 C 
ATOM     12  H   UNL     1      -0.082   4.984   2.097  1.00  0.00     0.348 HD
BRANCH   9  13
ATOM     13  C   UNL     1       0.762   3.425   1.378  1.00  0.00     0.195 C 
ATOM     14  C   UNL     1      -0.369   0.290   1.430  1.00  0.00     0.019 C 
ATOM     15  C   UNL     1       0.977   0.908   1.084  1.00  0.00     0.049 C 
ATOM     16  C   UNL     1       0.921   2.254   0.374  1.00  0.00     0.080 C 
ATOM     17  S   UNL     1       1.931   1.285   2.575  1.00  0.00    -0.152 SA
ATOM     18  C   UNL     1       1.275   2.970   2.757  1.00  0.00     0.134 C 
ENDBRANCH   9  13
ENDBRANCH   7   8
ENDBRANCH   4   7
ENDBRANCH   2   3
ENDBRANCH   1   2
BRANCH   1  19
ATOM     19  C   UNL     1      -1.212   5.176  -4.539  1.00  0.00     0.023 C 
BRANCH  19  20
ATOM     20  C   UNL     1      -1.887   6.262  -5.359  1.00  0.00     0.116 C 
BRANCH  20  21
ATOM     21  N   UNL     1      -1.618   7.614  -4.890  1.00  0.00    -0.352 N 
ATOM     22  C   UNL     1      -1.396   8.748  -5.638  1.00  0.00     0.251 C 
ATOM     23  H   UNL     1      -1.591   7.731  -3.913  1.00  0.00     0.163 HD
ATOM     24  O   UNL     1      -1.115   9.810  -5.101  1.00  0.00    -0.269 OA
BRANCH  22  25
ATOM     25  C   UNL     1      -1.450   8.645  -7.110  1.00  0.00     0.039 A 
ATOM     26  C   UNL     1      -0.361   9.096  -7.857  1.00  0.00     0.014 A 
ATOM     27  C   UNL     1      -2.528   8.011  -7.733  1.00  0.00     0.014 A 
ATOM     28  C   UNL     1      -0.307   8.822  -9.225  1.00  0.00     0.010 A 
ATOM     29  C   UNL     1      -2.434   7.666  -9.075  1.00  0.00     0.010 A 
ATOM     30  C   UNL     1      -1.317   8.057  -9.831  1.00  0.00    -0.014 A 
BRANCH  30  31
ATOM     31  C   UNL     1      -1.227   7.634 -11.250  1.00  0.00     0.031 A 
ATOM     32  C   UNL     1      -2.267   8.091 -12.232  1.00  0.00     0.074 A 
ATOM     33  C   UNL     1      -0.275   6.756 -11.626  1.00  0.00     0.049 A 
ATOM     34  N   UNL     1      -2.449   7.725 -13.475  1.00  0.00    -0.248 NA
ATOM     35  C   UNL     1      -3.260   9.060 -11.740  1.00  0.00     0.031 C 
ATOM     36  C   UNL     1       0.752   6.189 -10.749  1.00  0.00     0.029 A 
ATOM     37  N   UNL     1      -0.032   6.167 -12.842  1.00  0.00    -0.354 N 
ATOM     38  C   UNL     1      -3.590   8.393 -13.900  1.00  0.00     0.074 A 
ATOM     39  C   UNL     1      -4.082   9.155 -12.774  1.00  0.00     0.031 C 
ATOM     40  C   UNL     1       1.518   5.343 -11.457  1.00  0.00     0.029 A 
ATOM     41  C   UNL     1       1.016   5.279 -12.826  1.00  0.00     0.049 A 
ATOM     42  H   UNL     1      -0.560   6.362 -13.650  1.00  0.00     0.167 HD
ATOM     43  C   UNL     1      -4.161   8.386 -15.127  1.00  0.00     0.037 A 
ATOM     44  C   UNL     1       1.506   4.491 -13.802  1.00  0.00     0.037 A 
ATOM     45  C   UNL     1      -3.636   7.672 -16.259  1.00  0.00     0.049 A 
ATOM     46  C   UNL     1       0.873   4.535 -15.166  1.00  0.00     0.074 A 
ATOM     47  C   UNL     1      -4.088   7.679 -17.567  1.00  0.00     0.029 A 
ATOM     48  N   UNL     1      -2.538   6.826 -16.218  1.00  0.00    -0.354 N 
ATOM     49  N   UNL     1      -0.158   5.232 -15.577  1.00  0.00    -0.248 NA
ATOM     50  C   UNL     1       1.474   3.686 -16.205  1.00  0.00     0.031 C 
ATOM     51  C   UNL     1      -3.285   6.809 -18.311  1.00  0.00     0.029 A 
ATOM     52  C   UNL     1      -2.309   6.292 -17.474  1.00  0.00     0.049 A 
ATOM     53  H   UNL     1      -2.002   6.635 -15.415  1.00  0.00     0.167 HD
ATOM     54  C   UNL     1      -0.314   4.926 -16.922  1.00  0.00     0.074 A 
ATOM     55  C   UNL     1       0.739   3.993 -17.264  1.00  0.00     0.031 C 
ATOM     56  C   UNL     1      -1.248   5.373 -17.796  1.00  0.00     0.037 A 
BRANCH  43  57
ATOM     57  C   UNL     1      -5.414   9.186 -15.318  1.00  0.00     0.064 A 
ATOM     58  C   UNL     1      -5.391  10.588 -15.359  1.00  0.00     0.173 A 
ATOM     59  C   UNL     1      -6.643   8.541 -15.521  1.00  0.00     0.173 A 
ATOM     60  F   UNL     1      -4.242  11.250 -15.156  1.00  0.00    -0.203 F 
ATOM     61  C   UNL     1      -6.557  11.316 -15.579  1.00  0.00     0.198 A 
ATOM     62  C   UNL     1      -7.803   9.272 -15.767  1.00  0.00     0.198 A 
ATOM     63  F   UNL     1      -6.717   7.202 -15.493  1.00  0.00    -0.203 F 
ATOM     64  F   UNL     1      -6.518  12.655 -15.578  1.00  0.00    -0.200 F 
ATOM     65  C   UNL     1      -7.759  10.658 -15.792  1.00  0.00     0.200 A 
ATOM     66  F   UNL     1      -8.962   8.634 -15.982  1.00  0.00    -0.200 F 
ATOM     67  F   UNL     1      -8.878  11.360 -16.017  1.00  0.00    -0.200 F 
ENDBRANCH  43  57
BRANCH  44  68
ATOM     68  C   UNL     1       2.662   3.597 -13.533  1.00  0.00     0.064 A 
ATOM     69  C   UNL     1       3.916   3.849 -14.108  1.00  0.00     0.173 A 
ATOM     70  C   UNL     1       2.533   2.461 -12.721  1.00  0.00     0.173 A 
ATOM     71  F   UNL     1       4.082   4.911 -14.909  1.00  0.00    -0.203 F 
ATOM     72  C   UNL     1       4.989   2.984 -13.903  1.00  0.00     0.198 A 
ATOM     73  C   UNL     1       3.615   1.611 -12.495  1.00  0.00     0.198 A 
ATOM     74  F   UNL     1       1.357   2.178 -12.144  1.00  0.00    -0.203 F 
ATOM     75  F   UNL     1       6.161   3.220 -14.508  1.00  0.00    -0.200 F 
ATOM     76  C   UNL     1       4.839   1.868 -13.094  1.00  0.00     0.200 A 
ATOM     77  F   UNL     1       3.469   0.541 -11.703  1.00  0.00    -0.200 F 
ATOM     78  F   UNL     1       5.870   1.034 -12.901  1.00  0.00    -0.200 F 
ENDBRANCH  44  68
BRANCH  56  79
ATOM     79  C   UNL     1      -1.155   4.885 -19.210  1.00  0.00     0.064 A 
ATOM     80  C   UNL     1      -1.514   3.574 -19.556  1.00  0.00     0.173 A 
ATOM     81  C   UNL     1      -0.745   5.750 -20.234  1.00  0.00     0.173 A 
ATOM     82  F   UNL     1      -1.898   2.706 -18.608  1.00  0.00    -0.203 F 
ATOM     83  C   UNL     1      -1.445   3.142 -20.878  1.00  0.00     0.198 A 
ATOM     84  C   UNL     1      -0.703   5.322 -21.558  1.00  0.00     0.198 A 
ATOM     85  F   UNL     1      -0.397   7.015 -19.953  1.00  0.00    -0.203 F 
ATOM     86  F   UNL     1      -1.753   1.873 -21.182  1.00  0.00    -0.200 F 
ATOM     87  C   UNL     1      -1.047   4.017 -21.877  1.00  0.00     0.200 A 
ATOM     88  F   UNL     1      -0.329   6.172 -22.524  1.00  0.00    -0.200 F 
ATOM     89  F   UNL     1      -0.988   3.600 -23.150  1.00  0.00    -0.200 F 
ENDBRANCH  56  79
ENDBRANCH  30  31
ENDBRANCH  22  25
ENDBRANCH  20  21
ENDBRANCH  19  20
ENDBRANCH   1  19
TORSDOF 13
