REMARK SMILES O=C(NCCCCNC(=O)[C@@H]1CCn2c(C(=O)c3ccccc3)ccc21)c1ccc(-c2c3nc(c(-c4c(F)c(F)c(F)c(F)c4F)c4ccc([nH]4)c(-c4c(F)c(F)c(F)c(F)c4F)c4nc(c(-c5c(F)c(F)c(F)c(F)c5F)c5ccc2[nH]5)C=C4)C=C3)cc1
REMARK SMILES IDX 5 1 4 2 3 3 1 4 2 5 27 7 28 8 89 9 29 10 88 11 30 12 31 13
REMARK SMILES IDX 32 14 82 15 33 16 87 17 81 18 83 19 34 20 86 21 80 22 79 23
REMARK SMILES IDX 35 25 67 26 47 27 66 28 48 29 51 30 65 31 84 32 49 33 50 34
REMARK SMILES IDX 64 36 85 37 52 38 36 39 37 40 45 41 38 42 39 43 43 44 46 45
REMARK SMILES IDX 40 46 41 47 44 48 42 49 68 50 69 51 77 52 70 53 71 54 75 55
REMARK SMILES IDX 78 56 72 57 73 58 76 59 74 60 53 61 54 62 62 63 55 64 56 65
REMARK SMILES IDX 60 66 63 67 57 68 58 69 61 70 59 71 6 72 7 73 8 74 9 75
REMARK SMILES IDX 10 77 11 78 12 79 26 80 13 81 14 82 25 83 15 84 24 85 16 86
REMARK SMILES IDX 17 87 18 88 19 89 23 90 20 91 22 92 21 93
REMARK H PARENT 3 6 83 24 51 35 8 76
REMARK Flexibility Score: inf
ROOT
ATOM      1  C   UNL     1       4.897  -2.428  -1.367  1.00  0.00     0.023 C 
ENDROOT
BRANCH   1   2
ATOM      2  C   UNL     1       4.530  -1.118  -0.687  1.00  0.00     0.116 C 
BRANCH   2   3
ATOM      3  N   UNL     1       3.126  -0.755  -0.814  1.00  0.00    -0.352 N 
ATOM      4  O   UNL     1       1.185   0.212  -0.158  1.00  0.00    -0.269 OA
ATOM      5  C   UNL     1       2.388   0.053   0.020  1.00  0.00     0.251 C 
ATOM      6  H   UNL     1       2.648  -1.133  -1.588  1.00  0.00     0.163 HD
BRANCH   5   7
ATOM      7  C   UNL     1       3.064   0.685   1.171  1.00  0.00     0.039 A 
ATOM      8  C   UNL     1       4.262   1.376   0.989  1.00  0.00     0.014 A 
ATOM      9  C   UNL     1       2.529   0.515   2.450  1.00  0.00     0.014 A 
ATOM     10  C   UNL     1       5.008   1.756   2.096  1.00  0.00     0.010 A 
ATOM     11  C   UNL     1       3.241   0.973   3.561  1.00  0.00     0.010 A 
ATOM     12  C   UNL     1       4.506   1.557   3.393  1.00  0.00    -0.014 A 
BRANCH  12  13
ATOM     13  C   UNL     1       5.321   1.995   4.552  1.00  0.00     0.031 A 
ATOM     14  C   UNL     1       5.896   0.998   5.519  1.00  0.00     0.074 A 
ATOM     15  C   UNL     1       5.584   3.308   4.693  1.00  0.00     0.049 A 
ATOM     16  N   UNL     1       6.669   1.207   6.555  1.00  0.00    -0.248 NA
ATOM     17  C   UNL     1       5.554  -0.416   5.303  1.00  0.00     0.031 C 
ATOM     18  C   UNL     1       5.074   4.364   3.816  1.00  0.00     0.029 A 
ATOM     19  N   UNL     1       6.366   3.975   5.600  1.00  0.00    -0.354 N 
ATOM     20  C   UNL     1       6.882  -0.039   7.130  1.00  0.00     0.074 A 
ATOM     21  C   UNL     1       6.145  -1.000   6.337  1.00  0.00     0.031 C 
ATOM     22  C   UNL     1       5.604   5.537   4.189  1.00  0.00     0.029 A 
ATOM     23  C   UNL     1       6.443   5.325   5.364  1.00  0.00     0.049 A 
ATOM     24  H   UNL     1       6.826   3.530   6.347  1.00  0.00     0.167 HD
ATOM     25  C   UNL     1       7.628  -0.349   8.218  1.00  0.00     0.037 A 
ATOM     26  C   UNL     1       7.113   6.287   6.023  1.00  0.00     0.037 A 
ATOM     27  C   UNL     1       8.388   0.608   8.981  1.00  0.00     0.049 A 
ATOM     28  C   UNL     1       7.935   5.912   7.221  1.00  0.00     0.074 A 
ATOM     29  C   UNL     1       9.214   0.386  10.070  1.00  0.00     0.029 A 
ATOM     30  N   UNL     1       8.413   1.973   8.734  1.00  0.00    -0.354 N 
ATOM     31  N   UNL     1       8.149   4.727   7.737  1.00  0.00    -0.248 NA
ATOM     32  C   UNL     1       8.602   7.010   7.931  1.00  0.00     0.031 C 
ATOM     33  C   UNL     1       9.709   1.621  10.505  1.00  0.00     0.029 A 
ATOM     34  C   UNL     1       9.224   2.608   9.663  1.00  0.00     0.049 A 
ATOM     35  H   UNL     1       7.927   2.425   8.007  1.00  0.00     0.167 HD
ATOM     36  C   UNL     1       8.984   4.932   8.825  1.00  0.00     0.074 A 
ATOM     37  C   UNL     1       9.255   6.355   8.880  1.00  0.00     0.031 C 
ATOM     38  C   UNL     1       9.479   4.025   9.702  1.00  0.00     0.037 A 
BRANCH  25  39
ATOM     39  C   UNL     1       7.647  -1.781   8.666  1.00  0.00     0.064 A 
ATOM     40  C   UNL     1       8.348  -2.769   7.959  1.00  0.00     0.173 A 
ATOM     41  C   UNL     1       6.990  -2.160   9.847  1.00  0.00     0.173 A 
ATOM     42  F   UNL     1       8.982  -2.461   6.818  1.00  0.00    -0.203 F 
ATOM     43  C   UNL     1       8.373  -4.088   8.407  1.00  0.00     0.198 A 
ATOM     44  C   UNL     1       7.037  -3.475  10.304  1.00  0.00     0.198 A 
ATOM     45  F   UNL     1       6.309  -1.253  10.563  1.00  0.00    -0.203 F 
ATOM     46  F   UNL     1       9.017  -5.024   7.696  1.00  0.00    -0.200 F 
ATOM     47  C   UNL     1       7.723  -4.438   9.582  1.00  0.00     0.200 A 
ATOM     48  F   UNL     1       6.417  -3.809  11.445  1.00  0.00    -0.200 F 
ATOM     49  F   UNL     1       7.754  -5.707  10.014  1.00  0.00    -0.200 F 
ENDBRANCH  25  39
BRANCH  26  50
ATOM     50  C   UNL     1       7.041   7.689   5.545  1.00  0.00     0.064 A 
ATOM     51  C   UNL     1       8.152   8.303   4.952  1.00  0.00     0.173 A 
ATOM     52  C   UNL     1       5.856   8.433   5.643  1.00  0.00     0.173 A 
ATOM     53  F   UNL     1       9.312   7.636   4.852  1.00  0.00    -0.203 F 
ATOM     54  C   UNL     1       8.083   9.612   4.481  1.00  0.00     0.198 A 
ATOM     55  C   UNL     1       5.780   9.732   5.147  1.00  0.00     0.198 A 
ATOM     56  F   UNL     1       4.764   7.886   6.197  1.00  0.00    -0.203 F 
ATOM     57  F   UNL     1       9.168  10.187   3.945  1.00  0.00    -0.200 F 
ATOM     58  C   UNL     1       6.895  10.322   4.572  1.00  0.00     0.200 A 
ATOM     59  F   UNL     1       4.626  10.408   5.221  1.00  0.00    -0.200 F 
ATOM     60  F   UNL     1       6.825  11.577   4.107  1.00  0.00    -0.200 F 
ENDBRANCH  26  50
BRANCH  38  61
ATOM     61  C   UNL     1      10.379   4.548  10.780  1.00  0.00     0.064 A 
ATOM     62  C   UNL     1       9.871   5.276  11.867  1.00  0.00     0.173 A 
ATOM     63  C   UNL     1      11.760   4.309  10.732  1.00  0.00     0.173 A 
ATOM     64  F   UNL     1       8.560   5.545  11.945  1.00  0.00    -0.203 F 
ATOM     65  C   UNL     1      10.720   5.769  12.854  1.00  0.00     0.198 A 
ATOM     66  C   UNL     1      12.602   4.783  11.734  1.00  0.00     0.198 A 
ATOM     67  F   UNL     1      12.291   3.616   9.714  1.00  0.00    -0.203 F 
ATOM     68  F   UNL     1      10.222   6.504  13.857  1.00  0.00    -0.200 F 
ATOM     69  C   UNL     1      12.083   5.518  12.789  1.00  0.00     0.200 A 
ATOM     70  F   UNL     1      13.917   4.534  11.674  1.00  0.00    -0.200 F 
ATOM     71  F   UNL     1      12.899   5.996  13.739  1.00  0.00    -0.200 F 
ENDBRANCH  38  61
ENDBRANCH  12  13
ENDBRANCH   5   7
ENDBRANCH   2   3
ENDBRANCH   1   2
BRANCH   1  72
ATOM     72  C   UNL     1       4.585  -2.485  -2.862  1.00  0.00     0.023 C 
BRANCH  72  73
ATOM     73  C   UNL     1       5.334  -1.462  -3.720  1.00  0.00     0.116 C 
BRANCH  73  74
ATOM     74  N   UNL     1       6.671  -1.907  -4.042  1.00  0.00    -0.356 N 
ATOM     75  C   UNL     1       7.172  -2.683  -5.037  1.00  0.00     0.229 C 
ATOM     76  H   UNL     1       7.356  -1.582  -3.413  1.00  0.00     0.163 HD
ATOM     77  O   UNL     1       8.405  -2.814  -5.019  1.00  0.00    -0.274 OA
BRANCH  75  78
ATOM     78  C   UNL     1       6.345  -3.352  -6.150  1.00  0.00     0.127 C 
ATOM     79  C   UNL     1       4.807  -3.249  -6.218  1.00  0.00     0.042 C 
ATOM     80  C   UNL     1       6.521  -4.840  -6.118  1.00  0.00     0.031 A 
ATOM     81  C   UNL     1       4.308  -4.571  -6.811  1.00  0.00     0.124 C 
ATOM     82  N   UNL     1       5.370  -5.495  -6.461  1.00  0.00    -0.341 N 
ATOM     83  C   UNL     1       7.491  -5.776  -5.885  1.00  0.00     0.025 A 
ATOM     84  C   UNL     1       5.509  -6.848  -6.372  1.00  0.00     0.090 A 
ATOM     85  C   UNL     1       6.854  -7.037  -6.043  1.00  0.00     0.032 A 
BRANCH  84  86
ATOM     86  C   UNL     1       4.523  -7.906  -6.534  1.00  0.00     0.209 C 
ATOM     87  O   UNL     1       4.787  -9.100  -6.408  1.00  0.00    -0.287 OA
BRANCH  86  88
ATOM     88  C   UNL     1       3.107  -7.575  -6.782  1.00  0.00     0.024 A 
ATOM     89  C   UNL     1       2.176  -7.820  -5.766  1.00  0.00     0.012 A 
ATOM     90  C   UNL     1       2.700  -7.036  -8.006  1.00  0.00     0.012 A 
ATOM     91  C   UNL     1       0.839  -7.473  -5.959  1.00  0.00     0.001 A 
ATOM     92  C   UNL     1       1.363  -6.678  -8.187  1.00  0.00     0.001 A 
ATOM     93  C   UNL     1       0.438  -6.891  -7.163  1.00  0.00     0.000 A 
ENDBRANCH  86  88
ENDBRANCH  84  86
ENDBRANCH  75  78
ENDBRANCH  73  74
ENDBRANCH  72  73
ENDBRANCH   1  72
TORSDOF 13
