REMARK SMILES CCc1ccc(OCC(=O)Nc2cc(C)c(O)c(C(=O)NCCCCNC(=O)c3ccc(-c4c5nc(c(-c6c(F)c(F)c(F)c(F)c6F)c6ccc([nH]6)c(-c6c(F)c(F)c(F)c(F)c6F)c6nc(c(-c7c(F)c(F)c(F)c(F)c7F)c7ccc4[nH]7)C=C6)C=C5)cc3)c2)cc1
REMARK SMILES IDX 22 1 21 2 19 3 20 4 18 6 12 7 13 8 92 9 14 10 15 11 16 12
REMARK SMILES IDX 11 13 9 14 10 15 8 17 7 18 6 19 3 20 4 21 94 22 5 23 93 24
REMARK SMILES IDX 2 25 1 26 17 27 23 29 24 30 25 31 26 32 27 33 28 35 29 36
REMARK SMILES IDX 30 37 91 38 31 39 90 40 32 41 33 42 34 43 84 44 35 45 89 46
REMARK SMILES IDX 83 47 85 48 36 49 88 50 82 51 81 52 37 54 69 55 49 56 68 57
REMARK SMILES IDX 50 58 53 59 67 60 86 61 51 62 52 63 66 65 87 66 54 67 38 68
REMARK SMILES IDX 39 69 47 70 40 71 41 72 45 73 48 74 42 75 43 76 46 77 44 78
REMARK SMILES IDX 70 79 71 80 79 81 72 82 73 83 77 84 80 85 74 86 75 87 78 88
REMARK SMILES IDX 76 89 55 90 56 91 64 92 57 93 58 94 62 95 65 96 59 97 60 98
REMARK SMILES IDX 63 99 61 100
REMARK H PARENT 21 5 11 16 17 28 26 34 85 53 53 64
REMARK Flexibility Score: inf
ROOT
ATOM      1  C   UNL     1       2.520   1.940   6.181  1.00  0.00     0.116 C 
ENDROOT
BRANCH   1   2
ATOM      2  N   UNL     1       3.168   2.200   7.432  1.00  0.00    -0.352 N 
ATOM      3  C   UNL     1       4.069   3.193   7.739  1.00  0.00     0.255 C 
ATOM      4  O   UNL     1       4.502   3.224   8.895  1.00  0.00    -0.269 OA
ATOM      5  H   UNL     1       2.938   1.588   8.168  1.00  0.00     0.163 HD
BRANCH   3   6
ATOM      6  C   UNL     1       4.647   4.162   6.742  1.00  0.00     0.083 A 
ATOM      7  C   UNL     1       4.605   5.530   4.711  1.00  0.00     0.042 A 
ATOM      8  C   UNL     1       5.964   5.821   4.924  1.00  0.00     0.033 A 
ATOM      9  C   UNL     1       3.934   4.740   5.655  1.00  0.00     0.043 A 
ATOM     10  C   UNL     1       6.670   5.345   6.034  1.00  0.00    -0.006 A 
ATOM     11  C   UNL     1       8.098   5.776   6.218  1.00  0.00     0.048 C 
ATOM     12  C   UNL     1       6.006   4.507   6.930  1.00  0.00     0.131 A 
BRANCH   7  13
ATOM     13  N   UNL     1       4.109   6.031   3.491  1.00  0.00    -0.323 N 
ATOM     14  C   UNL     1       2.910   6.193   2.873  1.00  0.00     0.262 C 
ATOM     15  O   UNL     1       2.940   6.570   1.694  1.00  0.00    -0.271 OA
ATOM     16  H   UNL     1       4.843   6.358   2.922  1.00  0.00     0.170 HD
BRANCH  14  17
ATOM     17  C   UNL     1       1.574   6.046   3.575  1.00  0.00     0.329 C 
BRANCH  17  18
ATOM     18  O   UNL     1       1.042   4.758   3.756  1.00  0.00    -0.484 OA
BRANCH  18  19
ATOM     19  C   UNL     1       1.055   3.879   2.718  1.00  0.00     0.120 A 
ATOM     20  C   UNL     1       0.748   1.620   1.048  1.00  0.00    -0.048 A 
ATOM     21  C   UNL     1       1.204   1.476   2.345  1.00  0.00     0.007 A 
ATOM     22  C   UNL     1       0.537   2.925   0.562  1.00  0.00     0.007 A 
ATOM     23  C   UNL     1       1.343   2.598   3.139  1.00  0.00     0.047 A 
ATOM     24  C   UNL     1       0.690   4.061   1.397  1.00  0.00     0.047 A 
BRANCH  20  25
ATOM     25  C   UNL     1       0.381   0.360   0.307  1.00  0.00     0.032 C 
ATOM     26  C   UNL     1       1.152   0.139  -0.977  1.00  0.00     0.009 C 
ENDBRANCH  20  25
ENDBRANCH  18  19
ENDBRANCH  17  18
ENDBRANCH  14  17
ENDBRANCH   7  13
BRANCH  12  27
ATOM     27  O   UNL     1       6.748   4.033   7.985  1.00  0.00    -0.507 OA
ATOM     28  H   UNL     1       7.646   4.284   8.077  1.00  0.00     0.293 HD
ENDBRANCH  12  27
ENDBRANCH   3   6
ENDBRANCH   1   2
BRANCH   1  29
ATOM     29  C   UNL     1       2.372   0.475   5.775  1.00  0.00     0.023 C 
BRANCH  29  30
ATOM     30  C   UNL     1       1.010  -0.224   5.896  1.00  0.00     0.023 C 
BRANCH  30  31
ATOM     31  C   UNL     1      -0.295   0.564   6.040  1.00  0.00     0.116 C 
BRANCH  31  32
ATOM     32  N   UNL     1      -0.893   1.094   4.815  1.00  0.00    -0.352 N 
ATOM     33  C   UNL     1      -2.061   0.794   4.143  1.00  0.00     0.251 C 
ATOM     34  H   UNL     1      -0.359   1.802   4.387  1.00  0.00     0.163 HD
ATOM     35  O   UNL     1      -2.306   1.290   3.054  1.00  0.00    -0.269 OA
BRANCH  33  36
ATOM     36  C   UNL     1      -3.041  -0.122   4.748  1.00  0.00     0.039 A 
ATOM     37  C   UNL     1      -3.735  -1.038   3.952  1.00  0.00     0.014 A 
ATOM     38  C   UNL     1      -3.278  -0.056   6.117  1.00  0.00     0.014 A 
ATOM     39  C   UNL     1      -4.588  -1.959   4.560  1.00  0.00     0.010 A 
ATOM     40  C   UNL     1      -3.992  -1.062   6.732  1.00  0.00     0.010 A 
ATOM     41  C   UNL     1      -4.677  -2.006   5.960  1.00  0.00    -0.014 A 
BRANCH  41  42
ATOM     42  C   UNL     1      -5.514  -2.997   6.668  1.00  0.00     0.031 A 
ATOM     43  C   UNL     1      -6.612  -2.511   7.573  1.00  0.00     0.074 A 
ATOM     44  C   UNL     1      -5.205  -4.303   6.584  1.00  0.00     0.049 A 
ATOM     45  N   UNL     1      -7.373  -3.188   8.393  1.00  0.00    -0.248 NA
ATOM     46  C   UNL     1      -6.846  -1.056   7.603  1.00  0.00     0.031 C 
ATOM     47  C   UNL     1      -4.114  -4.869   5.787  1.00  0.00     0.029 A 
ATOM     48  N   UNL     1      -5.776  -5.393   7.185  1.00  0.00    -0.354 N 
ATOM     49  C   UNL     1      -8.150  -2.240   9.046  1.00  0.00     0.074 A 
ATOM     50  C   UNL     1      -7.703  -0.940   8.604  1.00  0.00     0.031 C 
ATOM     51  C   UNL     1      -4.126  -6.205   5.910  1.00  0.00     0.029 A 
ATOM     52  C   UNL     1      -5.193  -6.584   6.829  1.00  0.00     0.049 A 
ATOM     53  H   UNL     1      -6.532  -5.329   7.812  1.00  0.00     0.167 HD
ATOM     54  C   UNL     1      -9.176  -2.440   9.906  1.00  0.00     0.037 A 
ATOM     55  C   UNL     1      -5.501  -7.838   7.205  1.00  0.00     0.037 A 
ATOM     56  C   UNL     1      -9.622  -3.745  10.310  1.00  0.00     0.049 A 
ATOM     57  C   UNL     1      -6.648  -8.038   8.158  1.00  0.00     0.074 A 
ATOM     58  C   UNL     1     -10.674  -4.085  11.139  1.00  0.00     0.029 A 
ATOM     59  N   UNL     1      -9.031  -4.935   9.900  1.00  0.00    -0.354 N 
ATOM     60  N   UNL     1      -7.423  -7.143   8.723  1.00  0.00    -0.248 NA
ATOM     61  C   UNL     1      -6.971  -9.424   8.514  1.00  0.00     0.031 C 
ATOM     62  C   UNL     1     -10.691  -5.478  11.269  1.00  0.00     0.029 A 
ATOM     63  C   UNL     1      -9.690  -6.010  10.469  1.00  0.00     0.049 A 
ATOM     64  H   UNL     1      -8.258  -5.002   9.294  1.00  0.00     0.167 HD
ATOM     65  C   UNL     1      -8.353  -7.856   9.466  1.00  0.00     0.074 A 
ATOM     66  C   UNL     1      -8.047  -9.260   9.270  1.00  0.00     0.031 C 
ATOM     67  C   UNL     1      -9.371  -7.397  10.237  1.00  0.00     0.037 A 
BRANCH  54  68
ATOM     68  C   UNL     1      -9.872  -1.220  10.443  1.00  0.00     0.064 A 
ATOM     69  C   UNL     1     -10.595  -0.353   9.604  1.00  0.00     0.173 A 
ATOM     70  C   UNL     1      -9.803  -0.898  11.806  1.00  0.00     0.173 A 
ATOM     71  F   UNL     1     -10.682  -0.602   8.289  1.00  0.00    -0.203 F 
ATOM     72  C   UNL     1     -11.172   0.813  10.100  1.00  0.00     0.198 A 
ATOM     73  C   UNL     1     -10.418   0.249  12.306  1.00  0.00     0.198 A 
ATOM     74  F   UNL     1      -9.130  -1.688  12.656  1.00  0.00    -0.203 F 
ATOM     75  F   UNL     1     -11.784   1.663   9.264  1.00  0.00    -0.200 F 
ATOM     76  C   UNL     1     -11.089   1.110  11.451  1.00  0.00     0.200 A 
ATOM     77  F   UNL     1     -10.347   0.528  13.614  1.00  0.00    -0.200 F 
ATOM     78  F   UNL     1     -11.642   2.234  11.927  1.00  0.00    -0.200 F 
ENDBRANCH  54  68
BRANCH  55  79
ATOM     79  C   UNL     1      -4.766  -8.992   6.624  1.00  0.00     0.064 A 
ATOM     80  C   UNL     1      -5.404  -9.868   5.734  1.00  0.00     0.173 A 
ATOM     81  C   UNL     1      -3.420  -9.241   6.929  1.00  0.00     0.173 A 
ATOM     82  F   UNL     1      -6.694  -9.678   5.418  1.00  0.00    -0.203 F 
ATOM     83  C   UNL     1      -4.734 -10.962   5.192  1.00  0.00     0.198 A 
ATOM     84  C   UNL     1      -2.741 -10.319   6.363  1.00  0.00     0.198 A 
ATOM     85  F   UNL     1      -2.758  -8.427   7.763  1.00  0.00    -0.203 F 
ATOM     86  F   UNL     1      -5.383 -11.808   4.380  1.00  0.00    -0.200 F 
ATOM     87  C   UNL     1      -3.401 -11.184   5.503  1.00  0.00     0.200 A 
ATOM     88  F   UNL     1      -1.448 -10.519   6.650  1.00  0.00    -0.200 F 
ATOM     89  F   UNL     1      -2.755 -12.234   4.977  1.00  0.00    -0.200 F 
ENDBRANCH  55  79
BRANCH  67  90
ATOM     90  C   UNL     1     -10.264  -8.425  10.868  1.00  0.00     0.064 A 
ATOM     91  C   UNL     1      -9.824  -9.254  11.910  1.00  0.00     0.173 A 
ATOM     92  C   UNL     1     -11.594  -8.557  10.438  1.00  0.00     0.173 A 
ATOM     93  F   UNL     1      -8.558  -9.175  12.347  1.00  0.00    -0.203 F 
ATOM     94  C   UNL     1     -10.671 -10.204  12.472  1.00  0.00     0.198 A 
ATOM     95  C   UNL     1     -12.449  -9.481  11.030  1.00  0.00     0.198 A 
ATOM     96  F   UNL     1     -12.067  -7.780   9.452  1.00  0.00    -0.203 F 
ATOM     97  F   UNL     1     -10.211 -11.029  13.423  1.00  0.00    -0.200 F 
ATOM     98  C   UNL     1     -11.984 -10.311  12.037  1.00  0.00     0.200 A 
ATOM     99  F   UNL     1     -13.722  -9.569  10.621  1.00  0.00    -0.200 F 
ATOM    100  F   UNL     1     -12.800 -11.223  12.585  1.00  0.00    -0.200 F 
ENDBRANCH  67  90
ENDBRANCH  41  42
ENDBRANCH  33  36
ENDBRANCH  31  32
ENDBRANCH  30  31
ENDBRANCH  29  30
ENDBRANCH   1  29
TORSDOF 17
