REMARK SMILES O=C(C[C@@H](c1cccc([N+](=O)[O-])c1)N1Cc2ccccc2C1=O)NCCCCNC(=O)c1ccc(-c2c3nc(c(-c4c(F)c(F)c(F)c(F)c4F)c4ccc([nH]4)c(-c4c(F)c(F)c(F)c(F)c4F)c4nc(c(-c5c(F)c(F)c(F)c(F)c5F)c5ccc2[nH]5)C=C4)C=C3)cc1
REMARK SMILES IDX 26 1 25 2 24 3 1 4 2 5 3 7 4 8 5 9 6 10 13 11 7 12 9 13 8 14
REMARK SMILES IDX 10 15 11 16 12 17 14 18 15 19 22 20 16 21 21 22 23 23 17 24
REMARK SMILES IDX 20 25 18 26 19 27 27 28 28 29 29 30 30 31 31 33 32 34 33 35
REMARK SMILES IDX 94 36 34 37 93 38 35 39 36 40 37 41 87 42 38 43 92 44 86 45
REMARK SMILES IDX 88 46 39 47 91 48 85 49 84 50 40 52 72 53 52 54 71 55 53 56
REMARK SMILES IDX 56 57 70 58 89 59 54 60 55 61 69 63 90 64 57 65 41 66 42 67
REMARK SMILES IDX 50 68 43 69 44 70 48 71 51 72 45 73 46 74 49 75 47 76 73 77
REMARK SMILES IDX 74 78 82 79 75 80 76 81 80 82 83 83 77 84 78 85 81 86 79 87
REMARK SMILES IDX 58 88 59 89 67 90 60 91 61 92 65 93 68 94 62 95 63 96 66 97
REMARK SMILES IDX 64 98
REMARK H PARENT 24 6 29 32 88 51 56 62
REMARK Flexibility Score: inf
ROOT
ATOM      1  C   UNL     1       1.876  -2.257   2.923  1.00  0.00     0.023 C 
ENDROOT
BRANCH   1   2
ATOM      2  C   UNL     1       1.559  -0.857   2.391  1.00  0.00     0.116 C 
BRANCH   2   3
ATOM      3  N   UNL     1       2.203  -0.597   1.121  1.00  0.00    -0.356 N 
ATOM      4  O   UNL     1       0.921   1.217   0.526  1.00  0.00    -0.275 OA
ATOM      5  C   UNL     1       1.849   0.453   0.298  1.00  0.00     0.222 C 
ATOM      6  H   UNL     1       2.928  -1.196   0.832  1.00  0.00     0.163 HD
BRANCH   5   7
ATOM      7  C   UNL     1       2.737   0.582  -0.923  1.00  0.00     0.130 C 
BRANCH   7   8
ATOM      8  C   UNL     1       3.901   1.557  -0.682  1.00  0.00     0.125 C 
BRANCH   8   9
ATOM      9  C   UNL     1       4.753   1.222   0.564  1.00  0.00    -0.018 A 
ATOM     10  C   UNL     1       5.390  -0.024   0.716  1.00  0.00     0.006 A 
ATOM     11  C   UNL     1       5.072   2.255   1.468  1.00  0.00     0.091 A 
ATOM     12  C   UNL     1       6.342  -0.229   1.716  1.00  0.00     0.007 A 
ATOM     13  C   UNL     1       6.038   2.047   2.460  1.00  0.00     0.269 A 
ATOM     14  C   UNL     1       6.676   0.808   2.584  1.00  0.00     0.085 A 
BRANCH  13  15
ATOM     15  N   UNL     1       6.426   3.147   3.352  1.00  0.00     0.062 N 
ATOM     16  O   UNL     1       7.154   2.865   4.316  1.00  0.00    -0.258 OA
ATOM     17  O   UNL     1       5.997   4.280   3.101  1.00  0.00    -0.258 OA
ENDBRANCH  13  15
ENDBRANCH   8   9
BRANCH   8  18
ATOM     18  N   UNL     1       4.819   1.699  -1.843  1.00  0.00    -0.327 N 
ATOM     19  C   UNL     1       5.269   0.561  -2.639  1.00  0.00     0.157 C 
ATOM     20  C   UNL     1       5.902   2.586  -1.658  1.00  0.00     0.255 C 
ATOM     21  C   UNL     1       6.724   0.519  -2.328  1.00  0.00    -0.016 A 
ATOM     22  C   UNL     1       7.116   1.758  -1.820  1.00  0.00     0.045 A 
ATOM     23  O   UNL     1       5.885   3.704  -1.192  1.00  0.00    -0.269 OA
ATOM     24  C   UNL     1       7.587  -0.562  -2.317  1.00  0.00     0.006 A 
ATOM     25  C   UNL     1       8.350   1.952  -1.228  1.00  0.00     0.014 A 
ATOM     26  C   UNL     1       8.839  -0.388  -1.721  1.00  0.00     0.000 A 
ATOM     27  C   UNL     1       9.215   0.855  -1.175  1.00  0.00     0.001 A 
ENDBRANCH   8  18
ENDBRANCH   7   8
ENDBRANCH   5   7
ENDBRANCH   2   3
ENDBRANCH   1   2
BRANCH   1  28
ATOM     28  C   UNL     1       3.363  -2.576   3.143  1.00  0.00     0.023 C 
BRANCH  28  29
ATOM     29  C   UNL     1       4.106  -1.667   4.122  1.00  0.00     0.116 C 
BRANCH  29  30
ATOM     30  N   UNL     1       3.662  -1.848   5.491  1.00  0.00    -0.352 N 
ATOM     31  C   UNL     1       4.380  -2.114   6.631  1.00  0.00     0.251 C 
ATOM     32  H   UNL     1       2.690  -1.768   5.624  1.00  0.00     0.163 HD
ATOM     33  O   UNL     1       3.778  -2.399   7.664  1.00  0.00    -0.269 OA
BRANCH  31  34
ATOM     34  C   UNL     1       5.865  -2.093   6.644  1.00  0.00     0.039 A 
ATOM     35  C   UNL     1       6.534  -3.072   7.388  1.00  0.00     0.014 A 
ATOM     36  C   UNL     1       6.604  -1.091   6.009  1.00  0.00     0.014 A 
ATOM     37  C   UNL     1       7.932  -3.081   7.451  1.00  0.00     0.010 A 
ATOM     38  C   UNL     1       8.003  -1.128   6.031  1.00  0.00     0.010 A 
ATOM     39  C   UNL     1       8.682  -2.125   6.750  1.00  0.00    -0.014 A 
BRANCH  39  40
ATOM     40  C   UNL     1      10.170  -2.168   6.757  1.00  0.00     0.031 A 
ATOM     41  C   UNL     1      10.971  -1.087   7.429  1.00  0.00     0.074 A 
ATOM     42  C   UNL     1      10.812  -3.167   6.119  1.00  0.00     0.049 A 
ATOM     43  N   UNL     1      12.272  -0.934   7.486  1.00  0.00    -0.248 NA
ATOM     44  C   UNL     1      10.211  -0.032   8.114  1.00  0.00     0.031 C 
ATOM     45  C   UNL     1      10.165  -4.266   5.404  1.00  0.00     0.029 A 
ATOM     46  N   UNL     1      12.155  -3.412   5.960  1.00  0.00    -0.354 N 
ATOM     47  C   UNL     1      12.486   0.237   8.201  1.00  0.00     0.074 A 
ATOM     48  C   UNL     1      11.181   0.774   8.527  1.00  0.00     0.031 C 
ATOM     49  C   UNL     1      11.108  -5.074   4.893  1.00  0.00     0.029 A 
ATOM     50  C   UNL     1      12.426  -4.534   5.216  1.00  0.00     0.049 A 
ATOM     51  H   UNL     1      12.857  -2.838   6.343  1.00  0.00     0.167 HD
ATOM     52  C   UNL     1      13.660   0.806   8.565  1.00  0.00     0.037 A 
ATOM     53  C   UNL     1      13.601  -5.066   4.827  1.00  0.00     0.037 A 
ATOM     54  C   UNL     1      14.963   0.270   8.266  1.00  0.00     0.049 A 
ATOM     55  C   UNL     1      14.890  -4.412   5.239  1.00  0.00     0.074 A 
ATOM     56  C   UNL     1      16.204   0.756   8.640  1.00  0.00     0.029 A 
ATOM     57  N   UNL     1      15.193  -0.875   7.518  1.00  0.00    -0.354 N 
ATOM     58  N   UNL     1      15.076  -3.330   5.954  1.00  0.00    -0.248 NA
ATOM     59  C   UNL     1      16.134  -5.057   4.793  1.00  0.00     0.031 C 
ATOM     60  C   UNL     1      17.187  -0.075   8.091  1.00  0.00     0.029 A 
ATOM     61  C   UNL     1      16.556  -1.100   7.405  1.00  0.00     0.049 A 
ATOM     62  H   UNL     1      14.492  -1.444   7.126  1.00  0.00     0.167 HD
ATOM     63  C   UNL     1      16.451  -3.176   6.061  1.00  0.00     0.074 A 
ATOM     64  C   UNL     1      17.055  -4.281   5.347  1.00  0.00     0.031 C 
ATOM     65  C   UNL     1      17.149  -2.203   6.696  1.00  0.00     0.037 A 
BRANCH  52  66
ATOM     66  C   UNL     1      13.594   2.089   9.339  1.00  0.00     0.064 A 
ATOM     67  C   UNL     1      13.215   2.109  10.690  1.00  0.00     0.173 A 
ATOM     68  C   UNL     1      13.962   3.303   8.740  1.00  0.00     0.173 A 
ATOM     69  F   UNL     1      12.849   0.975  11.304  1.00  0.00    -0.203 F 
ATOM     70  C   UNL     1      13.185   3.303  11.406  1.00  0.00     0.198 A 
ATOM     71  C   UNL     1      13.953   4.491   9.466  1.00  0.00     0.198 A 
ATOM     72  F   UNL     1      14.343   3.334   7.454  1.00  0.00    -0.203 F 
ATOM     73  F   UNL     1      12.787   3.304  12.686  1.00  0.00    -0.200 F 
ATOM     74  C   UNL     1      13.559   4.491  10.796  1.00  0.00     0.200 A 
ATOM     75  F   UNL     1      14.328   5.636   8.880  1.00  0.00    -0.200 F 
ATOM     76  F   UNL     1      13.539   5.637  11.490  1.00  0.00    -0.200 F 
ENDBRANCH  52  66
BRANCH  53  77
ATOM     77  C   UNL     1      13.612  -6.301   4.004  1.00  0.00     0.064 A 
ATOM     78  C   UNL     1      14.009  -7.528   4.553  1.00  0.00     0.173 A 
ATOM     79  C   UNL     1      13.226  -6.279   2.656  1.00  0.00     0.173 A 
ATOM     80  F   UNL     1      14.409  -7.590   5.831  1.00  0.00    -0.203 F 
ATOM     81  C   UNL     1      14.032  -8.686   3.779  1.00  0.00     0.198 A 
ATOM     82  C   UNL     1      13.227  -7.442   1.891  1.00  0.00     0.198 A 
ATOM     83  F   UNL     1      12.835  -5.129   2.088  1.00  0.00    -0.203 F 
ATOM     84  F   UNL     1      14.449  -9.840   4.317  1.00  0.00    -0.200 F 
ATOM     85  C   UNL     1      13.635  -8.643   2.451  1.00  0.00     0.200 A 
ATOM     86  F   UNL     1      12.832  -7.399   0.611  1.00  0.00    -0.200 F 
ATOM     87  F   UNL     1      13.652  -9.759   1.708  1.00  0.00    -0.200 F 
ENDBRANCH  53  77
BRANCH  65  88
ATOM     88  C   UNL     1      18.645  -2.299   6.668  1.00  0.00     0.064 A 
ATOM     89  C   UNL     1      19.377  -1.986   5.513  1.00  0.00     0.173 A 
ATOM     90  C   UNL     1      19.355  -2.676   7.817  1.00  0.00     0.173 A 
ATOM     91  F   UNL     1      18.741  -1.639   4.385  1.00  0.00    -0.203 F 
ATOM     92  C   UNL     1      20.767  -2.064   5.506  1.00  0.00     0.198 A 
ATOM     93  C   UNL     1      20.747  -2.731   7.812  1.00  0.00     0.198 A 
ATOM     94  F   UNL     1      18.700  -2.983   8.946  1.00  0.00    -0.203 F 
ATOM     95  F   UNL     1      21.445  -1.798   4.381  1.00  0.00    -0.200 F 
ATOM     96  C   UNL     1      21.451  -2.430   6.656  1.00  0.00     0.200 A 
ATOM     97  F   UNL     1      21.406  -3.079   8.926  1.00  0.00    -0.200 F 
ATOM     98  F   UNL     1      22.789  -2.502   6.647  1.00  0.00    -0.200 F 
ENDBRANCH  65  88
ENDBRANCH  39  40
ENDBRANCH  31  34
ENDBRANCH  29  30
ENDBRANCH  28  29
ENDBRANCH   1  28
TORSDOF 15
