REMARK SMILES CC1(C)[C@H](C(=O)Nc2ccccc2C(N)=O)[C@@H]1C(=O)NCCCCNC(=O)c1ccc(-c2c3nc(c(-c4c(F)c(F)c(F)c(F)c4F)c4ccc([nH]4)c(-c4c(F)c(F)c(F)c(F)c4F)c4nc(c(-c5c(F)c(F)c(F)c(F)c5F)c5ccc2[nH]5)C=C4)C=C3)cc1
REMARK SMILES IDX 22 1 21 2 20 3 18 4 19 5 17 7 1 8 2 9 3 10 4 11 5 12 6 13
REMARK SMILES IDX 7 14 8 16 9 17 13 18 10 19 12 20 11 21 14 22 15 23 16 24
REMARK SMILES IDX 23 27 24 28 25 29 26 30 27 32 28 33 29 34 90 35 30 36 89 37
REMARK SMILES IDX 31 38 32 39 33 40 83 41 34 42 88 43 82 44 84 45 35 46 87 47
REMARK SMILES IDX 81 48 80 49 36 51 68 52 48 53 67 54 49 55 52 56 66 57 85 58
REMARK SMILES IDX 50 59 51 60 65 62 86 63 53 64 37 65 38 66 46 67 39 68 40 69
REMARK SMILES IDX 44 70 47 71 41 72 42 73 45 74 43 75 69 76 70 77 78 78 71 79
REMARK SMILES IDX 72 80 76 81 79 82 73 83 74 84 77 85 75 86 54 87 55 88 63 89
REMARK SMILES IDX 56 90 57 91 61 92 64 93 58 94 59 95 62 96 60 97
REMARK H PARENT 20 6 7 15 15 25 15 26 25 31 84 50 52 61
REMARK Flexibility Score: inf
ROOT
ATOM      1  C   UNL     1      -5.538   0.777   0.571  1.00  0.00     0.023 C 
ENDROOT
BRANCH   1   2
ATOM      2  C   UNL     1      -4.078   0.841   0.146  1.00  0.00     0.116 C 
BRANCH   2   3
ATOM      3  N   UNL     1      -3.210   1.162   1.252  1.00  0.00    -0.356 N 
ATOM      4  C   UNL     1      -2.034   0.569   1.604  1.00  0.00     0.224 C 
ATOM      5  O   UNL     1      -1.558   0.829   2.705  1.00  0.00    -0.275 OA
ATOM      6  H   UNL     1      -3.504   1.905   1.827  1.00  0.00     0.163 HD
BRANCH   4   7
ATOM      7  C   UNL     1      -1.381  -0.424   0.698  1.00  0.00     0.098 C 
ATOM      8  C   UNL     1       0.941  -1.606   0.333  1.00  0.00     0.013 C 
ATOM      9  C   UNL     1       0.135  -0.318   0.461  1.00  0.00    -0.011 C 
ATOM     10  C   UNL     1       0.870   0.691   1.299  1.00  0.00     0.013 C 
ATOM     11  C   UNL     1      -0.830  -0.122  -0.691  1.00  0.00     0.098 C 
BRANCH  11  12
ATOM     12  C   UNL     1      -1.475   0.917  -1.532  1.00  0.00     0.228 C 
ATOM     13  O   UNL     1      -2.308   0.506  -2.349  1.00  0.00    -0.274 OA
ATOM     14  N   UNL     1      -1.394   2.272  -1.407  1.00  0.00    -0.325 N 
ATOM     15  H   UNL     1      -2.083   2.760  -1.913  1.00  0.00     0.169 HD
BRANCH  14  16
ATOM     16  C   UNL     1      -0.526   3.093  -0.702  1.00  0.00     0.053 A 
ATOM     17  C   UNL     1      -1.153   4.074   0.080  1.00  0.00     0.027 A 
ATOM     18  C   UNL     1       0.873   3.009  -0.748  1.00  0.00     0.063 A 
ATOM     19  C   UNL     1      -0.406   4.867   0.943  1.00  0.00     0.002 A 
ATOM     20  C   UNL     1       1.619   3.830   0.114  1.00  0.00     0.016 A 
ATOM     21  C   UNL     1       0.978   4.725   0.980  1.00  0.00     0.001 A 
BRANCH  18  22
ATOM     22  C   UNL     1       1.558   2.145  -1.753  1.00  0.00     0.250 C 
ATOM     23  N   UNL     1       2.785   1.635  -1.429  1.00  0.00    -0.366 N 
ATOM     24  O   UNL     1       1.063   1.885  -2.841  1.00  0.00    -0.269 OA
ATOM     25  H   UNL     1       3.188   1.841  -0.554  1.00  0.00     0.159 HD
ATOM     26  H   UNL     1       3.264   1.061  -2.069  1.00  0.00     0.159 HD
ENDBRANCH  18  22
ENDBRANCH  14  16
ENDBRANCH  11  12
ENDBRANCH   4   7
ENDBRANCH   2   3
ENDBRANCH   1   2
BRANCH   1  27
ATOM     27  C   UNL     1      -6.099   2.082   1.138  1.00  0.00     0.023 C 
BRANCH  27  28
ATOM     28  C   UNL     1      -5.853   3.325   0.291  1.00  0.00     0.116 C 
BRANCH  28  29
ATOM     29  N   UNL     1      -6.397   3.212  -1.052  1.00  0.00    -0.352 N 
ATOM     30  C   UNL     1      -7.340   3.985  -1.682  1.00  0.00     0.251 C 
ATOM     31  H   UNL     1      -6.036   2.470  -1.590  1.00  0.00     0.163 HD
ATOM     32  O   UNL     1      -7.806   3.635  -2.762  1.00  0.00    -0.269 OA
BRANCH  30  33
ATOM     33  C   UNL     1      -7.813   5.235  -1.051  1.00  0.00     0.039 A 
ATOM     34  C   UNL     1      -9.179   5.525  -1.069  1.00  0.00     0.014 A 
ATOM     35  C   UNL     1      -6.914   6.127  -0.460  1.00  0.00     0.014 A 
ATOM     36  C   UNL     1      -9.647   6.689  -0.456  1.00  0.00     0.010 A 
ATOM     37  C   UNL     1      -7.391   7.233   0.235  1.00  0.00     0.010 A 
ATOM     38  C   UNL     1      -8.760   7.542   0.221  1.00  0.00    -0.014 A 
BRANCH  38  39
ATOM     39  C   UNL     1      -9.240   8.793   0.862  1.00  0.00     0.031 A 
ATOM     40  C   UNL     1      -8.747  10.126   0.365  1.00  0.00     0.074 A 
ATOM     41  C   UNL     1     -10.089   8.733   1.906  1.00  0.00     0.049 A 
ATOM     42  N   UNL     1      -9.023  11.329   0.802  1.00  0.00    -0.248 NA
ATOM     43  C   UNL     1      -7.793  10.104  -0.756  1.00  0.00     0.031 C 
ATOM     44  C   UNL     1     -10.601   7.503   2.512  1.00  0.00     0.029 A 
ATOM     45  N   UNL     1     -10.671   9.734   2.644  1.00  0.00    -0.354 N 
ATOM     46  C   UNL     1      -8.268  12.196   0.022  1.00  0.00     0.074 A 
ATOM     47  C   UNL     1      -7.469  11.382  -0.865  1.00  0.00     0.031 C 
ATOM     48  C   UNL     1     -11.446   7.822   3.506  1.00  0.00     0.029 A 
ATOM     49  C   UNL     1     -11.508   9.275   3.631  1.00  0.00     0.049 A 
ATOM     50  H   UNL     1     -10.504  10.690   2.481  1.00  0.00     0.167 HD
ATOM     51  C   UNL     1      -8.266  13.551   0.020  1.00  0.00     0.037 A 
ATOM     52  C   UNL     1     -12.243   9.953   4.534  1.00  0.00     0.037 A 
ATOM     53  C   UNL     1      -9.083  14.358   0.887  1.00  0.00     0.049 A 
ATOM     54  C   UNL     1     -12.223  11.459   4.512  1.00  0.00     0.074 A 
ATOM     55  C   UNL     1      -9.190  15.737   0.935  1.00  0.00     0.029 A 
ATOM     56  N   UNL     1      -9.934  13.856   1.860  1.00  0.00    -0.354 N 
ATOM     57  N   UNL     1     -11.556  12.269   3.725  1.00  0.00    -0.248 NA
ATOM     58  C   UNL     1     -13.072  12.145   5.495  1.00  0.00     0.031 C 
ATOM     59  C   UNL     1     -10.066  16.071   1.973  1.00  0.00     0.029 A 
ATOM     60  C   UNL     1     -10.558  14.899   2.526  1.00  0.00     0.049 A 
ATOM     61  H   UNL     1     -10.075  12.900   2.050  1.00  0.00     0.167 HD
ATOM     62  C   UNL     1     -11.938  13.555   4.088  1.00  0.00     0.074 A 
ATOM     63  C   UNL     1     -12.903  13.415   5.159  1.00  0.00     0.031 C 
ATOM     64  C   UNL     1     -11.531  14.743   3.577  1.00  0.00     0.037 A 
BRANCH  51  65
ATOM     65  C   UNL     1      -7.352  14.242  -0.953  1.00  0.00     0.064 A 
ATOM     66  C   UNL     1      -7.564  14.179  -2.340  1.00  0.00     0.173 A 
ATOM     67  C   UNL     1      -6.263  14.998  -0.493  1.00  0.00     0.173 A 
ATOM     68  F   UNL     1      -8.583  13.460  -2.835  1.00  0.00    -0.203 F 
ATOM     69  C   UNL     1      -6.701  14.814  -3.228  1.00  0.00     0.198 A 
ATOM     70  C   UNL     1      -5.423  15.662  -1.384  1.00  0.00     0.198 A 
ATOM     71  F   UNL     1      -6.014  15.097   0.821  1.00  0.00    -0.203 F 
ATOM     72  F   UNL     1      -6.890  14.687  -4.549  1.00  0.00    -0.200 F 
ATOM     73  C   UNL     1      -5.636  15.562  -2.750  1.00  0.00     0.200 A 
ATOM     74  F   UNL     1      -4.403  16.397  -0.919  1.00  0.00    -0.200 F 
ATOM     75  F   UNL     1      -4.810  16.178  -3.606  1.00  0.00    -0.200 F 
ENDBRANCH  51  65
BRANCH  52  76
ATOM     76  C   UNL     1     -13.091   9.218   5.510  1.00  0.00     0.064 A 
ATOM     77  C   UNL     1     -14.491   9.283   5.444  1.00  0.00     0.173 A 
ATOM     78  C   UNL     1     -12.524   8.452   6.538  1.00  0.00     0.173 A 
ATOM     79  F   UNL     1     -15.083  10.017   4.490  1.00  0.00    -0.203 F 
ATOM     80  C   UNL     1     -15.289   8.636   6.386  1.00  0.00     0.198 A 
ATOM     81  C   UNL     1     -13.323   7.778   7.460  1.00  0.00     0.198 A 
ATOM     82  F   UNL     1     -11.191   8.350   6.643  1.00  0.00    -0.203 F 
ATOM     83  F   UNL     1     -16.621   8.764   6.333  1.00  0.00    -0.200 F 
ATOM     84  C   UNL     1     -14.704   7.881   7.391  1.00  0.00     0.200 A 
ATOM     85  F   UNL     1     -12.754   7.036   8.420  1.00  0.00    -0.200 F 
ATOM     86  F   UNL     1     -15.471   7.259   8.297  1.00  0.00    -0.200 F 
ENDBRANCH  52  76
BRANCH  64  87
ATOM     87  C   UNL     1     -12.177  15.986   4.121  1.00  0.00     0.064 A 
ATOM     88  C   UNL     1     -11.943  16.438   5.428  1.00  0.00     0.173 A 
ATOM     89  C   UNL     1     -13.026  16.752   3.306  1.00  0.00     0.173 A 
ATOM     90  F   UNL     1     -11.149  15.739   6.253  1.00  0.00    -0.203 F 
ATOM     91  C   UNL     1     -12.566  17.587   5.911  1.00  0.00     0.198 A 
ATOM     92  C   UNL     1     -13.616  17.920   3.779  1.00  0.00     0.198 A 
ATOM     93  F   UNL     1     -13.275  16.372   2.043  1.00  0.00    -0.203 F 
ATOM     94  F   UNL     1     -12.378  17.964   7.183  1.00  0.00    -0.200 F 
ATOM     95  C   UNL     1     -13.396  18.330   5.084  1.00  0.00     0.200 A 
ATOM     96  F   UNL     1     -14.401  18.647   2.972  1.00  0.00    -0.200 F 
ATOM     97  F   UNL     1     -13.990  19.437   5.550  1.00  0.00    -0.200 F 
ENDBRANCH  64  87
ENDBRANCH  38  39
ENDBRANCH  30  33
ENDBRANCH  28  29
ENDBRANCH  27  28
ENDBRANCH   1  27
TORSDOF 14
