REMARK SMILES Cc1ccc(C(=O)NCCCCNC(=O)c2ccc(-c3c4nc(c(-c5c(F)c(F)c(F)c(F)c5F)c5ccc([nH]5)c(-c5c(F)c(F)c(F)c(F)c5F)c5nc(c(-c6c(F)c(F)c(F)c(F)c6F)c6ccc3[nH]6)C=C5)C=C4)cc2)cc1S(=O)(=O)N(CC1CC1)C(C)C
REMARK SMILES IDX 9 1 8 2 6 3 7 4 5 6 1 7 2 8 3 9 80 10 4 11 79 12 81 13 82 14
REMARK SMILES IDX 83 15 84 16 85 17 86 18 87 19 88 20 89 21 90 22 91 23 10 24
REMARK SMILES IDX 11 25 12 26 13 27 14 28 15 30 16 31 17 32 78 33 18 34 77 35
REMARK SMILES IDX 19 36 20 37 21 38 71 39 22 40 76 41 70 42 72 43 23 44 75 45
REMARK SMILES IDX 69 46 68 47 24 49 56 50 36 51 55 52 37 53 40 54 54 55 73 56
REMARK SMILES IDX 38 57 39 58 53 60 74 61 41 62 25 63 26 64 34 65 27 66 28 67
REMARK SMILES IDX 32 68 35 69 29 70 30 71 33 72 31 73 57 74 58 75 66 76 59 77
REMARK SMILES IDX 60 78 64 79 67 80 61 81 62 82 65 83 63 84 42 85 43 86 51 87
REMARK SMILES IDX 44 88 45 89 49 90 52 91 46 92 47 93 50 94 48 95
REMARK H PARENT 8 5 13 29 72 48 40 59
REMARK Flexibility Score: inf
ROOT
ATOM      1  C   UNL     1      -3.516   2.501  -0.057  1.00  0.00     0.116 C 
ENDROOT
BRANCH   1   2
ATOM      2  N   UNL     1      -3.814   1.105  -0.344  1.00  0.00    -0.352 N 
ATOM      3  C   UNL     1      -3.035  -0.018  -0.484  1.00  0.00     0.251 C 
ATOM      4  O   UNL     1      -3.620  -1.085  -0.681  1.00  0.00    -0.269 OA
ATOM      5  H   UNL     1      -4.775   0.929  -0.464  1.00  0.00     0.163 HD
BRANCH   3   6
ATOM      6  C   UNL     1      -1.549  -0.029  -0.346  1.00  0.00     0.041 A 
ATOM      7  C   UNL     1       2.637  -0.261   0.776  1.00  0.00     0.046 C 
ATOM      8  C   UNL     1       1.226  -0.117   0.291  1.00  0.00    -0.031 A 
ATOM      9  C   UNL     1       0.435  -1.283   0.288  1.00  0.00     0.005 A 
ATOM     10  C   UNL     1       0.629   1.075  -0.146  1.00  0.00     0.086 A 
ATOM     11  C   UNL     1      -0.935  -1.235   0.003  1.00  0.00     0.014 A 
ATOM     12  C   UNL     1      -0.736   1.088  -0.503  1.00  0.00     0.035 A 
BRANCH  10  13
ATOM     13  S   UNL     1       1.322   2.724   0.025  1.00  0.00     0.243 S 
ATOM     14  O   UNL     1       0.676   3.565  -0.937  1.00  0.00    -0.207 OA
ATOM     15  O   UNL     1       1.134   2.994   1.451  1.00  0.00    -0.207 OA
BRANCH  13  16
ATOM     16  N   UNL     1       2.974   2.690  -0.322  1.00  0.00    -0.195 NA
BRANCH  16  17
ATOM     17  C   UNL     1       3.480   2.103  -1.588  1.00  0.00     0.106 C 
BRANCH  17  18
ATOM     18  C   UNL     1       2.735   2.374  -2.861  1.00  0.00     0.004 C 
ATOM     19  C   UNL     1       2.297   3.714  -3.408  1.00  0.00     0.005 C 
ATOM     20  C   UNL     1       3.505   3.048  -3.983  1.00  0.00     0.005 C 
ENDBRANCH  17  18
ENDBRANCH  16  17
BRANCH  16  21
ATOM     21  C   UNL     1       3.875   3.773   0.230  1.00  0.00     0.067 C 
ATOM     22  C   UNL     1       3.845   5.048  -0.605  1.00  0.00     0.025 C 
ATOM     23  C   UNL     1       3.630   4.121   1.697  1.00  0.00     0.025 C 
ENDBRANCH  16  21
ENDBRANCH  13  16
ENDBRANCH  10  13
ENDBRANCH   3   6
ENDBRANCH   1   2
BRANCH   1  24
ATOM     24  C   UNL     1      -3.369   3.333  -1.344  1.00  0.00     0.023 C 
BRANCH  24  25
ATOM     25  C   UNL     1      -4.670   3.522  -2.131  1.00  0.00     0.023 C 
BRANCH  25  26
ATOM     26  C   UNL     1      -5.650   4.470  -1.456  1.00  0.00     0.116 C 
BRANCH  26  27
ATOM     27  N   UNL     1      -5.470   5.877  -1.787  1.00  0.00    -0.352 N 
ATOM     28  C   UNL     1      -5.984   7.005  -1.173  1.00  0.00     0.251 C 
ATOM     29  H   UNL     1      -4.896   6.052  -2.567  1.00  0.00     0.163 HD
ATOM     30  O   UNL     1      -5.804   8.108  -1.682  1.00  0.00    -0.269 OA
BRANCH  28  31
ATOM     31  C   UNL     1      -6.636   6.912   0.160  1.00  0.00     0.039 A 
ATOM     32  C   UNL     1      -6.368   7.918   1.101  1.00  0.00     0.014 A 
ATOM     33  C   UNL     1      -7.353   5.785   0.547  1.00  0.00     0.014 A 
ATOM     34  C   UNL     1      -6.597   7.678   2.456  1.00  0.00     0.010 A 
ATOM     35  C   UNL     1      -7.471   5.495   1.891  1.00  0.00     0.010 A 
ATOM     36  C   UNL     1      -7.032   6.416   2.848  1.00  0.00    -0.014 A 
BRANCH  36  37
ATOM     37  C   UNL     1      -6.955   5.907   4.212  1.00  0.00     0.031 A 
ATOM     38  C   UNL     1      -8.187   5.624   4.980  1.00  0.00     0.074 A 
ATOM     39  C   UNL     1      -5.752   5.492   4.672  1.00  0.00     0.049 A 
ATOM     40  N   UNL     1      -8.197   5.306   6.231  1.00  0.00    -0.248 NA
ATOM     41  C   UNL     1      -9.531   5.736   4.413  1.00  0.00     0.031 C 
ATOM     42  C   UNL     1      -5.489   4.554   5.763  1.00  0.00     0.029 A 
ATOM     43  N   UNL     1      -4.485   6.016   4.355  1.00  0.00    -0.354 N 
ATOM     44  C   UNL     1      -9.457   4.848   6.525  1.00  0.00     0.074 A 
ATOM     45  C   UNL     1     -10.279   5.277   5.424  1.00  0.00     0.031 C 
ATOM     46  C   UNL     1      -4.247   4.761   6.225  1.00  0.00     0.029 A 
ATOM     47  C   UNL     1      -3.750   5.954   5.566  1.00  0.00     0.049 A 
ATOM     48  H   UNL     1      -4.176   6.351   3.483  1.00  0.00     0.167 HD
ATOM     49  C   UNL     1      -9.614   4.014   7.588  1.00  0.00     0.037 A 
ATOM     50  C   UNL     1      -3.353   7.086   6.220  1.00  0.00     0.037 A 
ATOM     51  C   UNL     1      -8.446   4.056   8.466  1.00  0.00     0.049 A 
ATOM     52  C   UNL     1      -3.855   7.191   7.641  1.00  0.00     0.074 A 
ATOM     53  C   UNL     1      -7.433   3.163   8.760  1.00  0.00     0.029 A 
ATOM     54  N   UNL     1      -8.069   5.279   9.018  1.00  0.00    -0.354 N 
ATOM     55  N   UNL     1      -4.877   6.526   8.103  1.00  0.00    -0.248 NA
ATOM     56  C   UNL     1      -3.270   8.081   8.640  1.00  0.00     0.031 C 
ATOM     57  C   UNL     1      -6.388   3.890   9.394  1.00  0.00     0.029 A 
ATOM     58  C   UNL     1      -6.793   5.207   9.536  1.00  0.00     0.049 A 
ATOM     59  H   UNL     1      -8.636   6.084   9.036  1.00  0.00     0.167 HD
ATOM     60  C   UNL     1      -5.112   6.892   9.401  1.00  0.00     0.074 A 
ATOM     61  C   UNL     1      -4.067   7.854   9.699  1.00  0.00     0.031 C 
ATOM     62  C   UNL     1      -6.160   6.385  10.114  1.00  0.00     0.037 A 
BRANCH  49  63
ATOM     63  C   UNL     1     -10.733   3.005   7.744  1.00  0.00     0.064 A 
ATOM     64  C   UNL     1     -10.854   2.259   8.938  1.00  0.00     0.173 A 
ATOM     65  C   UNL     1     -11.621   2.615   6.716  1.00  0.00     0.173 A 
ATOM     66  F   UNL     1     -10.062   2.509   9.991  1.00  0.00    -0.203 F 
ATOM     67  C   UNL     1     -11.775   1.214   9.082  1.00  0.00     0.198 A 
ATOM     68  C   UNL     1     -12.579   1.610   6.882  1.00  0.00     0.198 A 
ATOM     69  F   UNL     1     -11.560   3.132   5.485  1.00  0.00    -0.203 F 
ATOM     70  F   UNL     1     -11.800   0.499  10.215  1.00  0.00    -0.200 F 
ATOM     71  C   UNL     1     -12.647   0.899   8.059  1.00  0.00     0.200 A 
ATOM     72  F   UNL     1     -13.412   1.317   5.872  1.00  0.00    -0.200 F 
ATOM     73  F   UNL     1     -13.531  -0.098   8.196  1.00  0.00    -0.200 F 
ENDBRANCH  49  63
BRANCH  50  74
ATOM     74  C   UNL     1      -3.140   8.241   5.309  1.00  0.00     0.064 A 
ATOM     75  C   UNL     1      -2.127   8.146   4.335  1.00  0.00     0.173 A 
ATOM     76  C   UNL     1      -4.132   9.210   5.121  1.00  0.00     0.173 A 
ATOM     77  F   UNL     1      -1.152   7.234   4.473  1.00  0.00    -0.203 F 
ATOM     78  C   UNL     1      -2.178   8.896   3.163  1.00  0.00     0.198 A 
ATOM     79  C   UNL     1      -4.169   9.973   3.952  1.00  0.00     0.198 A 
ATOM     80  F   UNL     1      -5.132   9.339   6.005  1.00  0.00    -0.203 F 
ATOM     81  F   UNL     1      -1.264   8.699   2.202  1.00  0.00    -0.200 F 
ATOM     82  C   UNL     1      -3.217   9.788   2.959  1.00  0.00     0.200 A 
ATOM     83  F   UNL     1      -5.190  10.816   3.740  1.00  0.00    -0.200 F 
ATOM     84  F   UNL     1      -3.328  10.436   1.792  1.00  0.00    -0.200 F 
ENDBRANCH  50  74
BRANCH  62  85
ATOM     85  C   UNL     1      -6.644   6.901  11.447  1.00  0.00     0.064 A 
ATOM     86  C   UNL     1      -6.527   8.240  11.859  1.00  0.00     0.173 A 
ATOM     87  C   UNL     1      -7.391   6.063  12.309  1.00  0.00     0.173 A 
ATOM     88  F   UNL     1      -5.955   9.163  11.074  1.00  0.00    -0.203 F 
ATOM     89  C   UNL     1      -7.053   8.689  13.074  1.00  0.00     0.198 A 
ATOM     90  C   UNL     1      -7.962   6.527  13.493  1.00  0.00     0.198 A 
ATOM     91  F   UNL     1      -7.609   4.773  12.012  1.00  0.00    -0.203 F 
ATOM     92  F   UNL     1      -6.875   9.966  13.442  1.00  0.00    -0.200 F 
ATOM     93  C   UNL     1      -7.777   7.837  13.886  1.00  0.00     0.200 A 
ATOM     94  F   UNL     1      -8.707   5.702  14.242  1.00  0.00    -0.200 F 
ATOM     95  F   UNL     1      -8.314   8.282  15.029  1.00  0.00    -0.200 F 
ENDBRANCH  62  85
ENDBRANCH  36  37
ENDBRANCH  28  31
ENDBRANCH  26  27
ENDBRANCH  25  26
ENDBRANCH  24  25
ENDBRANCH   1  24
TORSDOF 16
