REMARK SMILES Cc1cc2c(c(C)c1Cl)C=C(C(=O)NCCCCNC(=O)c1ccc(-c3c4nc(c(-c5c(F)c(F)c(F)c(F)c5F)c5ccc([nH]5)c(-c5c(F)c(F)c(F)c(F)c5F)c5nc(c(-c6c(F)c(F)c(F)c(F)c6F)c6ccc3[nH]6)C=C5)C=C4)cc1)[C@H](C(F)(F)F)O2
REMARK SMILES IDX 17 1 16 2 15 3 14 4 12 5 13 6 11 8 1 9 2 10 3 11 8 12 4 13
REMARK SMILES IDX 6 14 9 15 5 16 90 17 7 18 10 19 85 20 86 21 87 22 88 23
REMARK SMILES IDX 89 24 18 25 19 26 20 27 21 29 22 30 23 31 84 32 24 33 83 34
REMARK SMILES IDX 25 35 26 36 27 37 77 38 28 39 82 40 76 41 78 42 29 43 81 44
REMARK SMILES IDX 75 45 74 46 30 48 62 49 42 50 61 51 43 52 46 53 60 54 79 55
REMARK SMILES IDX 44 56 45 57 59 59 80 60 47 61 31 62 32 63 40 64 33 65 34 66
REMARK SMILES IDX 38 67 41 68 35 69 36 70 39 71 37 72 63 73 64 74 72 75 65 76
REMARK SMILES IDX 66 77 70 78 73 79 67 80 68 81 71 82 69 83 48 84 49 85 57 86
REMARK SMILES IDX 50 87 51 88 55 89 58 90 52 91 53 92 56 93 54 94
REMARK H PARENT 14 7 19 28 78 47 46 58
REMARK Flexibility Score: inf
ROOT
ATOM      1  C   UNL     1      -2.970   5.784   8.237  1.00  0.00     0.023 C 
ENDROOT
BRANCH   1   2
ATOM      2  C   UNL     1      -2.777   4.737   7.138  1.00  0.00     0.023 C 
BRANCH   2   3
ATOM      3  C   UNL     1      -3.346   5.138   5.778  1.00  0.00     0.116 C 
BRANCH   3   4
ATOM      4  N   UNL     1      -2.439   6.010   5.057  1.00  0.00    -0.352 N 
ATOM      5  C   UNL     1      -1.551   5.877   4.045  1.00  0.00     0.251 C 
ATOM      6  O   UNL     1      -1.030   6.932   3.667  1.00  0.00    -0.270 OA
ATOM      7  H   UNL     1      -2.479   6.936   5.390  1.00  0.00     0.163 HD
BRANCH   5   8
ATOM      8  C   UNL     1      -1.171   4.591   3.389  1.00  0.00     0.067 C 
ATOM      9  C   UNL     1       1.221  -0.175  -0.345  1.00  0.00     0.046 C 
ATOM     10  C   UNL     1       0.817   1.128   0.290  1.00  0.00    -0.028 A 
ATOM     11  C   UNL     1      -0.085   1.102   1.359  1.00  0.00     0.052 A 
ATOM     12  C   UNL     1       1.311   2.372  -0.156  1.00  0.00     0.047 A 
ATOM     13  C   UNL     1      -0.472   2.282   1.983  1.00  0.00     0.128 A 
ATOM     14  C   UNL     1       0.912   3.583   0.461  1.00  0.00    -0.021 A 
ATOM     15  Cl  UNL     1       2.422   2.384  -1.493  1.00  0.00    -0.084 Cl
ATOM     16  C   UNL     1      -0.003   3.524   1.540  1.00  0.00     0.022 A 
ATOM     17  O   UNL     1      -1.355   2.146   3.019  1.00  0.00    -0.475 OA
ATOM     18  C   UNL     1       1.437   4.923   0.003  1.00  0.00     0.047 C 
ATOM     19  C   UNL     1      -0.520   4.717   2.217  1.00  0.00     0.026 C 
ATOM     20  C   UNL     1      -1.361   3.228   3.989  1.00  0.00     0.314 C 
BRANCH  20  21
ATOM     21  C   UNL     1      -0.396   2.919   5.146  1.00  0.00     0.429 C 
ATOM     22  F   UNL     1       0.051   4.038   5.763  1.00  0.00    -0.167 F 
ATOM     23  F   UNL     1      -1.029   2.179   6.093  1.00  0.00    -0.167 F 
ATOM     24  F   UNL     1       0.694   2.223   4.756  1.00  0.00    -0.167 F 
ENDBRANCH  20  21
ENDBRANCH   5   8
ENDBRANCH   3   4
ENDBRANCH   2   3
ENDBRANCH   1   2
BRANCH   1  25
ATOM     25  C   UNL     1      -4.419   6.130   8.551  1.00  0.00     0.116 C 
BRANCH  25  26
ATOM     26  N   UNL     1      -5.243   4.973   8.871  1.00  0.00    -0.352 N 
ATOM     27  C   UNL     1      -6.316   4.913   9.731  1.00  0.00     0.251 C 
ATOM     28  H   UNL     1      -5.005   4.133   8.417  1.00  0.00     0.163 HD
ATOM     29  O   UNL     1      -6.887   3.860   9.963  1.00  0.00    -0.269 OA
BRANCH  27  30
ATOM     30  C   UNL     1      -6.725   6.156  10.412  1.00  0.00     0.039 A 
ATOM     31  C   UNL     1      -6.719   6.187  11.807  1.00  0.00     0.014 A 
ATOM     32  C   UNL     1      -6.994   7.306   9.665  1.00  0.00     0.014 A 
ATOM     33  C   UNL     1      -6.905   7.404  12.459  1.00  0.00     0.010 A 
ATOM     34  C   UNL     1      -7.108   8.528  10.316  1.00  0.00     0.010 A 
ATOM     35  C   UNL     1      -7.057   8.588  11.717  1.00  0.00    -0.014 A 
BRANCH  35  36
ATOM     36  C   UNL     1      -7.157   9.901  12.394  1.00  0.00     0.031 A 
ATOM     37  C   UNL     1      -8.432  10.686  12.317  1.00  0.00     0.074 A 
ATOM     38  C   UNL     1      -6.082  10.403  13.032  1.00  0.00     0.049 A 
ATOM     39  N   UNL     1      -8.709  11.861  12.819  1.00  0.00    -0.248 NA
ATOM     40  C   UNL     1      -9.534  10.085  11.548  1.00  0.00     0.031 C 
ATOM     41  C   UNL     1      -4.772   9.756  13.121  1.00  0.00     0.029 A 
ATOM     42  N   UNL     1      -5.922  11.574  13.729  1.00  0.00    -0.354 N 
ATOM     43  C   UNL     1     -10.007  12.142  12.420  1.00  0.00     0.074 A 
ATOM     44  C   UNL     1     -10.446  11.045  11.586  1.00  0.00     0.031 C 
ATOM     45  C   UNL     1      -3.955  10.518  13.867  1.00  0.00     0.029 A 
ATOM     46  C   UNL     1      -4.675  11.717  14.286  1.00  0.00     0.049 A 
ATOM     47  H   UNL     1      -6.634  12.248  13.821  1.00  0.00     0.167 HD
ATOM     48  C   UNL     1     -10.777  13.205  12.750  1.00  0.00     0.037 A 
ATOM     49  C   UNL     1      -4.178  12.699  15.062  1.00  0.00     0.037 A 
ATOM     50  C   UNL     1     -10.352  14.271  13.613  1.00  0.00     0.049 A 
ATOM     51  C   UNL     1      -5.058  13.862  15.427  1.00  0.00     0.074 A 
ATOM     52  C   UNL     1     -11.078  15.360  14.061  1.00  0.00     0.029 A 
ATOM     53  N   UNL     1      -9.085  14.376  14.168  1.00  0.00    -0.354 N 
ATOM     54  N   UNL     1      -6.307  14.085  15.098  1.00  0.00    -0.248 NA
ATOM     55  C   UNL     1      -4.463  14.908  16.271  1.00  0.00     0.031 C 
ATOM     56  C   UNL     1     -10.242  16.138  14.867  1.00  0.00     0.029 A 
ATOM     57  C   UNL     1      -9.005  15.518  14.945  1.00  0.00     0.049 A 
ATOM     58  H   UNL     1      -8.352  13.733  14.029  1.00  0.00     0.167 HD
ATOM     59  C   UNL     1      -6.655  15.281  15.710  1.00  0.00     0.074 A 
ATOM     60  C   UNL     1      -5.487  15.734  16.437  1.00  0.00     0.031 C 
ATOM     61  C   UNL     1      -7.836  15.942  15.670  1.00  0.00     0.037 A 
BRANCH  48  62
ATOM     62  C   UNL     1     -12.168  13.247  12.196  1.00  0.00     0.064 A 
ATOM     63  C   UNL     1     -13.168  12.388  12.675  1.00  0.00     0.173 A 
ATOM     64  C   UNL     1     -12.515  14.175  11.203  1.00  0.00     0.173 A 
ATOM     65  F   UNL     1     -12.878  11.474  13.614  1.00  0.00    -0.203 F 
ATOM     66  C   UNL     1     -14.461  12.440  12.164  1.00  0.00     0.198 A 
ATOM     67  C   UNL     1     -13.816  14.240  10.712  1.00  0.00     0.198 A 
ATOM     68  F   UNL     1     -11.595  15.019  10.713  1.00  0.00    -0.203 F 
ATOM     69  F   UNL     1     -15.389  11.581  12.607  1.00  0.00    -0.200 F 
ATOM     70  C   UNL     1     -14.786  13.370  11.188  1.00  0.00     0.200 A 
ATOM     71  F   UNL     1     -14.132  15.144   9.774  1.00  0.00    -0.200 F 
ATOM     72  F   UNL     1     -16.033  13.423  10.701  1.00  0.00    -0.200 F 
ENDBRANCH  48  62
BRANCH  49  73
ATOM     73  C   UNL     1      -2.797  12.589  15.594  1.00  0.00     0.064 A 
ATOM     74  C   UNL     1      -2.578  12.280  16.944  1.00  0.00     0.173 A 
ATOM     75  C   UNL     1      -1.675  12.762  14.772  1.00  0.00     0.173 A 
ATOM     76  F   UNL     1      -3.622  12.123  17.771  1.00  0.00    -0.203 F 
ATOM     77  C   UNL     1      -1.288  12.157  17.454  1.00  0.00     0.198 A 
ATOM     78  C   UNL     1      -0.385  12.620  15.279  1.00  0.00     0.198 A 
ATOM     79  F   UNL     1      -1.834  13.053  13.473  1.00  0.00    -0.203 F 
ATOM     80  F   UNL     1      -1.106  11.886  18.753  1.00  0.00    -0.200 F 
ATOM     81  C   UNL     1      -0.192  12.321  16.619  1.00  0.00     0.200 A 
ATOM     82  F   UNL     1       0.671  12.768  14.468  1.00  0.00    -0.200 F 
ATOM     83  F   UNL     1       1.049  12.194  17.108  1.00  0.00    -0.200 F 
ENDBRANCH  49  73
BRANCH  61  84
ATOM     84  C   UNL     1      -7.942  17.219  16.445  1.00  0.00     0.064 A 
ATOM     85  C   UNL     1      -7.393  18.412  15.956  1.00  0.00     0.173 A 
ATOM     86  C   UNL     1      -8.688  17.269  17.632  1.00  0.00     0.173 A 
ATOM     87  F   UNL     1      -6.663  18.407  14.831  1.00  0.00    -0.203 F 
ATOM     88  C   UNL     1      -7.587  19.613  16.631  1.00  0.00     0.198 A 
ATOM     89  C   UNL     1      -8.896  18.476  18.292  1.00  0.00     0.198 A 
ATOM     90  F   UNL     1      -9.238  16.152  18.132  1.00  0.00    -0.203 F 
ATOM     91  F   UNL     1      -7.042  20.742  16.155  1.00  0.00    -0.200 F 
ATOM     92  C   UNL     1      -8.347  19.646  17.791  1.00  0.00     0.200 A 
ATOM     93  F   UNL     1      -9.641  18.508  19.406  1.00  0.00    -0.200 F 
ATOM     94  F   UNL     1      -8.551  20.808  18.426  1.00  0.00    -0.200 F 
ENDBRANCH  61  84
ENDBRANCH  35  36
ENDBRANCH  27  30
ENDBRANCH  25  26
ENDBRANCH   1  25
TORSDOF 12
