REMARK SMILES COC(=O)[C@@H]1CCN(C(=O)N[C@H](C)CC(=O)NCCCCNC(=O)c2ccc(-c3c4nc(c(-c5c(F)c(F)c(F)c(F)c5F)c5ccc([nH]5)c(-c5c(F)c(F)c(F)c(F)c5F)c5nc(c(-c6c(F)c(F)c(F)c(F)c6F)c6ccc3[nH]6)C=C5)C=C4)cc2)C1
REMARK SMILES IDX 18 1 17 2 15 3 16 4 14 6 12 7 13 8 11 9 9 10 10 11 8 13 5 14
REMARK SMILES IDX 6 15 88 16 7 17 3 18 4 19 2 20 1 21 19 22 20 23 21 24 22 25
REMARK SMILES IDX 23 26 24 28 25 29 26 30 87 31 27 32 86 33 28 34 29 35 30 36
REMARK SMILES IDX 80 37 31 38 85 39 79 40 81 41 32 42 84 43 78 44 77 45 33 47
REMARK SMILES IDX 65 48 45 49 64 50 46 51 49 52 63 53 82 54 47 55 48 56 62 58
REMARK SMILES IDX 83 59 50 60 34 61 35 62 43 63 36 64 37 65 41 66 44 67 38 68
REMARK SMILES IDX 39 69 42 70 40 71 66 72 67 73 75 74 68 75 69 76 73 77 76 78
REMARK SMILES IDX 70 79 71 80 74 81 72 82 51 83 52 84 60 85 53 86 54 87 58 88
REMARK SMILES IDX 61 89 55 90 56 91 59 92 57 93
REMARK H PARENT 17 5 11 12 22 27 81 46 49 57
REMARK Flexibility Score: inf
ROOT
ATOM      1  C   UNL     1       2.664   8.302  -1.328  1.00  0.00     0.116 C 
ENDROOT
BRANCH   1   2
ATOM      2  N   UNL     1       3.354   7.089  -0.922  1.00  0.00    -0.356 N 
ATOM      3  C   UNL     1       3.697   6.048  -1.748  1.00  0.00     0.222 C 
ATOM      4  O   UNL     1       3.759   4.905  -1.309  1.00  0.00    -0.275 OA
ATOM      5  H   UNL     1       3.596   7.006   0.029  1.00  0.00     0.163 HD
BRANCH   3   6
ATOM      6  C   UNL     1       4.175   6.424  -3.120  1.00  0.00     0.124 C 
BRANCH   6   7
ATOM      7  C   UNL     1       3.437   6.113  -4.383  1.00  0.00     0.090 C 
ATOM      8  C   UNL     1       1.997   6.639  -4.388  1.00  0.00     0.031 C 
BRANCH   7   9
ATOM      9  N   UNL     1       4.116   6.670  -5.582  1.00  0.00    -0.335 N 
ATOM     10  C   UNL     1       5.215   7.290  -6.026  1.00  0.00     0.317 C 
ATOM     11  O   UNL     1       5.221   7.409  -7.262  1.00  0.00    -0.249 OA
ATOM     12  H   UNL     1       3.523   6.526  -6.354  1.00  0.00     0.165 HD
BRANCH  10  13
ATOM     13  N   UNL     1       6.258   7.779  -5.306  1.00  0.00    -0.324 N 
ATOM     14  C   UNL     1       8.447   8.771  -5.082  1.00  0.00     0.120 C 
ATOM     15  C   UNL     1       7.634   9.034  -3.832  1.00  0.00     0.039 C 
ATOM     16  C   UNL     1       7.404   8.272  -6.078  1.00  0.00     0.136 C 
ATOM     17  C   UNL     1       6.562   7.960  -3.896  1.00  0.00     0.122 C 
BRANCH  14  18
ATOM     18  C   UNL     1       9.532   7.767  -4.768  1.00  0.00     0.310 C 
ATOM     19  O   UNL     1       9.560   6.598  -5.130  1.00  0.00    -0.252 OA
BRANCH  18  20
ATOM     20  O   UNL     1      10.460   8.360  -3.961  1.00  0.00    -0.469 OA
ATOM     21  C   UNL     1      11.473   7.481  -3.472  1.00  0.00     0.282 C 
ENDBRANCH  18  20
ENDBRANCH  14  18
ENDBRANCH  10  13
ENDBRANCH   7   9
ENDBRANCH   6   7
ENDBRANCH   3   6
ENDBRANCH   1   2
BRANCH   1  22
ATOM     22  C   UNL     1       1.163   8.047  -1.262  1.00  0.00     0.023 C 
BRANCH  22  23
ATOM     23  C   UNL     1       0.649   7.966   0.169  1.00  0.00     0.023 C 
BRANCH  23  24
ATOM     24  C   UNL     1       0.829   9.260   0.940  1.00  0.00     0.116 C 
BRANCH  24  25
ATOM     25  N   UNL     1       0.136  10.376   0.312  1.00  0.00    -0.352 N 
ATOM     26  C   UNL     1      -0.720  11.273   0.897  1.00  0.00     0.251 C 
ATOM     27  H   UNL     1       0.303  10.502  -0.650  1.00  0.00     0.163 HD
ATOM     28  O   UNL     1      -1.386  12.048   0.222  1.00  0.00    -0.269 OA
BRANCH  26  29
ATOM     29  C   UNL     1      -0.839  11.256   2.365  1.00  0.00     0.039 A 
ATOM     30  C   UNL     1      -2.105  11.185   2.943  1.00  0.00     0.014 A 
ATOM     31  C   UNL     1       0.317  11.213   3.151  1.00  0.00     0.014 A 
ATOM     32  C   UNL     1      -2.209  11.014   4.322  1.00  0.00     0.010 A 
ATOM     33  C   UNL     1       0.210  10.931   4.503  1.00  0.00     0.010 A 
ATOM     34  C   UNL     1      -1.054  10.849   5.106  1.00  0.00    -0.014 A 
BRANCH  34  35
ATOM     35  C   UNL     1      -1.145  10.621   6.567  1.00  0.00     0.031 A 
ATOM     36  C   UNL     1      -0.539  11.619   7.513  1.00  0.00     0.074 A 
ATOM     37  C   UNL     1      -1.721   9.497   7.035  1.00  0.00     0.049 A 
ATOM     38  N   UNL     1      -0.471  11.586   8.820  1.00  0.00    -0.248 NA
ATOM     39  C   UNL     1       0.112  12.795   6.911  1.00  0.00     0.031 C 
ATOM     40  C   UNL     1      -2.286   8.428   6.209  1.00  0.00     0.029 A 
ATOM     41  N   UNL     1      -1.922   9.066   8.321  1.00  0.00    -0.354 N 
ATOM     42  C   UNL     1       0.238  12.722   9.187  1.00  0.00     0.074 A 
ATOM     43  C   UNL     1       0.644  13.385   7.969  1.00  0.00     0.031 C 
ATOM     44  C   UNL     1      -2.802   7.481   7.010  1.00  0.00     0.029 A 
ATOM     45  C   UNL     1      -2.570   7.857   8.401  1.00  0.00     0.049 A 
ATOM     46  H   UNL     1      -1.631   9.574   9.112  1.00  0.00     0.167 HD
ATOM     47  C   UNL     1       0.497  13.190  10.431  1.00  0.00     0.037 A 
ATOM     48  C   UNL     1      -2.933   7.136   9.478  1.00  0.00     0.037 A 
ATOM     49  C   UNL     1       0.063  12.539  11.638  1.00  0.00     0.049 A 
ATOM     50  C   UNL     1      -2.635   7.679  10.850  1.00  0.00     0.074 A 
ATOM     51  C   UNL     1       0.216  12.958  12.947  1.00  0.00     0.029 A 
ATOM     52  N   UNL     1      -0.609  11.325  11.680  1.00  0.00    -0.354 N 
ATOM     53  N   UNL     1      -2.036   8.796  11.188  1.00  0.00    -0.248 NA
ATOM     54  C   UNL     1      -3.074   6.866  11.992  1.00  0.00     0.031 C 
ATOM     55  C   UNL     1      -0.314  11.972  13.784  1.00  0.00     0.029 A 
ATOM     56  C   UNL     1      -0.855  10.968  12.996  1.00  0.00     0.049 A 
ATOM     57  H   UNL     1      -0.872  10.797  10.892  1.00  0.00     0.167 HD
ATOM     58  C   UNL     1      -2.053   8.834  12.576  1.00  0.00     0.074 A 
ATOM     59  C   UNL     1      -2.739   7.637  13.016  1.00  0.00     0.031 C 
ATOM     60  C   UNL     1      -1.546   9.774  13.412  1.00  0.00     0.037 A 
BRANCH  47  61
ATOM     61  C   UNL     1       1.280  14.466  10.543  1.00  0.00     0.064 A 
ATOM     62  C   UNL     1       0.749  15.698  10.128  1.00  0.00     0.173 A 
ATOM     63  C   UNL     1       2.570  14.463  11.095  1.00  0.00     0.173 A 
ATOM     64  F   UNL     1      -0.474  15.756   9.579  1.00  0.00    -0.203 F 
ATOM     65  C   UNL     1       1.492  16.871  10.229  1.00  0.00     0.198 A 
ATOM     66  C   UNL     1       3.296  15.644  11.228  1.00  0.00     0.198 A 
ATOM     67  F   UNL     1       3.126  13.315  11.510  1.00  0.00    -0.203 F 
ATOM     68  F   UNL     1       0.986  18.024   9.771  1.00  0.00    -0.200 F 
ATOM     69  C   UNL     1       2.761  16.845  10.787  1.00  0.00     0.200 A 
ATOM     70  F   UNL     1       4.518  15.618  11.779  1.00  0.00    -0.200 F 
ATOM     71  F   UNL     1       3.473  17.975  10.891  1.00  0.00    -0.200 F 
ENDBRANCH  47  61
BRANCH  48  72
ATOM     72  C   UNL     1      -3.642   5.841   9.305  1.00  0.00     0.064 A 
ATOM     73  C   UNL     1      -4.982   5.695   9.690  1.00  0.00     0.173 A 
ATOM     74  C   UNL     1      -2.996   4.721   8.761  1.00  0.00     0.173 A 
ATOM     75  F   UNL     1      -5.639   6.731  10.232  1.00  0.00    -0.203 F 
ATOM     76  C   UNL     1      -5.641   4.473   9.562  1.00  0.00     0.198 A 
ATOM     77  C   UNL     1      -3.665   3.509   8.604  1.00  0.00     0.198 A 
ATOM     78  F   UNL     1      -1.716   4.808   8.369  1.00  0.00    -0.203 F 
ATOM     79  F   UNL     1      -6.906   4.349   9.987  1.00  0.00    -0.200 F 
ATOM     80  C   UNL     1      -4.983   3.383   9.014  1.00  0.00     0.200 A 
ATOM     81  F   UNL     1      -3.031   2.462   8.058  1.00  0.00    -0.200 F 
ATOM     82  F   UNL     1      -5.617   2.209   8.889  1.00  0.00    -0.200 F 
ENDBRANCH  48  72
BRANCH  60  83
ATOM     83  C   UNL     1      -1.750   9.565  14.885  1.00  0.00     0.064 A 
ATOM     84  C   UNL     1      -1.079   8.553  15.588  1.00  0.00     0.173 A 
ATOM     85  C   UNL     1      -2.601  10.414  15.609  1.00  0.00     0.173 A 
ATOM     86  F   UNL     1      -0.264   7.707  14.940  1.00  0.00    -0.203 F 
ATOM     87  C   UNL     1      -1.280   8.378  16.954  1.00  0.00     0.198 A 
ATOM     88  C   UNL     1      -2.771  10.259  16.982  1.00  0.00     0.198 A 
ATOM     89  F   UNL     1      -3.259  11.405  14.987  1.00  0.00    -0.203 F 
ATOM     90  F   UNL     1      -0.674   7.368  17.594  1.00  0.00    -0.200 F 
ATOM     91  C   UNL     1      -2.119   9.235  17.651  1.00  0.00     0.200 A 
ATOM     92  F   UNL     1      -3.568  11.100  17.656  1.00  0.00    -0.200 F 
ATOM     93  F   UNL     1      -2.305   9.069  18.968  1.00  0.00    -0.200 F 
ENDBRANCH  60  83
ENDBRANCH  34  35
ENDBRANCH  26  29
ENDBRANCH  24  25
ENDBRANCH  23  24
ENDBRANCH  22  23
ENDBRANCH   1  22
TORSDOF 16
