REMARK SMILES O=C(NCCCCNC(=O)c1ccccc1Nc1cccc(S(F)(F)(F)(F)F)c1)c1ccc(-c2c3nc(c(-c4c(F)c(F)c(F)c(F)c4F)c4ccc([nH]4)c(-c4c(F)c(F)c(F)c(F)c4F)c4nc(c(-c5c(F)c(F)c(F)c(F)c5F)c5ccc2[nH]5)C=C4)C=C3)cc1
REMARK SMILES IDX 6 1 5 2 4 3 3 4 1 5 2 6 30 8 31 9 92 10 32 11 91 12 33 13
REMARK SMILES IDX 34 14 35 15 85 16 36 17 90 18 84 19 86 20 37 21 89 22 83 23
REMARK SMILES IDX 82 24 38 26 70 27 50 28 69 29 51 30 54 31 68 32 87 33 52 34
REMARK SMILES IDX 53 35 67 37 88 38 55 39 39 40 40 41 48 42 41 43 42 44 46 45
REMARK SMILES IDX 49 46 43 47 44 48 47 49 45 50 71 51 72 52 80 53 73 54 74 55
REMARK SMILES IDX 78 56 81 57 75 58 76 59 79 60 77 61 56 62 57 63 65 64 58 65
REMARK SMILES IDX 59 66 63 67 66 68 60 69 61 70 64 71 62 72 7 73 8 74 9 75
REMARK SMILES IDX 10 77 11 78 12 79 16 80 13 81 15 82 14 83 17 84 18 86 19 87
REMARK SMILES IDX 29 88 20 89 22 90 21 91 23 92 24 93 25 94 26 95 27 96 28 97
REMARK H PARENT 3 7 86 25 54 36 8 76 17 85
REMARK Flexibility Score: inf
ROOT
ATOM      1  C   UNL     1       4.550   2.994   2.108  1.00  0.00     0.023 C 
ENDROOT
BRANCH   1   2
ATOM      2  C   UNL     1       5.057   2.153   0.948  1.00  0.00     0.023 C 
BRANCH   2   3
ATOM      3  C   UNL     1       4.550   0.728   1.095  1.00  0.00     0.116 C 
BRANCH   3   4
ATOM      4  N   UNL     1       3.080   0.728   1.095  1.00  0.00    -0.352 N 
ATOM      5  O   UNL     1       1.074  -0.019   0.064  1.00  0.00    -0.269 OA
ATOM      6  C   UNL     1       2.345  -0.019   0.064  1.00  0.00     0.251 C 
ATOM      7  H   UNL     1       2.588   1.228   1.786  1.00  0.00     0.163 HD
BRANCH   6   8
ATOM      8  C   UNL     1       3.105  -0.792  -1.002  1.00  0.00     0.039 A 
ATOM      9  C   UNL     1       4.096  -1.644  -0.542  1.00  0.00     0.014 A 
ATOM     10  C   UNL     1       2.777  -0.746  -2.288  1.00  0.00     0.014 A 
ATOM     11  C   UNL     1       4.889  -2.207  -1.570  1.00  0.00     0.010 A 
ATOM     12  C   UNL     1       3.515  -1.430  -3.222  1.00  0.00     0.010 A 
ATOM     13  C   UNL     1       4.546  -2.245  -2.845  1.00  0.00    -0.014 A 
BRANCH  13  14
ATOM     14  C   UNL     1       5.260  -3.147  -3.839  1.00  0.00     0.031 A 
ATOM     15  C   UNL     1       5.916  -2.616  -4.951  1.00  0.00     0.074 A 
ATOM     16  C   UNL     1       5.081  -4.502  -3.620  1.00  0.00     0.049 A 
ATOM     17  N   UNL     1       6.497  -3.285  -5.948  1.00  0.00    -0.248 NA
ATOM     18  C   UNL     1       6.078  -1.177  -5.203  1.00  0.00     0.031 C 
ATOM     19  C   UNL     1       4.428  -5.045  -2.496  1.00  0.00     0.029 A 
ATOM     20  N   UNL     1       5.485  -5.548  -4.419  1.00  0.00    -0.354 N 
ATOM     21  C   UNL     1       7.039  -2.432  -6.821  1.00  0.00     0.074 A 
ATOM     22  C   UNL     1       6.771  -1.064  -6.357  1.00  0.00     0.031 C 
ATOM     23  C   UNL     1       4.428  -6.399  -2.622  1.00  0.00     0.029 A 
ATOM     24  C   UNL     1       5.082  -6.724  -3.825  1.00  0.00     0.049 A 
ATOM     25  H   UNL     1       5.978  -5.470  -5.268  1.00  0.00     0.167 HD
ATOM     26  C   UNL     1       7.746  -2.742  -7.983  1.00  0.00     0.037 A 
ATOM     27  C   UNL     1       5.263  -8.016  -4.293  1.00  0.00     0.037 A 
ATOM     28  C   UNL     1       7.965  -4.036  -8.428  1.00  0.00     0.049 A 
ATOM     29  C   UNL     1       5.920  -8.324  -5.486  1.00  0.00     0.074 A 
ATOM     30  C   UNL     1       8.682  -4.366  -9.594  1.00  0.00     0.029 A 
ATOM     31  N   UNL     1       7.540  -5.211  -7.847  1.00  0.00    -0.354 N 
ATOM     32  N   UNL     1       6.495  -7.473  -6.338  1.00  0.00    -0.248 NA
ATOM     33  C   UNL     1       6.089  -9.687  -6.007  1.00  0.00     0.031 C 
ATOM     34  C   UNL     1       8.683  -5.720  -9.720  1.00  0.00     0.029 A 
ATOM     35  C   UNL     1       7.964  -6.258  -8.635  1.00  0.00     0.049 A 
ATOM     36  H   UNL     1       7.023  -5.288  -7.013  1.00  0.00     0.167 HD
ATOM     37  C   UNL     1       7.040  -8.141  -7.356  1.00  0.00     0.074 A 
ATOM     38  C   UNL     1       6.781  -9.574  -7.162  1.00  0.00     0.031 C 
ATOM     39  C   UNL     1       7.747  -7.613  -8.438  1.00  0.00     0.037 A 
BRANCH  26  40
ATOM     40  C   UNL     1       8.308  -1.595  -8.808  1.00  0.00     0.064 A 
ATOM     41  C   UNL     1       9.308  -0.743  -8.367  1.00  0.00     0.173 A 
ATOM     42  C   UNL     1       7.852  -1.536 -10.053  1.00  0.00     0.173 A 
ATOM     43  F   UNL     1       9.967  -0.927  -7.227  1.00  0.00    -0.203 F 
ATOM     44  C   UNL     1       9.563   0.340  -9.240  1.00  0.00     0.198 A 
ATOM     45  C   UNL     1       8.249  -0.526 -10.896  1.00  0.00     0.198 A 
ATOM     46  F   UNL     1       7.003  -2.462 -10.489  1.00  0.00    -0.203 F 
ATOM     47  F   UNL     1      10.226   1.385  -8.752  1.00  0.00    -0.200 F 
ATOM     48  C   UNL     1       9.189   0.387 -10.506  1.00  0.00     0.200 A 
ATOM     49  F   UNL     1       7.710  -0.434 -12.109  1.00  0.00    -0.200 F 
ATOM     50  F   UNL     1       9.700   1.273 -11.356  1.00  0.00    -0.200 F 
ENDBRANCH  26  40
BRANCH  27  51
ATOM     51  C   UNL     1       4.715  -9.163  -3.459  1.00  0.00     0.064 A 
ATOM     52  C   UNL     1       5.513 -10.232  -3.087  1.00  0.00     0.173 A 
ATOM     53  C   UNL     1       3.406  -9.170  -3.236  1.00  0.00     0.173 A 
ATOM     54  F   UNL     1       6.841 -10.170  -3.056  1.00  0.00    -0.203 F 
ATOM     55  C   UNL     1       4.787 -11.397  -2.742  1.00  0.00     0.198 A 
ATOM     56  C   UNL     1       2.782 -10.302  -2.769  1.00  0.00     0.198 A 
ATOM     57  F   UNL     1       2.692  -8.072  -3.466  1.00  0.00    -0.203 F 
ATOM     58  F   UNL     1       5.444 -12.553  -2.723  1.00  0.00    -0.200 F 
ATOM     59  C   UNL     1       3.502 -11.415  -2.437  1.00  0.00     0.200 A 
ATOM     60  F   UNL     1       1.459 -10.314  -2.638  1.00  0.00    -0.200 F 
ATOM     61  F   UNL     1       2.939 -12.461  -1.838  1.00  0.00    -0.200 F 
ENDBRANCH  27  51
BRANCH  39  62
ATOM     62  C   UNL     1       8.313  -8.583  -9.463  1.00  0.00     0.064 A 
ATOM     63  C   UNL     1       7.360  -9.264 -10.202  1.00  0.00     0.173 A 
ATOM     64  C   UNL     1       9.607  -8.687  -9.744  1.00  0.00     0.173 A 
ATOM     65  F   UNL     1       6.059  -9.000 -10.126  1.00  0.00    -0.203 F 
ATOM     66  C   UNL     1       7.897 -10.266 -11.045  1.00  0.00     0.198 A 
ATOM     67  C   UNL     1      10.049  -9.592 -10.678  1.00  0.00     0.198 A 
ATOM     68  F   UNL     1      10.482  -7.907  -9.117  1.00  0.00    -0.203 F 
ATOM     69  F   UNL     1       7.066 -11.195 -11.508  1.00  0.00    -0.200 F 
ATOM     70  C   UNL     1       9.165 -10.342 -11.404  1.00  0.00     0.200 A 
ATOM     71  F   UNL     1      11.355  -9.742 -10.879  1.00  0.00    -0.200 F 
ATOM     72  F   UNL     1       9.562 -11.107 -12.417  1.00  0.00    -0.200 F 
ENDBRANCH  39  62
ENDBRANCH  13  14
ENDBRANCH   6   8
ENDBRANCH   3   4
ENDBRANCH   2   3
ENDBRANCH   1   2
BRANCH   1  73
ATOM     73  C   UNL     1       5.057   2.409   3.416  1.00  0.00     0.116 C 
BRANCH  73  74
ATOM     74  N   UNL     1       6.527   2.409   3.416  1.00  0.00    -0.352 N 
ATOM     75  C   UNL     1       7.262   3.156   4.447  1.00  0.00     0.253 C 
ATOM     76  H   UNL     1       7.019   1.909   2.726  1.00  0.00     0.163 HD
ATOM     77  O   UNL     1       8.533   3.156   4.447  1.00  0.00    -0.269 OA
BRANCH  75  78
ATOM     78  C   UNL     1       6.502   3.928   5.513  1.00  0.00     0.063 A 
ATOM     79  C   UNL     1       7.014   5.157   5.895  1.00  0.00     0.016 A 
ATOM     80  C   UNL     1       5.462   3.390   6.141  1.00  0.00     0.051 A 
ATOM     81  C   UNL     1       6.537   5.613   7.147  1.00  0.00     0.001 A 
ATOM     82  C   UNL     1       4.962   3.964   7.284  1.00  0.00     0.027 A 
ATOM     83  C   UNL     1       5.459   5.148   7.753  1.00  0.00     0.002 A 
BRANCH  80  84
ATOM     84  N   UNL     1       4.842   2.169   5.607  1.00  0.00    -0.355 N 
ATOM     85  H   UNL     1       5.197   1.754   4.788  1.00  0.00     0.167 HD
BRANCH  84  86
ATOM     86  C   UNL     1       3.691   1.568   6.296  1.00  0.00     0.040 A 
ATOM     87  C   UNL     1       3.749   0.261   6.752  1.00  0.00     0.026 A 
ATOM     88  C   UNL     1       2.591   2.297   6.436  1.00  0.00     0.050 A 
ATOM     89  C   UNL     1       2.488  -0.286   7.086  1.00  0.00     0.004 A 
ATOM     90  C   UNL     1       1.428   1.729   6.897  1.00  0.00     0.109 A 
ATOM     91  C   UNL     1       1.398   0.425   7.309  1.00  0.00     0.024 A 
BRANCH  90  92
ATOM     92  S   UNL     1      -0.086   2.719   6.960  1.00  0.00     0.310 S 
ATOM     93  F   UNL     1      -0.088   2.727   8.546  1.00  0.00    -0.094 F 
ATOM     94  F   UNL     1      -0.922   1.386   7.034  1.00  0.00    -0.094 F 
ATOM     95  F   UNL     1      -1.386   3.570   7.015  1.00  0.00    -0.094 F 
ATOM     96  F   UNL     1       0.774   4.043   7.028  1.00  0.00    -0.094 F 
ATOM     97  F   UNL     1       1.246   1.869   7.019  1.00  0.00    -0.094 F 
ENDBRANCH  90  92
ENDBRANCH  84  86
ENDBRANCH  80  84
ENDBRANCH  75  78
ENDBRANCH  73  74
ENDBRANCH   1  73
TORSDOF 14
