REMARK SMILES COc1cc(Br)c(N)c(C(=O)NCCCCNC(=O)c2ccc(-c3c4nc(c(-c5c(F)c(F)c(F)c(F)c5F)c5ccc([nH]5)c(-c5c(F)c(F)c(F)c(F)c5F)c5nc(c(-c6c(F)c(F)c(F)c(F)c6F)c6ccc3[nH]6)C=C5)C=C4)cc2)c1
REMARK SMILES IDX 15 1 14 2 13 3 12 4 10 5 11 6 9 8 3 9 4 10 83 11 5 12 6 13
REMARK SMILES IDX 7 14 2 15 1 16 8 17 16 20 17 21 18 22 19 24 20 25 21 26
REMARK SMILES IDX 82 27 22 28 81 29 23 30 24 31 25 32 75 33 26 34 80 35 74 36
REMARK SMILES IDX 76 37 27 38 79 39 73 40 72 41 28 43 60 44 40 45 59 46 41 47
REMARK SMILES IDX 44 48 58 49 77 50 42 51 43 52 57 54 78 55 45 56 29 57 30 58
REMARK SMILES IDX 38 59 31 60 32 61 36 62 39 63 33 64 34 65 37 66 35 67 61 68
REMARK SMILES IDX 62 69 70 70 63 71 64 72 68 73 71 74 65 75 66 76 69 77 67 78
REMARK SMILES IDX 46 79 47 80 55 81 48 82 49 83 53 84 56 85 50 86 51 87 54 88
REMARK SMILES IDX 52 89
REMARK H PARENT 12 7 8 18 8 19 17 23 76 42 44 53
REMARK Flexibility Score: inf
ROOT
ATOM      1  C   UNL     1       5.145  -7.887   1.695  1.00  0.00     0.023 C 
ENDROOT
BRANCH   1   2
ATOM      2  C   UNL     1       3.745  -7.375   1.353  1.00  0.00     0.023 C 
BRANCH   2   3
ATOM      3  C   UNL     1       3.234  -6.188   2.165  1.00  0.00     0.116 C 
BRANCH   3   4
ATOM      4  N   UNL     1       4.083  -5.010   2.122  1.00  0.00    -0.352 N 
ATOM      5  C   UNL     1       3.750  -3.680   2.253  1.00  0.00     0.253 C 
ATOM      6  O   UNL     1       4.655  -2.846   2.215  1.00  0.00    -0.269 OA
ATOM      7  H   UNL     1       5.040  -5.190   1.978  1.00  0.00     0.163 HD
BRANCH   5   8
ATOM      8  C   UNL     1       2.339  -3.208   2.356  1.00  0.00     0.067 A 
ATOM      9  C   UNL     1       0.718  -1.592   1.510  1.00  0.00     0.120 A 
ATOM     10  C   UNL     1      -0.271  -2.220   2.260  1.00  0.00     0.064 A 
ATOM     11  C   UNL     1       2.014  -2.101   1.538  1.00  0.00     0.062 A 
ATOM     12  C   UNL     1       0.050  -3.294   3.090  1.00  0.00     0.045 A 
ATOM     13  Br  UNL     1      -1.372  -4.108   4.062  1.00  0.00    -0.048 Br
ATOM     14  C   UNL     1       1.377  -3.744   3.233  1.00  0.00     0.059 A 
BRANCH   9  15
ATOM     15  O   UNL     1       0.289  -0.491   0.825  1.00  0.00    -0.497 OA
ATOM     16  C   UNL     1       1.117  -0.010  -0.225  1.00  0.00     0.278 C 
ENDBRANCH   9  15
BRANCH  14  17
ATOM     17  N   UNL     1       1.675  -4.729   4.178  1.00  0.00    -0.397 N 
ATOM     18  H   UNL     1       0.969  -5.074   4.771  1.00  0.00     0.156 HD
ATOM     19  H   UNL     1       2.593  -5.079   4.251  1.00  0.00     0.156 HD
ENDBRANCH  14  17
ENDBRANCH   5   8
ENDBRANCH   3   4
ENDBRANCH   2   3
ENDBRANCH   1   2
BRANCH   1  20
ATOM     20  C   UNL     1       5.467  -8.070   3.175  1.00  0.00     0.116 C 
BRANCH  20  21
ATOM     21  N   UNL     1       4.624  -9.049   3.846  1.00  0.00    -0.352 N 
ATOM     22  C   UNL     1       4.940 -10.248   4.441  1.00  0.00     0.251 C 
ATOM     23  H   UNL     1       3.669  -8.813   3.881  1.00  0.00     0.163 HD
ATOM     24  O   UNL     1       4.044 -10.964   4.882  1.00  0.00    -0.269 OA
BRANCH  22  25
ATOM     25  C   UNL     1       6.343 -10.713   4.514  1.00  0.00     0.039 A 
ATOM     26  C   UNL     1       6.629 -12.041   4.180  1.00  0.00     0.014 A 
ATOM     27  C   UNL     1       7.377  -9.860   4.903  1.00  0.00     0.014 A 
ATOM     28  C   UNL     1       7.955 -12.480   4.136  1.00  0.00     0.010 A 
ATOM     29  C   UNL     1       8.702 -10.271   4.774  1.00  0.00     0.010 A 
ATOM     30  C   UNL     1       9.007 -11.582   4.378  1.00  0.00    -0.014 A 
BRANCH  30  31
ATOM     31  C   UNL     1      10.428 -11.985   4.201  1.00  0.00     0.031 A 
ATOM     32  C   UNL     1      11.380 -11.953   5.364  1.00  0.00     0.074 A 
ATOM     33  C   UNL     1      10.883 -12.299   2.972  1.00  0.00     0.049 A 
ATOM     34  N   UNL     1      12.671 -12.178   5.386  1.00  0.00    -0.248 NA
ATOM     35  C   UNL     1      10.813 -11.587   6.670  1.00  0.00     0.031 C 
ATOM     36  C   UNL     1      10.078 -12.314   1.749  1.00  0.00     0.029 A 
ATOM     37  N   UNL     1      12.140 -12.651   2.543  1.00  0.00    -0.354 N 
ATOM     38  C   UNL     1      13.069 -11.961   6.698  1.00  0.00     0.074 A 
ATOM     39  C   UNL     1      11.896 -11.534   7.430  1.00  0.00     0.031 C 
ATOM     40  C   UNL     1      10.853 -12.678   0.715  1.00  0.00     0.029 A 
ATOM     41  C   UNL     1      12.217 -12.883   1.191  1.00  0.00     0.049 A 
ATOM     42  H   UNL     1      12.913 -12.730   3.148  1.00  0.00     0.167 HD
ATOM     43  C   UNL     1      14.297 -12.125   7.249  1.00  0.00     0.037 A 
ATOM     44  C   UNL     1      13.270 -13.216   0.419  1.00  0.00     0.037 A 
ATOM     45  C   UNL     1      15.457 -12.576   6.526  1.00  0.00     0.049 A 
ATOM     46  C   UNL     1      14.621 -13.398   1.054  1.00  0.00     0.074 A 
ATOM     47  C   UNL     1      16.726 -12.841   7.009  1.00  0.00     0.029 A 
ATOM     48  N   UNL     1      15.489 -12.828   5.162  1.00  0.00    -0.354 N 
ATOM     49  N   UNL     1      14.970 -13.261   2.310  1.00  0.00    -0.248 NA
ATOM     50  C   UNL     1      15.724 -13.787   0.164  1.00  0.00     0.031 C 
ATOM     51  C   UNL     1      17.538 -13.208   5.930  1.00  0.00     0.029 A 
ATOM     52  C   UNL     1      16.762 -13.222   4.782  1.00  0.00     0.049 A 
ATOM     53  H   UNL     1      14.720 -12.739   4.553  1.00  0.00     0.167 HD
ATOM     54  C   UNL     1      16.322 -13.571   2.367  1.00  0.00     0.074 A 
ATOM     55  C   UNL     1      16.728 -13.918   1.021  1.00  0.00     0.031 C 
ATOM     56  C   UNL     1      17.152 -13.569   3.439  1.00  0.00     0.037 A 
BRANCH  43  57
ATOM     57  C   UNL     1      14.445 -11.814   8.711  1.00  0.00     0.064 A 
ATOM     58  C   UNL     1      13.850 -12.615   9.699  1.00  0.00     0.173 A 
ATOM     59  C   UNL     1      15.210 -10.716   9.133  1.00  0.00     0.173 A 
ATOM     60  F   UNL     1      13.100 -13.671   9.350  1.00  0.00    -0.203 F 
ATOM     61  C   UNL     1      13.983 -12.306  11.050  1.00  0.00     0.198 A 
ATOM     62  C   UNL     1      15.368 -10.429  10.486  1.00  0.00     0.198 A 
ATOM     63  F   UNL     1      15.808  -9.922   8.232  1.00  0.00    -0.203 F 
ATOM     64  F   UNL     1      13.356 -13.052  11.970  1.00  0.00    -0.200 F 
ATOM     65  C   UNL     1      14.746 -11.217  11.443  1.00  0.00     0.200 A 
ATOM     66  F   UNL     1      16.118  -9.385  10.865  1.00  0.00    -0.200 F 
ATOM     67  F   UNL     1      14.876 -10.923  12.744  1.00  0.00    -0.200 F 
ENDBRANCH  43  57
BRANCH  44  68
ATOM     68  C   UNL     1      13.079 -13.427  -1.039  1.00  0.00     0.064 A 
ATOM     69  C   UNL     1      13.159 -14.711  -1.595  1.00  0.00     0.173 A 
ATOM     70  C   UNL     1      12.804 -12.357  -1.904  1.00  0.00     0.173 A 
ATOM     71  F   UNL     1      13.441 -15.763  -0.811  1.00  0.00    -0.203 F 
ATOM     72  C   UNL     1      12.987 -14.916  -2.962  1.00  0.00     0.198 A 
ATOM     73  C   UNL     1      12.605 -12.567  -3.267  1.00  0.00     0.198 A 
ATOM     74  F   UNL     1      12.712 -11.110  -1.421  1.00  0.00    -0.203 F 
ATOM     75  F   UNL     1      13.108 -16.149  -3.473  1.00  0.00    -0.200 F 
ATOM     76  C   UNL     1      12.703 -13.845  -3.796  1.00  0.00     0.200 A 
ATOM     77  F   UNL     1      12.317 -11.532  -4.067  1.00  0.00    -0.200 F 
ATOM     78  F   UNL     1      12.530 -14.044  -5.110  1.00  0.00    -0.200 F 
ENDBRANCH  44  68
BRANCH  56  79
ATOM     79  C   UNL     1      18.576 -13.985   3.209  1.00  0.00     0.064 A 
ATOM     80  C   UNL     1      19.483 -13.163   2.525  1.00  0.00     0.173 A 
ATOM     81  C   UNL     1      19.049 -15.205   3.717  1.00  0.00     0.173 A 
ATOM     82  F   UNL     1      19.076 -11.994   2.007  1.00  0.00    -0.203 F 
ATOM     83  C   UNL     1      20.805 -13.557   2.337  1.00  0.00     0.198 A 
ATOM     84  C   UNL     1      20.378 -15.583   3.553  1.00  0.00     0.198 A 
ATOM     85  F   UNL     1      18.223 -16.026   4.384  1.00  0.00    -0.203 F 
ATOM     86  F   UNL     1      21.642 -12.777   1.641  1.00  0.00    -0.200 F 
ATOM     87  C   UNL     1      21.253 -14.762   2.858  1.00  0.00     0.200 A 
ATOM     88  F   UNL     1      20.813 -16.741   4.068  1.00  0.00    -0.200 F 
ATOM     89  F   UNL     1      22.529 -15.136   2.683  1.00  0.00    -0.200 F 
ENDBRANCH  56  79
ENDBRANCH  30  31
ENDBRANCH  22  25
ENDBRANCH  20  21
ENDBRANCH   1  20
TORSDOF 13
