REMARK SMILES O=C(NCCCCNC(=O)c1coc(-c2csc(-c3ccc(Cl)cn3)n2)c1)c1ccc(-c2c3nc(c(-c4c(F)c(F)c(F)c(F)c4F)c4ccc([nH]4)c(-c4c(F)c(F)c(F)c(F)c4F)c4nc(c(-c5c(F)c(F)c(F)c(F)c5F)c5ccc2[nH]5)C=C4)C=C3)cc1
REMARK SMILES IDX 5 1 4 2 3 3 1 4 2 5 28 7 29 8 90 9 30 10 89 11 31 12 32 13
REMARK SMILES IDX 33 14 83 15 34 16 88 17 82 18 84 19 35 20 87 21 81 22 80 23
REMARK SMILES IDX 36 25 68 26 48 27 67 28 49 29 52 30 66 31 85 32 50 33 51 34
REMARK SMILES IDX 65 36 86 37 53 38 37 39 38 40 46 41 39 42 40 43 44 44 47 45
REMARK SMILES IDX 41 46 42 47 45 48 43 49 69 50 70 51 78 52 71 53 72 54 76 55
REMARK SMILES IDX 79 56 73 57 74 58 77 59 75 60 54 61 55 62 63 63 56 64 57 65
REMARK SMILES IDX 61 66 64 67 58 68 59 69 62 70 60 71 6 72 7 73 8 74 9 75
REMARK SMILES IDX 10 77 11 78 12 79 27 80 13 81 14 82 15 83 16 84 26 85 17 86
REMARK SMILES IDX 18 87 19 88 20 89 25 90 21 91 24 92 22 93 23 94
REMARK H PARENT 3 6 84 24 52 35 8 76
REMARK Flexibility Score: inf
ROOT
ATOM      1  C   UNL     1       4.561  -1.848  -2.596  1.00  0.00     0.023 C 
ENDROOT
BRANCH   1   2
ATOM      2  C   UNL     1       4.463  -0.862  -1.432  1.00  0.00     0.116 C 
BRANCH   2   3
ATOM      3  N   UNL     1       3.120  -0.347  -1.239  1.00  0.00    -0.352 N 
ATOM      4  O   UNL     1       1.312   0.378  -0.125  1.00  0.00    -0.269 OA
ATOM      5  C   UNL     1       2.504   0.084  -0.092  1.00  0.00     0.251 C 
ATOM      6  H   UNL     1       2.569  -0.300  -2.054  1.00  0.00     0.163 HD
BRANCH   5   7
ATOM      7  C   UNL     1       3.237   0.171   1.194  1.00  0.00     0.039 A 
ATOM      8  C   UNL     1       4.513   0.735   1.286  1.00  0.00     0.014 A 
ATOM      9  C   UNL     1       2.583  -0.258   2.356  1.00  0.00     0.014 A 
ATOM     10  C   UNL     1       5.157   0.807   2.525  1.00  0.00     0.010 A 
ATOM     11  C   UNL     1       3.216  -0.163   3.598  1.00  0.00     0.010 A 
ATOM     12  C   UNL     1       4.515   0.354   3.688  1.00  0.00    -0.014 A 
BRANCH  12  13
ATOM     13  C   UNL     1       5.202   0.451   4.998  1.00  0.00     0.031 A 
ATOM     14  C   UNL     1       5.840  -0.758   5.616  1.00  0.00     0.074 A 
ATOM     15  C   UNL     1       5.261   1.637   5.630  1.00  0.00     0.049 A 
ATOM     16  N   UNL     1       6.537  -0.849   6.721  1.00  0.00    -0.248 NA
ATOM     17  C   UNL     1       5.669  -2.033   4.904  1.00  0.00     0.031 C 
ATOM     18  C   UNL     1       4.655   2.880   5.151  1.00  0.00     0.029 A 
ATOM     19  N   UNL     1       5.868   1.990   6.808  1.00  0.00    -0.354 N 
ATOM     20  C   UNL     1       6.880  -2.187   6.842  1.00  0.00     0.074 A 
ATOM     21  C   UNL     1       6.308  -2.876   5.705  1.00  0.00     0.031 C 
ATOM     22  C   UNL     1       4.944   3.866   6.017  1.00  0.00     0.029 A 
ATOM     23  C   UNL     1       5.747   3.322   7.109  1.00  0.00     0.049 A 
ATOM     24  H   UNL     1       6.345   1.348   7.383  1.00  0.00     0.167 HD
ATOM     25  C   UNL     1       7.613  -2.785   7.811  1.00  0.00     0.037 A 
ATOM     26  C   UNL     1       6.241   4.029   8.142  1.00  0.00     0.037 A 
ATOM     27  C   UNL     1       8.205  -2.109   8.933  1.00  0.00     0.049 A 
ATOM     28  C   UNL     1       7.073   3.346   9.187  1.00  0.00     0.074 A 
ATOM     29  C   UNL     1       9.008  -2.632   9.933  1.00  0.00     0.029 A 
ATOM     30  N   UNL     1       8.057  -0.759   9.204  1.00  0.00    -0.354 N 
ATOM     31  N   UNL     1       7.431   2.090   9.264  1.00  0.00    -0.248 NA
ATOM     32  C   UNL     1       7.570   4.185  10.288  1.00  0.00     0.031 C 
ATOM     33  C   UNL     1       9.335  -1.598  10.818  1.00  0.00     0.029 A 
ATOM     34  C   UNL     1       8.744  -0.432  10.362  1.00  0.00     0.049 A 
ATOM     35  H   UNL     1       7.541  -0.125   8.655  1.00  0.00     0.167 HD
ATOM     36  C   UNL     1       8.197   1.984  10.415  1.00  0.00     0.074 A 
ATOM     37  C   UNL     1       8.260   3.306  11.004  1.00  0.00     0.031 C 
ATOM     38  C   UNL     1       8.793   0.885  10.936  1.00  0.00     0.037 A 
BRANCH  25  39
ATOM     39  C   UNL     1       7.817  -4.261   7.696  1.00  0.00     0.064 A 
ATOM     40  C   UNL     1       8.847  -4.788   6.905  1.00  0.00     0.173 A 
ATOM     41  C   UNL     1       7.003  -5.151   8.408  1.00  0.00     0.173 A 
ATOM     42  F   UNL     1       9.641  -3.970   6.198  1.00  0.00    -0.203 F 
ATOM     43  C   UNL     1       9.051  -6.162   6.827  1.00  0.00     0.198 A 
ATOM     44  C   UNL     1       7.214  -6.525   8.332  1.00  0.00     0.198 A 
ATOM     45  F   UNL     1       6.003  -4.688   9.172  1.00  0.00    -0.203 F 
ATOM     46  F   UNL     1      10.031  -6.650   6.053  1.00  0.00    -0.200 F 
ATOM     47  C   UNL     1       8.237  -7.029   7.542  1.00  0.00     0.200 A 
ATOM     48  F   UNL     1       6.425  -7.362   9.020  1.00  0.00    -0.200 F 
ATOM     49  F   UNL     1       8.434  -8.352   7.463  1.00  0.00    -0.200 F 
ENDBRANCH  25  39
BRANCH  26  50
ATOM     50  C   UNL     1       5.984   5.484   8.214  1.00  0.00     0.064 A 
ATOM     51  C   UNL     1       6.931   6.399   7.737  1.00  0.00     0.173 A 
ATOM     52  C   UNL     1       4.785   5.981   8.738  1.00  0.00     0.173 A 
ATOM     53  F   UNL     1       8.097   5.960   7.243  1.00  0.00    -0.203 F 
ATOM     54  C   UNL     1       6.685   7.768   7.783  1.00  0.00     0.198 A 
ATOM     55  C   UNL     1       4.538   7.351   8.778  1.00  0.00     0.198 A 
ATOM     56  F   UNL     1       3.857   5.136   9.210  1.00  0.00    -0.203 F 
ATOM     57  F   UNL     1       7.609   8.628   7.332  1.00  0.00    -0.200 F 
ATOM     58  C   UNL     1       5.488   8.243   8.300  1.00  0.00     0.200 A 
ATOM     59  F   UNL     1       3.383   7.808   9.279  1.00  0.00    -0.200 F 
ATOM     60  F   UNL     1       5.252   9.561   8.343  1.00  0.00    -0.200 F 
ENDBRANCH  26  50
BRANCH  38  61
ATOM     61  C   UNL     1       9.562   1.067  12.205  1.00  0.00     0.064 A 
ATOM     62  C   UNL     1       8.917   1.028  13.448  1.00  0.00     0.173 A 
ATOM     63  C   UNL     1      10.951   1.245  12.181  1.00  0.00     0.173 A 
ATOM     64  F   UNL     1       7.586   0.873  13.514  1.00  0.00    -0.203 F 
ATOM     65  C   UNL     1       9.639   1.168  14.629  1.00  0.00     0.198 A 
ATOM     66  C   UNL     1      11.672   1.378  13.365  1.00  0.00     0.198 A 
ATOM     67  F   UNL     1      11.606   1.293  11.012  1.00  0.00    -0.203 F 
ATOM     68  F   UNL     1       9.004   1.146  15.809  1.00  0.00    -0.200 F 
ATOM     69  C   UNL     1      11.016   1.340  14.587  1.00  0.00     0.200 A 
ATOM     70  F   UNL     1      13.001   1.548  13.324  1.00  0.00    -0.200 F 
ATOM     71  F   UNL     1      11.710   1.477  15.725  1.00  0.00    -0.200 F 
ENDBRANCH  38  61
ENDBRANCH  12  13
ENDBRANCH   5   7
ENDBRANCH   2   3
ENDBRANCH   1   2
BRANCH   1  72
ATOM     72  C   UNL     1       4.163  -1.302  -3.976  1.00  0.00     0.023 C 
BRANCH  72  73
ATOM     73  C   UNL     1       4.893  -0.030  -4.413  1.00  0.00     0.116 C 
BRANCH  73  74
ATOM     74  N   UNL     1       6.329  -0.230  -4.467  1.00  0.00    -0.352 N 
ATOM     75  C   UNL     1       7.102  -0.633  -5.525  1.00  0.00     0.254 C 
ATOM     76  H   UNL     1       6.814  -0.052  -3.629  1.00  0.00     0.163 HD
ATOM     77  O   UNL     1       8.245  -1.025  -5.313  1.00  0.00    -0.269 OA
BRANCH  75  78
ATOM     78  C   UNL     1       6.544  -0.586  -6.857  1.00  0.00     0.078 A 
ATOM     79  C   UNL     1       6.149   0.553  -7.527  1.00  0.00     0.209 A 
ATOM     80  C   UNL     1       6.399  -1.646  -7.794  1.00  0.00     0.066 A 
ATOM     81  O   UNL     1       5.777   0.261  -8.799  1.00  0.00    -0.462 OA
ATOM     82  C   UNL     1       5.929  -1.087  -8.967  1.00  0.00     0.153 A 
BRANCH  82  83
ATOM     83  C   UNL     1       5.665  -1.825 -10.233  1.00  0.00     0.117 A 
ATOM     84  C   UNL     1       5.385  -1.183 -11.420  1.00  0.00     0.099 A 
ATOM     85  N   UNL     1       5.689  -3.206 -10.293  1.00  0.00    -0.231 NA
ATOM     86  S   UNL     1       5.221  -2.336 -12.676  1.00  0.00    -0.120 S 
ATOM     87  C   UNL     1       5.486  -3.603 -11.536  1.00  0.00     0.142 A 
BRANCH  87  88
ATOM     88  C   UNL     1       5.405  -5.004 -11.965  1.00  0.00     0.099 A 
ATOM     89  C   UNL     1       4.668  -5.927 -11.225  1.00  0.00     0.033 A 
ATOM     90  N   UNL     1       6.093  -5.342 -13.087  1.00  0.00    -0.252 NA
ATOM     91  C   UNL     1       4.620  -7.253 -11.656  1.00  0.00     0.024 A 
ATOM     92  C   UNL     1       6.045  -6.643 -13.468  1.00  0.00     0.132 A 
ATOM     93  C   UNL     1       5.327  -7.620 -12.795  1.00  0.00     0.059 A 
ATOM     94  Cl  UNL     1       5.309  -9.243 -13.350  1.00  0.00    -0.083 Cl
ENDBRANCH  87  88
ENDBRANCH  82  83
ENDBRANCH  75  78
ENDBRANCH  73  74
ENDBRANCH  72  73
ENDBRANCH   1  72
TORSDOF 13
