REMARK SMILES Cc1cc(C(=O)N2C[C@@H](C(=O)NCCCCNC(=O)c3ccc(-c4c5nc(c(-c6c(F)c(F)c(F)c(F)c6F)c6ccc([nH]6)c(-c6c(F)c(F)c(F)c(F)c6F)c6nc(c(-c7c(F)c(F)c(F)c(F)c7F)c7ccc4[nH]7)C=C6)C=C5)cc3)[C@H](C3CC3)C2)sc1C
REMARK SMILES IDX 14 1 13 2 12 3 10 4 11 5 9 7 7 8 8 9 87 10 83 11 5 12 6 13
REMARK SMILES IDX 4 14 1 15 2 16 3 17 89 18 88 19 90 20 84 21 85 22 86 23
REMARK SMILES IDX 15 24 16 25 17 26 18 27 19 29 20 30 21 31 82 32 22 33 81 34
REMARK SMILES IDX 23 35 24 36 25 37 75 38 26 39 80 40 74 41 76 42 27 43 79 44
REMARK SMILES IDX 73 45 72 46 28 48 60 49 40 50 59 51 41 52 44 53 58 54 77 55
REMARK SMILES IDX 42 56 43 57 57 59 78 60 45 61 29 62 30 63 38 64 31 65 32 66
REMARK SMILES IDX 36 67 39 68 33 69 34 70 37 71 35 72 61 73 62 74 70 75 63 76
REMARK SMILES IDX 64 77 68 78 71 79 65 80 66 81 69 82 67 83 46 84 47 85 55 86
REMARK SMILES IDX 48 87 49 88 53 89 56 90 50 91 51 92 54 93 52 94
REMARK H PARENT 12 6 17 28 76 47 44 58
REMARK Flexibility Score: inf
ROOT
ATOM      1  C   UNL     1       6.218   3.795  -0.066  1.00  0.00     0.023 C 
ENDROOT
BRANCH   1   2
ATOM      2  C   UNL     1       6.307   2.329  -0.475  1.00  0.00     0.116 C 
BRANCH   2   3
ATOM      3  N   UNL     1       6.648   1.433   0.615  1.00  0.00    -0.356 N 
ATOM      4  C   UNL     1       6.282   0.130   0.809  1.00  0.00     0.225 C 
ATOM      5  O   UNL     1       6.821  -0.488   1.728  1.00  0.00    -0.275 OA
ATOM      6  H   UNL     1       7.226   1.817   1.313  1.00  0.00     0.163 HD
BRANCH   4   7
ATOM      7  C   UNL     1       5.227  -0.508  -0.072  1.00  0.00     0.103 C 
ATOM      8  N   UNL     1       3.506  -2.053  -0.118  1.00  0.00    -0.337 N 
ATOM      9  C   UNL     1       4.148  -1.139   0.805  1.00  0.00     0.133 C 
ATOM     10  C   UNL     1       4.509  -2.661  -0.965  1.00  0.00     0.124 C 
ATOM     11  C   UNL     1       5.737  -1.718  -0.894  1.00  0.00     0.026 C 
BRANCH   8  12
ATOM     12  C   UNL     1       2.167  -2.345  -0.322  1.00  0.00     0.263 C 
ATOM     13  O   UNL     1       1.867  -3.441  -0.805  1.00  0.00    -0.268 OA
BRANCH  12  14
ATOM     14  C   UNL     1       1.135  -1.343  -0.066  1.00  0.00     0.093 A 
ATOM     15  C   UNL     1      -2.524  -0.456   0.168  1.00  0.00     0.045 C 
ATOM     16  C   UNL     1      -1.032  -0.419   0.101  1.00  0.00    -0.037 A 
ATOM     17  C   UNL     1      -0.216  -1.600   0.091  1.00  0.00     0.029 A 
ATOM     18  C   UNL     1      -0.249   0.718   0.001  1.00  0.00     0.005 A 
ATOM     19  S   UNL     1       1.402   0.339  -0.207  1.00  0.00    -0.135 S 
ATOM     20  C   UNL     1      -0.680   2.148  -0.007  1.00  0.00     0.056 C 
ENDBRANCH  12  14
ENDBRANCH   8  12
BRANCH  11  21
ATOM     21  C   UNL     1       6.264  -1.453  -2.288  1.00  0.00    -0.005 C 
ATOM     22  C   UNL     1       6.010  -0.195  -3.083  1.00  0.00     0.004 C 
ATOM     23  C   UNL     1       7.384  -0.478  -2.537  1.00  0.00     0.004 C 
ENDBRANCH  11  21
ENDBRANCH   4   7
ENDBRANCH   2   3
ENDBRANCH   1   2
BRANCH   1  24
ATOM     24  C   UNL     1       7.508   4.426   0.455  1.00  0.00     0.023 C 
BRANCH  24  25
ATOM     25  C   UNL     1       8.754   4.216  -0.400  1.00  0.00     0.116 C 
BRANCH  25  26
ATOM     26  N   UNL     1       8.626   4.721  -1.760  1.00  0.00    -0.352 N 
ATOM     27  C   UNL     1       9.347   5.687  -2.424  1.00  0.00     0.251 C 
ATOM     28  H   UNL     1       7.908   4.304  -2.289  1.00  0.00     0.163 HD
ATOM     29  O   UNL     1       9.019   6.032  -3.552  1.00  0.00    -0.269 OA
BRANCH  27  30
ATOM     30  C   UNL     1      10.488   6.351  -1.757  1.00  0.00     0.039 A 
ATOM     31  C   UNL     1      10.550   7.747  -1.769  1.00  0.00     0.014 A 
ATOM     32  C   UNL     1      11.467   5.612  -1.090  1.00  0.00     0.014 A 
ATOM     33  C   UNL     1      11.523   8.403  -1.012  1.00  0.00     0.010 A 
ATOM     34  C   UNL     1      12.388   6.265  -0.275  1.00  0.00     0.010 A 
ATOM     35  C   UNL     1      12.406   7.667  -0.205  1.00  0.00    -0.014 A 
BRANCH  35  36
ATOM     36  C   UNL     1      13.302   8.342   0.769  1.00  0.00     0.031 A 
ATOM     37  C   UNL     1      14.794   8.234   0.643  1.00  0.00     0.074 A 
ATOM     38  C   UNL     1      12.761   8.980   1.826  1.00  0.00     0.049 A 
ATOM     39  N   UNL     1      15.726   8.682   1.446  1.00  0.00    -0.248 NA
ATOM     40  C   UNL     1      15.308   7.505  -0.527  1.00  0.00     0.031 C 
ATOM     41  C   UNL     1      11.327   9.105   2.095  1.00  0.00     0.029 A 
ATOM     42  N   UNL     1      13.352   9.629   2.882  1.00  0.00    -0.354 N 
ATOM     43  C   UNL     1      16.932   8.281   0.888  1.00  0.00     0.074 A 
ATOM     44  C   UNL     1      16.613   7.513  -0.298  1.00  0.00     0.031 C 
ATOM     45  C   UNL     1      11.149   9.804   3.227  1.00  0.00     0.029 A 
ATOM     46  C   UNL     1      12.453  10.142   3.787  1.00  0.00     0.049 A 
ATOM     47  H   UNL     1      14.327   9.719   2.982  1.00  0.00     0.167 HD
ATOM     48  C   UNL     1      18.190   8.547   1.314  1.00  0.00     0.037 A 
ATOM     49  C   UNL     1      12.656  10.799   4.944  1.00  0.00     0.037 A 
ATOM     50  C   UNL     1      18.505   9.329   2.481  1.00  0.00     0.049 A 
ATOM     51  C   UNL     1      14.063  11.072   5.399  1.00  0.00     0.074 A 
ATOM     52  C   UNL     1      19.749   9.715   2.950  1.00  0.00     0.029 A 
ATOM     53  N   UNL     1      17.568   9.842   3.365  1.00  0.00    -0.354 N 
ATOM     54  N   UNL     1      15.195  10.752   4.821  1.00  0.00    -0.248 NA
ATOM     55  C   UNL     1      14.221  11.797   6.667  1.00  0.00     0.031 C 
ATOM     56  C   UNL     1      19.567  10.422   4.144  1.00  0.00     0.029 A 
ATOM     57  C   UNL     1      18.208  10.517   4.394  1.00  0.00     0.049 A 
ATOM     58  H   UNL     1      16.593   9.742   3.277  1.00  0.00     0.167 HD
ATOM     59  C   UNL     1      16.196  11.253   5.641  1.00  0.00     0.074 A 
ATOM     60  C   UNL     1      15.539  11.915   6.747  1.00  0.00     0.031 C 
ATOM     61  C   UNL     1      17.541  11.169   5.491  1.00  0.00     0.037 A 
BRANCH  48  62
ATOM     62  C   UNL     1      19.327   7.992   0.507  1.00  0.00     0.064 A 
ATOM     63  C   UNL     1      19.645   8.503  -0.760  1.00  0.00     0.173 A 
ATOM     64  C   UNL     1      20.139   6.973   1.026  1.00  0.00     0.173 A 
ATOM     65  F   UNL     1      18.893   9.472  -1.305  1.00  0.00    -0.203 F 
ATOM     66  C   UNL     1      20.717   7.996  -1.489  1.00  0.00     0.198 A 
ATOM     67  C   UNL     1      21.228   6.488   0.307  1.00  0.00     0.198 A 
ATOM     68  F   UNL     1      19.883   6.454   2.237  1.00  0.00    -0.203 F 
ATOM     69  F   UNL     1      20.975   8.471  -2.716  1.00  0.00    -0.200 F 
ATOM     70  C   UNL     1      21.512   6.995  -0.952  1.00  0.00     0.200 A 
ATOM     71  F   UNL     1      22.003   5.528   0.832  1.00  0.00    -0.200 F 
ATOM     72  F   UNL     1      22.550   6.514  -1.651  1.00  0.00    -0.200 F 
ENDBRANCH  48  62
BRANCH  49  73
ATOM     73  C   UNL     1      11.496  11.259   5.750  1.00  0.00     0.064 A 
ATOM     74  C   UNL     1      11.193  12.623   5.859  1.00  0.00     0.173 A 
ATOM     75  C   UNL     1      10.671  10.351   6.430  1.00  0.00     0.173 A 
ATOM     76  F   UNL     1      11.966  13.531   5.244  1.00  0.00    -0.203 F 
ATOM     77  C   UNL     1      10.121  13.064   6.633  1.00  0.00     0.198 A 
ATOM     78  C   UNL     1       9.583  10.791   7.181  1.00  0.00     0.198 A 
ATOM     79  F   UNL     1      10.916   9.035   6.355  1.00  0.00    -0.203 F 
ATOM     80  F   UNL     1       9.881  14.376   6.755  1.00  0.00    -0.200 F 
ATOM     81  C   UNL     1       9.314  12.147   7.288  1.00  0.00     0.200 A 
ATOM     82  F   UNL     1       8.797   9.901   7.803  1.00  0.00    -0.200 F 
ATOM     83  F   UNL     1       8.281  12.570   8.029  1.00  0.00    -0.200 F 
ENDBRANCH  49  73
BRANCH  61  84
ATOM     84  C   UNL     1      18.390  11.823   6.541  1.00  0.00     0.064 A 
ATOM     85  C   UNL     1      18.517  11.275   7.825  1.00  0.00     0.173 A 
ATOM     86  C   UNL     1      19.108  12.992   6.249  1.00  0.00     0.173 A 
ATOM     87  F   UNL     1      17.836  10.168   8.158  1.00  0.00    -0.203 F 
ATOM     88  C   UNL     1      19.317  11.886   8.787  1.00  0.00     0.198 A 
ATOM     89  C   UNL     1      19.929  13.585   7.204  1.00  0.00     0.198 A 
ATOM     90  F   UNL     1      19.023  13.553   5.034  1.00  0.00    -0.203 F 
ATOM     91  F   UNL     1      19.389  11.371  10.022  1.00  0.00    -0.200 F 
ATOM     92  C   UNL     1      20.028  13.036   8.474  1.00  0.00     0.200 A 
ATOM     93  F   UNL     1      20.624  14.689   6.897  1.00  0.00    -0.200 F 
ATOM     94  F   UNL     1      20.801  13.620   9.399  1.00  0.00    -0.200 F 
ENDBRANCH  61  84
ENDBRANCH  35  36
ENDBRANCH  27  30
ENDBRANCH  25  26
ENDBRANCH  24  25
ENDBRANCH   1  24
TORSDOF 14
