REMARK SMILES CCCCCN(C(=O)N1CCC(CC(=O)NCCCCNC(=O)c2ccc(-c3c4nc(c(-c5c(F)c(F)c(F)c(F)c5F)c5ccc([nH]5)c(-c5c(F)c(F)c(F)c(F)c5F)c5nc(c(-c6c(F)c(F)c(F)c(F)c6F)c6ccc3[nH]6)C=C5)C=C4)cc2)CC1)C(C)C
REMARK SMILES IDX 14 1 15 2 16 3 13 5 12 6 7 7 8 8 9 9 10 10 88 11 11 12 87 13
REMARK SMILES IDX 6 14 5 15 4 16 3 17 2 18 1 19 89 20 90 21 91 22 17 23 18 24
REMARK SMILES IDX 19 25 20 26 21 27 22 28 23 30 24 31 25 32 86 33 26 34 85 35
REMARK SMILES IDX 27 36 28 37 29 38 79 39 30 40 84 41 78 42 80 43 31 44 83 45
REMARK SMILES IDX 77 46 76 47 32 49 64 50 44 51 63 52 45 53 48 54 62 55 81 56
REMARK SMILES IDX 46 57 47 58 61 60 82 61 49 62 33 63 34 64 42 65 35 66 36 67
REMARK SMILES IDX 40 68 43 69 37 70 38 71 41 72 39 73 65 74 66 75 74 76 67 77
REMARK SMILES IDX 68 78 72 79 75 80 69 81 70 82 73 83 71 84 50 85 51 86 59 87
REMARK SMILES IDX 52 88 53 89 57 90 60 91 54 92 55 93 58 94 56 95
REMARK H PARENT 16 4 21 29 80 48 48 59
REMARK Flexibility Score: inf
ROOT
ATOM      1  C   UNL     1      -5.480   2.360   8.387  1.00  0.00     0.220 C 
ATOM      2  O   UNL     1      -5.570   3.565   8.629  1.00  0.00    -0.275 OA
ATOM      3  N   UNL     1      -5.251   1.507   9.429  1.00  0.00    -0.356 N 
ATOM      4  H   UNL     1      -5.230   1.934  10.316  1.00  0.00     0.163 HD
ENDROOT
BRANCH   1   5
ATOM      5  C   UNL     1      -5.614   1.839   6.963  1.00  0.00     0.103 C 
BRANCH   5   6
ATOM      6  C   UNL     1      -4.306   1.891   6.142  1.00  0.00     0.002 C 
ATOM      7  C   UNL     1      -2.029  -0.957   4.479  1.00  0.00     0.320 C 
ATOM      8  O   UNL     1      -2.208  -1.779   5.379  1.00  0.00    -0.248 OA
ATOM      9  N   UNL     1      -2.241   0.393   4.700  1.00  0.00    -0.325 N 
ATOM     10  C   UNL     1      -1.932   0.931   6.004  1.00  0.00     0.121 C 
ATOM     11  C   UNL     1      -3.228   1.154   3.938  1.00  0.00     0.121 C 
ATOM     12  C   UNL     1      -3.189   1.110   6.830  1.00  0.00     0.026 C 
ATOM     13  C   UNL     1      -4.535   1.337   4.724  1.00  0.00     0.026 C 
BRANCH   7  14
ATOM     14  N   UNL     1      -1.559  -1.313   3.213  1.00  0.00    -0.322 N 
BRANCH  14  15
ATOM     15  C   UNL     1      -0.854  -0.352   2.343  1.00  0.00     0.121 C 
BRANCH  15  16
ATOM     16  C   UNL     1       0.626  -0.109   2.688  1.00  0.00     0.022 C 
BRANCH  16  17
ATOM     17  C   UNL     1       1.691  -0.859   1.873  1.00  0.00     0.002 C 
BRANCH  17  18
ATOM     18  C   UNL     1       1.438  -0.998   0.370  1.00  0.00    -0.003 C 
ATOM     19  C   UNL     1       1.467   0.331  -0.367  1.00  0.00     0.004 C 
ENDBRANCH  17  18
ENDBRANCH  16  17
ENDBRANCH  15  16
ENDBRANCH  14  15
BRANCH  14  20
ATOM     20  C   UNL     1      -1.577  -2.753   2.873  1.00  0.00     0.080 C 
ATOM     21  C   UNL     1      -2.169  -3.030   1.490  1.00  0.00     0.031 C 
ATOM     22  C   UNL     1      -0.224  -3.441   3.037  1.00  0.00     0.031 C 
ENDBRANCH  14  20
ENDBRANCH   7  14
ENDBRANCH   5   6
ENDBRANCH   1   5
BRANCH   3  23
ATOM     23  C   UNL     1      -5.032   0.070   9.437  1.00  0.00     0.116 C 
BRANCH  23  24
ATOM     24  C   UNL     1      -3.562  -0.281   9.688  1.00  0.00     0.023 C 
BRANCH  24  25
ATOM     25  C   UNL     1      -3.147  -0.371  11.144  1.00  0.00     0.023 C 
BRANCH  25  26
ATOM     26  C   UNL     1      -3.738  -1.556  11.878  1.00  0.00     0.116 C 
BRANCH  26  27
ATOM     27  N   UNL     1      -3.377  -2.844  11.299  1.00  0.00    -0.352 N 
ATOM     28  C   UNL     1      -2.968  -3.992  11.942  1.00  0.00     0.251 C 
ATOM     29  H   UNL     1      -3.432  -2.901  10.318  1.00  0.00     0.163 HD
ATOM     30  O   UNL     1      -2.614  -4.975  11.317  1.00  0.00    -0.269 OA
BRANCH  28  31
ATOM     31  C   UNL     1      -2.922  -3.987  13.418  1.00  0.00     0.039 A 
ATOM     32  C   UNL     1      -1.765  -4.431  14.060  1.00  0.00     0.014 A 
ATOM     33  C   UNL     1      -3.985  -3.455  14.151  1.00  0.00     0.014 A 
ATOM     34  C   UNL     1      -1.644  -4.264  15.439  1.00  0.00     0.010 A 
ATOM     35  C   UNL     1      -3.812  -3.179  15.498  1.00  0.00     0.010 A 
ATOM     36  C   UNL     1      -2.648  -3.596  16.159  1.00  0.00    -0.014 A 
BRANCH  36  37
ATOM     37  C   UNL     1      -2.527  -3.355  17.616  1.00  0.00     0.031 A 
ATOM     38  C   UNL     1      -3.544  -3.952  18.549  1.00  0.00     0.074 A 
ATOM     39  C   UNL     1      -1.560  -2.545  18.086  1.00  0.00     0.049 A 
ATOM     40  N   UNL     1      -3.675  -3.798  19.841  1.00  0.00    -0.248 NA
ATOM     41  C   UNL     1      -4.582  -4.801  17.940  1.00  0.00     0.031 C 
ATOM     42  C   UNL     1      -0.561  -1.851  17.269  1.00  0.00     0.029 A 
ATOM     43  N   UNL     1      -1.262  -2.162  19.369  1.00  0.00    -0.354 N 
ATOM     44  C   UNL     1      -4.819  -4.504  20.188  1.00  0.00     0.074 A 
ATOM     45  C   UNL     1      -5.386  -5.027  18.966  1.00  0.00     0.031 C 
ATOM     46  C   UNL     1       0.259  -1.156  18.074  1.00  0.00     0.029 A 
ATOM     47  C   UNL     1      -0.174  -1.328  19.457  1.00  0.00     0.049 A 
ATOM     48  H   UNL     1      -1.780  -2.457  20.153  1.00  0.00     0.167 HD
ATOM     49  C   UNL     1      -5.331  -4.728  21.420  1.00  0.00     0.037 A 
ATOM     50  C   UNL     1       0.406  -0.772  20.537  1.00  0.00     0.037 A 
ATOM     51  C   UNL     1      -4.731  -4.250  22.635  1.00  0.00     0.049 A 
ATOM     52  C   UNL     1      -0.157  -1.070  21.900  1.00  0.00     0.074 A 
ATOM     53  C   UNL     1      -5.122  -4.481  23.941  1.00  0.00     0.029 A 
ATOM     54  N   UNL     1      -3.601  -3.447  22.688  1.00  0.00    -0.354 N 
ATOM     55  N   UNL     1      -1.196  -1.802  22.224  1.00  0.00    -0.248 NA
ATOM     56  C   UNL     1       0.539  -0.474  23.048  1.00  0.00     0.031 C 
ATOM     57  C   UNL     1      -4.248  -3.788  24.785  1.00  0.00     0.029 A 
ATOM     58  C   UNL     1      -3.287  -3.163  24.006  1.00  0.00     0.049 A 
ATOM     59  H   UNL     1      -3.097  -3.127  21.905  1.00  0.00     0.167 HD
ATOM     60  C   UNL     1      -1.263  -1.778  23.610  1.00  0.00     0.074 A 
ATOM     61  C   UNL     1      -0.149  -0.972  24.066  1.00  0.00     0.031 C 
ATOM     62  C   UNL     1      -2.165  -2.366  24.433  1.00  0.00     0.037 A 
BRANCH  49  63
ATOM     63  C   UNL     1      -6.590  -5.540  21.508  1.00  0.00     0.064 A 
ATOM     64  C   UNL     1      -6.604  -6.911  21.204  1.00  0.00     0.173 A 
ATOM     65  C   UNL     1      -7.795  -4.946  21.911  1.00  0.00     0.173 A 
ATOM     66  F   UNL     1      -5.482  -7.524  20.796  1.00  0.00    -0.203 F 
ATOM     67  C   UNL     1      -7.784  -7.648  21.267  1.00  0.00     0.198 A 
ATOM     68  C   UNL     1      -8.966  -5.694  22.005  1.00  0.00     0.198 A 
ATOM     69  F   UNL     1      -7.838  -3.640  22.213  1.00  0.00    -0.203 F 
ATOM     70  F   UNL     1      -7.783  -8.941  20.915  1.00  0.00    -0.200 F 
ATOM     71  C   UNL     1      -8.962  -7.041  21.674  1.00  0.00     0.200 A 
ATOM     72  F   UNL     1     -10.102  -5.108  22.408  1.00  0.00    -0.200 F 
ATOM     73  F   UNL     1     -10.096  -7.752  21.738  1.00  0.00    -0.200 F 
ENDBRANCH  49  63
BRANCH  50  74
ATOM     74  C   UNL     1       1.612   0.082  20.378  1.00  0.00     0.064 A 
ATOM     75  C   UNL     1       2.870  -0.366  20.807  1.00  0.00     0.173 A 
ATOM     76  C   UNL     1       1.537   1.357  19.799  1.00  0.00     0.173 A 
ATOM     77  F   UNL     1       2.989  -1.572  21.383  1.00  0.00    -0.203 F 
ATOM     78  C   UNL     1       4.002   0.436  20.684  1.00  0.00     0.198 A 
ATOM     79  C   UNL     1       2.674   2.148  19.652  1.00  0.00     0.198 A 
ATOM     80  F   UNL     1       0.359   1.829  19.366  1.00  0.00    -0.203 F 
ATOM     81  F   UNL     1       5.182   0.001  21.144  1.00  0.00    -0.200 F 
ATOM     82  C   UNL     1       3.904   1.691  20.102  1.00  0.00     0.200 A 
ATOM     83  F   UNL     1       2.579   3.355  19.078  1.00  0.00    -0.200 F 
ATOM     84  F   UNL     1       4.993   2.463  19.982  1.00  0.00    -0.200 F 
ENDBRANCH  50  74
BRANCH  62  85
ATOM     85  C   UNL     1      -1.964  -2.188  25.908  1.00  0.00     0.064 A 
ATOM     86  C   UNL     1      -2.217  -0.963  26.541  1.00  0.00     0.173 A 
ATOM     87  C   UNL     1      -1.553  -3.269  26.703  1.00  0.00     0.173 A 
ATOM     88  F   UNL     1      -2.598   0.103  25.821  1.00  0.00    -0.203 F 
ATOM     89  C   UNL     1      -2.040  -0.820  27.914  1.00  0.00     0.198 A 
ATOM     90  C   UNL     1      -1.406  -3.130  28.079  1.00  0.00     0.198 A 
ATOM     91  F   UNL     1      -1.306  -4.464  26.144  1.00  0.00    -0.203 F 
ATOM     92  F   UNL     1      -2.242   0.372  28.493  1.00  0.00    -0.200 F 
ATOM     93  C   UNL     1      -1.642  -1.904  28.683  1.00  0.00     0.200 A 
ATOM     94  F   UNL     1      -1.035  -4.182  28.822  1.00  0.00    -0.200 F 
ATOM     95  F   UNL     1      -1.480  -1.766  30.005  1.00  0.00    -0.200 F 
ENDBRANCH  62  85
ENDBRANCH  36  37
ENDBRANCH  28  31
ENDBRANCH  26  27
ENDBRANCH  25  26
ENDBRANCH  24  25
ENDBRANCH  23  24
ENDBRANCH   3  23
TORSDOF 18
