REMARK SMILES Nc1ccc(C(=O)NC[C@@H]2CC[C@@H](C(=O)NCCCCNC(=O)c3ccc(-c4c5nc(c(-c6c(F)c(F)c(F)c(F)c6F)c6ccc([nH]6)c(-c6c(F)c(F)c(F)c(F)c6F)c6nc(c(-c7c(F)c(F)c(F)c(F)c7F)c7ccc4[nH]7)C=C6)C=C5)cc3)O2)cc1Cl
REMARK SMILES IDX 17 1 16 2 14 3 15 4 13 6 10 7 11 8 87 9 12 10 9 11 8 12 6 13
REMARK SMILES IDX 7 14 5 16 2 17 3 18 89 19 4 20 88 21 90 22 1 23 18 26 19 27
REMARK SMILES IDX 20 28 21 29 22 30 23 32 24 33 25 34 86 35 26 36 85 37 27 38
REMARK SMILES IDX 28 39 29 40 79 41 30 42 84 43 78 44 80 45 31 46 83 47 77 48
REMARK SMILES IDX 76 49 32 51 64 52 44 53 63 54 45 55 48 56 62 57 81 58 46 59
REMARK SMILES IDX 47 60 61 62 82 63 49 64 33 65 34 66 42 67 35 68 36 69 40 70
REMARK SMILES IDX 43 71 37 72 38 73 41 74 39 75 65 76 66 77 74 78 67 79 68 80
REMARK SMILES IDX 72 81 75 82 69 83 70 84 73 85 71 86 50 87 51 88 59 89 52 90
REMARK SMILES IDX 53 91 57 92 60 93 54 94 55 95 58 96 56 97
REMARK H PARENT 16 5 8 15 1 24 1 25 21 31 80 50 48 61
REMARK Flexibility Score: inf
ROOT
ATOM      1  C   UNL     1       5.373  -2.876  -2.258  1.00  0.00     0.116 C 
ENDROOT
BRANCH   1   2
ATOM      2  N   UNL     1       6.126  -2.341  -3.375  1.00  0.00    -0.354 N 
ATOM      3  C   UNL     1       6.197  -1.049  -3.817  1.00  0.00     0.249 C 
ATOM      4  O   UNL     1       6.927  -0.812  -4.782  1.00  0.00    -0.272 OA
ATOM      5  H   UNL     1       6.657  -2.995  -3.883  1.00  0.00     0.163 HD
BRANCH   3   6
ATOM      6  C   UNL     1       5.320   0.029  -3.152  1.00  0.00     0.207 C 
ATOM      7  C   UNL     1       5.780   1.358  -1.281  1.00  0.00     0.138 C 
ATOM      8  C   UNL     1       5.355   2.278  -2.411  1.00  0.00     0.037 C 
ATOM      9  O   UNL     1       5.412   0.040  -1.715  1.00  0.00    -0.363 OA
ATOM     10  C   UNL     1       5.683   1.435  -3.619  1.00  0.00     0.045 C 
BRANCH   7  11
ATOM     11  C   UNL     1       5.211   1.650   0.120  1.00  0.00     0.148 C 
BRANCH  11  12
ATOM     12  N   UNL     1       4.081   2.564   0.138  1.00  0.00    -0.349 N 
ATOM     13  C   UNL     1       2.722   2.464   0.062  1.00  0.00     0.251 C 
ATOM     14  O   UNL     1       2.119   3.541   0.057  1.00  0.00    -0.269 OA
ATOM     15  H   UNL     1       4.371   3.500   0.231  1.00  0.00     0.163 HD
BRANCH  13  16
ATOM     16  C   UNL     1       1.921   1.205  -0.004  1.00  0.00     0.041 A 
ATOM     17  C   UNL     1       0.168  -1.040  -0.039  1.00  0.00     0.050 A 
ATOM     18  C   UNL     1       1.553  -1.200  -0.122  1.00  0.00     0.028 A 
ATOM     19  C   UNL     1      -0.337   0.266  -0.001  1.00  0.00     0.064 A 
ATOM     20  C   UNL     1       2.421  -0.093  -0.101  1.00  0.00     0.016 A 
ATOM     21  C   UNL     1       0.523   1.367   0.031  1.00  0.00     0.036 A 
ATOM     22  Cl  UNL     1      -2.043   0.554   0.034  1.00  0.00    -0.082 Cl
BRANCH  17  23
ATOM     23  N   UNL     1      -0.663  -2.152  -0.131  1.00  0.00    -0.398 N 
ATOM     24  H   UNL     1      -0.274  -3.057  -0.156  1.00  0.00     0.156 HD
ATOM     25  H   UNL     1      -1.639  -2.035  -0.172  1.00  0.00     0.156 HD
ENDBRANCH  17  23
ENDBRANCH  13  16
ENDBRANCH  11  12
ENDBRANCH   7  11
ENDBRANCH   3   6
ENDBRANCH   1   2
BRANCH   1  26
ATOM     26  C   UNL     1       4.469  -4.034  -2.668  1.00  0.00     0.023 C 
BRANCH  26  27
ATOM     27  C   UNL     1       5.188  -5.243  -3.262  1.00  0.00     0.023 C 
BRANCH  27  28
ATOM     28  C   UNL     1       6.305  -5.824  -2.403  1.00  0.00     0.116 C 
BRANCH  28  29
ATOM     29  N   UNL     1       5.839  -6.296  -1.108  1.00  0.00    -0.352 N 
ATOM     30  C   UNL     1       5.995  -7.528  -0.516  1.00  0.00     0.251 C 
ATOM     31  H   UNL     1       5.337  -5.636  -0.577  1.00  0.00     0.163 HD
ATOM     32  O   UNL     1       5.403  -7.789   0.523  1.00  0.00    -0.269 OA
BRANCH  30  33
ATOM     33  C   UNL     1       6.853  -8.550  -1.155  1.00  0.00     0.039 A 
ATOM     34  C   UNL     1       6.383  -9.863  -1.245  1.00  0.00     0.014 A 
ATOM     35  C   UNL     1       8.108  -8.218  -1.670  1.00  0.00     0.014 A 
ATOM     36  C   UNL     1       7.139 -10.824  -1.921  1.00  0.00     0.010 A 
ATOM     37  C   UNL     1       8.819  -9.154  -2.416  1.00  0.00     0.010 A 
ATOM     38  C   UNL     1       8.343 -10.467  -2.549  1.00  0.00    -0.014 A 
BRANCH  38  39
ATOM     39  C   UNL     1       9.114 -11.449  -3.354  1.00  0.00     0.031 A 
ATOM     40  C   UNL     1      10.508 -11.837  -2.947  1.00  0.00     0.074 A 
ATOM     41  C   UNL     1       8.587 -11.938  -4.493  1.00  0.00     0.049 A 
ATOM     42  N   UNL     1      11.363 -12.619  -3.557  1.00  0.00    -0.248 NA
ATOM     43  C   UNL     1      11.020 -11.242  -1.704  1.00  0.00     0.031 C 
ATOM     44  C   UNL     1       7.267 -11.599  -5.026  1.00  0.00     0.029 A 
ATOM     45  N   UNL     1       9.104 -12.813  -5.417  1.00  0.00    -0.354 N 
ATOM     46  C   UNL     1      12.513 -12.601  -2.778  1.00  0.00     0.074 A 
ATOM     47  C   UNL     1      12.270 -11.679  -1.690  1.00  0.00     0.031 C 
ATOM     48  C   UNL     1       7.070 -12.271  -6.171  1.00  0.00     0.029 A 
ATOM     49  C   UNL     1       8.263 -13.054  -6.476  1.00  0.00     0.049 A 
ATOM     50  H   UNL     1       9.992 -13.228  -5.328  1.00  0.00     0.167 HD
ATOM     51  C   UNL     1      13.657 -13.309  -2.940  1.00  0.00     0.037 A 
ATOM     52  C   UNL     1       8.438 -13.812  -7.576  1.00  0.00     0.037 A 
ATOM     53  C   UNL     1      13.892 -14.230  -4.021  1.00  0.00     0.049 A 
ATOM     54  C   UNL     1       9.723 -14.575  -7.746  1.00  0.00     0.074 A 
ATOM     55  C   UNL     1      14.995 -15.034  -4.247  1.00  0.00     0.029 A 
ATOM     56  N   UNL     1      13.009 -14.462  -5.068  1.00  0.00    -0.354 N 
ATOM     57  N   UNL     1      10.776 -14.609  -6.965  1.00  0.00    -0.248 NA
ATOM     58  C   UNL     1       9.841 -15.415  -8.946  1.00  0.00     0.031 C 
ATOM     59  C   UNL     1      14.806 -15.708  -5.458  1.00  0.00     0.029 A 
ATOM     60  C   UNL     1      13.556 -15.375  -5.956  1.00  0.00     0.049 A 
ATOM     61  H   UNL     1      12.125 -14.040  -5.164  1.00  0.00     0.167 HD
ATOM     62  C   UNL     1      11.669 -15.488  -7.563  1.00  0.00     0.074 A 
ATOM     63  C   UNL     1      11.027 -15.979  -8.765  1.00  0.00     0.031 C 
ATOM     64  C   UNL     1      12.908 -15.855  -7.152  1.00  0.00     0.037 A 
BRANCH  51  65
ATOM     65  C   UNL     1      14.743 -13.104  -1.920  1.00  0.00     0.064 A 
ATOM     66  C   UNL     1      14.589 -13.512  -0.585  1.00  0.00     0.173 A 
ATOM     67  C   UNL     1      15.956 -12.499  -2.281  1.00  0.00     0.173 A 
ATOM     68  F   UNL     1      13.445 -14.087  -0.182  1.00  0.00    -0.203 F 
ATOM     69  C   UNL     1      15.587 -13.279   0.357  1.00  0.00     0.198 A 
ATOM     70  C   UNL     1      16.968 -12.303  -1.344  1.00  0.00     0.198 A 
ATOM     71  F   UNL     1      16.163 -12.097  -3.544  1.00  0.00    -0.203 F 
ATOM     72  F   UNL     1      15.386 -13.614   1.639  1.00  0.00    -0.200 F 
ATOM     73  C   UNL     1      16.777 -12.680  -0.024  1.00  0.00     0.200 A 
ATOM     74  F   UNL     1      18.124 -11.737  -1.718  1.00  0.00    -0.200 F 
ATOM     75  F   UNL     1      17.737 -12.456   0.884  1.00  0.00    -0.200 F 
ENDBRANCH  51  65
BRANCH  52  76
ATOM     76  C   UNL     1       7.355 -13.894  -8.591  1.00  0.00     0.064 A 
ATOM     77  C   UNL     1       6.620 -15.074  -8.768  1.00  0.00     0.173 A 
ATOM     78  C   UNL     1       7.019 -12.790  -9.388  1.00  0.00     0.173 A 
ATOM     79  F   UNL     1       6.916 -16.163  -8.043  1.00  0.00    -0.203 F 
ATOM     80  C   UNL     1       5.599 -15.150  -9.713  1.00  0.00     0.198 A 
ATOM     81  C   UNL     1       5.979 -12.858 -10.312  1.00  0.00     0.198 A 
ATOM     82  F   UNL     1       7.688 -11.635  -9.253  1.00  0.00    -0.203 F 
ATOM     83  F   UNL     1       4.937 -16.302  -9.889  1.00  0.00    -0.200 F 
ATOM     84  C   UNL     1       5.274 -14.040 -10.478  1.00  0.00     0.200 A 
ATOM     85  F   UNL     1       5.656 -11.778 -11.036  1.00  0.00    -0.200 F 
ATOM     86  F   UNL     1       4.283 -14.111 -11.378  1.00  0.00    -0.200 F 
ENDBRANCH  52  76
BRANCH  64  87
ATOM     87  C   UNL     1      13.643 -16.862  -7.991  1.00  0.00     0.064 A 
ATOM     88  C   UNL     1      14.150 -16.540  -9.259  1.00  0.00     0.173 A 
ATOM     89  C   UNL     1      13.880 -18.156  -7.500  1.00  0.00     0.173 A 
ATOM     90  F   UNL     1      13.939 -15.322  -9.781  1.00  0.00    -0.203 F 
ATOM     91  C   UNL     1      14.842 -17.483 -10.014  1.00  0.00     0.198 A 
ATOM     92  C   UNL     1      14.602 -19.085  -8.243  1.00  0.00     0.198 A 
ATOM     93  F   UNL     1      13.424 -18.515  -6.290  1.00  0.00    -0.203 F 
ATOM     94  F   UNL     1      15.273 -17.169 -11.244  1.00  0.00    -0.200 F 
ATOM     95  C   UNL     1      15.075 -18.751  -9.503  1.00  0.00     0.200 A 
ATOM     96  F   UNL     1      14.840 -20.304  -7.740  1.00  0.00    -0.200 F 
ATOM     97  F   UNL     1      15.750 -19.654 -10.228  1.00  0.00    -0.200 F 
ENDBRANCH  64  87
ENDBRANCH  38  39
ENDBRANCH  30  33
ENDBRANCH  28  29
ENDBRANCH  27  28
ENDBRANCH  26  27
ENDBRANCH   1  26
TORSDOF 15
