REMARK SMILES CC[C@@H]1CCCC[N@H+]1Cc1c(C(=O)NCCCCNC(=O)c2ccc(-c3c4nc(c(-c5c(F)c(F)c(F)c(F)c5F)c5ccc([nH]5)c(-c5c(F)c(F)c(F)c(F)c5F)c5nc(c(-c6c(F)c(F)c(F)c(F)c6F)c6ccc3[nH]6)C=C5)C=C4)cc2)oc2ccccc12
REMARK SMILES IDX 16 1 15 2 14 3 12 4 13 5 11 7 10 8 91 9 85 10 86 11 90 12
REMARK SMILES IDX 87 13 89 14 88 15 9 16 8 17 3 18 4 19 5 20 7 21 6 23 2 24
REMARK SMILES IDX 1 25 17 26 18 27 19 28 20 29 21 31 22 32 23 33 84 34 24 35
REMARK SMILES IDX 83 36 25 37 26 38 27 39 77 40 28 41 82 42 76 43 78 44 29 45
REMARK SMILES IDX 81 46 75 47 74 48 30 50 62 51 42 52 61 53 43 54 46 55 60 56
REMARK SMILES IDX 79 57 44 58 45 59 59 61 80 62 47 63 31 64 32 65 40 66 33 67
REMARK SMILES IDX 34 68 38 69 41 70 35 71 36 72 39 73 37 74 63 75 64 76 72 77
REMARK SMILES IDX 65 78 66 79 70 80 73 81 67 82 68 83 71 84 69 85 48 86 49 87
REMARK SMILES IDX 57 88 50 89 51 90 55 91 58 92 52 93 53 94 56 95 54 96
REMARK H PARENT 14 6 8 22 19 30 78 49 46 60
REMARK Flexibility Score: inf
ROOT
ATOM      1  C   UNL     1       6.275   4.856  -3.079  1.00  0.00     0.023 C 
ENDROOT
BRANCH   1   2
ATOM      2  C   UNL     1       5.679   5.326  -1.753  1.00  0.00     0.116 C 
BRANCH   2   3
ATOM      3  N   UNL     1       4.230   5.375  -1.810  1.00  0.00    -0.349 N 
ATOM      4  C   UNL     1       3.258   4.524  -1.331  1.00  0.00     0.287 C 
ATOM      5  O   UNL     1       2.101   4.856  -1.602  1.00  0.00    -0.266 OA
ATOM      6  H   UNL     1       3.874   6.163  -2.280  1.00  0.00     0.163 HD
BRANCH   4   7
ATOM      7  C   UNL     1       3.588   3.329  -0.565  1.00  0.00     0.201 A 
ATOM      8  C   UNL     1       2.779   2.353   0.037  1.00  0.00     0.066 A 
ATOM      9  C   UNL     1       3.701   1.380   0.589  1.00  0.00     0.030 A 
ATOM     10  O   UNL     1       4.897   3.027  -0.350  1.00  0.00    -0.450 OA
ATOM     11  C   UNL     1       4.971   1.886   0.360  1.00  0.00     0.135 A 
ATOM     12  C   UNL     1       3.643   0.139   1.261  1.00  0.00     0.012 A 
ATOM     13  C   UNL     1       6.164   1.305   0.785  1.00  0.00     0.048 A 
ATOM     14  C   UNL     1       4.820  -0.471   1.724  1.00  0.00     0.001 A 
ATOM     15  C   UNL     1       6.063   0.111   1.497  1.00  0.00     0.004 A 
BRANCH   8  16
ATOM     16  C   UNL     1       1.267   2.346   0.009  1.00  0.00     0.304 C 
BRANCH  16  17
ATOM     17  N   UNL     1       0.571   2.494   1.308  1.00  0.00    -0.329 N 
ATOM     18  C   UNL     1       0.546   1.319   2.197  1.00  0.00     0.184 C 
ATOM     19  C   UNL     1      -0.097   1.636   3.578  1.00  0.00     0.065 C 
ATOM     20  C   UNL     1       0.466   2.885   4.230  1.00  0.00     0.012 C 
ATOM     21  C   UNL     1       0.995   3.751   1.958  1.00  0.00     0.262 C 
ATOM     22  H   UNL     1      -0.422   2.557   1.086  1.00  0.00     0.348 HD
ATOM     23  C   UNL     1       0.285   4.047   3.275  1.00  0.00     0.062 C 
BRANCH  18  24
ATOM     24  C   UNL     1      -0.232   0.059   1.696  1.00  0.00     0.061 C 
ATOM     25  C   UNL     1       0.042  -0.551   0.331  1.00  0.00     0.010 C 
ENDBRANCH  18  24
ENDBRANCH  16  17
ENDBRANCH   8  16
ENDBRANCH   4   7
ENDBRANCH   2   3
ENDBRANCH   1   2
BRANCH   1  26
ATOM     26  C   UNL     1       6.133   5.868  -4.221  1.00  0.00     0.023 C 
BRANCH  26  27
ATOM     27  C   UNL     1       6.629   7.277  -3.907  1.00  0.00     0.116 C 
BRANCH  27  28
ATOM     28  N   UNL     1       8.001   7.309  -3.421  1.00  0.00    -0.352 N 
ATOM     29  C   UNL     1       9.009   8.190  -3.736  1.00  0.00     0.251 C 
ATOM     30  H   UNL     1       8.241   6.602  -2.779  1.00  0.00     0.163 HD
ATOM     31  O   UNL     1      10.144   8.022  -3.318  1.00  0.00    -0.269 OA
BRANCH  29  32
ATOM     32  C   UNL     1       8.705   9.325  -4.629  1.00  0.00     0.039 A 
ATOM     33  C   UNL     1       9.477   9.498  -5.779  1.00  0.00     0.014 A 
ATOM     34  C   UNL     1       7.620  10.163  -4.362  1.00  0.00     0.014 A 
ATOM     35  C   UNL     1       9.101  10.458  -6.719  1.00  0.00     0.010 A 
ATOM     36  C   UNL     1       7.211  11.077  -5.326  1.00  0.00     0.010 A 
ATOM     37  C   UNL     1       7.936  11.216  -6.521  1.00  0.00    -0.014 A 
BRANCH  37  38
ATOM     38  C   UNL     1       7.414  12.115  -7.578  1.00  0.00     0.031 A 
ATOM     39  C   UNL     1       7.343  13.594  -7.345  1.00  0.00     0.074 A 
ATOM     40  C   UNL     1       6.899  11.579  -8.700  1.00  0.00     0.049 A 
ATOM     41  N   UNL     1       6.809  14.524  -8.094  1.00  0.00    -0.248 NA
ATOM     42  C   UNL     1       7.926  14.088  -6.089  1.00  0.00     0.031 C 
ATOM     43  C   UNL     1       6.858  10.149  -9.010  1.00  0.00     0.029 A 
ATOM     44  N   UNL     1       6.283  12.170  -9.775  1.00  0.00    -0.354 N 
ATOM     45  C   UNL     1       6.977  15.711  -7.395  1.00  0.00     0.074 A 
ATOM     46  C   UNL     1       7.621  15.377  -6.142  1.00  0.00     0.031 C 
ATOM     47  C   UNL     1       6.247   9.973 -10.192  1.00  0.00     0.029 A 
ATOM     48  C   UNL     1       5.819  11.272 -10.703  1.00  0.00     0.049 A 
ATOM     49  H   UNL     1       6.184  13.145  -9.871  1.00  0.00     0.167 HD
ATOM     50  C   UNL     1       6.641  16.966  -7.776  1.00  0.00     0.037 A 
ATOM     51  C   UNL     1       5.104  11.468 -11.827  1.00  0.00     0.037 A 
ATOM     52  C   UNL     1       6.014  17.290  -9.030  1.00  0.00     0.049 A 
ATOM     53  C   UNL     1       4.725  12.867 -12.221  1.00  0.00     0.074 A 
ATOM     54  C   UNL     1       5.721  18.537  -9.552  1.00  0.00     0.029 A 
ATOM     55  N   UNL     1       5.569  16.355  -9.954  1.00  0.00    -0.354 N 
ATOM     56  N   UNL     1       4.970  13.994 -11.598  1.00  0.00    -0.248 NA
ATOM     57  C   UNL     1       3.970  13.023 -13.472  1.00  0.00     0.031 C 
ATOM     58  C   UNL     1       5.050  18.355 -10.767  1.00  0.00     0.029 A 
ATOM     59  C   UNL     1       4.965  16.996 -11.024  1.00  0.00     0.049 A 
ATOM     60  H   UNL     1       5.667  15.379  -9.862  1.00  0.00     0.167 HD
ATOM     61  C   UNL     1       4.405  14.992 -12.379  1.00  0.00     0.074 A 
ATOM     62  C   UNL     1       3.823  14.340 -13.534  1.00  0.00     0.031 C 
ATOM     63  C   UNL     1       4.370  16.329 -12.155  1.00  0.00     0.037 A 
BRANCH  50  64
ATOM     64  C   UNL     1       6.941  18.079  -6.815  1.00  0.00     0.064 A 
ATOM     65  C   UNL     1       8.258  18.477  -6.537  1.00  0.00     0.173 A 
ATOM     66  C   UNL     1       5.899  18.763  -6.171  1.00  0.00     0.173 A 
ATOM     67  F   UNL     1       9.290  17.849  -7.119  1.00  0.00    -0.203 F 
ATOM     68  C   UNL     1       8.521  19.492  -5.620  1.00  0.00     0.198 A 
ATOM     69  C   UNL     1       6.166  19.797  -5.277  1.00  0.00     0.198 A 
ATOM     70  F   UNL     1       4.622  18.426  -6.405  1.00  0.00    -0.203 F 
ATOM     71  F   UNL     1       9.789  19.814  -5.327  1.00  0.00    -0.200 F 
ATOM     72  C   UNL     1       7.476  20.153  -4.995  1.00  0.00     0.200 A 
ATOM     73  F   UNL     1       5.154  20.443  -4.682  1.00  0.00    -0.200 F 
ATOM     74  F   UNL     1       7.731  21.128  -4.111  1.00  0.00    -0.200 F 
ENDBRANCH  50  64
BRANCH  51  75
ATOM     75  C   UNL     1       4.701  10.298 -12.647  1.00  0.00     0.064 A 
ATOM     76  C   UNL     1       5.314  10.036 -13.879  1.00  0.00     0.173 A 
ATOM     77  C   UNL     1       3.727   9.396 -12.194  1.00  0.00     0.173 A 
ATOM     78  F   UNL     1       6.236  10.881 -14.360  1.00  0.00    -0.203 F 
ATOM     79  C   UNL     1       4.964   8.916 -14.630  1.00  0.00     0.198 A 
ATOM     80  C   UNL     1       3.396   8.263 -12.935  1.00  0.00     0.198 A 
ATOM     81  F   UNL     1       3.117   9.601 -11.018  1.00  0.00    -0.203 F 
ATOM     82  F   UNL     1       5.548   8.700 -15.817  1.00  0.00    -0.200 F 
ATOM     83  C   UNL     1       4.013   8.026 -14.154  1.00  0.00     0.200 A 
ATOM     84  F   UNL     1       2.488   7.398 -12.463  1.00  0.00    -0.200 F 
ATOM     85  F   UNL     1       3.690   6.940 -14.869  1.00  0.00    -0.200 F 
ENDBRANCH  51  75
BRANCH  63  86
ATOM     86  C   UNL     1       3.666  17.176 -13.174  1.00  0.00     0.064 A 
ATOM     87  C   UNL     1       2.267  17.191 -13.267  1.00  0.00     0.173 A 
ATOM     88  C   UNL     1       4.392  18.018 -14.029  1.00  0.00     0.173 A 
ATOM     89  F   UNL     1       1.530  16.389 -12.483  1.00  0.00    -0.203 F 
ATOM     90  C   UNL     1       1.620  18.010 -14.189  1.00  0.00     0.198 A 
ATOM     91  C   UNL     1       3.741  18.855 -14.931  1.00  0.00     0.198 A 
ATOM     92  F   UNL     1       5.732  18.042 -13.977  1.00  0.00    -0.203 F 
ATOM     93  F   UNL     1       0.284  17.983 -14.285  1.00  0.00    -0.200 F 
ATOM     94  C   UNL     1       2.357  18.847 -15.013  1.00  0.00     0.200 A 
ATOM     95  F   UNL     1       4.454  19.672 -15.720  1.00  0.00    -0.200 F 
ATOM     96  F   UNL     1       1.732  19.644 -15.892  1.00  0.00    -0.200 F 
ENDBRANCH  63  86
ENDBRANCH  37  38
ENDBRANCH  29  32
ENDBRANCH  27  28
ENDBRANCH  26  27
ENDBRANCH   1  26
TORSDOF 14
