REMARK SMILES O=C(NCCCCNC(=O)C1(C[C@@H]2COc3ccccc32)CC[NH2+]CC1)c1ccc(-c2c3nc(c(-c4c(F)c(F)c(F)c(F)c4F)c4ccc([nH]4)c(-c4c(F)c(F)c(F)c(F)c4F)c4nc(c(-c5c(F)c(F)c(F)c(F)c5F)c5ccc2[nH]5)C=C4)C=C3)cc1
REMARK SMILES IDX 5 1 4 2 3 3 1 4 2 5 27 7 28 8 89 9 29 10 88 11 30 12 31 13
REMARK SMILES IDX 32 14 82 15 33 16 87 17 81 18 83 19 34 20 86 21 80 22 79 23
REMARK SMILES IDX 35 25 67 26 47 27 66 28 48 29 51 30 65 31 84 32 49 33 50 34
REMARK SMILES IDX 64 36 85 37 52 38 36 39 37 40 45 41 38 42 39 43 43 44 46 45
REMARK SMILES IDX 40 46 41 47 44 48 42 49 68 50 69 51 77 52 70 53 71 54 75 55
REMARK SMILES IDX 78 56 72 57 73 58 76 59 74 60 53 61 54 62 62 63 55 64 56 65
REMARK SMILES IDX 60 66 63 67 57 68 58 69 61 70 59 71 6 72 7 73 8 74 9 75
REMARK SMILES IDX 10 77 11 78 22 79 26 80 23 81 25 82 24 83 12 86 13 87 14 88
REMARK SMILES IDX 21 89 15 90 16 91 20 92 17 93 19 94 18 95
REMARK H PARENT 3 6 83 24 51 35 8 76 24 84 24 85
REMARK Flexibility Score: inf
ROOT
ATOM      1  C   UNL     1       5.054   4.916  -9.762  1.00  0.00     0.023 C 
ENDROOT
BRANCH   1   2
ATOM      2  C   UNL     1       4.657   5.166 -11.207  1.00  0.00     0.116 C 
BRANCH   2   3
ATOM      3  N   UNL     1       3.255   5.522 -11.376  1.00  0.00    -0.352 N 
ATOM      4  O   UNL     1       1.508   6.657 -12.260  1.00  0.00    -0.269 OA
ATOM      5  C   UNL     1       2.704   6.386 -12.293  1.00  0.00     0.251 C 
ATOM      6  H   UNL     1       2.623   5.089 -10.758  1.00  0.00     0.163 HD
BRANCH   5   7
ATOM      7  C   UNL     1       3.585   7.017 -13.296  1.00  0.00     0.039 A 
ATOM      8  C   UNL     1       4.506   6.242 -14.002  1.00  0.00     0.014 A 
ATOM      9  C   UNL     1       3.526   8.400 -13.490  1.00  0.00     0.014 A 
ATOM     10  C   UNL     1       5.473   6.866 -14.774  1.00  0.00     0.010 A 
ATOM     11  C   UNL     1       4.442   9.017 -14.347  1.00  0.00     0.010 A 
ATOM     12  C   UNL     1       5.445   8.258 -14.967  1.00  0.00    -0.014 A 
BRANCH  12  13
ATOM     13  C   UNL     1       6.445   8.860 -15.882  1.00  0.00     0.031 A 
ATOM     14  C   UNL     1       7.503   9.800 -15.381  1.00  0.00     0.074 A 
ATOM     15  C   UNL     1       6.430   8.475 -17.172  1.00  0.00     0.049 A 
ATOM     16  N   UNL     1       8.499  10.341 -16.038  1.00  0.00    -0.248 NA
ATOM     17  C   UNL     1       7.437  10.194 -13.965  1.00  0.00     0.031 C 
ATOM     18  C   UNL     1       5.431   7.583 -17.768  1.00  0.00     0.029 A 
ATOM     19  N   UNL     1       7.292   8.743 -18.202  1.00  0.00    -0.354 N 
ATOM     20  C   UNL     1       9.168  11.145 -15.126  1.00  0.00     0.074 A 
ATOM     21  C   UNL     1       8.452  11.043 -13.871  1.00  0.00     0.031 C 
ATOM     22  C   UNL     1       5.775   7.322 -19.036  1.00  0.00     0.029 A 
ATOM     23  C   UNL     1       6.981   8.074 -19.361  1.00  0.00     0.049 A 
ATOM     24  H   UNL     1       8.059   9.355 -18.120  1.00  0.00     0.167 HD
ATOM     25  C   UNL     1      10.281  11.893 -15.321  1.00  0.00     0.037 A 
ATOM     26  C   UNL     1       7.597   8.069 -20.556  1.00  0.00     0.037 A 
ATOM     27  C   UNL     1      10.993  11.978 -16.570  1.00  0.00     0.049 A 
ATOM     28  C   UNL     1       8.841   8.887 -20.732  1.00  0.00     0.074 A 
ATOM     29  C   UNL     1      12.131  12.709 -16.870  1.00  0.00     0.029 A 
ATOM     30  N   UNL     1      10.639  11.302 -17.729  1.00  0.00    -0.354 N 
ATOM     31  N   UNL     1       9.464   9.639 -19.858  1.00  0.00    -0.248 NA
ATOM     32  C   UNL     1       9.467   8.858 -22.059  1.00  0.00     0.031 C 
ATOM     33  C   UNL     1      12.447  12.497 -18.217  1.00  0.00     0.029 A 
ATOM     34  C   UNL     1      11.530  11.604 -18.747  1.00  0.00     0.049 A 
ATOM     35  H   UNL     1       9.868  10.696 -17.815  1.00  0.00     0.167 HD
ATOM     36  C   UNL     1      10.550  10.180 -20.528  1.00  0.00     0.074 A 
ATOM     37  C   UNL     1      10.524   9.634 -21.871  1.00  0.00     0.031 C 
ATOM     38  C   UNL     1      11.476  11.061 -20.079  1.00  0.00     0.037 A 
BRANCH  25  39
ATOM     39  C   UNL     1      10.799  12.691 -14.160  1.00  0.00     0.064 A 
ATOM     40  C   UNL     1      11.461  12.078 -13.086  1.00  0.00     0.173 A 
ATOM     41  C   UNL     1      10.691  14.090 -14.151  1.00  0.00     0.173 A 
ATOM     42  F   UNL     1      11.581  10.743 -13.040  1.00  0.00    -0.203 F 
ATOM     43  C   UNL     1      11.984  12.835 -12.040  1.00  0.00     0.198 A 
ATOM     44  C   UNL     1      11.235  14.846 -13.115  1.00  0.00     0.198 A 
ATOM     45  F   UNL     1      10.071  14.726 -15.157  1.00  0.00    -0.203 F 
ATOM     46  F   UNL     1      12.587  12.226 -11.010  1.00  0.00    -0.200 F 
ATOM     47  C   UNL     1      11.878  14.218 -12.060  1.00  0.00     0.200 A 
ATOM     48  F   UNL     1      11.140  16.183 -13.141  1.00  0.00    -0.200 F 
ATOM     49  F   UNL     1      12.393  14.946 -11.059  1.00  0.00    -0.200 F 
ENDBRANCH  25  39
BRANCH  26  50
ATOM     50  C   UNL     1       7.034   7.262 -21.668  1.00  0.00     0.064 A 
ATOM     51  C   UNL     1       7.695   6.123 -22.144  1.00  0.00     0.173 A 
ATOM     52  C   UNL     1       5.807   7.602 -22.257  1.00  0.00     0.173 A 
ATOM     53  F   UNL     1       8.878   5.768 -21.622  1.00  0.00    -0.203 F 
ATOM     54  C   UNL     1       7.156   5.361 -23.178  1.00  0.00     0.198 A 
ATOM     55  C   UNL     1       5.255   6.822 -23.269  1.00  0.00     0.198 A 
ATOM     56  F   UNL     1       5.132   8.679 -21.829  1.00  0.00    -0.203 F 
ATOM     57  F   UNL     1       7.825   4.296 -23.641  1.00  0.00    -0.200 F 
ATOM     58  C   UNL     1       5.933   5.706 -23.734  1.00  0.00     0.200 A 
ATOM     59  F   UNL     1       4.064   7.148 -23.788  1.00  0.00    -0.200 F 
ATOM     60  F   UNL     1       5.410   4.964 -24.719  1.00  0.00    -0.200 F 
ENDBRANCH  26  50
BRANCH  38  61
ATOM     61  C   UNL     1      12.526  11.487 -21.060  1.00  0.00     0.064 A 
ATOM     62  C   UNL     1      12.222  12.358 -22.117  1.00  0.00     0.173 A 
ATOM     63  C   UNL     1      13.843  11.022 -20.944  1.00  0.00     0.173 A 
ATOM     64  F   UNL     1      10.971  12.814 -22.279  1.00  0.00    -0.203 F 
ATOM     65  C   UNL     1      13.195  12.722 -23.043  1.00  0.00     0.198 A 
ATOM     66  C   UNL     1      14.819  11.409 -21.858  1.00  0.00     0.198 A 
ATOM     67  F   UNL     1      14.181  10.191 -19.948  1.00  0.00    -0.203 F 
ATOM     68  F   UNL     1      12.871  13.511 -24.077  1.00  0.00    -0.200 F 
ATOM     69  C   UNL     1      14.492  12.251 -22.911  1.00  0.00     0.200 A 
ATOM     70  F   UNL     1      16.074  10.958 -21.726  1.00  0.00    -0.200 F 
ATOM     71  F   UNL     1      15.427  12.597 -23.807  1.00  0.00    -0.200 F 
ENDBRANCH  38  61
ENDBRANCH  12  13
ENDBRANCH   5   7
ENDBRANCH   2   3
ENDBRANCH   1   2
BRANCH   1  72
ATOM     72  C   UNL     1       4.254   3.826  -9.056  1.00  0.00     0.023 C 
BRANCH  72  73
ATOM     73  C   UNL     1       4.269   2.456  -9.734  1.00  0.00     0.116 C 
BRANCH  73  74
ATOM     74  N   UNL     1       5.593   1.864  -9.798  1.00  0.00    -0.356 N 
ATOM     75  C   UNL     1       6.234   0.908  -9.073  1.00  0.00     0.226 C 
ATOM     76  H   UNL     1       6.147   2.236 -10.522  1.00  0.00     0.163 HD
ATOM     77  O   UNL     1       7.388   0.665  -9.441  1.00  0.00    -0.274 OA
BRANCH  75  78
ATOM     78  C   UNL     1       5.596   0.165  -7.878  1.00  0.00     0.061 C 
ATOM     79  C   UNL     1       6.630  -0.809  -7.242  1.00  0.00     0.078 C 
ATOM     80  C   UNL     1       4.419  -0.711  -8.403  1.00  0.00     0.078 C 
ATOM     81  C   UNL     1       6.966  -2.042  -8.082  1.00  0.00     0.261 C 
ATOM     82  C   UNL     1       4.883  -1.893  -9.254  1.00  0.00     0.261 C 
ATOM     83  N   UNL     1       5.758  -2.761  -8.479  1.00  0.00    -0.346 N 
ATOM     84  H   UNL     1       5.265  -3.077  -7.644  1.00  0.00     0.346 HD
ATOM     85  H   UNL     1       6.024  -3.561  -9.054  1.00  0.00     0.346 HD
BRANCH  78  86
ATOM     86  C   UNL     1       5.061   1.145  -6.776  1.00  0.00     0.029 C 
BRANCH  86  87
ATOM     87  C   UNL     1       6.003   2.052  -5.943  1.00  0.00     0.062 C 
ATOM     88  C   UNL     1       7.008   2.956  -6.680  1.00  0.00     0.238 C 
ATOM     89  C   UNL     1       6.917   1.367  -4.995  1.00  0.00     0.001 A 
ATOM     90  O   UNL     1       8.324   2.836  -6.093  1.00  0.00    -0.493 OA
ATOM     91  C   UNL     1       8.206   1.843  -5.163  1.00  0.00     0.122 A 
ATOM     92  C   UNL     1       6.642   0.392  -4.050  1.00  0.00     0.008 A 
ATOM     93  C   UNL     1       9.271   1.331  -4.450  1.00  0.00     0.047 A 
ATOM     94  C   UNL     1       7.706  -0.147  -3.324  1.00  0.00     0.001 A 
ATOM     95  C   UNL     1       9.015   0.313  -3.530  1.00  0.00     0.004 A 
ENDBRANCH  86  87
ENDBRANCH  78  86
ENDBRANCH  75  78
ENDBRANCH  73  74
ENDBRANCH  72  73
ENDBRANCH   1  72
TORSDOF 13
