REMARK SMILES CN(CC(F)(F)F)C(=O)N1CC(n2cc(C(=O)NCCCCNC(=O)c3ccc(-c4c5nc(c(-c6c(F)c(F)c(F)c(F)c6F)c6ccc([nH]6)c(-c6c(F)c(F)c(F)c(F)c6F)c6nc(c(-c7c(F)c(F)c(F)c(F)c7F)c7ccc4[nH]7)C=C6)C=C5)cc3)nn2)C1
REMARK SMILES IDX 19 1 18 2 16 3 17 4 15 6 13 7 14 8 90 9 89 10 12 11 8 12
REMARK SMILES IDX 9 13 10 14 11 15 91 16 2 17 1 18 3 19 4 20 5 21 6 22 7 23
REMARK SMILES IDX 20 24 21 25 22 26 23 27 24 28 25 30 26 31 27 32 88 33 28 34
REMARK SMILES IDX 87 35 29 36 30 37 31 38 81 39 32 40 86 41 80 42 82 43 33 44
REMARK SMILES IDX 85 45 79 46 78 47 34 49 66 50 46 51 65 52 47 53 50 54 64 55
REMARK SMILES IDX 83 56 48 57 49 58 63 60 84 61 51 62 35 63 36 64 44 65 37 66
REMARK SMILES IDX 38 67 42 68 45 69 39 70 40 71 43 72 41 73 67 74 68 75 76 76
REMARK SMILES IDX 69 77 70 78 74 79 77 80 71 81 72 82 75 83 73 84 52 85 53 86
REMARK SMILES IDX 61 87 54 88 55 89 59 90 62 91 56 92 57 93 60 94 58 95
REMARK H PARENT 18 5 23 29 82 48 50 59
REMARK Flexibility Score: inf
ROOT
ATOM      1  C   UNL     1      -4.370   8.256   2.302  1.00  0.00     0.116 C 
ENDROOT
BRANCH   1   2
ATOM      2  N   UNL     1      -3.627   9.464   2.006  1.00  0.00    -0.351 N 
ATOM      3  C   UNL     1      -2.307   9.681   1.680  1.00  0.00     0.273 C 
ATOM      4  O   UNL     1      -2.005  10.839   1.386  1.00  0.00    -0.267 OA
ATOM      5  H   UNL     1      -4.168  10.286   2.046  1.00  0.00     0.163 HD
BRANCH   3   6
ATOM      6  C   UNL     1      -1.324   8.601   1.649  1.00  0.00     0.170 A 
ATOM      7  N   UNL     1      -0.161   6.767   1.789  1.00  0.00    -0.245 N 
ATOM      8  C   UNL     1      -1.304   7.359   2.255  1.00  0.00     0.145 A 
ATOM      9  N   UNL     1       0.529   7.599   1.001  1.00  0.00    -0.066 NA
ATOM     10  N   UNL     1      -0.152   8.734   0.929  1.00  0.00    -0.125 NA
BRANCH   7  11
ATOM     11  C   UNL     1       0.196   5.409   2.060  1.00  0.00     0.148 C 
ATOM     12  C   UNL     1       1.035   2.461   1.034  1.00  0.00     0.320 C 
ATOM     13  O   UNL     1       1.832   2.077   1.889  1.00  0.00    -0.248 OA
ATOM     14  N   UNL     1       0.745   3.792   0.884  1.00  0.00    -0.320 N 
ATOM     15  C   UNL     1       1.507   4.909   1.459  1.00  0.00     0.150 C 
ATOM     16  C   UNL     1      -0.539   4.452   1.109  1.00  0.00     0.150 C 
BRANCH  12  17
ATOM     17  N   UNL     1       0.445   1.587   0.135  1.00  0.00    -0.319 N 
ATOM     18  C   UNL     1       0.802   0.182   0.251  1.00  0.00     0.149 C 
BRANCH  17  19
ATOM     19  C   UNL     1      -0.422   1.975  -0.993  1.00  0.00     0.236 C 
BRANCH  19  20
ATOM     20  C   UNL     1      -1.921   1.755  -0.780  1.00  0.00     0.406 C 
ATOM     21  F   UNL     1      -2.389   2.406   0.306  1.00  0.00    -0.169 F 
ATOM     22  F   UNL     1      -2.618   2.216  -1.847  1.00  0.00    -0.169 F 
ATOM     23  F   UNL     1      -2.220   0.445  -0.637  1.00  0.00    -0.169 F 
ENDBRANCH  19  20
ENDBRANCH  17  19
ENDBRANCH  12  17
ENDBRANCH   7  11
ENDBRANCH   3   6
ENDBRANCH   1   2
BRANCH   1  24
ATOM     24  C   UNL     1      -4.644   8.105   3.803  1.00  0.00     0.023 C 
BRANCH  24  25
ATOM     25  C   UNL     1      -5.741   9.020   4.375  1.00  0.00     0.023 C 
BRANCH  25  26
ATOM     26  C   UNL     1      -7.142   8.763   3.833  1.00  0.00     0.116 C 
BRANCH  26  27
ATOM     27  N   UNL     1      -7.650   7.412   4.115  1.00  0.00    -0.352 N 
ATOM     28  C   UNL     1      -8.814   6.828   3.641  1.00  0.00     0.251 C 
ATOM     29  H   UNL     1      -7.097   6.857   4.711  1.00  0.00     0.163 HD
ATOM     30  O   UNL     1      -9.337   5.872   4.213  1.00  0.00    -0.269 OA
BRANCH  28  31
ATOM     31  C   UNL     1      -9.394   7.357   2.400  1.00  0.00     0.039 A 
ATOM     32  C   UNL     1     -10.762   7.574   2.205  1.00  0.00     0.014 A 
ATOM     33  C   UNL     1      -8.469   7.715   1.431  1.00  0.00     0.014 A 
ATOM     34  C   UNL     1     -11.171   8.219   1.038  1.00  0.00     0.010 A 
ATOM     35  C   UNL     1      -8.842   8.582   0.454  1.00  0.00     0.010 A 
ATOM     36  C   UNL     1     -10.191   8.723   0.171  1.00  0.00    -0.014 A 
BRANCH  36  37
ATOM     37  C   UNL     1     -10.490   9.454  -1.049  1.00  0.00     0.031 A 
ATOM     38  C   UNL     1     -11.218  10.734  -0.849  1.00  0.00     0.074 A 
ATOM     39  C   UNL     1      -9.869   9.125  -2.207  1.00  0.00     0.049 A 
ATOM     40  N   UNL     1     -12.382  11.062  -1.301  1.00  0.00    -0.248 NA
ATOM     41  C   UNL     1     -10.639  11.729   0.071  1.00  0.00     0.031 C 
ATOM     42  C   UNL     1      -8.857   8.082  -2.449  1.00  0.00     0.029 A 
ATOM     43  N   UNL     1      -9.927   9.749  -3.411  1.00  0.00    -0.354 N 
ATOM     44  C   UNL     1     -12.607  12.371  -0.881  1.00  0.00     0.074 A 
ATOM     45  C   UNL     1     -11.594  12.660   0.099  1.00  0.00     0.031 C 
ATOM     46  C   UNL     1      -8.238   8.304  -3.630  1.00  0.00     0.029 A 
ATOM     47  C   UNL     1      -8.927   9.382  -4.308  1.00  0.00     0.049 A 
ATOM     48  H   UNL     1     -10.623  10.409  -3.634  1.00  0.00     0.167 HD
ATOM     49  C   UNL     1     -13.474  13.185  -1.548  1.00  0.00     0.037 A 
ATOM     50  C   UNL     1      -8.681   9.963  -5.509  1.00  0.00     0.037 A 
ATOM     51  C   UNL     1     -14.326  12.418  -2.422  1.00  0.00     0.049 A 
ATOM     52  C   UNL     1      -9.911  10.712  -5.880  1.00  0.00     0.074 A 
ATOM     53  C   UNL     1     -15.268  11.428  -2.220  1.00  0.00     0.029 A 
ATOM     54  N   UNL     1     -13.976  12.334  -3.748  1.00  0.00    -0.354 N 
ATOM     55  N   UNL     1     -11.051  10.132  -6.145  1.00  0.00    -0.248 NA
ATOM     56  C   UNL     1      -9.998  12.100  -5.449  1.00  0.00     0.031 C 
ATOM     57  C   UNL     1     -15.046  10.495  -3.276  1.00  0.00     0.029 A 
ATOM     58  C   UNL     1     -14.053  11.012  -4.108  1.00  0.00     0.049 A 
ATOM     59  H   UNL     1     -13.718  13.083  -4.332  1.00  0.00     0.167 HD
ATOM     60  C   UNL     1     -12.005  10.925  -5.523  1.00  0.00     0.074 A 
ATOM     61  C   UNL     1     -11.300  12.152  -5.154  1.00  0.00     0.031 C 
ATOM     62  C   UNL     1     -13.190  10.399  -5.092  1.00  0.00     0.037 A 
BRANCH  49  63
ATOM     63  C   UNL     1     -13.330  14.681  -1.683  1.00  0.00     0.064 A 
ATOM     64  C   UNL     1     -14.373  15.419  -2.279  1.00  0.00     0.173 A 
ATOM     65  C   UNL     1     -12.111  15.374  -1.525  1.00  0.00     0.173 A 
ATOM     66  F   UNL     1     -15.574  14.859  -2.490  1.00  0.00    -0.203 F 
ATOM     67  C   UNL     1     -14.182  16.720  -2.754  1.00  0.00     0.198 A 
ATOM     68  C   UNL     1     -11.940  16.690  -1.951  1.00  0.00     0.198 A 
ATOM     69  F   UNL     1     -11.007  14.780  -1.059  1.00  0.00    -0.203 F 
ATOM     70  F   UNL     1     -15.165  17.334  -3.426  1.00  0.00    -0.200 F 
ATOM     71  C   UNL     1     -12.963  17.352  -2.595  1.00  0.00     0.200 A 
ATOM     72  F   UNL     1     -10.745  17.279  -1.802  1.00  0.00    -0.200 F 
ATOM     73  F   UNL     1     -12.756  18.573  -3.104  1.00  0.00    -0.200 F 
ENDBRANCH  49  63
BRANCH  50  74
ATOM     74  C   UNL     1      -7.369  10.206  -6.157  1.00  0.00     0.064 A 
ATOM     75  C   UNL     1      -7.274  10.499  -7.527  1.00  0.00     0.173 A 
ATOM     76  C   UNL     1      -6.211  10.434  -5.388  1.00  0.00     0.173 A 
ATOM     77  F   UNL     1      -8.344  10.353  -8.322  1.00  0.00    -0.203 F 
ATOM     78  C   UNL     1      -6.097  11.010  -8.090  1.00  0.00     0.198 A 
ATOM     79  C   UNL     1      -5.038  10.943  -5.949  1.00  0.00     0.198 A 
ATOM     80  F   UNL     1      -6.226  10.257  -4.058  1.00  0.00    -0.203 F 
ATOM     81  F   UNL     1      -6.061  11.330  -9.391  1.00  0.00    -0.200 F 
ATOM     82  C   UNL     1      -4.985  11.242  -7.298  1.00  0.00     0.200 A 
ATOM     83  F   UNL     1      -3.982  11.200  -5.164  1.00  0.00    -0.200 F 
ATOM     84  F   UNL     1      -3.880  11.790  -7.823  1.00  0.00    -0.200 F 
ENDBRANCH  50  74
BRANCH  62  85
ATOM     85  C   UNL     1     -13.524   8.985  -5.491  1.00  0.00     0.064 A 
ATOM     86  C   UNL     1     -12.799   7.854  -5.076  1.00  0.00     0.173 A 
ATOM     87  C   UNL     1     -14.725   8.758  -6.174  1.00  0.00     0.173 A 
ATOM     88  F   UNL     1     -11.694   7.976  -4.334  1.00  0.00    -0.203 F 
ATOM     89  C   UNL     1     -13.239   6.561  -5.361  1.00  0.00     0.198 A 
ATOM     90  C   UNL     1     -15.181   7.467  -6.427  1.00  0.00     0.198 A 
ATOM     91  F   UNL     1     -15.490   9.796  -6.546  1.00  0.00    -0.203 F 
ATOM     92  F   UNL     1     -12.526   5.501  -4.952  1.00  0.00    -0.200 F 
ATOM     93  C   UNL     1     -14.435   6.369  -6.029  1.00  0.00     0.200 A 
ATOM     94  F   UNL     1     -16.365   7.288  -7.029  1.00  0.00    -0.200 F 
ATOM     95  F   UNL     1     -14.885   5.129  -6.263  1.00  0.00    -0.200 F 
ENDBRANCH  62  85
ENDBRANCH  36  37
ENDBRANCH  28  31
ENDBRANCH  26  27
ENDBRANCH  25  26
ENDBRANCH  24  25
ENDBRANCH   1  24
TORSDOF 15
