REMARK SMILES C[C@]1(C(=O)NCCn2cc(C(=O)NCCCCNC(=O)c3ccc(-c4c5nc(c(-c6c(F)c(F)c(F)c(F)c6F)c6ccc([nH]6)c(-c6c(F)c(F)c(F)c(F)c6F)c6nc(c(-c7c(F)c(F)c(F)c(F)c7F)c7ccc4[nH]7)C=C6)C=C5)cc3)nn2)CCCO1
REMARK SMILES IDX 14 1 13 2 11 3 12 4 10 6 8 7 9 8 85 9 84 10 7 11 6 12 5 13
REMARK SMILES IDX 3 14 4 15 2 17 1 18 86 19 89 20 87 21 88 22 15 23 16 24
REMARK SMILES IDX 17 25 18 26 19 27 20 29 21 30 22 31 83 32 23 33 82 34 24 35
REMARK SMILES IDX 25 36 26 37 76 38 27 39 81 40 75 41 77 42 28 43 80 44 74 45
REMARK SMILES IDX 73 46 29 48 61 49 41 50 60 51 42 52 45 53 59 54 78 55 43 56
REMARK SMILES IDX 44 57 58 59 79 60 46 61 30 62 31 63 39 64 32 65 33 66 37 67
REMARK SMILES IDX 40 68 34 69 35 70 38 71 36 72 62 73 63 74 71 75 64 76 65 77
REMARK SMILES IDX 69 78 72 79 66 80 67 81 70 82 68 83 47 84 48 85 56 86 49 87
REMARK SMILES IDX 50 88 54 89 57 90 51 91 52 92 55 93 53 94
REMARK H PARENT 13 5 5 16 18 28 77 47 45 58
REMARK Flexibility Score: inf
ROOT
ATOM      1  C   UNL     1       6.401   4.685   2.110  1.00  0.00     0.116 C 
ENDROOT
BRANCH   1   2
ATOM      2  N   UNL     1       6.887   3.813   3.157  1.00  0.00    -0.351 N 
ATOM      3  C   UNL     1       6.838   2.447   3.308  1.00  0.00     0.273 C 
ATOM      4  O   UNL     1       7.364   1.990   4.325  1.00  0.00    -0.267 OA
ATOM      5  H   UNL     1       7.336   4.284   3.897  1.00  0.00     0.163 HD
BRANCH   3   6
ATOM      6  C   UNL     1       6.225   1.592   2.299  1.00  0.00     0.170 A 
ATOM      7  N   UNL     1       5.248   0.705   0.582  1.00  0.00    -0.250 N 
ATOM      8  C   UNL     1       5.425   1.891   1.216  1.00  0.00     0.145 A 
ATOM      9  N   UNL     1       5.818  -0.302   1.251  1.00  0.00    -0.067 NA
ATOM     10  N   UNL     1       6.402   0.221   2.320  1.00  0.00    -0.125 NA
BRANCH   7  11
ATOM     11  C   UNL     1       4.551   0.498  -0.667  1.00  0.00     0.167 C 
BRANCH  11  12
ATOM     12  C   UNL     1       3.585  -0.675  -0.589  1.00  0.00     0.139 C 
BRANCH  12  13
ATOM     13  N   UNL     1       2.397  -0.345   0.188  1.00  0.00    -0.352 N 
ATOM     14  C   UNL     1       1.105  -0.056  -0.122  1.00  0.00     0.252 C 
ATOM     15  O   UNL     1       0.391   0.234   0.847  1.00  0.00    -0.272 OA
ATOM     16  H   UNL     1       2.569  -0.327   1.157  1.00  0.00     0.163 HD
BRANCH  14  17
ATOM     17  C   UNL     1       0.501  -0.140  -1.554  1.00  0.00     0.143 C 
ATOM     18  C   UNL     1       1.462  -0.074  -2.739  1.00  0.00     0.053 C 
ATOM     19  C   UNL     1      -0.417  -1.362  -1.627  1.00  0.00     0.048 C 
ATOM     20  O   UNL     1      -0.403   0.975  -1.761  1.00  0.00    -0.365 OA
ATOM     21  C   UNL     1      -1.376  -0.980  -2.727  1.00  0.00     0.032 C 
ATOM     22  C   UNL     1      -1.542   0.512  -2.509  1.00  0.00     0.162 C 
ENDBRANCH  14  17
ENDBRANCH  12  13
ENDBRANCH  11  12
ENDBRANCH   7  11
ENDBRANCH   3   6
ENDBRANCH   1   2
BRANCH   1  23
ATOM     23  C   UNL     1       5.116   5.399   2.539  1.00  0.00     0.023 C 
BRANCH  23  24
ATOM     24  C   UNL     1       5.354   6.536   3.542  1.00  0.00     0.023 C 
BRANCH  24  25
ATOM     25  C   UNL     1       6.335   7.584   3.042  1.00  0.00     0.116 C 
BRANCH  25  26
ATOM     26  N   UNL     1       5.869   8.319   1.867  1.00  0.00    -0.352 N 
ATOM     27  C   UNL     1       6.432   9.488   1.346  1.00  0.00     0.251 C 
ATOM     28  H   UNL     1       5.083   7.957   1.398  1.00  0.00     0.163 HD
ATOM     29  O   UNL     1       5.814  10.259   0.662  1.00  0.00    -0.269 OA
BRANCH  27  30
ATOM     30  C   UNL     1       7.891   9.640   1.555  1.00  0.00     0.039 A 
ATOM     31  C   UNL     1       8.587  10.818   1.819  1.00  0.00     0.014 A 
ATOM     32  C   UNL     1       8.609   8.470   1.397  1.00  0.00     0.014 A 
ATOM     33  C   UNL     1       9.996  10.731   1.885  1.00  0.00     0.010 A 
ATOM     34  C   UNL     1       9.792   8.385   2.052  1.00  0.00     0.010 A 
ATOM     35  C   UNL     1      10.619   9.457   1.848  1.00  0.00    -0.014 A 
BRANCH  35  36
ATOM     36  C   UNL     1      12.011   9.126   2.201  1.00  0.00     0.031 A 
ATOM     37  C   UNL     1      12.274   9.724   3.560  1.00  0.00     0.074 A 
ATOM     38  C   UNL     1      12.823   8.271   1.486  1.00  0.00     0.049 A 
ATOM     39  N   UNL     1      12.799  10.891   3.742  1.00  0.00    -0.248 NA
ATOM     40  C   UNL     1      11.597   9.244   4.794  1.00  0.00     0.031 C 
ATOM     41  C   UNL     1      12.580   7.496   0.244  1.00  0.00     0.029 A 
ATOM     42  N   UNL     1      14.151   7.926   1.715  1.00  0.00    -0.354 N 
ATOM     43  C   UNL     1      12.879  11.071   5.118  1.00  0.00     0.074 A 
ATOM     44  C   UNL     1      11.891  10.205   5.679  1.00  0.00     0.031 C 
ATOM     45  C   UNL     1      13.585   6.599   0.012  1.00  0.00     0.029 A 
ATOM     46  C   UNL     1      14.644   6.798   0.984  1.00  0.00     0.049 A 
ATOM     47  H   UNL     1      14.719   8.428   2.344  1.00  0.00     0.167 HD
ATOM     48  C   UNL     1      14.018  11.612   5.634  1.00  0.00     0.037 A 
ATOM     49  C   UNL     1      15.898   6.217   1.076  1.00  0.00     0.037 A 
ATOM     50  C   UNL     1      14.777  12.205   4.554  1.00  0.00     0.049 A 
ATOM     51  C   UNL     1      16.770   7.237   1.726  1.00  0.00     0.074 A 
ATOM     52  C   UNL     1      14.559  13.232   3.659  1.00  0.00     0.029 A 
ATOM     53  N   UNL     1      15.656  11.339   3.958  1.00  0.00    -0.354 N 
ATOM     54  N   UNL     1      17.054   8.368   1.137  1.00  0.00    -0.248 NA
ATOM     55  C   UNL     1      16.716   7.246   3.183  1.00  0.00     0.031 C 
ATOM     56  C   UNL     1      15.023  12.738   2.401  1.00  0.00     0.029 A 
ATOM     57  C   UNL     1      15.676  11.524   2.604  1.00  0.00     0.049 A 
ATOM     58  H   UNL     1      16.200  10.674   4.440  1.00  0.00     0.167 HD
ATOM     59  C   UNL     1      16.710   9.320   2.083  1.00  0.00     0.074 A 
ATOM     60  C   UNL     1      16.481   8.555   3.322  1.00  0.00     0.031 C 
ATOM     61  C   UNL     1      16.274  10.562   1.710  1.00  0.00     0.037 A 
BRANCH  48  62
ATOM     62  C   UNL     1      14.705  11.158   6.907  1.00  0.00     0.064 A 
ATOM     63  C   UNL     1      15.858  11.856   7.327  1.00  0.00     0.173 A 
ATOM     64  C   UNL     1      14.487   9.918   7.547  1.00  0.00     0.173 A 
ATOM     65  F   UNL     1      16.184  13.030   6.766  1.00  0.00    -0.203 F 
ATOM     66  C   UNL     1      16.748  11.328   8.268  1.00  0.00     0.198 A 
ATOM     67  C   UNL     1      15.354   9.415   8.521  1.00  0.00     0.198 A 
ATOM     68  F   UNL     1      13.497   9.093   7.189  1.00  0.00    -0.203 F 
ATOM     69  F   UNL     1      17.884  11.980   8.548  1.00  0.00    -0.200 F 
ATOM     70  C   UNL     1      16.495  10.108   8.865  1.00  0.00     0.200 A 
ATOM     71  F   UNL     1      15.107   8.216   9.067  1.00  0.00    -0.200 F 
ATOM     72  F   UNL     1      17.365   9.582   9.737  1.00  0.00    -0.200 F 
ENDBRANCH  48  62
BRANCH  49  73
ATOM     73  C   UNL     1      16.321   4.763   1.105  1.00  0.00     0.064 A 
ATOM     74  C   UNL     1      17.668   4.304   1.070  1.00  0.00     0.173 A 
ATOM     75  C   UNL     1      15.383   3.799   1.508  1.00  0.00     0.173 A 
ATOM     76  F   UNL     1      18.667   5.145   0.760  1.00  0.00    -0.203 F 
ATOM     77  C   UNL     1      18.027   2.982   1.420  1.00  0.00     0.198 A 
ATOM     78  C   UNL     1      15.743   2.494   1.875  1.00  0.00     0.198 A 
ATOM     79  F   UNL     1      14.097   4.141   1.652  1.00  0.00    -0.203 F 
ATOM     80  F   UNL     1      19.313   2.593   1.406  1.00  0.00    -0.200 F 
ATOM     81  C   UNL     1      17.062   2.083   1.838  1.00  0.00     0.200 A 
ATOM     82  F   UNL     1      14.800   1.655   2.324  1.00  0.00    -0.200 F 
ATOM     83  F   UNL     1      17.397   0.848   2.239  1.00  0.00    -0.200 F 
ENDBRANCH  49  73
BRANCH  61  84
ATOM     84  C   UNL     1      16.384  10.963   0.261  1.00  0.00     0.064 A 
ATOM     85  C   UNL     1      15.621  10.447  -0.804  1.00  0.00     0.173 A 
ATOM     86  C   UNL     1      17.213  12.053  -0.022  1.00  0.00     0.173 A 
ATOM     87  F   UNL     1      14.711   9.486  -0.600  1.00  0.00    -0.203 F 
ATOM     88  C   UNL     1      15.735  10.967  -2.098  1.00  0.00     0.198 A 
ATOM     89  C   UNL     1      17.298  12.593  -1.300  1.00  0.00     0.198 A 
ATOM     90  F   UNL     1      17.901  12.639   0.969  1.00  0.00    -0.203 F 
ATOM     91  F   UNL     1      15.003  10.457  -3.102  1.00  0.00    -0.200 F 
ATOM     92  C   UNL     1      16.577  12.039  -2.343  1.00  0.00     0.200 A 
ATOM     93  F   UNL     1      18.057  13.677  -1.507  1.00  0.00    -0.200 F 
ATOM     94  F   UNL     1      16.676  12.556  -3.576  1.00  0.00    -0.200 F 
ENDBRANCH  61  84
ENDBRANCH  35  36
ENDBRANCH  27  30
ENDBRANCH  25  26
ENDBRANCH  24  25
ENDBRANCH  23  24
ENDBRANCH   1  23
TORSDOF 15
