REMARK SMILES CCc1ccc(S(=O)(=O)Cc2noc(C(=O)NCCCCNC(=O)c3ccc(-c4c5nc(c(-c6c(F)c(F)c(F)c(F)c6F)c6ccc([nH]6)c(-c6c(F)c(F)c(F)c(F)c6F)c6nc(c(-c7c(F)c(F)c(F)c(F)c7F)c7ccc4[nH]7)C=C6)C=C5)cc3)n2)cc1
REMARK SMILES IDX 18 1 17 2 15 3 16 4 14 6 11 7 12 8 88 9 13 10 10 11 7 12
REMARK SMILES IDX 8 13 9 14 6 15 3 16 4 17 90 18 5 19 89 20 2 21 1 22 19 23
REMARK SMILES IDX 20 24 21 25 22 26 23 27 24 29 25 30 26 31 87 32 27 33 86 34
REMARK SMILES IDX 28 35 29 36 30 37 80 38 31 39 85 40 79 41 81 42 32 43 84 44
REMARK SMILES IDX 78 45 77 46 33 48 65 49 45 50 64 51 46 52 49 53 63 54 82 55
REMARK SMILES IDX 47 56 48 57 62 59 83 60 50 61 34 62 35 63 43 64 36 65 37 66
REMARK SMILES IDX 41 67 44 68 38 69 39 70 42 71 40 72 66 73 67 74 75 75 68 76
REMARK SMILES IDX 69 77 73 78 76 79 70 80 71 81 74 82 72 83 51 84 52 85 60 86
REMARK SMILES IDX 53 87 54 88 58 89 61 90 55 91 56 92 59 93 57 94
REMARK H PARENT 17 5 22 28 81 47 49 58
REMARK Flexibility Score: inf
ROOT
ATOM      1  C   UNL     1       3.367   9.933   0.656  1.00  0.00     0.116 C 
ENDROOT
BRANCH   1   2
ATOM      2  N   UNL     1       3.987   9.078  -0.342  1.00  0.00    -0.348 N 
ATOM      3  C   UNL     1       4.141   7.703  -0.353  1.00  0.00     0.309 C 
ATOM      4  O   UNL     1       4.762   7.231  -1.311  1.00  0.00    -0.264 OA
ATOM      5  H   UNL     1       4.353   9.546  -1.127  1.00  0.00     0.163 HD
BRANCH   3   6
ATOM      6  C   UNL     1       3.576   6.896   0.710  1.00  0.00     0.315 A 
ATOM      7  C   UNL     1       2.541   6.125   2.373  1.00  0.00     0.187 A 
ATOM      8  N   UNL     1       3.075   5.037   1.808  1.00  0.00    -0.061 NA
ATOM      9  N   UNL     1       2.822   7.290   1.715  1.00  0.00    -0.186 NA
ATOM     10  O   UNL     1       3.774   5.544   0.706  1.00  0.00    -0.329 OA
BRANCH   7  11
ATOM     11  C   UNL     1       1.596   6.149   3.504  1.00  0.00     0.223 C 
BRANCH  11  12
ATOM     12  S   UNL     1       1.610   4.764   4.586  1.00  0.00     0.185 S 
ATOM     13  O   UNL     1       0.519   4.957   5.528  1.00  0.00    -0.223 OA
ATOM     14  O   UNL     1       2.966   4.590   5.078  1.00  0.00    -0.223 OA
BRANCH  12  15
ATOM     15  C   UNL     1       1.181   3.314   3.658  1.00  0.00     0.067 A 
ATOM     16  C   UNL     1       0.671   0.984   2.194  1.00  0.00    -0.048 A 
ATOM     17  C   UNL     1       1.343   0.918   3.422  1.00  0.00     0.005 A 
ATOM     18  C   UNL     1       0.226   2.229   1.728  1.00  0.00     0.005 A 
ATOM     19  C   UNL     1       1.606   2.079   4.150  1.00  0.00     0.020 A 
ATOM     20  C   UNL     1       0.469   3.392   2.460  1.00  0.00     0.020 A 
BRANCH  16  21
ATOM     21  C   UNL     1       0.406  -0.273   1.403  1.00  0.00     0.032 C 
ATOM     22  C   UNL     1       0.997  -0.235  -0.001  1.00  0.00     0.009 C 
ENDBRANCH  16  21
ENDBRANCH  12  15
ENDBRANCH  11  12
ENDBRANCH   7  11
ENDBRANCH   3   6
ENDBRANCH   1   2
BRANCH   1  23
ATOM     23  C   UNL     1       4.408  10.582   1.565  1.00  0.00     0.023 C 
BRANCH  23  24
ATOM     24  C   UNL     1       5.241  11.661   0.872  1.00  0.00     0.023 C 
BRANCH  24  25
ATOM     25  C   UNL     1       4.427  12.765   0.208  1.00  0.00     0.116 C 
BRANCH  25  26
ATOM     26  N   UNL     1       3.559  13.479   1.135  1.00  0.00    -0.352 N 
ATOM     27  C   UNL     1       3.321  14.832   1.197  1.00  0.00     0.251 C 
ATOM     28  H   UNL     1       3.086  12.925   1.798  1.00  0.00     0.163 HD
ATOM     29  O   UNL     1       2.658  15.319   2.104  1.00  0.00    -0.269 OA
BRANCH  27  30
ATOM     30  C   UNL     1       3.919  15.694   0.160  1.00  0.00     0.039 A 
ATOM     31  C   UNL     1       4.726  16.765   0.547  1.00  0.00     0.014 A 
ATOM     32  C   UNL     1       3.757  15.371  -1.189  1.00  0.00     0.014 A 
ATOM     33  C   UNL     1       5.440  17.469  -0.424  1.00  0.00     0.010 A 
ATOM     34  C   UNL     1       4.532  16.017  -2.142  1.00  0.00     0.010 A 
ATOM     35  C   UNL     1       5.384  17.070  -1.770  1.00  0.00    -0.014 A 
BRANCH  35  36
ATOM     36  C   UNL     1       6.196  17.735  -2.820  1.00  0.00     0.031 A 
ATOM     37  C   UNL     1       5.505  18.428  -3.960  1.00  0.00     0.074 A 
ATOM     38  C   UNL     1       7.540  17.633  -2.802  1.00  0.00     0.049 A 
ATOM     39  N   UNL     1       6.012  18.934  -5.054  1.00  0.00    -0.248 NA
ATOM     40  C   UNL     1       4.039  18.535  -3.871  1.00  0.00     0.031 C 
ATOM     41  C   UNL     1       8.326  16.960  -1.767  1.00  0.00     0.029 A 
ATOM     42  N   UNL     1       8.482  18.078  -3.696  1.00  0.00    -0.354 N 
ATOM     43  C   UNL     1       4.930  19.399  -5.789  1.00  0.00     0.074 A 
ATOM     44  C   UNL     1       3.735  19.063  -5.046  1.00  0.00     0.031 C 
ATOM     45  C   UNL     1       9.630  17.050  -2.077  1.00  0.00     0.029 A 
ATOM     46  C   UNL     1       9.770  17.739  -3.357  1.00  0.00     0.049 A 
ATOM     47  H   UNL     1       8.256  18.593  -4.505  1.00  0.00     0.167 HD
ATOM     48  C   UNL     1       4.935  20.067  -6.966  1.00  0.00     0.037 A 
ATOM     49  C   UNL     1      10.928  17.942  -4.014  1.00  0.00     0.037 A 
ATOM     50  C   UNL     1       6.128  20.418  -7.688  1.00  0.00     0.049 A 
ATOM     51  C   UNL     1      10.902  18.657  -5.341  1.00  0.00     0.074 A 
ATOM     52  C   UNL     1       6.243  21.137  -8.864  1.00  0.00     0.029 A 
ATOM     53  N   UNL     1       7.415  20.072  -7.302  1.00  0.00    -0.354 N 
ATOM     54  N   UNL     1       9.879  19.142  -6.001  1.00  0.00    -0.248 NA
ATOM     55  C   UNL     1      12.194  18.853  -6.015  1.00  0.00     0.031 C 
ATOM     56  C   UNL     1       7.594  21.178  -9.220  1.00  0.00     0.029 A 
ATOM     57  C   UNL     1       8.328  20.543  -8.231  1.00  0.00     0.049 A 
ATOM     58  H   UNL     1       7.645  19.568  -6.488  1.00  0.00     0.167 HD
ATOM     59  C   UNL     1      10.404  19.735  -7.141  1.00  0.00     0.074 A 
ATOM     60  C   UNL     1      11.839  19.553  -7.083  1.00  0.00     0.031 C 
ATOM     61  C   UNL     1       9.757  20.376  -8.145  1.00  0.00     0.037 A 
BRANCH  48  62
ATOM     62  C   UNL     1       3.608  20.462  -7.548  1.00  0.00     0.064 A 
ATOM     63  C   UNL     1       2.799  21.437  -6.945  1.00  0.00     0.173 A 
ATOM     64  C   UNL     1       3.156  19.885  -8.745  1.00  0.00     0.173 A 
ATOM     65  F   UNL     1       3.178  22.011  -5.793  1.00  0.00    -0.203 F 
ATOM     66  C   UNL     1       1.573  21.796  -7.500  1.00  0.00     0.198 A 
ATOM     67  C   UNL     1       1.947  20.272  -9.316  1.00  0.00     0.198 A 
ATOM     68  F   UNL     1       3.892  18.951  -9.367  1.00  0.00    -0.203 F 
ATOM     69  F   UNL     1       0.793  22.689  -6.875  1.00  0.00    -0.200 F 
ATOM     70  C   UNL     1       1.153  21.220  -8.689  1.00  0.00     0.200 A 
ATOM     71  F   UNL     1       1.549  19.726 -10.473  1.00  0.00    -0.200 F 
ATOM     72  F   UNL     1      -0.022  21.574  -9.227  1.00  0.00    -0.200 F 
ENDBRANCH  48  62
BRANCH  49  73
ATOM     73  C   UNL     1      12.213  17.474  -3.430  1.00  0.00     0.064 A 
ATOM     74  C   UNL     1      13.185  18.390  -3.003  1.00  0.00     0.173 A 
ATOM     75  C   UNL     1      12.508  16.108  -3.306  1.00  0.00     0.173 A 
ATOM     76  F   UNL     1      12.960  19.707  -3.119  1.00  0.00    -0.203 F 
ATOM     77  C   UNL     1      14.412  17.959  -2.501  1.00  0.00     0.198 A 
ATOM     78  C   UNL     1      13.722  15.678  -2.773  1.00  0.00     0.198 A 
ATOM     79  F   UNL     1      11.613  15.189  -3.695  1.00  0.00    -0.203 F 
ATOM     80  F   UNL     1      15.344  18.857  -2.153  1.00  0.00    -0.200 F 
ATOM     81  C   UNL     1      14.678  16.604  -2.382  1.00  0.00     0.200 A 
ATOM     82  F   UNL     1      13.968  14.367  -2.645  1.00  0.00    -0.200 F 
ATOM     83  F   UNL     1      15.857  16.189  -1.899  1.00  0.00    -0.200 F 
ENDBRANCH  49  73
BRANCH  61  84
ATOM     84  C   UNL     1      10.588  20.987  -9.236  1.00  0.00     0.064 A 
ATOM     85  C   UNL     1      11.241  20.204 -10.197  1.00  0.00     0.173 A 
ATOM     86  C   UNL     1      10.665  22.383  -9.362  1.00  0.00     0.173 A 
ATOM     87  F   UNL     1      11.210  18.865 -10.113  1.00  0.00    -0.203 F 
ATOM     88  C   UNL     1      11.954  20.796 -11.237  1.00  0.00     0.198 A 
ATOM     89  C   UNL     1      11.350  22.971 -10.421  1.00  0.00     0.198 A 
ATOM     90  F   UNL     1      10.051  23.178  -8.472  1.00  0.00    -0.203 F 
ATOM     91  F   UNL     1      12.602  20.029 -12.124  1.00  0.00    -0.200 F 
ATOM     92  C   UNL     1      11.998  22.178 -11.354  1.00  0.00     0.200 A 
ATOM     93  F   UNL     1      11.375  24.306 -10.542  1.00  0.00    -0.200 F 
ATOM     94  F   UNL     1      12.666  22.745 -12.368  1.00  0.00    -0.200 F 
ENDBRANCH  61  84
ENDBRANCH  35  36
ENDBRANCH  27  30
ENDBRANCH  25  26
ENDBRANCH  24  25
ENDBRANCH  23  24
ENDBRANCH   1  23
TORSDOF 15
