REMARK SMILES CC#CC[C@H](C(=O)NCCCCNC(=O)c1ccc(-c2c3nc(c(-c4c(F)c(F)c(F)c(F)c4F)c4ccc([nH]4)c(-c4c(F)c(F)c(F)c(F)c4F)c4nc(c(-c5c(F)c(F)c(F)c(F)c5F)c5ccc2[nH]5)C=C4)C=C3)cc1)c1cccc(Br)c1
REMARK SMILES IDX 10 1 9 2 8 3 6 4 7 5 5 7 4 8 3 9 1 10 2 11 79 12 80 13 85 14
REMARK SMILES IDX 81 15 83 16 82 17 84 18 11 19 12 20 13 21 14 22 15 24 16 25
REMARK SMILES IDX 17 26 78 27 18 28 77 29 19 30 20 31 21 32 71 33 22 34 76 35
REMARK SMILES IDX 70 36 72 37 23 38 75 39 69 40 68 41 24 43 56 44 36 45 55 46
REMARK SMILES IDX 37 47 40 48 54 49 73 50 38 51 39 52 53 54 74 55 41 56 25 57
REMARK SMILES IDX 26 58 34 59 27 60 28 61 32 62 35 63 29 64 30 65 33 66 31 67
REMARK SMILES IDX 57 68 58 69 66 70 59 71 60 72 64 73 67 74 61 75 62 76 65 77
REMARK SMILES IDX 63 78 42 79 43 80 51 81 44 82 45 83 49 84 52 85 46 86 47 87
REMARK SMILES IDX 50 88 48 89
REMARK H PARENT 8 6 13 23 72 42 40 53
REMARK Flexibility Score: inf
ROOT
ATOM      1  C   UNL     1      -2.254   5.345  -2.302  1.00  0.00     0.023 C 
ENDROOT
BRANCH   1   2
ATOM      2  C   UNL     1      -2.087   4.039  -1.527  1.00  0.00     0.116 C 
BRANCH   2   3
ATOM      3  N   UNL     1      -0.810   3.990  -0.843  1.00  0.00    -0.356 N 
ATOM      4  C   UNL     1      -0.528   4.135   0.485  1.00  0.00     0.228 C 
ATOM      5  O   UNL     1       0.653   4.302   0.795  1.00  0.00    -0.274 OA
ATOM      6  H   UNL     1      -0.030   3.829  -1.421  1.00  0.00     0.163 HD
BRANCH   4   7
ATOM      7  C   UNL     1      -1.672   4.140   1.510  1.00  0.00     0.120 C 
BRANCH   7   8
ATOM      8  C   UNL     1      -1.218   3.469   2.821  1.00  0.00     0.107 C 
BRANCH   8   9
ATOM      9  C   UNL     1      -0.515   2.191   2.611  1.00  0.00    -0.102 C 
ATOM     10  C   UNL     1       1.327   0.068   2.341  1.00  0.00     0.107 C 
ATOM     11  C   UNL     1       0.335   1.211   2.486  1.00  0.00    -0.107 C 
ENDBRANCH   8   9
ENDBRANCH   7   8
BRANCH   7  12
ATOM     12  C   UNL     1      -2.225   5.543   1.784  1.00  0.00    -0.034 A 
ATOM     13  C   UNL     1      -1.604   6.708   1.300  1.00  0.00     0.004 A 
ATOM     14  C   UNL     1      -3.381   5.692   2.571  1.00  0.00     0.020 A 
ATOM     15  C   UNL     1      -2.123   7.975   1.581  1.00  0.00     0.001 A 
ATOM     16  C   UNL     1      -3.883   6.962   2.866  1.00  0.00     0.018 A 
ATOM     17  C   UNL     1      -3.261   8.104   2.371  1.00  0.00     0.016 A 
ATOM     18  Br  UNL     1      -5.412   7.134   3.965  1.00  0.00    -0.051 Br
ENDBRANCH   7  12
ENDBRANCH   4   7
ENDBRANCH   2   3
ENDBRANCH   1   2
BRANCH   1  19
ATOM     19  C   UNL     1      -1.185   5.605  -3.368  1.00  0.00     0.023 C 
BRANCH  19  20
ATOM     20  C   UNL     1      -0.988   4.488  -4.388  1.00  0.00     0.116 C 
BRANCH  20  21
ATOM     21  N   UNL     1      -2.201   4.173  -5.123  1.00  0.00    -0.352 N 
ATOM     22  C   UNL     1      -2.373   3.925  -6.460  1.00  0.00     0.251 C 
ATOM     23  H   UNL     1      -3.021   4.132  -4.580  1.00  0.00     0.163 HD
ATOM     24  O   UNL     1      -3.511   3.798  -6.912  1.00  0.00    -0.269 OA
BRANCH  22  25
ATOM     25  C   UNL     1      -1.212   3.839  -7.372  1.00  0.00     0.039 A 
ATOM     26  C   UNL     1      -1.306   4.447  -8.628  1.00  0.00     0.014 A 
ATOM     27  C   UNL     1      -0.050   3.146  -7.020  1.00  0.00     0.014 A 
ATOM     28  C   UNL     1      -0.222   4.403  -9.507  1.00  0.00     0.010 A 
ATOM     29  C   UNL     1       1.056   3.160  -7.870  1.00  0.00     0.010 A 
ATOM     30  C   UNL     1       0.978   3.782  -9.126  1.00  0.00    -0.014 A 
BRANCH  30  31
ATOM     31  C   UNL     1       2.151   3.774 -10.037  1.00  0.00     0.031 A 
ATOM     32  C   UNL     1       2.656   2.483 -10.618  1.00  0.00     0.074 A 
ATOM     33  C   UNL     1       2.786   4.930 -10.311  1.00  0.00     0.049 A 
ATOM     34  N   UNL     1       3.670   2.278 -11.423  1.00  0.00    -0.248 NA
ATOM     35  C   UNL     1       1.946   1.257 -10.225  1.00  0.00     0.031 C 
ATOM     36  C   UNL     1       2.429   6.240  -9.765  1.00  0.00     0.029 A 
ATOM     37  N   UNL     1       3.867   5.188 -11.116  1.00  0.00    -0.354 N 
ATOM     38  C   UNL     1       3.724   0.905 -11.620  1.00  0.00     0.074 A 
ATOM     39  C   UNL     1       2.676   0.320 -10.812  1.00  0.00     0.031 C 
ATOM     40  C   UNL     1       3.257   7.167 -10.271  1.00  0.00     0.029 A 
ATOM     41  C   UNL     1       4.218   6.515 -11.156  1.00  0.00     0.049 A 
ATOM     42  H   UNL     1       4.346   4.489 -11.617  1.00  0.00     0.167 HD
ATOM     43  C   UNL     1       4.557   0.197 -12.421  1.00  0.00     0.037 A 
ATOM     44  C   UNL     1       5.199   7.136 -11.837  1.00  0.00     0.037 A 
ATOM     45  C   UNL     1       5.583   0.781 -13.245  1.00  0.00     0.049 A 
ATOM     46  C   UNL     1       6.090   6.332 -12.743  1.00  0.00     0.074 A 
ATOM     47  C   UNL     1       6.444   0.154 -14.129  1.00  0.00     0.029 A 
ATOM     48  N   UNL     1       5.884   2.134 -13.288  1.00  0.00    -0.354 N 
ATOM     49  N   UNL     1       6.087   5.042 -12.976  1.00  0.00    -0.248 NA
ATOM     50  C   UNL     1       7.111   7.074 -13.495  1.00  0.00     0.031 C 
ATOM     51  C   UNL     1       7.289   1.123 -14.681  1.00  0.00     0.029 A 
ATOM     52  C   UNL     1       6.924   2.360 -14.175  1.00  0.00     0.049 A 
ATOM     53  H   UNL     1       5.426   2.832 -12.765  1.00  0.00     0.167 HD
ATOM     54  C   UNL     1       7.079   4.822 -13.920  1.00  0.00     0.074 A 
ATOM     55  C   UNL     1       7.655   6.114 -14.230  1.00  0.00     0.031 C 
ATOM     56  C   UNL     1       7.478   3.654 -14.481  1.00  0.00     0.037 A 
BRANCH  43  57
ATOM     57  C   UNL     1       4.386  -1.295 -12.450  1.00  0.00     0.064 A 
ATOM     58  C   UNL     1       3.270  -1.894 -13.054  1.00  0.00     0.173 A 
ATOM     59  C   UNL     1       5.364  -2.136 -11.898  1.00  0.00     0.173 A 
ATOM     60  F   UNL     1       2.301  -1.133 -13.586  1.00  0.00    -0.203 F 
ATOM     61  C   UNL     1       3.124  -3.278 -13.078  1.00  0.00     0.198 A 
ATOM     62  C   UNL     1       5.229  -3.521 -11.949  1.00  0.00     0.198 A 
ATOM     63  F   UNL     1       6.453  -1.616 -11.313  1.00  0.00    -0.203 F 
ATOM     64  F   UNL     1       2.026  -3.826 -13.616  1.00  0.00    -0.200 F 
ATOM     65  C   UNL     1       4.106  -4.091 -12.531  1.00  0.00     0.200 A 
ATOM     66  F   UNL     1       6.184  -4.306 -11.432  1.00  0.00    -0.200 F 
ATOM     67  F   UNL     1       3.967  -5.423 -12.560  1.00  0.00    -0.200 F 
ENDBRANCH  43  57
BRANCH  44  68
ATOM     68  C   UNL     1       5.360   8.609 -11.726  1.00  0.00     0.064 A 
ATOM     69  C   UNL     1       5.033   9.450 -12.799  1.00  0.00     0.173 A 
ATOM     70  C   UNL     1       5.845   9.204 -10.553  1.00  0.00     0.173 A 
ATOM     71  F   UNL     1       4.585   8.924 -13.948  1.00  0.00    -0.203 F 
ATOM     72  C   UNL     1       5.205  10.829 -12.710  1.00  0.00     0.198 A 
ATOM     73  C   UNL     1       5.991  10.586 -10.456  1.00  0.00     0.198 A 
ATOM     74  F   UNL     1       6.166   8.443  -9.496  1.00  0.00    -0.203 F 
ATOM     75  F   UNL     1       4.926  11.606 -13.766  1.00  0.00    -0.200 F 
ATOM     76  C   UNL     1       5.678  11.397 -11.537  1.00  0.00     0.200 A 
ATOM     77  F   UNL     1       6.436  11.133  -9.316  1.00  0.00    -0.200 F 
ATOM     78  F   UNL     1       5.841  12.724 -11.451  1.00  0.00    -0.200 F 
ENDBRANCH  44  68
BRANCH  56  79
ATOM     79  C   UNL     1       8.560   3.728 -15.519  1.00  0.00     0.064 A 
ATOM     80  C   UNL     1       9.891   4.011 -15.178  1.00  0.00     0.173 A 
ATOM     81  C   UNL     1       8.263   3.496 -16.870  1.00  0.00     0.173 A 
ATOM     82  F   UNL     1      10.224   4.255 -13.901  1.00  0.00    -0.203 F 
ATOM     83  C   UNL     1      10.878   4.091 -16.156  1.00  0.00     0.198 A 
ATOM     84  C   UNL     1       9.258   3.549 -17.842  1.00  0.00     0.198 A 
ATOM     85  F   UNL     1       7.006   3.216 -17.247  1.00  0.00    -0.203 F 
ATOM     86  F   UNL     1      12.133   4.417 -15.815  1.00  0.00    -0.200 F 
ATOM     87  C   UNL     1      10.562   3.856 -17.486  1.00  0.00     0.200 A 
ATOM     88  F   UNL     1       8.952   3.310 -19.125  1.00  0.00    -0.200 F 
ATOM     89  F   UNL     1      11.514   3.934 -18.426  1.00  0.00    -0.200 F 
ENDBRANCH  56  79
ENDBRANCH  30  31
ENDBRANCH  22  25
ENDBRANCH  20  21
ENDBRANCH  19  20
ENDBRANCH   1  19
TORSDOF 14
