REMARK SMILES CC(C)(C)OC(=O)N1C[C@@H](COCc2ccccc2)O[C@@H](C(=O)NCCCCNC(=O)c2ccc(-c3c4nc(c(-c5c(F)c(F)c(F)c(F)c5F)c5ccc([nH]5)c(-c5c(F)c(F)c(F)c(F)c5F)c5nc(c(-c6c(F)c(F)c(F)c(F)c6F)c6ccc3[nH]6)C=C5)C=C4)cc2)C1
REMARK SMILES IDX 25 1 24 2 22 3 23 4 21 6 8 7 9 8 95 9 10 10 20 11 6 12 7 13
REMARK SMILES IDX 5 14 2 15 1 16 3 17 4 18 11 19 12 20 13 21 14 22 15 23 19 24
REMARK SMILES IDX 16 25 18 26 17 27 26 28 27 29 28 30 29 31 30 32 31 34 32 35
REMARK SMILES IDX 33 36 94 37 34 38 93 39 35 40 36 41 37 42 87 43 38 44 92 45
REMARK SMILES IDX 86 46 88 47 39 48 91 49 85 50 84 51 40 53 72 54 52 55 71 56
REMARK SMILES IDX 53 57 56 58 70 59 89 60 54 61 55 62 69 64 90 65 57 66 41 67
REMARK SMILES IDX 42 68 50 69 43 70 44 71 48 72 51 73 45 74 46 75 49 76 47 77
REMARK SMILES IDX 73 78 74 79 82 80 75 81 76 82 80 83 83 84 77 85 78 86 81 87
REMARK SMILES IDX 79 88 58 89 59 90 67 91 60 92 61 93 65 94 68 95 62 96 63 97
REMARK SMILES IDX 66 98 64 99
REMARK H PARENT 24 5 29 33 88 52 56 63
REMARK Flexibility Score: inf
ROOT
ATOM      1  C   UNL     1       1.657   6.676  -6.085  1.00  0.00     0.116 C 
ENDROOT
BRANCH   1   2
ATOM      2  N   UNL     1       0.489   7.294  -5.487  1.00  0.00    -0.354 N 
ATOM      3  C   UNL     1      -0.091   7.063  -4.275  1.00  0.00     0.251 C 
ATOM      4  O   UNL     1      -1.117   7.690  -3.998  1.00  0.00    -0.272 OA
ATOM      5  H   UNL     1       0.049   7.981  -6.038  1.00  0.00     0.163 HD
BRANCH   3   6
ATOM      6  C   UNL     1       0.499   6.045  -3.294  1.00  0.00     0.227 C 
ATOM      7  N   UNL     1       0.878   3.654  -2.845  1.00  0.00    -0.302 N 
ATOM      8  C   UNL     1       2.226   3.976  -2.374  1.00  0.00     0.157 C 
ATOM      9  C   UNL     1       0.268   4.610  -3.767  1.00  0.00     0.165 C 
ATOM     10  C   UNL     1       2.391   5.462  -1.993  1.00  0.00     0.164 C 
ATOM     11  O   UNL     1       1.895   6.280  -3.068  1.00  0.00    -0.359 OA
BRANCH   7  12
ATOM     12  C   UNL     1       0.326   2.395  -2.726  1.00  0.00     0.410 C 
ATOM     13  O   UNL     1      -0.606   2.003  -3.413  1.00  0.00    -0.224 OA
BRANCH  12  14
ATOM     14  O   UNL     1       0.922   1.681  -1.742  1.00  0.00    -0.444 OA
BRANCH  14  15
ATOM     15  C   UNL     1       0.457   0.356  -1.383  1.00  0.00     0.106 C 
ATOM     16  C   UNL     1       1.150   0.060  -0.045  1.00  0.00     0.056 C 
ATOM     17  C   UNL     1       0.925  -0.656  -2.431  1.00  0.00     0.056 C 
ATOM     18  C   UNL     1      -1.060   0.292  -1.162  1.00  0.00     0.056 C 
ENDBRANCH  14  15
ENDBRANCH  12  14
ENDBRANCH   7  12
BRANCH  10  19
ATOM     19  C   UNL     1       3.886   5.752  -1.776  1.00  0.00     0.194 C 
BRANCH  19  20
ATOM     20  O   UNL     1       4.267   7.042  -1.302  1.00  0.00    -0.374 OA
BRANCH  20  21
ATOM     21  C   UNL     1       3.721   8.206  -1.917  1.00  0.00     0.195 C 
BRANCH  21  22
ATOM     22  C   UNL     1       4.318   8.685  -3.229  1.00  0.00    -0.022 A 
ATOM     23  C   UNL     1       5.041   7.879  -4.116  1.00  0.00     0.006 A 
ATOM     24  C   UNL     1       4.099  10.026  -3.600  1.00  0.00     0.006 A 
ATOM     25  C   UNL     1       5.519   8.383  -5.330  1.00  0.00     0.000 A 
ATOM     26  C   UNL     1       4.592  10.538  -4.804  1.00  0.00     0.000 A 
ATOM     27  C   UNL     1       5.298   9.713  -5.673  1.00  0.00     0.000 A 
ENDBRANCH  21  22
ENDBRANCH  20  21
ENDBRANCH  19  20
ENDBRANCH  10  19
ENDBRANCH   3   6
ENDBRANCH   1   2
BRANCH   1  28
ATOM     28  C   UNL     1       1.266   5.782  -7.261  1.00  0.00     0.023 C 
BRANCH  28  29
ATOM     29  C   UNL     1       0.670   6.529  -8.456  1.00  0.00     0.023 C 
BRANCH  29  30
ATOM     30  C   UNL     1       1.552   7.630  -9.033  1.00  0.00     0.116 C 
BRANCH  30  31
ATOM     31  N   UNL     1       2.850   7.144  -9.477  1.00  0.00    -0.352 N 
ATOM     32  C   UNL     1       3.502   7.373 -10.665  1.00  0.00     0.251 C 
ATOM     33  H   UNL     1       3.329   6.571  -8.835  1.00  0.00     0.163 HD
ATOM     34  O   UNL     1       4.544   6.782 -10.927  1.00  0.00    -0.269 OA
BRANCH  32  35
ATOM     35  C   UNL     1       2.917   8.310 -11.644  1.00  0.00     0.039 A 
ATOM     36  C   UNL     1       2.762   7.892 -12.968  1.00  0.00     0.014 A 
ATOM     37  C   UNL     1       2.478   9.575 -11.244  1.00  0.00     0.014 A 
ATOM     38  C   UNL     1       2.079   8.707 -13.871  1.00  0.00     0.010 A 
ATOM     39  C   UNL     1       1.741  10.358 -12.128  1.00  0.00     0.010 A 
ATOM     40  C   UNL     1       1.517   9.921 -13.443  1.00  0.00    -0.014 A 
BRANCH  40  41
ATOM     41  C   UNL     1       0.640  10.721 -14.334  1.00  0.00     0.031 A 
ATOM     42  C   UNL     1       1.051  12.097 -14.770  1.00  0.00     0.074 A 
ATOM     43  C   UNL     1      -0.571  10.238 -14.671  1.00  0.00     0.049 A 
ATOM     44  N   UNL     1       0.375  12.982 -15.459  1.00  0.00    -0.248 NA
ATOM     45  C   UNL     1       2.389  12.547 -14.358  1.00  0.00     0.031 C 
ATOM     46  C   UNL     1      -1.103   8.934 -14.270  1.00  0.00     0.029 A 
ATOM     47  N   UNL     1      -1.584  10.794 -15.413  1.00  0.00    -0.354 N 
ATOM     48  C   UNL     1       1.199  14.094 -15.554  1.00  0.00     0.074 A 
ATOM     49  C   UNL     1       2.406  13.792 -14.815  1.00  0.00     0.031 C 
ATOM     50  C   UNL     1      -2.335   8.784 -14.779  1.00  0.00     0.029 A 
ATOM     51  C   UNL     1      -2.699   9.997 -15.506  1.00  0.00     0.049 A 
ATOM     52  H   UNL     1      -1.518  11.680 -15.837  1.00  0.00     0.167 HD
ATOM     53  C   UNL     1       0.974  15.255 -16.215  1.00  0.00     0.037 A 
ATOM     54  C   UNL     1      -3.888  10.224 -16.096  1.00  0.00     0.037 A 
ATOM     55  C   UNL     1      -0.220  15.544 -16.965  1.00  0.00     0.049 A 
ATOM     56  C   UNL     1      -4.121  11.533 -16.798  1.00  0.00     0.074 A 
ATOM     57  C   UNL     1      -0.510  16.661 -17.729  1.00  0.00     0.029 A 
ATOM     58  N   UNL     1      -1.328  14.713 -17.037  1.00  0.00    -0.354 N 
ATOM     59  N   UNL     1      -3.307  12.550 -16.943  1.00  0.00    -0.248 NA
ATOM     60  C   UNL     1      -5.441  11.728 -17.415  1.00  0.00     0.031 C 
ATOM     61  C   UNL     1      -1.811  16.527 -18.224  1.00  0.00     0.029 A 
ATOM     62  C   UNL     1      -2.316  15.307 -17.806  1.00  0.00     0.049 A 
ATOM     63  H   UNL     1      -1.402  13.831 -16.605  1.00  0.00     0.167 HD
ATOM     64  C   UNL     1      -4.005  13.495 -17.681  1.00  0.00     0.074 A 
ATOM     65  C   UNL     1      -5.304  12.924 -17.970  1.00  0.00     0.031 C 
ATOM     66  C   UNL     1      -3.607  14.728 -18.080  1.00  0.00     0.037 A 
BRANCH  53  67
ATOM     67  C   UNL     1       2.047  16.303 -16.162  1.00  0.00     0.064 A 
ATOM     68  C   UNL     1       3.262  16.144 -16.845  1.00  0.00     0.173 A 
ATOM     69  C   UNL     1       1.840  17.498 -15.458  1.00  0.00     0.173 A 
ATOM     70  F   UNL     1       3.512  15.015 -17.524  1.00  0.00    -0.203 F 
ATOM     71  C   UNL     1       4.241  17.134 -16.804  1.00  0.00     0.198 A 
ATOM     72  C   UNL     1       2.810  18.497 -15.442  1.00  0.00     0.198 A 
ATOM     73  F   UNL     1       0.693  17.702 -14.792  1.00  0.00    -0.203 F 
ATOM     74  F   UNL     1       5.411  16.942 -17.429  1.00  0.00    -0.200 F 
ATOM     75  C   UNL     1       4.011  18.312 -16.109  1.00  0.00     0.200 A 
ATOM     76  F   UNL     1       2.582  19.640 -14.780  1.00  0.00    -0.200 F 
ATOM     77  F   UNL     1       4.951  19.267 -16.078  1.00  0.00    -0.200 F 
ENDBRANCH  53  67
BRANCH  54  78
ATOM     78  C   UNL     1      -4.947   9.184 -16.054  1.00  0.00     0.064 A 
ATOM     79  C   UNL     1      -5.314   8.486 -17.212  1.00  0.00     0.173 A 
ATOM     80  C   UNL     1      -5.612   8.866 -14.861  1.00  0.00     0.173 A 
ATOM     81  F   UNL     1      -4.722   8.771 -18.381  1.00  0.00    -0.203 F 
ATOM     82  C   UNL     1      -6.318   7.521 -17.183  1.00  0.00     0.198 A 
ATOM     83  C   UNL     1      -6.598   7.882 -14.827  1.00  0.00     0.198 A 
ATOM     84  F   UNL     1      -5.295   9.504 -13.724  1.00  0.00    -0.203 F 
ATOM     85  F   UNL     1      -6.679   6.898 -18.313  1.00  0.00    -0.200 F 
ATOM     86  C   UNL     1      -6.955   7.215 -15.989  1.00  0.00     0.200 A 
ATOM     87  F   UNL     1      -7.201   7.580 -13.669  1.00  0.00    -0.200 F 
ATOM     88  F   UNL     1      -7.917   6.283 -15.961  1.00  0.00    -0.200 F 
ENDBRANCH  54  78
BRANCH  66  89
ATOM     89  C   UNL     1      -4.581  15.537 -18.883  1.00  0.00     0.064 A 
ATOM     90  C   UNL     1      -5.708  16.124 -18.289  1.00  0.00     0.173 A 
ATOM     91  C   UNL     1      -4.365  15.763 -20.251  1.00  0.00     0.173 A 
ATOM     92  F   UNL     1      -5.968  15.922 -16.989  1.00  0.00    -0.203 F 
ATOM     93  C   UNL     1      -6.593  16.893 -19.041  1.00  0.00     0.198 A 
ATOM     94  C   UNL     1      -5.237  16.555 -20.992  1.00  0.00     0.198 A 
ATOM     95  F   UNL     1      -3.299  15.227 -20.864  1.00  0.00    -0.203 F 
ATOM     96  F   UNL     1      -7.686  17.410 -18.462  1.00  0.00    -0.200 F 
ATOM     97  C   UNL     1      -6.353  17.114 -20.389  1.00  0.00     0.200 A 
ATOM     98  F   UNL     1      -4.997  16.777 -22.292  1.00  0.00    -0.200 F 
ATOM     99  F   UNL     1      -7.201  17.861 -21.108  1.00  0.00    -0.200 F 
ENDBRANCH  66  89
ENDBRANCH  40  41
ENDBRANCH  32  35
ENDBRANCH  30  31
ENDBRANCH  29  30
ENDBRANCH  28  29
ENDBRANCH   1  28
TORSDOF 18
