REMARK SMILES CC1(C)Oc2ccc(NC(=O)[C@H]3CC=CC[C@@H]3C(=O)NCCCCNC(=O)c3ccc(-c4c5nc(c(-c6c(F)c(F)c(F)c(F)c6F)c6ccc([nH]6)c(-c6c(F)c(F)c(F)c(F)c6F)c6nc(c(-c7c(F)c(F)c(F)c(F)c7F)c7ccc4[nH]7)C=C6)C=C5)cc3)cc2NC1=O
REMARK SMILES IDX 22 1 21 2 20 3 18 4 19 5 17 7 12 8 13 9 14 10 16 11 15 12
REMARK SMILES IDX 10 13 9 14 11 16 8 17 1 18 2 19 3 20 4 21 94 22 5 23 93 24
REMARK SMILES IDX 95 25 6 26 92 27 7 29 91 30 23 31 24 32 25 33 26 34 27 36
REMARK SMILES IDX 28 37 29 38 90 39 30 40 89 41 31 42 32 43 33 44 83 45 34 46
REMARK SMILES IDX 88 47 82 48 84 49 35 50 87 51 81 52 80 53 36 55 68 56 48 57
REMARK SMILES IDX 67 58 49 59 52 60 66 61 85 62 50 63 51 64 65 66 86 67 53 68
REMARK SMILES IDX 37 69 38 70 46 71 39 72 40 73 44 74 47 75 41 76 42 77 45 78
REMARK SMILES IDX 43 79 69 80 70 81 78 82 71 83 72 84 76 85 79 86 73 87 74 88
REMARK SMILES IDX 77 89 75 90 54 91 55 92 63 93 56 94 57 95 61 96 64 97 58 98
REMARK SMILES IDX 59 99 62 100 60 101
REMARK H PARENT 20 6 9 15 93 28 25 35 84 54 52 65
REMARK Flexibility Score: inf
ROOT
ATOM      1  C   UNL     1      -6.099   1.578  -2.901  1.00  0.00     0.023 C 
ENDROOT
BRANCH   1   2
ATOM      2  C   UNL     1      -5.841   2.388  -4.174  1.00  0.00     0.116 C 
BRANCH   2   3
ATOM      3  N   UNL     1      -6.802   3.458  -4.329  1.00  0.00    -0.356 N 
ATOM      4  C   UNL     1      -6.683   4.799  -4.478  1.00  0.00     0.224 C 
ATOM      5  O   UNL     1      -7.746   5.388  -4.691  1.00  0.00    -0.275 OA
ATOM      6  H   UNL     1      -7.736   3.147  -4.325  1.00  0.00     0.163 HD
BRANCH   4   7
ATOM      7  C   UNL     1      -5.336   5.531  -4.370  1.00  0.00     0.095 C 
ATOM      8  C   UNL     1      -5.227   6.282  -3.021  1.00  0.00     0.095 C 
ATOM      9  C   UNL     1      -6.297   7.404  -2.932  1.00  0.00     0.041 C 
ATOM     10  C   UNL     1      -6.455   8.197  -4.202  1.00  0.00    -0.030 C 
ATOM     11  C   UNL     1      -5.213   6.505  -5.564  1.00  0.00     0.041 C 
ATOM     12  C   UNL     1      -5.941   7.807  -5.378  1.00  0.00    -0.030 C 
BRANCH   8  13
ATOM     13  C   UNL     1      -3.854   6.935  -2.819  1.00  0.00     0.228 C 
ATOM     14  N   UNL     1      -2.775   6.348  -2.252  1.00  0.00    -0.326 N 
ATOM     15  H   UNL     1      -2.048   7.000  -2.124  1.00  0.00     0.169 HD
ATOM     16  O   UNL     1      -3.647   8.110  -3.152  1.00  0.00    -0.274 OA
BRANCH  14  17
ATOM     17  C   UNL     1      -2.393   5.084  -1.795  1.00  0.00     0.043 A 
ATOM     18  C   UNL     1       0.965   0.066   0.192  1.00  0.00     0.067 C 
ATOM     19  C   UNL     1       0.643   1.329  -0.613  1.00  0.00     0.182 C 
ATOM     20  C   UNL     1       1.264   1.197  -2.015  1.00  0.00     0.067 C 
ATOM     21  O   UNL     1      -0.787   1.376  -0.745  1.00  0.00    -0.476 OA
ATOM     22  C   UNL     1       1.288   2.554   0.076  1.00  0.00     0.268 C 
ATOM     23  C   UNL     1      -1.284   2.616  -1.043  1.00  0.00     0.144 A 
ATOM     24  N   UNL     1       0.673   3.748  -0.202  1.00  0.00    -0.319 N 
ATOM     25  O   UNL     1       2.327   2.518   0.730  1.00  0.00    -0.270 OA
ATOM     26  C   UNL     1      -2.575   2.681  -1.560  1.00  0.00     0.051 A 
ATOM     27  C   UNL     1      -0.574   3.792  -0.824  1.00  0.00     0.086 A 
ATOM     28  H   UNL     1       1.121   4.590   0.043  1.00  0.00     0.170 HD
ATOM     29  C   UNL     1      -3.131   3.915  -1.928  1.00  0.00     0.030 A 
ATOM     30  C   UNL     1      -1.120   5.016  -1.202  1.00  0.00     0.056 A 
ENDBRANCH  14  17
ENDBRANCH   8  13
ENDBRANCH   4   7
ENDBRANCH   2   3
ENDBRANCH   1   2
BRANCH   1  31
ATOM     31  C   UNL     1      -7.504   0.978  -2.768  1.00  0.00     0.023 C 
BRANCH  31  32
ATOM     32  C   UNL     1      -7.963   0.086  -3.917  1.00  0.00     0.116 C 
BRANCH  32  33
ATOM     33  N   UNL     1      -7.171  -1.125  -4.057  1.00  0.00    -0.352 N 
ATOM     34  C   UNL     1      -7.578  -2.438  -4.156  1.00  0.00     0.251 C 
ATOM     35  H   UNL     1      -6.197  -0.987  -4.085  1.00  0.00     0.163 HD
ATOM     36  O   UNL     1      -6.747  -3.336  -4.154  1.00  0.00    -0.269 OA
BRANCH  34  37
ATOM     37  C   UNL     1      -9.021  -2.771  -4.218  1.00  0.00     0.039 A 
ATOM     38  C   UNL     1      -9.896  -2.055  -5.036  1.00  0.00     0.014 A 
ATOM     39  C   UNL     1      -9.508  -3.816  -3.424  1.00  0.00     0.014 A 
ATOM     40  C   UNL     1     -11.270  -2.260  -4.925  1.00  0.00     0.010 A 
ATOM     41  C   UNL     1     -10.882  -4.073  -3.373  1.00  0.00     0.010 A 
ATOM     42  C   UNL     1     -11.781  -3.257  -4.078  1.00  0.00    -0.014 A 
BRANCH  42  43
ATOM     43  C   UNL     1     -13.253  -3.401  -3.916  1.00  0.00     0.031 A 
ATOM     44  C   UNL     1     -13.910  -3.097  -2.595  1.00  0.00     0.074 A 
ATOM     45  C   UNL     1     -14.011  -3.737  -4.977  1.00  0.00     0.049 A 
ATOM     46  N   UNL     1     -15.181  -3.132  -2.275  1.00  0.00    -0.248 NA
ATOM     47  C   UNL     1     -13.029  -2.702  -1.484  1.00  0.00     0.031 C 
ATOM     48  C   UNL     1     -13.499  -4.041  -6.313  1.00  0.00     0.029 A 
ATOM     49  N   UNL     1     -15.373  -3.851  -5.107  1.00  0.00    -0.354 N 
ATOM     50  C   UNL     1     -15.248  -2.778  -0.934  1.00  0.00     0.074 A 
ATOM     51  C   UNL     1     -13.890  -2.563  -0.485  1.00  0.00     0.031 C 
ATOM     52  C   UNL     1     -14.534  -4.254  -7.141  1.00  0.00     0.029 A 
ATOM     53  C   UNL     1     -15.778  -4.156  -6.384  1.00  0.00     0.049 A 
ATOM     54  H   UNL     1     -15.999  -3.727  -4.358  1.00  0.00     0.167 HD
ATOM     55  C   UNL     1     -16.344  -2.628  -0.151  1.00  0.00     0.037 A 
ATOM     56  C   UNL     1     -17.013  -4.343  -6.889  1.00  0.00     0.037 A 
ATOM     57  C   UNL     1     -17.699  -2.814  -0.600  1.00  0.00     0.049 A 
ATOM     58  C   UNL     1     -18.208  -4.215  -5.986  1.00  0.00     0.074 A 
ATOM     59  C   UNL     1     -18.873  -2.664   0.119  1.00  0.00     0.029 A 
ATOM     60  N   UNL     1     -18.062  -3.185  -1.885  1.00  0.00    -0.354 N 
ATOM     61  N   UNL     1     -18.255  -3.878  -4.721  1.00  0.00    -0.248 NA
ATOM     62  C   UNL     1     -19.521  -4.505  -6.580  1.00  0.00     0.031 C 
ATOM     63  C   UNL     1     -19.944  -2.982  -0.721  1.00  0.00     0.029 A 
ATOM     64  C   UNL     1     -19.441  -3.288  -1.974  1.00  0.00     0.049 A 
ATOM     65  H   UNL     1     -17.434  -3.351  -2.625  1.00  0.00     0.167 HD
ATOM     66  C   UNL     1     -19.597  -3.904  -4.369  1.00  0.00     0.074 A 
ATOM     67  C   UNL     1     -20.336  -4.270  -5.560  1.00  0.00     0.031 C 
ATOM     68  C   UNL     1     -20.164  -3.654  -3.165  1.00  0.00     0.037 A 
BRANCH  55  69
ATOM     69  C   UNL     1     -16.134  -2.238   1.283  1.00  0.00     0.064 A 
ATOM     70  C   UNL     1     -15.766  -0.933   1.641  1.00  0.00     0.173 A 
ATOM     71  C   UNL     1     -16.382  -3.158   2.314  1.00  0.00     0.173 A 
ATOM     72  F   UNL     1     -15.507  -0.021   0.692  1.00  0.00    -0.203 F 
ATOM     73  C   UNL     1     -15.643  -0.566   2.978  1.00  0.00     0.198 A 
ATOM     74  C   UNL     1     -16.282  -2.780   3.650  1.00  0.00     0.198 A 
ATOM     75  F   UNL     1     -16.744  -4.416   2.025  1.00  0.00    -0.203 F 
ATOM     76  F   UNL     1     -15.263   0.680   3.297  1.00  0.00    -0.200 F 
ATOM     77  C   UNL     1     -15.911  -1.485   3.981  1.00  0.00     0.200 A 
ATOM     78  F   UNL     1     -16.553  -3.666   4.619  1.00  0.00    -0.200 F 
ATOM     79  F   UNL     1     -15.808  -1.124   5.268  1.00  0.00    -0.200 F 
ENDBRANCH  55  69
BRANCH  56  80
ATOM     80  C   UNL     1     -17.176  -4.664  -8.330  1.00  0.00     0.064 A 
ATOM     81  C   UNL     1     -17.736  -3.733  -9.214  1.00  0.00     0.173 A 
ATOM     82  C   UNL     1     -16.758  -5.896  -8.854  1.00  0.00     0.173 A 
ATOM     83  F   UNL     1     -18.171  -2.551  -8.755  1.00  0.00    -0.203 F 
ATOM     84  C   UNL     1     -17.875  -4.024 -10.570  1.00  0.00     0.198 A 
ATOM     85  C   UNL     1     -16.872  -6.175 -10.213  1.00  0.00     0.198 A 
ATOM     86  F   UNL     1     -16.215  -6.820  -8.047  1.00  0.00    -0.203 F 
ATOM     87  F   UNL     1     -18.442  -3.128 -11.390  1.00  0.00    -0.200 F 
ATOM     88  C   UNL     1     -17.435  -5.240 -11.070  1.00  0.00     0.200 A 
ATOM     89  F   UNL     1     -16.433  -7.346 -10.694  1.00  0.00    -0.200 F 
ATOM     90  F   UNL     1     -17.557  -5.514 -12.376  1.00  0.00    -0.200 F 
ENDBRANCH  56  80
BRANCH  68  91
ATOM     91  C   UNL     1     -21.657  -3.757  -3.067  1.00  0.00     0.064 A 
ATOM     92  C   UNL     1     -22.301  -5.002  -3.053  1.00  0.00     0.173 A 
ATOM     93  C   UNL     1     -22.444  -2.605  -2.917  1.00  0.00     0.173 A 
ATOM     94  F   UNL     1     -21.592  -6.131  -3.206  1.00  0.00    -0.203 F 
ATOM     95  C   UNL     1     -23.683  -5.090  -2.906  1.00  0.00     0.198 A 
ATOM     96  C   UNL     1     -23.822  -2.698  -2.746  1.00  0.00     0.198 A 
ATOM     97  F   UNL     1     -21.872  -1.391  -2.917  1.00  0.00    -0.203 F 
ATOM     98  F   UNL     1     -24.282  -6.288  -2.927  1.00  0.00    -0.200 F 
ATOM     99  C   UNL     1     -24.440  -3.939  -2.744  1.00  0.00     0.200 A 
ATOM    100  F   UNL     1     -24.551  -1.586  -2.576  1.00  0.00    -0.200 F 
ATOM    101  F   UNL     1     -25.769  -4.027  -2.589  1.00  0.00    -0.200 F 
ENDBRANCH  68  91
ENDBRANCH  42  43
ENDBRANCH  34  37
ENDBRANCH  32  33
ENDBRANCH  31  32
ENDBRANCH   1  31
TORSDOF 13
