REMARK SMILES Cc1ccc([C@@](C)(O)[C@H](F)C(=O)NCCCCNC(=O)c2ccc(-c3c4nc(c(-c5c(F)c(F)c(F)c(F)c5F)c5ccc([nH]5)c(-c5c(F)c(F)c(F)c(F)c5F)c5nc(c(-c6c(F)c(F)c(F)c(F)c6F)c6ccc3[nH]6)C=C5)C=C4)cc2)cc1F
REMARK SMILES IDX 15 1 14 2 13 3 11 4 12 5 9 7 10 8 6 9 7 10 5 11 1 12 2 13
REMARK SMILES IDX 3 14 85 15 4 16 84 17 86 18 8 19 16 21 17 22 18 23 19 24
REMARK SMILES IDX 20 26 21 27 22 28 83 29 23 30 82 31 24 32 25 33 26 34 76 35
REMARK SMILES IDX 27 36 81 37 75 38 77 39 28 40 80 41 74 42 73 43 29 45 61 46
REMARK SMILES IDX 41 47 60 48 42 49 45 50 59 51 78 52 43 53 44 54 58 56 79 57
REMARK SMILES IDX 46 58 30 59 31 60 39 61 32 62 33 63 37 64 40 65 34 66 35 67
REMARK SMILES IDX 38 68 36 69 62 70 63 71 71 72 64 73 65 74 69 75 72 76 66 77
REMARK SMILES IDX 67 78 70 79 68 80 47 81 48 82 56 83 49 84 50 85 54 86 57 87
REMARK SMILES IDX 51 88 52 89 55 90 53 91
REMARK H PARENT 13 6 8 20 18 25 77 44 45 55
REMARK Flexibility Score: inf
ROOT
ATOM      1  C   UNL     1      -0.864  -0.098  -1.504  1.00  0.00     0.023 C 
ENDROOT
BRANCH   1   2
ATOM      2  C   UNL     1      -1.987   0.550  -0.698  1.00  0.00     0.116 C 
BRANCH   2   3
ATOM      3  N   UNL     1      -3.251   0.605  -1.418  1.00  0.00    -0.353 N 
ATOM      4  C   UNL     1      -4.435   0.002  -1.071  1.00  0.00     0.257 C 
ATOM      5  O   UNL     1      -5.445   0.239  -1.738  1.00  0.00    -0.272 OA
ATOM      6  H   UNL     1      -3.257   1.134  -2.248  1.00  0.00     0.163 HD
BRANCH   4   7
ATOM      7  C   UNL     1      -4.456  -0.949   0.121  1.00  0.00     0.291 C 
ATOM      8  F   UNL     1      -3.320  -1.716   0.094  1.00  0.00    -0.233 F 
BRANCH   7   9
ATOM      9  C   UNL     1      -4.614  -0.211   1.497  1.00  0.00     0.127 C 
ATOM     10  C   UNL     1      -6.090   0.177   1.685  1.00  0.00     0.051 C 
BRANCH   9  11
ATOM     11  C   UNL     1      -4.121  -1.007   2.720  1.00  0.00    -0.010 A 
ATOM     12  C   UNL     1      -2.382  -3.048   6.136  1.00  0.00     0.047 C 
ATOM     13  C   UNL     1      -3.002  -2.359   4.961  1.00  0.00    -0.015 A 
ATOM     14  C   UNL     1      -3.195  -3.026   3.752  1.00  0.00     0.007 A 
ATOM     15  C   UNL     1      -3.409  -1.030   5.054  1.00  0.00     0.126 A 
ATOM     16  C   UNL     1      -3.762  -2.364   2.656  1.00  0.00     0.007 A 
ATOM     17  C   UNL     1      -3.965  -0.363   3.963  1.00  0.00     0.046 A 
ATOM     18  F   UNL     1      -3.248  -0.362   6.205  1.00  0.00    -0.207 F 
ENDBRANCH   9  11
BRANCH   9  19
ATOM     19  O   UNL     1      -3.909   1.052   1.479  1.00  0.00    -0.382 OA
ATOM     20  H   UNL     1      -4.017   1.495   2.335  1.00  0.00     0.212 HD
ENDBRANCH   9  19
ENDBRANCH   7   9
ENDBRANCH   4   7
ENDBRANCH   2   3
ENDBRANCH   1   2
BRANCH   1  21
ATOM     21  C   UNL     1      -0.534   0.597  -2.827  1.00  0.00     0.023 C 
BRANCH  21  22
ATOM     22  C   UNL     1      -0.199   2.062  -2.650  1.00  0.00     0.116 C 
BRANCH  22  23
ATOM     23  N   UNL     1       1.049   2.257  -1.916  1.00  0.00    -0.352 N 
ATOM     24  C   UNL     1       1.860   3.373  -1.937  1.00  0.00     0.251 C 
ATOM     25  H   UNL     1       1.344   1.511  -1.345  1.00  0.00     0.163 HD
ATOM     26  O   UNL     1       3.034   3.320  -1.618  1.00  0.00    -0.269 OA
BRANCH  24  27
ATOM     27  C   UNL     1       1.237   4.655  -2.299  1.00  0.00     0.039 A 
ATOM     28  C   UNL     1       1.940   5.663  -2.970  1.00  0.00     0.014 A 
ATOM     29  C   UNL     1      -0.072   4.853  -1.869  1.00  0.00     0.014 A 
ATOM     30  C   UNL     1       1.314   6.888  -3.183  1.00  0.00     0.010 A 
ATOM     31  C   UNL     1      -0.748   5.960  -2.257  1.00  0.00     0.010 A 
ATOM     32  C   UNL     1      -0.021   7.014  -2.799  1.00  0.00    -0.014 A 
BRANCH  32  33
ATOM     33  C   UNL     1      -0.803   8.226  -2.859  1.00  0.00     0.031 A 
ATOM     34  C   UNL     1      -1.208   8.722  -4.170  1.00  0.00     0.074 A 
ATOM     35  C   UNL     1      -1.289   8.642  -1.667  1.00  0.00     0.049 A 
ATOM     36  N   UNL     1      -1.528   9.937  -4.416  1.00  0.00    -0.248 NA
ATOM     37  C   UNL     1      -1.253   7.861  -5.349  1.00  0.00     0.031 C 
ATOM     38  C   UNL     1      -2.362   9.564  -1.346  1.00  0.00     0.029 A 
ATOM     39  N   UNL     1      -0.763   8.293  -0.408  1.00  0.00    -0.354 N 
ATOM     40  C   UNL     1      -2.156   9.943  -5.643  1.00  0.00     0.074 A 
ATOM     41  C   UNL     1      -1.816   8.677  -6.246  1.00  0.00     0.031 C 
ATOM     42  C   UNL     1      -2.199   9.978  -0.073  1.00  0.00     0.029 A 
ATOM     43  C   UNL     1      -0.946   9.417   0.411  1.00  0.00     0.049 A 
ATOM     44  H   UNL     1      -0.351   7.436  -0.155  1.00  0.00     0.167 HD
ATOM     45  C   UNL     1      -3.054  10.940  -5.893  1.00  0.00     0.037 A 
ATOM     46  C   UNL     1       0.166  10.126   0.771  1.00  0.00     0.037 A 
ATOM     47  C   UNL     1      -3.125  11.826  -4.724  1.00  0.00     0.049 A 
ATOM     48  C   UNL     1       0.178  11.467   0.092  1.00  0.00     0.074 A 
ATOM     49  C   UNL     1      -3.991  11.852  -3.641  1.00  0.00     0.029 A 
ATOM     50  N   UNL     1      -1.990  12.532  -4.332  1.00  0.00    -0.354 N 
ATOM     51  N   UNL     1      -0.394  11.712  -1.059  1.00  0.00    -0.248 NA
ATOM     52  C   UNL     1       0.720  12.659   0.726  1.00  0.00     0.031 C 
ATOM     53  C   UNL     1      -3.329  12.509  -2.567  1.00  0.00     0.029 A 
ATOM     54  C   UNL     1      -2.068  12.892  -2.997  1.00  0.00     0.049 A 
ATOM     55  H   UNL     1      -1.233  12.746  -4.924  1.00  0.00     0.167 HD
ATOM     56  C   UNL     1      -0.388  13.062  -1.284  1.00  0.00     0.074 A 
ATOM     57  C   UNL     1       0.326  13.608  -0.140  1.00  0.00     0.031 C 
ATOM     58  C   UNL     1      -0.996  13.648  -2.361  1.00  0.00     0.037 A 
BRANCH  45  59
ATOM     59  C   UNL     1      -4.082  10.934  -7.007  1.00  0.00     0.064 A 
ATOM     60  C   UNL     1      -5.278  11.678  -6.882  1.00  0.00     0.173 A 
ATOM     61  C   UNL     1      -3.968  10.217  -8.215  1.00  0.00     0.173 A 
ATOM     62  F   UNL     1      -5.502  12.469  -5.824  1.00  0.00    -0.203 F 
ATOM     63  C   UNL     1      -6.295  11.645  -7.842  1.00  0.00     0.198 A 
ATOM     64  C   UNL     1      -5.004  10.149  -9.156  1.00  0.00     0.198 A 
ATOM     65  F   UNL     1      -2.832   9.606  -8.564  1.00  0.00    -0.203 F 
ATOM     66  F   UNL     1      -7.402  12.379  -7.661  1.00  0.00    -0.200 F 
ATOM     67  C   UNL     1      -6.169  10.863  -8.969  1.00  0.00     0.200 A 
ATOM     68  F   UNL     1      -4.855   9.395 -10.255  1.00  0.00    -0.200 F 
ATOM     69  F   UNL     1      -7.148  10.819  -9.882  1.00  0.00    -0.200 F 
ENDBRANCH  45  59
BRANCH  46  70
ATOM     70  C   UNL     1       1.323   9.213   1.057  1.00  0.00     0.064 A 
ATOM     71  C   UNL     1       1.107   8.297   2.110  1.00  0.00     0.173 A 
ATOM     72  C   UNL     1       2.236   8.836   0.061  1.00  0.00     0.173 A 
ATOM     73  F   UNL     1       0.296   8.633   3.127  1.00  0.00    -0.203 F 
ATOM     74  C   UNL     1       1.540   6.977   2.017  1.00  0.00     0.198 A 
ATOM     75  C   UNL     1       2.728   7.525   0.012  1.00  0.00     0.198 A 
ATOM     76  F   UNL     1       2.541   9.677  -0.937  1.00  0.00    -0.203 F 
ATOM     77  F   UNL     1       1.113   6.071   2.909  1.00  0.00    -0.200 F 
ATOM     78  C   UNL     1       2.310   6.580   0.940  1.00  0.00     0.200 A 
ATOM     79  F   UNL     1       3.539   7.153  -0.989  1.00  0.00    -0.200 F 
ATOM     80  F   UNL     1       2.604   5.282   0.777  1.00  0.00    -0.200 F 
ENDBRANCH  46  70
BRANCH  58  81
ATOM     81  C   UNL     1      -0.714  15.049  -2.854  1.00  0.00     0.064 A 
ATOM     82  C   UNL     1       0.459  15.761  -2.554  1.00  0.00     0.173 A 
ATOM     83  C   UNL     1      -1.567  15.670  -3.801  1.00  0.00     0.173 A 
ATOM     84  F   UNL     1       1.434  15.231  -1.804  1.00  0.00    -0.203 F 
ATOM     85  C   UNL     1       0.710  17.030  -3.075  1.00  0.00     0.198 A 
ATOM     86  C   UNL     1      -1.266  16.894  -4.392  1.00  0.00     0.198 A 
ATOM     87  F   UNL     1      -2.706  15.097  -4.217  1.00  0.00    -0.203 F 
ATOM     88  F   UNL     1       1.808  17.695  -2.690  1.00  0.00    -0.200 F 
ATOM     89  C   UNL     1      -0.142  17.589  -4.006  1.00  0.00     0.200 A 
ATOM     90  F   UNL     1      -2.063  17.381  -5.354  1.00  0.00    -0.200 F 
ATOM     91  F   UNL     1       0.135  18.781  -4.549  1.00  0.00    -0.200 F 
ENDBRANCH  58  81
ENDBRANCH  32  33
ENDBRANCH  24  27
ENDBRANCH  22  23
ENDBRANCH  21  22
ENDBRANCH   1  21
TORSDOF 14
