REMARK SMILES Cc1cccc(-n2ncc(C(=O)Nc3cccc(C(=O)NCCCCNC(=O)c4ccc(-c5c6nc(c(-c7c(F)c(F)c(F)c(F)c7F)c7ccc([nH]7)c(-c7c(F)c(F)c(F)c(F)c7F)c7nc(c(-c8c(F)c(F)c(F)c(F)c8F)c8ccc5[nH]8)C=C7)C=C6)cc4)c3C)c2C)c1
REMARK SMILES IDX 23 1 22 2 21 3 19 4 20 5 18 7 14 8 15 9 92 10 16 11 93 12
REMARK SMILES IDX 17 13 13 14 11 15 12 16 10 18 7 19 8 20 94 21 9 22 95 23
REMARK SMILES IDX 6 24 1 25 2 26 3 27 96 28 4 29 5 30 24 31 25 32 26 33 27 34
REMARK SMILES IDX 28 36 29 37 30 38 91 39 31 40 90 41 32 42 33 43 34 44 84 45
REMARK SMILES IDX 35 46 89 47 83 48 85 49 36 50 88 51 82 52 81 53 37 55 69 56
REMARK SMILES IDX 49 57 68 58 50 59 53 60 67 61 86 62 51 63 52 64 66 66 87 67
REMARK SMILES IDX 54 68 38 69 39 70 47 71 40 72 41 73 45 74 48 75 42 76 43 77
REMARK SMILES IDX 46 78 44 79 70 80 71 81 79 82 72 83 73 84 77 85 80 86 74 87
REMARK SMILES IDX 75 88 78 89 76 90 55 91 56 92 64 93 57 94 58 95 62 96 65 97
REMARK SMILES IDX 59 98 60 99 63 100 61 101
REMARK H PARENT 21 6 13 17 26 35 85 54 53 65
REMARK Flexibility Score: inf
ROOT
ATOM      1  C   UNL     1      -2.862  10.228  -5.212  1.00  0.00     0.023 C 
ENDROOT
BRANCH   1   2
ATOM      2  C   UNL     1      -1.766   9.512  -4.425  1.00  0.00     0.116 C 
BRANCH   2   3
ATOM      3  N   UNL     1      -1.701   9.874  -3.014  1.00  0.00    -0.352 N 
ATOM      4  C   UNL     1      -2.110   9.335  -1.816  1.00  0.00     0.251 C 
ATOM      5  O   UNL     1      -1.718   9.943  -0.818  1.00  0.00    -0.269 OA
ATOM      6  H   UNL     1      -1.240  10.734  -2.884  1.00  0.00     0.163 HD
BRANCH   4   7
ATOM      7  C   UNL     1      -2.953   8.098  -1.643  1.00  0.00     0.044 A 
ATOM      8  C   UNL     1      -4.200   6.552  -0.231  1.00  0.00     0.045 A 
ATOM      9  C   UNL     1      -4.321   5.654  -1.294  1.00  0.00     0.026 A 
ATOM     10  C   UNL     1      -3.653   7.844  -0.425  1.00  0.00    -0.015 A 
ATOM     11  C   UNL     1      -3.686   5.920  -2.489  1.00  0.00     0.003 A 
ATOM     12  C   UNL     1      -3.685   8.835   0.716  1.00  0.00     0.047 C 
ATOM     13  C   UNL     1      -2.937   7.087  -2.614  1.00  0.00     0.014 A 
BRANCH   8  14
ATOM     14  N   UNL     1      -4.512   6.091   1.062  1.00  0.00    -0.322 N 
ATOM     15  C   UNL     1      -4.184   4.862   1.618  1.00  0.00     0.259 C 
ATOM     16  O   UNL     1      -4.785   4.503   2.630  1.00  0.00    -0.269 OA
ATOM     17  H   UNL     1      -5.019   6.709   1.636  1.00  0.00     0.170 HD
BRANCH  15  18
ATOM     18  C   UNL     1      -3.071   4.079   1.062  1.00  0.00     0.081 A 
ATOM     19  N   UNL     1      -1.663   2.419   0.537  1.00  0.00    -0.237 N 
ATOM     20  N   UNL     1      -1.096   3.540   0.027  1.00  0.00    -0.175 NA
ATOM     21  C   UNL     1      -2.794   2.730   1.288  1.00  0.00     0.054 A 
ATOM     22  C   UNL     1      -1.945   4.515   0.330  1.00  0.00     0.149 A 
ATOM     23  C   UNL     1      -3.450   1.803   2.251  1.00  0.00     0.068 C 
BRANCH  19  24
ATOM     24  C   UNL     1      -1.036   1.164   0.297  1.00  0.00     0.065 A 
ATOM     25  C   UNL     1       2.520  -0.117  -0.208  1.00  0.00     0.044 C 
ATOM     26  C   UNL     1       1.026  -0.082  -0.079  1.00  0.00    -0.049 A 
ATOM     27  C   UNL     1       0.291  -1.272  -0.063  1.00  0.00     0.003 A 
ATOM     28  C   UNL     1       0.351   1.136   0.073  1.00  0.00     0.031 A 
ATOM     29  C   UNL     1      -1.095  -1.246   0.097  1.00  0.00     0.002 A 
ATOM     30  C   UNL     1      -1.762  -0.031   0.280  1.00  0.00     0.028 A 
ENDBRANCH  19  24
ENDBRANCH  15  18
ENDBRANCH   8  14
ENDBRANCH   4   7
ENDBRANCH   2   3
ENDBRANCH   1   2
BRANCH   1  31
ATOM     31  C   UNL     1      -2.621  11.717  -5.453  1.00  0.00     0.023 C 
BRANCH  31  32
ATOM     32  C   UNL     1      -1.353  12.057  -6.232  1.00  0.00     0.116 C 
BRANCH  32  33
ATOM     33  N   UNL     1      -1.406  11.808  -7.666  1.00  0.00    -0.352 N 
ATOM     34  C   UNL     1      -0.380  11.843  -8.607  1.00  0.00     0.251 C 
ATOM     35  H   UNL     1      -2.295  11.582  -8.021  1.00  0.00     0.163 HD
ATOM     36  O   UNL     1      -0.620  11.676  -9.782  1.00  0.00    -0.269 OA
BRANCH  34  37
ATOM     37  C   UNL     1       1.033  11.952  -8.143  1.00  0.00     0.039 A 
ATOM     38  C   UNL     1       1.976  11.076  -8.697  1.00  0.00     0.014 A 
ATOM     39  C   UNL     1       1.381  12.749  -7.058  1.00  0.00     0.014 A 
ATOM     40  C   UNL     1       3.151  10.806  -7.998  1.00  0.00     0.010 A 
ATOM     41  C   UNL     1       2.492  12.410  -6.311  1.00  0.00     0.010 A 
ATOM     42  C   UNL     1       3.332  11.377  -6.741  1.00  0.00    -0.014 A 
BRANCH  42  43
ATOM     43  C   UNL     1       4.260  10.854  -5.744  1.00  0.00     0.031 A 
ATOM     44  C   UNL     1       5.467  11.608  -5.352  1.00  0.00     0.074 A 
ATOM     45  C   UNL     1       3.928   9.726  -5.073  1.00  0.00     0.049 A 
ATOM     46  N   UNL     1       6.426  11.099  -4.654  1.00  0.00    -0.248 NA
ATOM     47  C   UNL     1       5.733  12.984  -5.766  1.00  0.00     0.031 C 
ATOM     48  C   UNL     1       4.508   9.222  -3.829  1.00  0.00     0.029 A 
ATOM     49  N   UNL     1       3.119   8.666  -5.525  1.00  0.00    -0.354 N 
ATOM     50  C   UNL     1       7.239  12.128  -4.258  1.00  0.00     0.074 A 
ATOM     51  C   UNL     1       6.862  13.241  -5.093  1.00  0.00     0.031 C 
ATOM     52  C   UNL     1       4.324   7.895  -3.772  1.00  0.00     0.029 A 
ATOM     53  C   UNL     1       3.755   7.491  -5.043  1.00  0.00     0.049 A 
ATOM     54  H   UNL     1       2.293   8.726  -6.058  1.00  0.00     0.167 HD
ATOM     55  C   UNL     1       8.037  11.947  -3.170  1.00  0.00     0.037 A 
ATOM     56  C   UNL     1       4.312   6.591  -5.906  1.00  0.00     0.037 A 
ATOM     57  C   UNL     1       8.169  10.529  -2.832  1.00  0.00     0.049 A 
ATOM     58  C   UNL     1       5.804   6.381  -5.737  1.00  0.00     0.074 A 
ATOM     59  C   UNL     1       7.774   9.711  -1.789  1.00  0.00     0.029 A 
ATOM     60  N   UNL     1       8.659   9.682  -3.813  1.00  0.00    -0.354 N 
ATOM     61  N   UNL     1       6.547   7.022  -4.878  1.00  0.00    -0.248 NA
ATOM     62  C   UNL     1       6.594   5.505  -6.606  1.00  0.00     0.031 C 
ATOM     63  C   UNL     1       7.973   8.353  -2.197  1.00  0.00     0.029 A 
ATOM     64  C   UNL     1       8.520   8.356  -3.468  1.00  0.00     0.049 A 
ATOM     65  H   UNL     1       9.059   9.992  -4.657  1.00  0.00     0.167 HD
ATOM     66  C   UNL     1       7.864   6.734  -5.114  1.00  0.00     0.074 A 
ATOM     67  C   UNL     1       7.846   5.769  -6.196  1.00  0.00     0.031 C 
ATOM     68  C   UNL     1       8.883   7.346  -4.448  1.00  0.00     0.037 A 
BRANCH  55  69
ATOM     69  C   UNL     1       8.622  13.058  -2.329  1.00  0.00     0.064 A 
ATOM     70  C   UNL     1       9.564  12.764  -1.320  1.00  0.00     0.173 A 
ATOM     71  C   UNL     1       8.208  14.408  -2.376  1.00  0.00     0.173 A 
ATOM     72  F   UNL     1      10.028  11.518  -1.146  1.00  0.00    -0.203 F 
ATOM     73  C   UNL     1      10.045  13.738  -0.437  1.00  0.00     0.198 A 
ATOM     74  C   UNL     1       8.736  15.390  -1.535  1.00  0.00     0.198 A 
ATOM     75  F   UNL     1       7.229  14.826  -3.185  1.00  0.00    -0.203 F 
ATOM     76  F   UNL     1      10.891  13.390   0.542  1.00  0.00    -0.200 F 
ATOM     77  C   UNL     1       9.644  15.054  -0.555  1.00  0.00     0.200 A 
ATOM     78  F   UNL     1       8.328  16.661  -1.665  1.00  0.00    -0.200 F 
ATOM     79  F   UNL     1      10.109  15.989   0.284  1.00  0.00    -0.200 F 
ENDBRANCH  55  69
BRANCH  56  80
ATOM     80  C   UNL     1       3.578   6.511  -7.197  1.00  0.00     0.064 A 
ATOM     81  C   UNL     1       2.227   6.112  -7.173  1.00  0.00     0.173 A 
ATOM     82  C   UNL     1       4.042   7.159  -8.346  1.00  0.00     0.173 A 
ATOM     83  F   UNL     1       1.728   5.491  -6.092  1.00  0.00    -0.203 F 
ATOM     84  C   UNL     1       1.352   6.461  -8.199  1.00  0.00     0.198 A 
ATOM     85  C   UNL     1       3.167   7.487  -9.382  1.00  0.00     0.198 A 
ATOM     86  F   UNL     1       5.311   7.588  -8.419  1.00  0.00    -0.203 F 
ATOM     87  F   UNL     1       0.045   6.181  -8.087  1.00  0.00    -0.200 F 
ATOM     88  C   UNL     1       1.819   7.172  -9.291  1.00  0.00     0.200 A 
ATOM     89  F   UNL     1       3.612   8.202 -10.425  1.00  0.00    -0.200 F 
ATOM     90  F   UNL     1       0.964   7.595 -10.232  1.00  0.00    -0.200 F 
ENDBRANCH  56  80
BRANCH  68  91
ATOM     91  C   UNL     1      10.327   7.046  -4.714  1.00  0.00     0.064 A 
ATOM     92  C   UNL     1      10.824   5.734  -4.720  1.00  0.00     0.173 A 
ATOM     93  C   UNL     1      11.277   8.079  -4.852  1.00  0.00     0.173 A 
ATOM     94  F   UNL     1       9.996   4.690  -4.570  1.00  0.00    -0.203 F 
ATOM     95  C   UNL     1      12.187   5.471  -4.869  1.00  0.00     0.198 A 
ATOM     96  C   UNL     1      12.642   7.816  -4.952  1.00  0.00     0.198 A 
ATOM     97  F   UNL     1      10.901   9.364  -4.921  1.00  0.00    -0.203 F 
ATOM     98  F   UNL     1      12.620   4.204  -4.911  1.00  0.00    -0.200 F 
ATOM     99  C   UNL     1      13.097   6.512  -4.966  1.00  0.00     0.200 A 
ATOM    100  F   UNL     1      13.511   8.833  -5.038  1.00  0.00    -0.200 F 
ATOM    101  F   UNL     1      14.407   6.258  -5.082  1.00  0.00    -0.200 F 
ENDBRANCH  68  91
ENDBRANCH  42  43
ENDBRANCH  34  37
ENDBRANCH  32  33
ENDBRANCH  31  32
ENDBRANCH   1  31
TORSDOF 14
