REMARK SMILES CCOc1ccccc1N1CCN(c2ncc(N)cc2C(=O)NCCCCNC(=O)c2ccc(-c3c4nc(c(-c5c(F)c(F)c(F)c(F)c5F)c5ccc([nH]5)c(-c5c(F)c(F)c(F)c(F)c5F)c5nc(c(-c6c(F)c(F)c(F)c(F)c6F)c6ccc3[nH]6)C=C5)C=C4)cc2)CC1
REMARK SMILES IDX 24 1 23 2 21 3 22 4 20 6 14 7 15 8 16 9 19 10 17 11 13 12
REMARK SMILES IDX 10 13 11 14 95 15 12 16 94 17 9 18 4 19 5 20 6 21 8 22 7 23
REMARK SMILES IDX 3 24 2 25 1 26 18 27 25 30 26 31 27 32 28 33 29 34 30 36
REMARK SMILES IDX 31 37 32 38 93 39 33 40 92 41 34 42 35 43 36 44 86 45 37 46
REMARK SMILES IDX 91 47 85 48 87 49 38 50 90 51 84 52 83 53 39 55 71 56 51 57
REMARK SMILES IDX 70 58 52 59 55 60 69 61 88 62 53 63 54 64 68 66 89 67 56 68
REMARK SMILES IDX 40 69 41 70 49 71 42 72 43 73 47 74 50 75 44 76 45 77 48 78
REMARK SMILES IDX 46 79 72 80 73 81 81 82 74 83 75 84 79 85 82 86 76 87 77 88
REMARK SMILES IDX 80 89 78 90 57 91 58 92 66 93 59 94 60 95 64 96 67 97 61 98
REMARK SMILES IDX 62 99 65 100 63 101
REMARK H PARENT 23 5 18 28 18 29 28 35 87 54 55 65
REMARK Flexibility Score: inf
ROOT
ATOM      1  C   UNL     1       0.049  -3.437   6.202  1.00  0.00     0.116 C 
ENDROOT
BRANCH   1   2
ATOM      2  N   UNL     1       1.068  -3.122   5.224  1.00  0.00    -0.352 N 
ATOM      3  C   UNL     1       1.461  -1.948   4.623  1.00  0.00     0.255 C 
ATOM      4  O   UNL     1       2.528  -1.995   4.011  1.00  0.00    -0.269 OA
ATOM      5  H   UNL     1       1.584  -3.907   4.929  1.00  0.00     0.163 HD
BRANCH   3   6
ATOM      6  C   UNL     1       0.649  -0.699   4.679  1.00  0.00     0.084 A 
ATOM      7  C   UNL     1       0.552   0.126   3.547  1.00  0.00     0.141 A 
ATOM      8  N   UNL     1      -0.165   1.279   3.562  1.00  0.00    -0.236 NA
ATOM      9  C   UNL     1      -0.799   1.618   4.707  1.00  0.00     0.139 A 
ATOM     10  C   UNL     1       0.049  -0.256   5.865  1.00  0.00     0.044 A 
ATOM     11  C   UNL     1      -0.761   0.876   5.878  1.00  0.00     0.051 A 
BRANCH   7  12
ATOM     12  N   UNL     1       1.248  -0.156   2.386  1.00  0.00    -0.352 N 
ATOM     13  N   UNL     1       2.426  -0.340  -0.193  1.00  0.00    -0.365 N 
ATOM     14  C   UNL     1       3.136   0.359   0.887  1.00  0.00     0.138 C 
ATOM     15  C   UNL     1       1.536  -1.427   0.261  1.00  0.00     0.138 C 
ATOM     16  C   UNL     1       2.124   0.916   1.906  1.00  0.00     0.139 C 
ATOM     17  C   UNL     1       0.555  -0.936   1.356  1.00  0.00     0.139 C 
BRANCH  13  18
ATOM     18  C   UNL     1       2.997  -0.445  -1.453  1.00  0.00     0.079 A 
ATOM     19  C   UNL     1       2.216  -0.359  -2.623  1.00  0.00     0.142 A 
ATOM     20  C   UNL     1       2.789  -0.435  -3.897  1.00  0.00     0.048 A 
ATOM     21  C   UNL     1       4.168  -0.578  -4.029  1.00  0.00     0.004 A 
ATOM     22  C   UNL     1       4.382  -0.602  -1.620  1.00  0.00     0.030 A 
ATOM     23  C   UNL     1       4.964  -0.667  -2.891  1.00  0.00     0.002 A 
BRANCH  19  24
ATOM     24  O   UNL     1       0.849  -0.229  -2.535  1.00  0.00    -0.492 OA
BRANCH  24  25
ATOM     25  C   UNL     1       0.437   1.132  -2.708  1.00  0.00     0.226 C 
ATOM     26  C   UNL     1      -0.068   1.692  -1.391  1.00  0.00     0.049 C 
ENDBRANCH  24  25
ENDBRANCH  19  24
ENDBRANCH  13  18
ENDBRANCH   7  12
BRANCH  11  27
ATOM     27  N   UNL     1      -1.371   1.301   7.047  1.00  0.00    -0.397 N 
ATOM     28  H   UNL     1      -1.941   2.104   7.041  1.00  0.00     0.156 HD
ATOM     29  H   UNL     1      -1.234   0.801   7.884  1.00  0.00     0.156 HD
ENDBRANCH  11  27
ENDBRANCH   3   6
ENDBRANCH   1   2
BRANCH   1  30
ATOM     30  C   UNL     1      -0.952  -4.496   5.763  1.00  0.00     0.023 C 
BRANCH  30  31
ATOM     31  C   UNL     1      -0.394  -5.868   5.396  1.00  0.00     0.023 C 
BRANCH  31  32
ATOM     32  C   UNL     1       0.671  -6.447   6.320  1.00  0.00     0.116 C 
BRANCH  32  33
ATOM     33  N   UNL     1       0.327  -6.418   7.733  1.00  0.00    -0.352 N 
ATOM     34  C   UNL     1       0.586  -7.349   8.715  1.00  0.00     0.251 C 
ATOM     35  H   UNL     1      -0.163  -5.617   8.031  1.00  0.00     0.163 HD
ATOM     36  O   UNL     1       0.227  -7.159   9.861  1.00  0.00    -0.269 OA
BRANCH  34  37
ATOM     37  C   UNL     1       1.242  -8.620   8.340  1.00  0.00     0.039 A 
ATOM     38  C   UNL     1       0.598  -9.813   8.676  1.00  0.00     0.014 A 
ATOM     39  C   UNL     1       2.425  -8.632   7.599  1.00  0.00     0.014 A 
ATOM     40  C   UNL     1       1.085 -11.020   8.177  1.00  0.00     0.010 A 
ATOM     41  C   UNL     1       2.873  -9.829   7.049  1.00  0.00     0.010 A 
ATOM     42  C   UNL     1       2.192 -11.028   7.313  1.00  0.00    -0.014 A 
BRANCH  42  43
ATOM     43  C   UNL     1       2.615 -12.273   6.627  1.00  0.00     0.031 A 
ATOM     44  C   UNL     1       3.949 -12.886   6.926  1.00  0.00     0.074 A 
ATOM     45  C   UNL     1       1.822 -12.797   5.672  1.00  0.00     0.049 A 
ATOM     46  N   UNL     1       4.526 -13.921   6.370  1.00  0.00    -0.248 NA
ATOM     47  C   UNL     1       4.754 -12.236   7.971  1.00  0.00     0.031 C 
ATOM     48  C   UNL     1       0.525 -12.256   5.259  1.00  0.00     0.029 A 
ATOM     49  N   UNL     1       1.996 -13.892   4.863  1.00  0.00    -0.354 N 
ATOM     50  C   UNL     1       5.762 -14.039   6.988  1.00  0.00     0.074 A 
ATOM     51  C   UNL     1       5.874 -12.944   7.928  1.00  0.00     0.031 C 
ATOM     52  C   UNL     1       0.015 -13.028   4.286  1.00  0.00     0.029 A 
ATOM     53  C   UNL     1       0.964 -14.094   3.980  1.00  0.00     0.049 A 
ATOM     54  H   UNL     1       2.786 -14.477   4.912  1.00  0.00     0.167 HD
ATOM     55  C   UNL     1       6.708 -14.989   6.800  1.00  0.00     0.037 A 
ATOM     56  C   UNL     1       0.807 -15.026   3.021  1.00  0.00     0.037 A 
ATOM     57  C   UNL     1       6.580 -16.087   5.880  1.00  0.00     0.049 A 
ATOM     58  C   UNL     1       1.883 -16.057   2.821  1.00  0.00     0.074 A 
ATOM     59  C   UNL     1       7.443 -17.150   5.679  1.00  0.00     0.029 A 
ATOM     60  N   UNL     1       5.522 -16.259   4.999  1.00  0.00    -0.354 N 
ATOM     61  N   UNL     1       3.013 -16.208   3.468  1.00  0.00    -0.248 NA
ATOM     62  C   UNL     1       1.665 -17.043   1.754  1.00  0.00     0.031 C 
ATOM     63  C   UNL     1       6.930 -17.940   4.645  1.00  0.00     0.029 A 
ATOM     64  C   UNL     1       5.727 -17.392   4.229  1.00  0.00     0.049 A 
ATOM     65  H   UNL     1       4.740 -15.664   4.932  1.00  0.00     0.167 HD
ATOM     66  C   UNL     1       3.634 -17.310   2.898  1.00  0.00     0.074 A 
ATOM     67  C   UNL     1       2.746 -17.803   1.866  1.00  0.00     0.031 C 
ATOM     68  C   UNL     1       4.836 -17.860   3.199  1.00  0.00     0.037 A 
BRANCH  55  69
ATOM     69  C   UNL     1       7.965 -14.884   7.611  1.00  0.00     0.064 A 
ATOM     70  C   UNL     1       7.972 -15.145   8.990  1.00  0.00     0.173 A 
ATOM     71  C   UNL     1       9.184 -14.557   6.998  1.00  0.00     0.173 A 
ATOM     72  F   UNL     1       6.830 -15.450   9.624  1.00  0.00    -0.203 F 
ATOM     73  C   UNL     1       9.148 -15.056   9.729  1.00  0.00     0.198 A 
ATOM     74  C   UNL     1      10.363 -14.495   7.736  1.00  0.00     0.198 A 
ATOM     75  F   UNL     1       9.232 -14.303   5.682  1.00  0.00    -0.203 F 
ATOM     76  F   UNL     1       9.122 -15.266  11.053  1.00  0.00    -0.200 F 
ATOM     77  C   UNL     1      10.343 -14.738   9.102  1.00  0.00     0.200 A 
ATOM     78  F   UNL     1      11.519 -14.198   7.127  1.00  0.00    -0.200 F 
ATOM     79  F   UNL     1      11.475 -14.659   9.814  1.00  0.00    -0.200 F 
ENDBRANCH  55  69
BRANCH  56  80
ATOM     80  C   UNL     1      -0.420 -15.031   2.184  1.00  0.00     0.064 A 
ATOM     81  C   UNL     1      -1.383 -16.039   2.329  1.00  0.00     0.173 A 
ATOM     82  C   UNL     1      -0.657 -14.032   1.229  1.00  0.00     0.173 A 
ATOM     83  F   UNL     1      -1.189 -17.027   3.214  1.00  0.00    -0.203 F 
ATOM     84  C   UNL     1      -2.530 -16.056   1.539  1.00  0.00     0.198 A 
ATOM     85  C   UNL     1      -1.817 -14.036   0.457  1.00  0.00     0.198 A 
ATOM     86  F   UNL     1       0.232 -13.044   1.055  1.00  0.00    -0.203 F 
ATOM     87  F   UNL     1      -3.417 -17.052   1.670  1.00  0.00    -0.200 F 
ATOM     88  C   UNL     1      -2.750 -15.052   0.608  1.00  0.00     0.200 A 
ATOM     89  F   UNL     1      -2.032 -13.057  -0.432  1.00  0.00    -0.200 F 
ATOM     90  F   UNL     1      -3.856 -15.066  -0.148  1.00  0.00    -0.200 F 
ENDBRANCH  56  80
BRANCH  68  91
ATOM     91  C   UNL     1       5.258 -19.058   2.401  1.00  0.00     0.064 A 
ATOM     92  C   UNL     1       5.687 -18.932   1.071  1.00  0.00     0.173 A 
ATOM     93  C   UNL     1       5.276 -20.334   2.982  1.00  0.00     0.173 A 
ATOM     94  F   UNL     1       5.670 -17.734   0.467  1.00  0.00    -0.203 F 
ATOM     95  C   UNL     1       6.104 -20.045   0.347  1.00  0.00     0.198 A 
ATOM     96  C   UNL     1       5.718 -21.440   2.263  1.00  0.00     0.198 A 
ATOM     97  F   UNL     1       4.878 -20.504   4.252  1.00  0.00    -0.203 F 
ATOM     98  F   UNL     1       6.473 -19.909  -0.934  1.00  0.00    -0.200 F 
ATOM     99  C   UNL     1       6.127 -21.296   0.946  1.00  0.00     0.200 A 
ATOM    100  F   UNL     1       5.750 -22.647   2.846  1.00  0.00    -0.200 F 
ATOM    101  F   UNL     1       6.537 -22.365   0.250  1.00  0.00    -0.200 F 
ENDBRANCH  68  91
ENDBRANCH  42  43
ENDBRANCH  34  37
ENDBRANCH  32  33
ENDBRANCH  31  32
ENDBRANCH  30  31
ENDBRANCH   1  30
TORSDOF 16
