REMARK SMILES CC[C@@H](C)[C@@H](NC(=O)Cn1nc(-c2ccc3ccccc3c2)ccc1=O)C(=O)NCCCCNC(=O)c1ccc(-c2c3nc(c(-c4c(F)c(F)c(F)c(F)c4F)c4ccc([nH]4)c(-c4c(F)c(F)c(F)c(F)c4F)c4nc(c(-c5c(F)c(F)c(F)c(F)c5F)c5ccc2[nH]5)C=C4)C=C3)cc1
REMARK SMILES IDX 30 1 29 2 27 3 28 4 5 6 3 7 4 8 2 9 1 10 6 11 7 12 8 14 9 15
REMARK SMILES IDX 10 16 11 17 25 18 12 19 24 20 26 21 23 22 13 23 14 24 22 25
REMARK SMILES IDX 15 26 21 27 16 28 20 29 17 30 19 31 18 32 31 33 32 34 33 35
REMARK SMILES IDX 34 36 35 37 36 39 37 40 38 41 99 42 39 43 98 44 40 45 41 46
REMARK SMILES IDX 42 47 92 48 43 49 97 50 91 51 93 52 44 53 96 54 90 55 89 56
REMARK SMILES IDX 45 58 77 59 57 60 76 61 58 62 61 63 75 64 94 65 59 66 60 67
REMARK SMILES IDX 74 69 95 70 62 71 46 72 47 73 55 74 48 75 49 76 53 77 56 78
REMARK SMILES IDX 50 79 51 80 54 81 52 82 78 83 79 84 87 85 80 86 81 87 85 88
REMARK SMILES IDX 88 89 82 90 83 91 86 92 84 93 63 94 64 95 72 96 65 97 66 98
REMARK SMILES IDX 70 99 73 100 67 101 68 102 71 103 69 104
REMARK H PARENT 29 5 6 13 34 38 93 57 61 68
REMARK Flexibility Score: inf
ROOT
ATOM      1  C   UNL     1       4.162   4.011   2.227  1.00  0.00     0.116 C 
ENDROOT
BRANCH   1   2
ATOM      2  N   UNL     1       2.124   4.364   2.210  1.00  0.00    -0.354 N 
ATOM      3  C   UNL     1       0.742   4.147   2.236  1.00  0.00     0.242 C 
ATOM      4  O   UNL     1       0.050   5.177   2.229  1.00  0.00    -0.273 OA
ATOM      5  H   UNL     1       2.131   5.345   2.129  1.00  0.00     0.163 HD
BRANCH   3   6
ATOM      6  C   UNL     1       0.032   2.782   2.489  1.00  0.00     0.174 C 
BRANCH   6   7
ATOM      7  C   UNL     1       0.136   1.827   1.261  1.00  0.00     0.018 C 
ATOM      8  C   UNL     1      -0.486   2.484   0.016  1.00  0.00     0.010 C 
BRANCH   7   9
ATOM      9  C   UNL     1      -0.342   0.376   1.434  1.00  0.00     0.002 C 
ATOM     10  C   UNL     1       0.303  -0.525   0.371  1.00  0.00     0.004 C 
ENDBRANCH   7   9
ENDBRANCH   6   7
BRANCH   6  11
ATOM     11  N   UNL     1       0.260   2.177   3.827  1.00  0.00    -0.342 N 
ATOM     12  C   UNL     1       1.060   2.440   4.905  1.00  0.00     0.242 C 
ATOM     13  H   UNL     1      -0.307   1.386   3.974  1.00  0.00     0.164 HD
ATOM     14  O   UNL     1       0.834   1.773   5.924  1.00  0.00    -0.273 OA
BRANCH  12  15
ATOM     15  C   UNL     1       2.045   3.611   4.994  1.00  0.00     0.248 C 
BRANCH  15  16
ATOM     16  N   UNL     1       2.900   3.815   3.836  1.00  0.00    -0.220 N 
ATOM     17  N   UNL     1       3.192   5.588   3.355  1.00  0.00    -0.169 NA
ATOM     18  C   UNL     1       2.761   2.533   2.541  1.00  0.00     0.267 A 
ATOM     19  C   UNL     1       3.292   5.970   1.869  1.00  0.00     0.091 A 
ATOM     20  C   UNL     1       2.846   3.235   0.716  1.00  0.00     0.075 A 
ATOM     21  O   UNL     1       2.745   1.326   2.779  1.00  0.00    -0.268 OA
ATOM     22  C   UNL     1       3.021   4.731   0.429  1.00  0.00     0.036 A 
BRANCH  19  23
ATOM     23  C   UNL     1       3.613   7.346   1.442  1.00  0.00     0.003 A 
ATOM     24  C   UNL     1       4.750   7.960   1.970  1.00  0.00     0.011 A 
ATOM     25  C   UNL     1       2.796   8.026   0.541  1.00  0.00     0.019 A 
ATOM     26  C   UNL     1       5.130   9.226   1.527  1.00  0.00     0.009 A 
ATOM     27  C   UNL     1       3.122   9.341   0.158  1.00  0.00    -0.018 A 
ATOM     28  C   UNL     1       4.324   9.930   0.625  1.00  0.00    -0.018 A 
ATOM     29  C   UNL     1       2.271  10.101  -0.661  1.00  0.00     0.009 A 
ATOM     30  C   UNL     1       4.672  11.224   0.209  1.00  0.00     0.009 A 
ATOM     31  C   UNL     1       2.607  11.407  -1.025  1.00  0.00     0.001 A 
ATOM     32  C   UNL     1       3.814  11.961  -0.606  1.00  0.00     0.001 A 
ENDBRANCH  19  23
ENDBRANCH  15  16
ENDBRANCH  12  15
ENDBRANCH   6  11
ENDBRANCH   3   6
ENDBRANCH   1   2
BRANCH   1  33
ATOM     33  C   UNL     1       5.291   3.800   0.990  1.00  0.00     0.023 C 
BRANCH  33  34
ATOM     34  C   UNL     1       6.336   4.900   0.920  1.00  0.00     0.023 C 
BRANCH  34  35
ATOM     35  C   UNL     1       7.036   5.173   2.232  1.00  0.00     0.116 C 
BRANCH  35  36
ATOM     36  N   UNL     1       7.789   4.029   2.727  1.00  0.00    -0.352 N 
ATOM     37  C   UNL     1       9.092   4.065   3.172  1.00  0.00     0.251 C 
ATOM     38  H   UNL     1       7.329   3.159   2.746  1.00  0.00     0.163 HD
ATOM     39  O   UNL     1       9.728   3.063   3.456  1.00  0.00    -0.269 OA
BRANCH  37  40
ATOM     40  C   UNL     1       9.676   5.414   3.259  1.00  0.00     0.039 A 
ATOM     41  C   UNL     1       9.008   6.334   4.072  1.00  0.00     0.014 A 
ATOM     42  C   UNL     1      10.553   5.824   2.254  1.00  0.00     0.014 A 
ATOM     43  C   UNL     1       9.072   7.676   3.737  1.00  0.00     0.010 A 
ATOM     44  C   UNL     1      10.723   7.189   2.024  1.00  0.00     0.010 A 
ATOM     45  C   UNL     1       9.949   8.126   2.730  1.00  0.00    -0.014 A 
BRANCH  45  46
ATOM     46  C   UNL     1      10.074   9.583   2.466  1.00  0.00     0.031 A 
ATOM     47  C   UNL     1       9.850  10.168   1.097  1.00  0.00     0.074 A 
ATOM     48  C   UNL     1      10.396  10.386   3.499  1.00  0.00     0.049 A 
ATOM     49  N   UNL     1      10.049  11.396   0.685  1.00  0.00    -0.248 NA
ATOM     50  C   UNL     1       9.346   9.265   0.050  1.00  0.00     0.031 C 
ATOM     51  C   UNL     1      10.611   9.937   4.878  1.00  0.00     0.029 A 
ATOM     52  N   UNL     1      10.584  11.741   3.562  1.00  0.00    -0.354 N 
ATOM     53  C   UNL     1       9.741  11.404  -0.670  1.00  0.00     0.074 A 
ATOM     54  C   UNL     1       9.349  10.055  -1.017  1.00  0.00     0.031 C 
ATOM     55  C   UNL     1      10.831  10.998   5.660  1.00  0.00     0.029 A 
ATOM     56  C   UNL     1      10.902  12.185   4.822  1.00  0.00     0.049 A 
ATOM     57  H   UNL     1      10.499  12.337   2.783  1.00  0.00     0.167 HD
ATOM     58  C   UNL     1       9.784  12.447  -1.536  1.00  0.00     0.037 A 
ATOM     59  C   UNL     1      11.268  13.402   5.257  1.00  0.00     0.037 A 
ATOM     60  C   UNL     1      10.153  13.791  -1.165  1.00  0.00     0.049 A 
ATOM     61  C   UNL     1      11.369  14.519   4.265  1.00  0.00     0.074 A 
ATOM     62  C   UNL     1      10.208  14.922  -1.961  1.00  0.00     0.029 A 
ATOM     63  N   UNL     1      10.529  14.188   0.112  1.00  0.00    -0.354 N 
ATOM     64  N   UNL     1      11.097  14.510   2.983  1.00  0.00    -0.248 NA
ATOM     65  C   UNL     1      11.844  15.808   4.776  1.00  0.00     0.031 C 
ATOM     66  C   UNL     1      10.666  15.988  -1.181  1.00  0.00     0.029 A 
ATOM     67  C   UNL     1      10.840  15.539   0.118  1.00  0.00     0.049 A 
ATOM     68  H   UNL     1      10.569  13.596   0.898  1.00  0.00     0.167 HD
ATOM     69  C   UNL     1      11.358  15.794   2.533  1.00  0.00     0.074 A 
ATOM     70  C   UNL     1      11.780  16.562   3.688  1.00  0.00     0.031 C 
ATOM     71  C   UNL     1      11.266  16.288   1.274  1.00  0.00     0.037 A 
BRANCH  58  72
ATOM     72  C   UNL     1       9.441  12.189  -2.979  1.00  0.00     0.064 A 
ATOM     73  C   UNL     1       8.130  11.904  -3.387  1.00  0.00     0.173 A 
ATOM     74  C   UNL     1      10.424  12.307  -3.977  1.00  0.00     0.173 A 
ATOM     75  F   UNL     1       7.153  11.777  -2.477  1.00  0.00    -0.203 F 
ATOM     76  C   UNL     1       7.819  11.726  -4.735  1.00  0.00     0.198 A 
ATOM     77  C   UNL     1      10.104  12.161  -5.325  1.00  0.00     0.198 A 
ATOM     78  F   UNL     1      11.693  12.590  -3.646  1.00  0.00    -0.203 F 
ATOM     79  F   UNL     1       6.566  11.417  -5.096  1.00  0.00    -0.200 F 
ATOM     80  C   UNL     1       8.803  11.864  -5.702  1.00  0.00     0.200 A 
ATOM     81  F   UNL     1      11.053  12.315  -6.259  1.00  0.00    -0.200 F 
ATOM     82  F   UNL     1       8.498  11.711  -6.998  1.00  0.00    -0.200 F 
ENDBRANCH  58  72
BRANCH  59  83
ATOM     83  C   UNL     1      11.578  13.598   6.695  1.00  0.00     0.064 A 
ATOM     84  C   UNL     1      10.736  14.367   7.506  1.00  0.00     0.173 A 
ATOM     85  C   UNL     1      12.678  12.969   7.302  1.00  0.00     0.173 A 
ATOM     86  F   UNL     1       9.682  14.997   6.968  1.00  0.00    -0.203 F 
ATOM     87  C   UNL     1      10.982  14.504   8.870  1.00  0.00     0.198 A 
ATOM     88  C   UNL     1      12.901  13.076   8.672  1.00  0.00     0.198 A 
ATOM     89  F   UNL     1      13.506  12.209   6.571  1.00  0.00    -0.203 F 
ATOM     90  F   UNL     1      10.177  15.269   9.619  1.00  0.00    -0.200 F 
ATOM     91  C   UNL     1      12.057  13.848   9.454  1.00  0.00     0.200 A 
ATOM     92  F   UNL     1      13.923  12.417   9.235  1.00  0.00    -0.200 F 
ATOM     93  F   UNL     1      12.277  13.960  10.771  1.00  0.00    -0.200 F 
ENDBRANCH  59  83
BRANCH  71  94
ATOM     94  C   UNL     1      11.619  17.735   1.083  1.00  0.00     0.064 A 
ATOM     95  C   UNL     1      12.943  18.186   1.186  1.00  0.00     0.173 A 
ATOM     96  C   UNL     1      10.629  18.673   0.753  1.00  0.00     0.173 A 
ATOM     97  F   UNL     1      13.923  17.331   1.517  1.00  0.00    -0.203 F 
ATOM     98  C   UNL     1      13.260  19.526   0.989  1.00  0.00     0.198 A 
ATOM     99  C   UNL     1      10.954  20.006   0.521  1.00  0.00     0.198 A 
ATOM    100  F   UNL     1       9.347  18.292   0.638  1.00  0.00    -0.203 F 
ATOM    101  F   UNL     1      14.524  19.943   1.142  1.00  0.00    -0.200 F 
ATOM    102  C   UNL     1      12.267  20.433   0.647  1.00  0.00     0.200 A 
ATOM    103  F   UNL     1       9.996  20.877   0.174  1.00  0.00    -0.200 F 
ATOM    104  F   UNL     1      12.576  21.721   0.444  1.00  0.00    -0.200 F 
ENDBRANCH  71  94
ENDBRANCH  45  46
ENDBRANCH  37  40
ENDBRANCH  35  36
ENDBRANCH  34  35
ENDBRANCH  33  34
ENDBRANCH   1  33
TORSDOF 17
