REMARK SMILES COc1cc(OC)cc(-c2cc3nc(C)c(CCC(=O)NCCCCNC(=O)c4ccc(-c5c6nc(c(-c7c(F)c(F)c(F)c(F)c7F)c7ccc([nH]7)c(-c7c(F)c(F)c(F)c(F)c7F)c7nc(c(-c8c(F)c(F)c(F)c(F)c8F)c8ccc5[nH]8)C=C7)C=C6)cc4)c(C)n3n2)c1
REMARK SMILES IDX 22 1 21 2 19 3 20 4 18 6 17 7 16 8 10 9 11 10 95 11 12 12
REMARK SMILES IDX 94 13 13 14 92 15 14 16 93 17 15 18 9 19 3 20 4 21 96 22
REMARK SMILES IDX 5 23 8 24 2 25 1 26 6 27 7 28 23 29 24 30 25 31 26 32 27 33
REMARK SMILES IDX 28 35 29 36 30 37 91 38 31 39 90 40 32 41 33 42 34 43 84 44
REMARK SMILES IDX 35 45 89 46 83 47 85 48 36 49 88 50 82 51 81 52 37 54 69 55
REMARK SMILES IDX 49 56 68 57 50 58 53 59 67 60 86 61 51 62 52 63 66 65 87 66
REMARK SMILES IDX 54 67 38 68 39 69 47 70 40 71 41 72 45 73 48 74 42 75 43 76
REMARK SMILES IDX 46 77 44 78 70 79 71 80 79 81 72 82 73 83 77 84 80 85 74 86
REMARK SMILES IDX 75 87 78 88 76 89 55 90 56 91 64 92 57 93 58 94 62 95 65 96
REMARK SMILES IDX 59 97 60 98 63 99 61 100
REMARK H PARENT 21 5 26 34 85 53 53 64
REMARK Flexibility Score: inf
ROOT
ATOM      1  C   UNL     1       8.083   1.645   0.135  1.00  0.00     0.116 C 
ENDROOT
BRANCH   1   2
ATOM      2  N   UNL     1       9.249   1.639  -0.725  1.00  0.00    -0.356 N 
ATOM      3  C   UNL     1      10.121   2.683  -0.918  1.00  0.00     0.220 C 
ATOM      4  O   UNL     1      10.845   2.666  -1.913  1.00  0.00    -0.275 OA
ATOM      5  H   UNL     1       9.435   0.807  -1.217  1.00  0.00     0.163 HD
BRANCH   3   6
ATOM      6  C   UNL     1      10.189   3.830   0.100  1.00  0.00     0.105 C 
BRANCH   6   7
ATOM      7  C   UNL     1       9.758   5.230  -0.430  1.00  0.00     0.049 C 
BRANCH   7   8
ATOM      8  C   UNL     1       8.353   5.706  -0.035  1.00  0.00    -0.005 A 
ATOM      9  C   UNL     1       3.828   5.684  -0.035  1.00  0.00     0.095 A 
ATOM     10  C   UNL     1       4.421   5.851   1.242  1.00  0.00     0.080 A 
ATOM     11  N   UNL     1       4.760   5.783  -1.003  1.00  0.00    -0.166 NA
ATOM     12  C   UNL     1       5.775   5.967   1.032  1.00  0.00     0.156 A 
ATOM     13  N   UNL     1       5.968   5.937  -0.348  1.00  0.00    -0.219 N 
ATOM     14  N   UNL     1       6.811   6.039   1.911  1.00  0.00    -0.234 NA
ATOM     15  C   UNL     1       7.292   5.870  -0.880  1.00  0.00     0.046 A 
ATOM     16  C   UNL     1       8.017   5.920   1.432  1.00  0.00     0.045 A 
ATOM     17  C   UNL     1       7.412   5.799  -2.380  1.00  0.00     0.067 C 
ATOM     18  C   UNL     1       9.134   6.091   2.444  1.00  0.00     0.067 C 
BRANCH   9  19
ATOM     19  C   UNL     1       2.398   5.393  -0.263  1.00  0.00     0.009 A 
ATOM     20  C   UNL     1       0.515   3.823  -0.174  1.00  0.00     0.123 A 
ATOM     21  C   UNL     1      -0.386   4.868  -0.215  1.00  0.00     0.092 A 
ATOM     22  C   UNL     1       1.886   4.083  -0.278  1.00  0.00     0.057 A 
ATOM     23  C   UNL     1       0.099   6.166  -0.336  1.00  0.00     0.123 A 
ATOM     24  C   UNL     1       1.477   6.438  -0.303  1.00  0.00     0.057 A 
BRANCH  20  25
ATOM     25  O   UNL     1       0.064   2.531  -0.124  1.00  0.00    -0.497 OA
ATOM     26  C   UNL     1      -0.410   2.192   1.189  1.00  0.00     0.278 C 
ENDBRANCH  20  25
BRANCH  23  27
ATOM     27  O   UNL     1      -0.854   7.139  -0.460  1.00  0.00    -0.497 OA
ATOM     28  C   UNL     1      -0.527   8.085  -1.473  1.00  0.00     0.278 C 
ENDBRANCH  23  27
ENDBRANCH   9  19
ENDBRANCH   7   8
ENDBRANCH   6   7
ENDBRANCH   3   6
ENDBRANCH   1   2
BRANCH   1  29
ATOM     29  C   UNL     1       7.173   2.765  -0.321  1.00  0.00     0.023 C 
BRANCH  29  30
ATOM     30  C   UNL     1       6.085   2.447  -1.330  1.00  0.00     0.023 C 
BRANCH  30  31
ATOM     31  C   UNL     1       4.881   1.835  -0.679  1.00  0.00     0.116 C 
BRANCH  31  32
ATOM     32  N   UNL     1       4.525   2.520   0.568  1.00  0.00    -0.352 N 
ATOM     33  C   UNL     1       3.743   2.051   1.599  1.00  0.00     0.251 C 
ATOM     34  H   UNL     1       4.890   3.428   0.681  1.00  0.00     0.163 HD
ATOM     35  O   UNL     1       3.320   2.713   2.514  1.00  0.00    -0.269 OA
BRANCH  33  36
ATOM     36  C   UNL     1       3.491   0.627   1.486  1.00  0.00     0.039 A 
ATOM     37  C   UNL     1       2.377   0.203   0.764  1.00  0.00     0.014 A 
ATOM     38  C   UNL     1       4.637  -0.139   1.635  1.00  0.00     0.014 A 
ATOM     39  C   UNL     1       2.358  -1.071   0.259  1.00  0.00     0.010 A 
ATOM     40  C   UNL     1       4.700  -1.291   0.904  1.00  0.00     0.010 A 
ATOM     41  C   UNL     1       3.524  -1.824   0.364  1.00  0.00    -0.014 A 
BRANCH  41  42
ATOM     42  C   UNL     1       3.479  -3.228   0.015  1.00  0.00     0.031 A 
ATOM     43  C   UNL     1       2.750  -3.610  -1.224  1.00  0.00     0.074 A 
ATOM     44  C   UNL     1       4.067  -4.103   0.855  1.00  0.00     0.049 A 
ATOM     45  N   UNL     1       1.719  -4.391  -1.296  1.00  0.00    -0.248 NA
ATOM     46  C   UNL     1       3.090  -2.958  -2.501  1.00  0.00     0.031 C 
ATOM     47  C   UNL     1       4.878  -3.841   2.057  1.00  0.00     0.029 A 
ATOM     48  N   UNL     1       4.165  -5.446   0.725  1.00  0.00    -0.354 N 
ATOM     49  C   UNL     1       1.388  -4.478  -2.643  1.00  0.00     0.074 A 
ATOM     50  C   UNL     1       2.172  -3.477  -3.321  1.00  0.00     0.031 C 
ATOM     51  C   UNL     1       5.641  -4.912   2.331  1.00  0.00     0.029 A 
ATOM     52  C   UNL     1       5.188  -5.989   1.486  1.00  0.00     0.049 A 
ATOM     53  H   UNL     1       3.571  -5.981   0.151  1.00  0.00     0.167 HD
ATOM     54  C   UNL     1       0.655  -5.521  -3.120  1.00  0.00     0.037 A 
ATOM     55  C   UNL     1       5.671  -7.240   1.370  1.00  0.00     0.037 A 
ATOM     56  C   UNL     1      -0.109  -6.152  -2.076  1.00  0.00     0.049 A 
ATOM     57  C   UNL     1       4.579  -8.056   0.781  1.00  0.00     0.074 A 
ATOM     58  C   UNL     1      -1.112  -5.723  -1.228  1.00  0.00     0.029 A 
ATOM     59  N   UNL     1       0.365  -7.318  -1.528  1.00  0.00    -0.354 N 
ATOM     60  N   UNL     1       3.456  -8.292   1.412  1.00  0.00    -0.248 NA
ATOM     61  C   UNL     1       4.510  -8.174  -0.668  1.00  0.00     0.031 C 
ATOM     62  C   UNL     1      -0.851  -6.373   0.014  1.00  0.00     0.029 A 
ATOM     63  C   UNL     1       0.257  -7.203  -0.165  1.00  0.00     0.049 A 
ATOM     64  H   UNL     1       0.717  -8.094  -2.022  1.00  0.00     0.167 HD
ATOM     65  C   UNL     1       2.467  -8.180   0.443  1.00  0.00     0.074 A 
ATOM     66  C   UNL     1       3.183  -8.199  -0.830  1.00  0.00     0.031 C 
ATOM     67  C   UNL     1       1.199  -7.782   0.767  1.00  0.00     0.037 A 
BRANCH  54  68
ATOM     68  C   UNL     1       0.919  -6.180  -4.449  1.00  0.00     0.064 A 
ATOM     69  C   UNL     1       0.023  -7.149  -4.940  1.00  0.00     0.173 A 
ATOM     70  C   UNL     1       2.169  -6.118  -5.103  1.00  0.00     0.173 A 
ATOM     71  F   UNL     1      -1.183  -7.313  -4.375  1.00  0.00    -0.203 F 
ATOM     72  C   UNL     1       0.382  -8.032  -5.963  1.00  0.00     0.198 A 
ATOM     73  C   UNL     1       2.504  -6.966  -6.155  1.00  0.00     0.198 A 
ATOM     74  F   UNL     1       3.155  -5.318  -4.679  1.00  0.00    -0.203 F 
ATOM     75  F   UNL     1      -0.456  -9.017  -6.317  1.00  0.00    -0.200 F 
ATOM     76  C   UNL     1       1.624  -7.944  -6.564  1.00  0.00     0.200 A 
ATOM     77  F   UNL     1       3.722  -6.878  -6.708  1.00  0.00    -0.200 F 
ATOM     78  F   UNL     1       1.994  -8.829  -7.499  1.00  0.00    -0.200 F 
ENDBRANCH  54  68
BRANCH  55  79
ATOM     79  C   UNL     1       7.104  -7.589   1.424  1.00  0.00     0.064 A 
ATOM     80  C   UNL     1       7.511  -8.909   1.628  1.00  0.00     0.173 A 
ATOM     81  C   UNL     1       8.115  -6.661   1.078  1.00  0.00     0.173 A 
ATOM     82  F   UNL     1       6.604  -9.851   1.921  1.00  0.00    -0.203 F 
ATOM     83  C   UNL     1       8.849  -9.287   1.485  1.00  0.00     0.198 A 
ATOM     84  C   UNL     1       9.450  -7.036   0.951  1.00  0.00     0.198 A 
ATOM     85  F   UNL     1       7.819  -5.386   0.783  1.00  0.00    -0.203 F 
ATOM     86  F   UNL     1       9.196 -10.572   1.640  1.00  0.00    -0.200 F 
ATOM     87  C   UNL     1       9.816  -8.353   1.142  1.00  0.00     0.200 A 
ATOM     88  F   UNL     1      10.368  -6.125   0.594  1.00  0.00    -0.200 F 
ATOM     89  F   UNL     1      11.089  -8.728   0.962  1.00  0.00    -0.200 F 
ENDBRANCH  55  79
BRANCH  67  90
ATOM     90  C   UNL     1       0.838  -7.694   2.226  1.00  0.00     0.064 A 
ATOM     91  C   UNL     1       1.426  -6.783   3.121  1.00  0.00     0.173 A 
ATOM     92  C   UNL     1      -0.249  -8.441   2.698  1.00  0.00     0.173 A 
ATOM     93  F   UNL     1       2.388  -5.947   2.715  1.00  0.00    -0.203 F 
ATOM     94  C   UNL     1       0.984  -6.667   4.438  1.00  0.00     0.198 A 
ATOM     95  C   UNL     1      -0.712  -8.299   4.004  1.00  0.00     0.198 A 
ATOM     96  F   UNL     1      -0.899  -9.274   1.871  1.00  0.00    -0.203 F 
ATOM     97  F   UNL     1       1.574  -5.797   5.272  1.00  0.00    -0.200 F 
ATOM     98  C   UNL     1      -0.088  -7.423   4.878  1.00  0.00     0.200 A 
ATOM     99  F   UNL     1      -1.786  -8.992   4.408  1.00  0.00    -0.200 F 
ATOM    100  F   UNL     1      -0.539  -7.286   6.133  1.00  0.00    -0.200 F 
ENDBRANCH  67  90
ENDBRANCH  41  42
ENDBRANCH  33  36
ENDBRANCH  31  32
ENDBRANCH  30  31
ENDBRANCH  29  30
ENDBRANCH   1  29
TORSDOF 16
