REMARK SMILES CC[C@](C)(NC(=O)CCOc1ccc(Cl)c(Cl)c1)C(=O)NCCCCNC(=O)c1ccc(-c2c3nc(c(-c4c(F)c(F)c(F)c(F)c4F)c4ccc([nH]4)c(-c4c(F)c(F)c(F)c(F)c4F)c4nc(c(-c5c(F)c(F)c(F)c(F)c5F)c5ccc2[nH]5)C=C4)C=C3)cc1
REMARK SMILES IDX 22 1 21 2 19 3 20 4 3 6 4 7 2 8 1 9 5 10 6 11 7 13 8 14 9 15
REMARK SMILES IDX 10 16 11 17 12 18 18 19 13 20 16 21 14 22 17 23 15 24 23 25
REMARK SMILES IDX 24 26 25 27 26 28 27 29 28 31 29 32 30 33 91 34 31 35 90 36
REMARK SMILES IDX 32 37 33 38 34 39 84 40 35 41 89 42 83 43 85 44 36 45 88 46
REMARK SMILES IDX 82 47 81 48 37 50 69 51 49 52 68 53 50 54 53 55 67 56 86 57
REMARK SMILES IDX 51 58 52 59 66 61 87 62 54 63 38 64 39 65 47 66 40 67 41 68
REMARK SMILES IDX 45 69 48 70 42 71 43 72 46 73 44 74 70 75 71 76 79 77 72 78
REMARK SMILES IDX 73 79 77 80 80 81 74 82 75 83 78 84 76 85 55 86 56 87 64 88
REMARK SMILES IDX 57 89 58 90 62 91 65 92 59 93 60 94 63 95 61 96
REMARK H PARENT 21 5 5 12 26 30 85 49 53 60
REMARK Flexibility Score: inf
ROOT
ATOM      1  C   UNL     1       2.418   1.557   5.422  1.00  0.00     0.116 C 
ENDROOT
BRANCH   1   2
ATOM      2  N   UNL     1       3.090   1.493   4.138  1.00  0.00    -0.354 N 
ATOM      3  C   UNL     1       2.612   1.175   2.901  1.00  0.00     0.245 C 
ATOM      4  O   UNL     1       3.344   1.438   1.942  1.00  0.00    -0.272 OA
ATOM      5  H   UNL     1       4.049   1.716   4.164  1.00  0.00     0.163 HD
BRANCH   3   6
ATOM      6  C   UNL     1       1.178   0.607   2.709  1.00  0.00     0.116 C 
ATOM      7  C   UNL     1       1.043   0.031   1.296  1.00  0.00     0.045 C 
BRANCH   6   8
ATOM      8  C   UNL     1       0.191   1.810   2.833  1.00  0.00     0.035 C 
ATOM      9  C   UNL     1      -1.291   1.470   2.705  1.00  0.00     0.007 C 
ENDBRANCH   6   8
BRANCH   6  10
ATOM     10  N   UNL     1       0.888  -0.418   3.738  1.00  0.00    -0.342 N 
ATOM     11  C   UNL     1       1.522  -1.574   4.080  1.00  0.00     0.224 C 
ATOM     12  H   UNL     1       0.086  -0.228   4.277  1.00  0.00     0.164 HD
ATOM     13  O   UNL     1       1.006  -2.254   4.973  1.00  0.00    -0.275 OA
BRANCH  11  14
ATOM     14  C   UNL     1       2.859  -1.970   3.493  1.00  0.00     0.141 C 
BRANCH  14  15
ATOM     15  C   UNL     1       2.859  -3.352   2.838  1.00  0.00     0.239 C 
BRANCH  15  16
ATOM     16  O   UNL     1       2.233  -3.388   1.548  1.00  0.00    -0.493 OA
BRANCH  16  17
ATOM     17  C   UNL     1       0.868  -3.419   1.486  1.00  0.00     0.120 A 
ATOM     18  C   UNL     1       0.015  -3.708   2.547  1.00  0.00     0.048 A 
ATOM     19  C   UNL     1       0.319  -3.050   0.255  1.00  0.00     0.068 A 
ATOM     20  C   UNL     1      -1.352  -3.448   2.444  1.00  0.00     0.026 A 
ATOM     21  C   UNL     1      -1.057  -2.826   0.133  1.00  0.00     0.063 A 
ATOM     22  C   UNL     1      -1.889  -2.981   1.246  1.00  0.00     0.059 A 
ATOM     23  Cl  UNL     1      -1.652  -2.277  -1.393  1.00  0.00    -0.083 Cl
ATOM     24  Cl  UNL     1      -3.566  -2.576   1.223  1.00  0.00    -0.083 Cl
ENDBRANCH  16  17
ENDBRANCH  15  16
ENDBRANCH  14  15
ENDBRANCH  11  14
ENDBRANCH   6  10
ENDBRANCH   3   6
ENDBRANCH   1   2
BRANCH   1  25
ATOM     25  C   UNL     1       2.858   0.488   6.418  1.00  0.00     0.023 C 
BRANCH  25  26
ATOM     26  C   UNL     1       4.359   0.375   6.637  1.00  0.00     0.023 C 
BRANCH  26  27
ATOM     27  C   UNL     1       5.048   1.699   6.906  1.00  0.00     0.116 C 
BRANCH  27  28
ATOM     28  N   UNL     1       4.391   2.478   7.945  1.00  0.00    -0.352 N 
ATOM     29  C   UNL     1       4.955   3.199   8.968  1.00  0.00     0.251 C 
ATOM     30  H   UNL     1       3.407   2.490   7.909  1.00  0.00     0.163 HD
ATOM     31  O   UNL     1       4.268   3.711   9.830  1.00  0.00    -0.269 OA
BRANCH  29  32
ATOM     32  C   UNL     1       6.424   3.299   9.010  1.00  0.00     0.039 A 
ATOM     33  C   UNL     1       7.081   2.968  10.194  1.00  0.00     0.014 A 
ATOM     34  C   UNL     1       7.137   3.636   7.857  1.00  0.00     0.014 A 
ATOM     35  C   UNL     1       8.472   2.925  10.207  1.00  0.00     0.010 A 
ATOM     36  C   UNL     1       8.515   3.493   7.845  1.00  0.00     0.010 A 
ATOM     37  C   UNL     1       9.195   3.154   9.024  1.00  0.00    -0.014 A 
BRANCH  37  38
ATOM     38  C   UNL     1      10.672   3.079   9.005  1.00  0.00     0.031 A 
ATOM     39  C   UNL     1      11.468   4.311   8.679  1.00  0.00     0.074 A 
ATOM     40  C   UNL     1      11.283   1.899   9.220  1.00  0.00     0.049 A 
ATOM     41  N   UNL     1      12.762   4.449   8.549  1.00  0.00    -0.248 NA
ATOM     42  C   UNL     1      10.706   5.545   8.430  1.00  0.00     0.031 C 
ATOM     43  C   UNL     1      10.603   0.630   9.490  1.00  0.00     0.029 A 
ATOM     44  N   UNL     1      12.614   1.573   9.241  1.00  0.00    -0.354 N 
ATOM     45  C   UNL     1      12.962   5.774   8.186  1.00  0.00     0.074 A 
ATOM     46  C   UNL     1      11.658   6.382   8.049  1.00  0.00     0.031 C 
ATOM     47  C   UNL     1      11.522  -0.329   9.682  1.00  0.00     0.029 A 
ATOM     48  C   UNL     1      12.852   0.247   9.509  1.00  0.00     0.049 A 
ATOM     49  H   UNL     1      13.331   2.227   9.078  1.00  0.00     0.167 HD
ATOM     50  C   UNL     1      14.132   6.432   8.014  1.00  0.00     0.037 A 
ATOM     51  C   UNL     1      14.016  -0.422   9.602  1.00  0.00     0.037 A 
ATOM     52  C   UNL     1      15.423   5.823   8.188  1.00  0.00     0.049 A 
ATOM     53  C   UNL     1      15.303   0.335   9.407  1.00  0.00     0.074 A 
ATOM     54  C   UNL     1      16.672   6.410   8.105  1.00  0.00     0.029 A 
ATOM     55  N   UNL     1      15.627   4.481   8.479  1.00  0.00    -0.354 N 
ATOM     56  N   UNL     1      15.485   1.606   9.142  1.00  0.00    -0.248 NA
ATOM     57  C   UNL     1      16.547  -0.436   9.532  1.00  0.00     0.031 C 
ATOM     58  C   UNL     1      17.633   5.413   8.294  1.00  0.00     0.029 A 
ATOM     59  C   UNL     1      16.983   4.216   8.554  1.00  0.00     0.049 A 
ATOM     60  H   UNL     1      14.912   3.817   8.612  1.00  0.00     0.167 HD
ATOM     61  C   UNL     1      16.859   1.795   9.099  1.00  0.00     0.074 A 
ATOM     62  C   UNL     1      17.463   0.509   9.383  1.00  0.00     0.031 C 
ATOM     63  C   UNL     1      17.560   2.928   8.848  1.00  0.00     0.037 A 
BRANCH  50  64
ATOM     64  C   UNL     1      14.065   7.880   7.625  1.00  0.00     0.064 A 
ATOM     65  C   UNL     1      13.584   8.861   8.506  1.00  0.00     0.173 A 
ATOM     66  C   UNL     1      14.509   8.297   6.361  1.00  0.00     0.173 A 
ATOM     67  F   UNL     1      13.132   8.515   9.721  1.00  0.00    -0.203 F 
ATOM     68  C   UNL     1      13.521  10.199   8.126  1.00  0.00     0.198 A 
ATOM     69  C   UNL     1      14.477   9.641   5.997  1.00  0.00     0.198 A 
ATOM     70  F   UNL     1      14.979   7.402   5.479  1.00  0.00    -0.203 F 
ATOM     71  F   UNL     1      13.005  11.108   8.965  1.00  0.00    -0.200 F 
ATOM     72  C   UNL     1      13.975  10.589   6.876  1.00  0.00     0.200 A 
ATOM     73  F   UNL     1      14.928  10.018   4.793  1.00  0.00    -0.200 F 
ATOM     74  F   UNL     1      13.922  11.878   6.514  1.00  0.00    -0.200 F 
ENDBRANCH  50  64
BRANCH  51  75
ATOM     75  C   UNL     1      14.020  -1.873   9.922  1.00  0.00     0.064 A 
ATOM     76  C   UNL     1      14.515  -2.337  11.149  1.00  0.00     0.173 A 
ATOM     77  C   UNL     1      13.537  -2.826   9.014  1.00  0.00     0.173 A 
ATOM     78  F   UNL     1      15.004  -1.468  12.046  1.00  0.00    -0.203 F 
ATOM     79  C   UNL     1      14.553  -3.699  11.443  1.00  0.00     0.198 A 
ATOM     80  C   UNL     1      13.546  -4.185   9.321  1.00  0.00     0.198 A 
ATOM     81  F   UNL     1      13.043  -2.435   7.829  1.00  0.00    -0.203 F 
ATOM     82  F   UNL     1      15.079  -4.117  12.603  1.00  0.00    -0.200 F 
ATOM     83  C   UNL     1      14.063  -4.621  10.531  1.00  0.00     0.200 A 
ATOM     84  F   UNL     1      13.056  -5.072   8.444  1.00  0.00    -0.200 F 
ATOM     85  F   UNL     1      14.097  -5.930  10.815  1.00  0.00    -0.200 F 
ENDBRANCH  51  75
BRANCH  63  86
ATOM     86  C   UNL     1      19.057   2.837   8.908  1.00  0.00     0.064 A 
ATOM     87  C   UNL     1      19.795   2.160   7.927  1.00  0.00     0.173 A 
ATOM     88  C   UNL     1      19.763   3.476   9.940  1.00  0.00     0.173 A 
ATOM     89  F   UNL     1      19.165   1.522   6.929  1.00  0.00    -0.203 F 
ATOM     90  C   UNL     1      21.184   2.102   7.992  1.00  0.00     0.198 A 
ATOM     91  C   UNL     1      21.153   3.445   9.982  1.00  0.00     0.198 A 
ATOM     92  F   UNL     1      19.104   4.145  10.898  1.00  0.00    -0.203 F 
ATOM     93  F   UNL     1      21.866   1.405   7.072  1.00  0.00    -0.200 F 
ATOM     94  C   UNL     1      21.862   2.751   9.013  1.00  0.00     0.200 A 
ATOM     95  F   UNL     1      21.806   4.087  10.959  1.00  0.00    -0.200 F 
ATOM     96  F   UNL     1      23.200   2.702   9.068  1.00  0.00    -0.200 F 
ENDBRANCH  63  86
ENDBRANCH  37  38
ENDBRANCH  29  32
ENDBRANCH  27  28
ENDBRANCH  26  27
ENDBRANCH  25  26
ENDBRANCH   1  25
TORSDOF 17
