REMARK SMILES C[C@@H](CC(=O)NCCCCNC(=O)c1ccc(-c2c3nc(c(-c4c(F)c(F)c(F)c(F)c4F)c4ccc([nH]4)c(-c4c(F)c(F)c(F)c(F)c4F)c4nc(c(-c5c(F)c(F)c(F)c(F)c5F)c5ccc2[nH]5)C=C4)C=C3)cc1)NC(=O)/C=C/c1cccnc1
REMARK SMILES IDX 7 1 6 2 4 3 5 4 3 6 2 7 1 8 77 9 78 10 79 12 80 13 81 14
REMARK SMILES IDX 82 15 83 16 87 17 84 18 86 19 85 20 8 21 9 22 10 23 11 24
REMARK SMILES IDX 12 25 13 27 14 28 15 29 76 30 16 31 75 32 17 33 18 34 19 35
REMARK SMILES IDX 69 36 20 37 74 38 68 39 70 40 21 41 73 42 67 43 66 44 22 46
REMARK SMILES IDX 54 47 34 48 53 49 35 50 38 51 52 52 71 53 36 54 37 55 51 57
REMARK SMILES IDX 72 58 39 59 23 60 24 61 32 62 25 63 26 64 30 65 33 66 27 67
REMARK SMILES IDX 28 68 31 69 29 70 55 71 56 72 64 73 57 74 58 75 62 76 65 77
REMARK SMILES IDX 59 78 60 79 63 80 61 81 40 82 41 83 49 84 42 85 43 86 47 87
REMARK SMILES IDX 50 88 44 89 45 90 48 91 46 92
REMARK H PARENT 6 5 77 11 11 26 70 45 38 56
REMARK Flexibility Score: inf
ROOT
ATOM      1  C   UNL     1       1.583  -1.545   1.773  1.00  0.00     0.116 C 
ENDROOT
BRANCH   1   2
ATOM      2  N   UNL     1       0.627  -2.536   1.330  1.00  0.00    -0.356 N 
ATOM      3  C   UNL     1       0.137  -2.761   0.081  1.00  0.00     0.222 C 
ATOM      4  O   UNL     1      -0.872  -3.458  -0.029  1.00  0.00    -0.275 OA
ATOM      5  H   UNL     1       0.282  -3.133   2.032  1.00  0.00     0.163 HD
BRANCH   3   6
ATOM      6  C   UNL     1       0.847  -2.221  -1.142  1.00  0.00     0.124 C 
BRANCH   6   7
ATOM      7  C   UNL     1       0.396  -0.861  -1.695  1.00  0.00     0.088 C 
ATOM      8  C   UNL     1       0.815   0.325  -0.831  1.00  0.00     0.031 C 
BRANCH   7   9
ATOM      9  N   UNL     1      -1.034  -0.768  -1.962  1.00  0.00    -0.350 N 
ATOM     10  C   UNL     1      -1.725  -0.045  -2.888  1.00  0.00     0.244 C 
ATOM     11  H   UNL     1      -1.596  -1.321  -1.373  1.00  0.00     0.164 HD
ATOM     12  O   UNL     1      -2.954  -0.015  -2.826  1.00  0.00    -0.270 OA
BRANCH  10  13
ATOM     13  C   UNL     1      -1.058   0.633  -4.035  1.00  0.00     0.072 C 
ATOM     14  C   UNL     1       0.155   1.198  -4.054  1.00  0.00     0.015 C 
BRANCH  14  15
ATOM     15  C   UNL     1       0.803   1.789  -5.215  1.00  0.00    -0.007 A 
ATOM     16  C   UNL     1       0.503   3.075  -5.651  1.00  0.00     0.011 A 
ATOM     17  C   UNL     1       1.866   1.121  -5.820  1.00  0.00     0.119 A 
ATOM     18  C   UNL     1       1.278   3.643  -6.659  1.00  0.00     0.021 A 
ATOM     19  N   UNL     1       2.630   1.646  -6.802  1.00  0.00    -0.264 NA
ATOM     20  C   UNL     1       2.320   2.900  -7.194  1.00  0.00     0.111 A 
ENDBRANCH  14  15
ENDBRANCH  10  13
ENDBRANCH   7   9
ENDBRANCH   6   7
ENDBRANCH   3   6
ENDBRANCH   1   2
BRANCH   1  21
ATOM     21  C   UNL     1       0.849  -0.376   2.437  1.00  0.00     0.023 C 
BRANCH  21  22
ATOM     22  C   UNL     1       0.388  -0.633   3.861  1.00  0.00     0.023 C 
BRANCH  22  23
ATOM     23  C   UNL     1       1.509  -0.945   4.825  1.00  0.00     0.116 C 
BRANCH  23  24
ATOM     24  N   UNL     1       2.520   0.098   4.893  1.00  0.00    -0.352 N 
ATOM     25  C   UNL     1       3.191   0.551   6.006  1.00  0.00     0.251 C 
ATOM     26  H   UNL     1       2.752   0.533   4.041  1.00  0.00     0.163 HD
ATOM     27  O   UNL     1       3.933   1.516   5.946  1.00  0.00    -0.269 OA
BRANCH  25  28
ATOM     28  C   UNL     1       2.955  -0.144   7.288  1.00  0.00     0.039 A 
ATOM     29  C   UNL     1       2.658   0.612   8.422  1.00  0.00     0.014 A 
ATOM     30  C   UNL     1       2.948  -1.540   7.338  1.00  0.00     0.014 A 
ATOM     31  C   UNL     1       2.310  -0.043   9.602  1.00  0.00     0.010 A 
ATOM     32  C   UNL     1       2.483  -2.183   8.474  1.00  0.00     0.010 A 
ATOM     33  C   UNL     1       2.196  -1.444   9.629  1.00  0.00    -0.014 A 
BRANCH  33  34
ATOM     34  C   UNL     1       1.847  -2.160  10.878  1.00  0.00     0.031 A 
ATOM     35  C   UNL     1       2.837  -3.118  11.482  1.00  0.00     0.074 A 
ATOM     36  C   UNL     1       0.637  -1.980  11.439  1.00  0.00     0.049 A 
ATOM     37  N   UNL     1       2.729  -3.853  12.559  1.00  0.00    -0.248 NA
ATOM     38  C   UNL     1       4.106  -3.308  10.757  1.00  0.00     0.031 C 
ATOM     39  C   UNL     1      -0.432  -1.137  10.902  1.00  0.00     0.029 A 
ATOM     40  N   UNL     1       0.104  -2.497  12.592  1.00  0.00    -0.354 N 
ATOM     41  C   UNL     1       3.899  -4.598  12.624  1.00  0.00     0.074 A 
ATOM     42  C   UNL     1       4.668  -4.291  11.441  1.00  0.00     0.031 C 
ATOM     43  C   UNL     1      -1.477  -1.160  11.746  1.00  0.00     0.029 A 
ATOM     44  C   UNL     1      -1.161  -2.038  12.867  1.00  0.00     0.049 A 
ATOM     45  H   UNL     1       0.583  -3.137  13.168  1.00  0.00     0.167 HD
ATOM     46  C   UNL     1       4.317  -5.431  13.605  1.00  0.00     0.037 A 
ATOM     47  C   UNL     1      -1.963  -2.291  13.918  1.00  0.00     0.037 A 
ATOM     48  C   UNL     1       3.567  -5.696  14.802  1.00  0.00     0.049 A 
ATOM     49  C   UNL     1      -1.459  -3.190  15.016  1.00  0.00     0.074 A 
ATOM     50  C   UNL     1       3.921  -6.469  15.891  1.00  0.00     0.029 A 
ATOM     51  N   UNL     1       2.304  -5.183  15.065  1.00  0.00    -0.354 N 
ATOM     52  N   UNL     1      -0.315  -3.823  15.110  1.00  0.00    -0.248 NA
ATOM     53  C   UNL     1      -2.354  -3.394  16.163  1.00  0.00     0.031 C 
ATOM     54  C   UNL     1       2.855  -6.457  16.797  1.00  0.00     0.029 A 
ATOM     55  C   UNL     1       1.858  -5.635  16.295  1.00  0.00     0.049 A 
ATOM     56  H   UNL     1       1.800  -4.586  14.465  1.00  0.00     0.167 HD
ATOM     57  C   UNL     1      -0.339  -4.476  16.334  1.00  0.00     0.074 A 
ATOM     58  C   UNL     1      -1.604  -4.143  16.957  1.00  0.00     0.031 C 
ATOM     59  C   UNL     1       0.597  -5.283  16.895  1.00  0.00     0.037 A 
BRANCH  46  60
ATOM     60  C   UNL     1       5.651  -6.096  13.425  1.00  0.00     0.064 A 
ATOM     61  C   UNL     1       6.850  -5.365  13.456  1.00  0.00     0.173 A 
ATOM     62  C   UNL     1       5.736  -7.482  13.227  1.00  0.00     0.173 A 
ATOM     63  F   UNL     1       6.825  -4.034  13.623  1.00  0.00    -0.203 F 
ATOM     64  C   UNL     1       8.078  -5.990  13.259  1.00  0.00     0.198 A 
ATOM     65  C   UNL     1       6.969  -8.110  13.066  1.00  0.00     0.198 A 
ATOM     66  F   UNL     1       4.623  -8.230  13.189  1.00  0.00    -0.203 F 
ATOM     67  F   UNL     1       9.202  -5.261  13.230  1.00  0.00    -0.200 F 
ATOM     68  C   UNL     1       8.137  -7.363  13.072  1.00  0.00     0.200 A 
ATOM     69  F   UNL     1       7.026  -9.438  12.895  1.00  0.00    -0.200 F 
ATOM     70  F   UNL     1       9.320  -7.964  12.887  1.00  0.00    -0.200 F 
ENDBRANCH  46  60
BRANCH  47  71
ATOM     71  C   UNL     1      -3.298  -1.644  14.010  1.00  0.00     0.064 A 
ATOM     72  C   UNL     1      -3.554  -0.656  14.972  1.00  0.00     0.173 A 
ATOM     73  C   UNL     1      -4.345  -2.001  13.148  1.00  0.00     0.173 A 
ATOM     74  F   UNL     1      -2.589  -0.292  15.831  1.00  0.00    -0.203 F 
ATOM     75  C   UNL     1      -4.813  -0.070  15.087  1.00  0.00     0.198 A 
ATOM     76  C   UNL     1      -5.595  -1.393  13.245  1.00  0.00     0.198 A 
ATOM     77  F   UNL     1      -4.149  -2.933  12.205  1.00  0.00    -0.203 F 
ATOM     78  F   UNL     1      -5.043   0.835  16.048  1.00  0.00    -0.200 F 
ATOM     79  C   UNL     1      -5.831  -0.435  14.220  1.00  0.00     0.200 A 
ATOM     80  F   UNL     1      -6.572  -1.737  12.395  1.00  0.00    -0.200 F 
ATOM     81  F   UNL     1      -7.041   0.130  14.329  1.00  0.00    -0.200 F 
ENDBRANCH  47  71
BRANCH  59  82
ATOM     82  C   UNL     1       0.297  -5.829  18.260  1.00  0.00     0.064 A 
ATOM     83  C   UNL     1      -0.688  -6.806  18.463  1.00  0.00     0.173 A 
ATOM     84  C   UNL     1       1.023  -5.384  19.376  1.00  0.00     0.173 A 
ATOM     85  F   UNL     1      -1.418  -7.253  17.430  1.00  0.00    -0.203 F 
ATOM     86  C   UNL     1      -0.963  -7.290  19.738  1.00  0.00     0.198 A 
ATOM     87  C   UNL     1       0.770  -5.896  20.645  1.00  0.00     0.198 A 
ATOM     88  F   UNL     1       1.984  -4.459  19.233  1.00  0.00    -0.203 F 
ATOM     89  F   UNL     1      -1.950  -8.178  19.917  1.00  0.00    -0.200 F 
ATOM     90  C   UNL     1      -0.230  -6.839  20.827  1.00  0.00     0.200 A 
ATOM     91  F   UNL     1       1.489  -5.471  21.692  1.00  0.00    -0.200 F 
ATOM     92  F   UNL     1      -0.495  -7.308  22.054  1.00  0.00    -0.200 F 
ENDBRANCH  59  82
ENDBRANCH  33  34
ENDBRANCH  25  28
ENDBRANCH  23  24
ENDBRANCH  22  23
ENDBRANCH  21  22
ENDBRANCH   1  21
TORSDOF 15
