REMARK SMILES O=C(NCCCCNC(=O)[C@@H](NC(=O)c1cscn1)c1ccccc1C(F)(F)F)c1ccc(-c2c3nc(c(-c4c(F)c(F)c(F)c(F)c4F)c4ccc([nH]4)c(-c4c(F)c(F)c(F)c(F)c4F)c4nc(c(-c5c(F)c(F)c(F)c(F)c5F)c5ccc2[nH]5)C=C4)C=C3)cc1
REMARK SMILES IDX 5 1 4 2 3 3 1 4 2 5 30 7 31 8 92 9 32 10 91 11 33 12 34 13
REMARK SMILES IDX 35 14 85 15 36 16 90 17 84 18 86 19 37 20 89 21 83 22 82 23
REMARK SMILES IDX 38 25 70 26 50 27 69 28 51 29 54 30 68 31 87 32 52 33 53 34
REMARK SMILES IDX 67 36 88 37 55 38 39 39 40 40 48 41 41 42 42 43 46 44 49 45
REMARK SMILES IDX 43 46 44 47 47 48 45 49 71 50 72 51 80 52 73 53 74 54 78 55
REMARK SMILES IDX 81 56 75 57 76 58 79 59 77 60 56 61 57 62 65 63 58 64 59 65
REMARK SMILES IDX 63 66 66 67 60 68 61 69 64 70 62 71 6 72 7 73 8 74 9 75
REMARK SMILES IDX 10 77 11 78 12 79 13 80 14 82 15 83 16 84 19 85 17 86 18 87
REMARK SMILES IDX 20 88 21 89 25 90 22 91 24 92 23 93 26 94 27 95 28 96 29 97
REMARK H PARENT 3 6 86 24 54 35 8 76 12 81
REMARK Flexibility Score: inf
ROOT
ATOM      1  C   UNL     1       4.691   1.554   2.175  1.00  0.00     0.023 C 
ENDROOT
BRANCH   1   2
ATOM      2  C   UNL     1       4.405   0.428   1.195  1.00  0.00     0.116 C 
BRANCH   2   3
ATOM      3  N   UNL     1       2.990   0.113   1.101  1.00  0.00    -0.352 N 
ATOM      4  O   UNL     1       1.018  -0.184   0.035  1.00  0.00    -0.269 OA
ATOM      5  C   UNL     1       2.229  -0.069  -0.034  1.00  0.00     0.251 C 
ATOM      6  H   UNL     1       2.514   0.017   1.957  1.00  0.00     0.163 HD
BRANCH   5   7
ATOM      7  C   UNL     1       2.916  -0.097  -1.339  1.00  0.00     0.039 A 
ATOM      8  C   UNL     1       4.061  -0.878  -1.509  1.00  0.00     0.014 A 
ATOM      9  C   UNL     1       2.434   0.697  -2.381  1.00  0.00     0.014 A 
ATOM     10  C   UNL     1       4.805  -0.759  -2.673  1.00  0.00     0.010 A 
ATOM     11  C   UNL     1       3.134   0.743  -3.589  1.00  0.00     0.010 A 
ATOM     12  C   UNL     1       4.337   0.034  -3.734  1.00  0.00    -0.014 A 
BRANCH  12  13
ATOM     13  C   UNL     1       5.088   0.040  -5.012  1.00  0.00     0.031 A 
ATOM     14  C   UNL     1       5.741   1.288  -5.530  1.00  0.00     0.074 A 
ATOM     15  C   UNL     1       5.191  -1.118  -5.692  1.00  0.00     0.049 A 
ATOM     16  N   UNL     1       6.433   1.459  -6.629  1.00  0.00    -0.248 NA
ATOM     17  C   UNL     1       5.595   2.505  -4.718  1.00  0.00     0.031 C 
ATOM     18  C   UNL     1       4.589  -2.389  -5.281  1.00  0.00     0.029 A 
ATOM     19  N   UNL     1       5.848  -1.423  -6.855  1.00  0.00    -0.354 N 
ATOM     20  C   UNL     1       6.791   2.800  -6.650  1.00  0.00     0.074 A 
ATOM     21  C   UNL     1       6.217   3.407  -5.467  1.00  0.00     0.031 C 
ATOM     22  C   UNL     1       4.942  -3.345  -6.151  1.00  0.00     0.029 A 
ATOM     23  C   UNL     1       5.733  -2.742  -7.216  1.00  0.00     0.049 A 
ATOM     24  H   UNL     1       6.353  -0.760  -7.380  1.00  0.00     0.167 HD
ATOM     25  C   UNL     1       7.536   3.457  -7.572  1.00  0.00     0.037 A 
ATOM     26  C   UNL     1       6.193  -3.392  -8.300  1.00  0.00     0.037 A 
ATOM     27  C   UNL     1       8.109   2.838  -8.741  1.00  0.00     0.049 A 
ATOM     28  C   UNL     1       6.983  -2.628  -9.321  1.00  0.00     0.074 A 
ATOM     29  C   UNL     1       8.905   3.410  -9.718  1.00  0.00     0.029 A 
ATOM     30  N   UNL     1       7.943   1.506  -9.093  1.00  0.00    -0.354 N 
ATOM     31  N   UNL     1       7.340  -1.367  -9.315  1.00  0.00    -0.248 NA
ATOM     32  C   UNL     1       7.430  -3.376 -10.502  1.00  0.00     0.031 C 
ATOM     33  C   UNL     1       9.177   2.438 -10.688  1.00  0.00     0.029 A 
ATOM     34  C   UNL     1       8.599   1.245 -10.287  1.00  0.00     0.049 A 
ATOM     35  H   UNL     1       7.434   0.843  -8.572  1.00  0.00     0.167 HD
ATOM     36  C   UNL     1       8.070  -1.173 -10.478  1.00  0.00     0.074 A 
ATOM     37  C   UNL     1       8.122  -2.453 -11.155  1.00  0.00     0.031 C 
ATOM     38  C   UNL     1       8.641  -0.036 -10.946  1.00  0.00     0.037 A 
BRANCH  25  39
ATOM     39  C   UNL     1       7.761   4.929  -7.371  1.00  0.00     0.064 A 
ATOM     40  C   UNL     1       8.598   5.417  -6.356  1.00  0.00     0.173 A 
ATOM     41  C   UNL     1       7.176   5.862  -8.241  1.00  0.00     0.173 A 
ATOM     42  F   UNL     1       9.175   4.569  -5.490  1.00  0.00    -0.203 F 
ATOM     43  C   UNL     1       8.822   6.784  -6.206  1.00  0.00     0.198 A 
ATOM     44  C   UNL     1       7.426   7.226  -8.107  1.00  0.00     0.198 A 
ATOM     45  F   UNL     1       6.374   5.450  -9.234  1.00  0.00    -0.203 F 
ATOM     46  F   UNL     1       9.593   7.229  -5.204  1.00  0.00    -0.200 F 
ATOM     47  C   UNL     1       8.243   7.686  -7.086  1.00  0.00     0.200 A 
ATOM     48  F   UNL     1       6.877   8.094  -8.967  1.00  0.00    -0.200 F 
ATOM     49  F   UNL     1       8.469   9.000  -6.947  1.00  0.00    -0.200 F 
ENDBRANCH  25  39
BRANCH  26  50
ATOM     50  C   UNL     1       5.906  -4.840  -8.468  1.00  0.00     0.064 A 
ATOM     51  C   UNL     1       6.931  -5.791  -8.394  1.00  0.00     0.173 A 
ATOM     52  C   UNL     1       4.600  -5.301  -8.688  1.00  0.00     0.173 A 
ATOM     53  F   UNL     1       8.199  -5.397  -8.200  1.00  0.00    -0.203 F 
ATOM     54  C   UNL     1       6.663  -7.149  -8.551  1.00  0.00     0.198 A 
ATOM     55  C   UNL     1       4.329  -6.661  -8.812  1.00  0.00     0.198 A 
ATOM     56  F   UNL     1       3.582  -4.431  -8.758  1.00  0.00    -0.203 F 
ATOM     57  F   UNL     1       7.668  -8.035  -8.518  1.00  0.00    -0.200 F 
ATOM     58  C   UNL     1       5.362  -7.584  -8.752  1.00  0.00     0.200 A 
ATOM     59  F   UNL     1       3.067  -7.077  -8.986  1.00  0.00    -0.200 F 
ATOM     60  F   UNL     1       5.104  -8.891  -8.893  1.00  0.00    -0.200 F 
ENDBRANCH  26  50
BRANCH  38  61
ATOM     61  C   UNL     1       9.400  -0.138 -12.236  1.00  0.00     0.064 A 
ATOM     62  C   UNL     1       8.745  -0.318 -13.464  1.00  0.00     0.173 A 
ATOM     63  C   UNL     1      10.799  -0.033 -12.246  1.00  0.00     0.173 A 
ATOM     64  F   UNL     1       7.410  -0.444 -13.505  1.00  0.00    -0.203 F 
ATOM     65  C   UNL     1       9.466  -0.419 -14.650  1.00  0.00     0.198 A 
ATOM     66  C   UNL     1      11.514  -0.102 -13.438  1.00  0.00     0.198 A 
ATOM     67  F   UNL     1      11.473   0.144 -11.100  1.00  0.00    -0.203 F 
ATOM     68  F   UNL     1       8.824  -0.646 -15.805  1.00  0.00    -0.200 F 
ATOM     69  C   UNL     1      10.848  -0.303 -14.638  1.00  0.00     0.200 A 
ATOM     70  F   UNL     1      12.848   0.023 -13.426  1.00  0.00    -0.200 F 
ATOM     71  F   UNL     1      11.540  -0.396 -15.782  1.00  0.00    -0.200 F 
ENDBRANCH  38  61
ENDBRANCH  12  13
ENDBRANCH   5   7
ENDBRANCH   2   3
ENDBRANCH   1   2
BRANCH   1  72
ATOM     72  C   UNL     1       4.230   1.273   3.603  1.00  0.00     0.023 C 
BRANCH  72  73
ATOM     73  C   UNL     1       4.840   0.014   4.222  1.00  0.00     0.116 C 
BRANCH  73  74
ATOM     74  N   UNL     1       6.235   0.238   4.529  1.00  0.00    -0.354 N 
ATOM     75  C   UNL     1       6.821   0.351   5.755  1.00  0.00     0.247 C 
ATOM     76  H   UNL     1       6.838   0.320   3.755  1.00  0.00     0.163 HD
ATOM     77  O   UNL     1       7.878   0.985   5.819  1.00  0.00    -0.272 OA
BRANCH  75  78
ATOM     78  C   UNL     1       6.151  -0.233   7.035  1.00  0.00     0.203 C 
BRANCH  78  79
ATOM     79  N   UNL     1       5.274   0.811   7.638  1.00  0.00    -0.335 N 
ATOM     80  C   UNL     1       4.046   1.274   7.221  1.00  0.00     0.271 C 
ATOM     81  H   UNL     1       5.625   1.231   8.456  1.00  0.00     0.165 HD
ATOM     82  O   UNL     1       3.974   2.313   6.571  1.00  0.00    -0.267 OA
BRANCH  80  83
ATOM     83  C   UNL     1       2.841   0.575   7.675  1.00  0.00     0.139 A 
ATOM     84  C   UNL     1       1.706   0.412   6.896  1.00  0.00     0.100 A 
ATOM     85  N   UNL     1       2.745   0.003   8.948  1.00  0.00    -0.240 NA
ATOM     86  S   UNL     1       0.557  -0.569   7.710  1.00  0.00    -0.130 S 
ATOM     87  C   UNL     1       1.599  -0.633   9.069  1.00  0.00     0.176 A 
ENDBRANCH  80  83
ENDBRANCH  78  79
BRANCH  78  88
ATOM     88  C   UNL     1       5.764  -1.717   6.897  1.00  0.00    -0.004 A 
ATOM     89  C   UNL     1       4.491  -2.178   7.239  1.00  0.00     0.007 A 
ATOM     90  C   UNL     1       6.673  -2.717   6.446  1.00  0.00     0.061 A 
ATOM     91  C   UNL     1       4.039  -3.477   6.997  1.00  0.00     0.000 A 
ATOM     92  C   UNL     1       6.205  -4.032   6.185  1.00  0.00     0.013 A 
ATOM     93  C   UNL     1       4.891  -4.403   6.434  1.00  0.00     0.001 A 
BRANCH  90  94
ATOM     94  C   UNL     1       8.165  -2.518   6.245  1.00  0.00     0.416 C 
ATOM     95  F   UNL     1       8.889  -3.565   6.740  1.00  0.00    -0.166 F 
ATOM     96  F   UNL     1       8.500  -2.428   4.929  1.00  0.00    -0.166 F 
ATOM     97  F   UNL     1       8.674  -1.420   6.855  1.00  0.00    -0.166 F 
ENDBRANCH  90  94
ENDBRANCH  78  88
ENDBRANCH  75  78
ENDBRANCH  73  74
ENDBRANCH  72  73
ENDBRANCH   1  72
TORSDOF 15
