REMARK SMILES CC[C@@H]1CCC[C@@](Cc2ccccn2)(C(=O)NCCCCNC(=O)c2ccc(-c3c4nc(c(-c5c(F)c(F)c(F)c(F)c5F)c5ccc([nH]5)c(-c5c(F)c(F)c(F)c(F)c5F)c5nc(c(-c6c(F)c(F)c(F)c(F)c6F)c6ccc3[nH]6)C=C5)C=C4)cc2)C1
REMARK SMILES IDX 19 1 18 2 17 3 15 4 16 5 7 7 3 8 4 9 88 10 5 11 6 12 2 13
REMARK SMILES IDX 1 14 8 15 9 16 10 17 14 18 11 19 13 20 12 21 20 22 21 23
REMARK SMILES IDX 22 24 23 25 24 27 25 28 26 29 87 30 27 31 86 32 28 33 29 34
REMARK SMILES IDX 30 35 80 36 31 37 85 38 79 39 81 40 32 41 84 42 78 43 77 44
REMARK SMILES IDX 33 46 65 47 45 48 64 49 46 50 49 51 63 52 82 53 47 54 48 55
REMARK SMILES IDX 62 57 83 58 50 59 34 60 35 61 43 62 36 63 37 64 41 65 44 66
REMARK SMILES IDX 38 67 39 68 42 69 40 70 66 71 67 72 75 73 68 74 69 75 73 76
REMARK SMILES IDX 76 77 70 78 71 79 74 80 72 81 51 82 52 83 60 84 53 85 54 86
REMARK SMILES IDX 58 87 61 88 55 89 56 90 59 91 57 92
REMARK H PARENT 17 6 22 26 81 45 49 56
REMARK Flexibility Score: inf
ROOT
ATOM      1  C   UNL     1       2.850  -1.427   7.832  1.00  0.00     0.023 C 
ENDROOT
BRANCH   1   2
ATOM      2  C   UNL     1       2.376  -0.171   7.116  1.00  0.00     0.116 C 
BRANCH   2   3
ATOM      3  N   UNL     1       2.891  -0.028   5.771  1.00  0.00    -0.356 N 
ATOM      4  C   UNL     1       2.291   0.334   4.605  1.00  0.00     0.226 C 
ATOM      5  O   UNL     1       3.070   0.696   3.715  1.00  0.00    -0.274 OA
ATOM      6  H   UNL     1       3.851  -0.229   5.684  1.00  0.00     0.163 HD
BRANCH   4   7
ATOM      7  C   UNL     1       0.755   0.355   4.371  1.00  0.00     0.055 C 
ATOM      8  C   UNL     1       0.901  -1.022   2.138  1.00  0.00    -0.010 C 
ATOM      9  C   UNL     1       0.290  -2.231   2.861  1.00  0.00     0.003 C 
ATOM     10  C   UNL     1       0.503   0.306   2.817  1.00  0.00     0.021 C 
ATOM     11  C   UNL     1       0.491  -2.179   4.369  1.00  0.00     0.001 C 
ATOM     12  C   UNL     1      -0.015  -0.856   4.941  1.00  0.00     0.017 C 
BRANCH   8  13
ATOM     13  C   UNL     1       0.480  -1.064   0.653  1.00  0.00     0.000 C 
ATOM     14  C   UNL     1       1.060   0.056  -0.196  1.00  0.00     0.004 C 
ENDBRANCH   8  13
BRANCH   7  15
ATOM     15  C   UNL     1       0.168   1.727   4.828  1.00  0.00     0.073 C 
BRANCH  15  16
ATOM     16  C   UNL     1       0.367   2.160   6.258  1.00  0.00     0.041 A 
ATOM     17  C   UNL     1       1.404   3.029   6.598  1.00  0.00     0.024 A 
ATOM     18  N   UNL     1      -0.493   1.666   7.182  1.00  0.00    -0.261 NA
ATOM     19  C   UNL     1       1.580   3.380   7.935  1.00  0.00     0.003 A 
ATOM     20  C   UNL     1      -0.308   2.036   8.470  1.00  0.00     0.111 A 
ATOM     21  C   UNL     1       0.712   2.871   8.893  1.00  0.00     0.020 A 
ENDBRANCH  15  16
ENDBRANCH   7  15
ENDBRANCH   4   7
ENDBRANCH   2   3
ENDBRANCH   1   2
BRANCH   1  22
ATOM     22  C   UNL     1       4.298  -1.384   8.319  1.00  0.00     0.023 C 
BRANCH  22  23
ATOM     23  C   UNL     1       4.715  -0.130   9.085  1.00  0.00     0.116 C 
BRANCH  23  24
ATOM     24  N   UNL     1       3.826   0.228  10.182  1.00  0.00    -0.352 N 
ATOM     25  C   UNL     1       4.151   0.767  11.405  1.00  0.00     0.251 C 
ATOM     26  H   UNL     1       2.867   0.064  10.028  1.00  0.00     0.163 HD
ATOM     27  O   UNL     1       3.285   1.002  12.242  1.00  0.00    -0.269 OA
BRANCH  25  28
ATOM     28  C   UNL     1       5.571   1.018  11.717  1.00  0.00     0.039 A 
ATOM     29  C   UNL     1       6.130   0.414  12.846  1.00  0.00     0.014 A 
ATOM     30  C   UNL     1       6.361   1.779  10.852  1.00  0.00     0.014 A 
ATOM     31  C   UNL     1       7.506   0.498  13.060  1.00  0.00     0.010 A 
ATOM     32  C   UNL     1       7.740   1.812  11.034  1.00  0.00     0.010 A 
ATOM     33  C   UNL     1       8.327   1.157  12.130  1.00  0.00    -0.014 A 
BRANCH  33  34
ATOM     34  C   UNL     1       9.805   1.144  12.263  1.00  0.00     0.031 A 
ATOM     35  C   UNL     1      10.553   2.421  12.515  1.00  0.00     0.074 A 
ATOM     36  C   UNL     1      10.479  -0.007  12.073  1.00  0.00     0.049 A 
ATOM     37  N   UNL     1      11.844   2.626  12.580  1.00  0.00    -0.248 NA
ATOM     38  C   UNL     1       9.742   3.636  12.689  1.00  0.00     0.031 C 
ATOM     39  C   UNL     1       9.871  -1.303  11.769  1.00  0.00     0.029 A 
ATOM     40  N   UNL     1      11.826  -0.270  12.093  1.00  0.00    -0.354 N 
ATOM     41  C   UNL     1      12.000   3.989  12.785  1.00  0.00     0.074 A 
ATOM     42  C   UNL     1      10.675   4.571  12.789  1.00  0.00     0.031 C 
ATOM     43  C   UNL     1      10.839  -2.226  11.647  1.00  0.00     0.029 A 
ATOM     44  C   UNL     1      12.136  -1.582  11.832  1.00  0.00     0.049 A 
ATOM     45  H   UNL     1      12.506   0.418  12.277  1.00  0.00     0.167 HD
ATOM     46  C   UNL     1      13.144   4.689  12.974  1.00  0.00     0.037 A 
ATOM     47  C   UNL     1      13.332  -2.195  11.747  1.00  0.00     0.037 A 
ATOM     48  C   UNL     1      14.459   4.104  12.998  1.00  0.00     0.049 A 
ATOM     49  C   UNL     1      14.586  -1.396  11.970  1.00  0.00     0.074 A 
ATOM     50  C   UNL     1      15.672   4.719  13.252  1.00  0.00     0.029 A 
ATOM     51  N   UNL     1      14.731   2.765  12.760  1.00  0.00    -0.354 N 
ATOM     52  N   UNL     1      14.718  -0.120  12.237  1.00  0.00    -0.248 NA
ATOM     53  C   UNL     1      15.860  -2.125  11.886  1.00  0.00     0.031 C 
ATOM     54  C   UNL     1      16.683   3.760  13.129  1.00  0.00     0.029 A 
ATOM     55  C   UNL     1      16.096   2.539  12.841  1.00  0.00     0.049 A 
ATOM     56  H   UNL     1      14.055   2.078  12.561  1.00  0.00     0.167 HD
ATOM     57  C   UNL     1      16.080   0.102  12.380  1.00  0.00     0.074 A 
ATOM     58  C   UNL     1      16.735  -1.174  12.181  1.00  0.00     0.031 C 
ATOM     59  C   UNL     1      16.730   1.260  12.651  1.00  0.00     0.037 A 
BRANCH  46  60
ATOM     60  C   UNL     1      13.022   6.170  13.175  1.00  0.00     0.064 A 
ATOM     61  C   UNL     1      12.492   6.708  14.358  1.00  0.00     0.173 A 
ATOM     62  C   UNL     1      13.470   7.062  12.191  1.00  0.00     0.173 A 
ATOM     63  F   UNL     1      12.038   5.896  15.325  1.00  0.00    -0.203 F 
ATOM     64  C   UNL     1      12.389   8.085  14.535  1.00  0.00     0.198 A 
ATOM     65  C   UNL     1      13.392   8.439  12.383  1.00  0.00     0.198 A 
ATOM     66  F   UNL     1      13.990   6.600  11.044  1.00  0.00    -0.203 F 
ATOM     67  F   UNL     1      11.836   8.575  15.653  1.00  0.00    -0.200 F 
ATOM     68  C   UNL     1      12.845   8.949  13.551  1.00  0.00     0.200 A 
ATOM     69  F   UNL     1      13.842   9.274  11.436  1.00  0.00    -0.200 F 
ATOM     70  F   UNL     1      12.750  10.274  13.726  1.00  0.00    -0.200 F 
ENDBRANCH  46  60
BRANCH  47  71
ATOM     71  C   UNL     1      13.401  -3.652  11.467  1.00  0.00     0.064 A 
ATOM     72  C   UNL     1      13.788  -4.556  12.466  1.00  0.00     0.173 A 
ATOM     73  C   UNL     1      13.088  -4.170  10.202  1.00  0.00     0.173 A 
ATOM     74  F   UNL     1      14.116  -4.105  13.685  1.00  0.00    -0.203 F 
ATOM     75  C   UNL     1      13.879  -5.922  12.205  1.00  0.00     0.198 A 
ATOM     76  C   UNL     1      13.155  -5.539   9.949  1.00  0.00     0.198 A 
ATOM     77  F   UNL     1      12.709  -3.346   9.214  1.00  0.00    -0.203 F 
ATOM     78  F   UNL     1      14.292  -6.759  13.166  1.00  0.00    -0.200 F 
ATOM     79  C   UNL     1      13.557  -6.412  10.949  1.00  0.00     0.200 A 
ATOM     80  F   UNL     1      12.833  -6.011   8.737  1.00  0.00    -0.200 F 
ATOM     81  F   UNL     1      13.643  -7.726  10.699  1.00  0.00    -0.200 F 
ENDBRANCH  47  71
BRANCH  59  82
ATOM     82  C   UNL     1      18.223   1.195  12.784  1.00  0.00     0.064 A 
ATOM     83  C   UNL     1      19.054   1.036  11.666  1.00  0.00     0.173 A 
ATOM     84  C   UNL     1      18.829   1.335  14.042  1.00  0.00     0.173 A 
ATOM     85  F   UNL     1      18.520   0.881  10.445  1.00  0.00    -0.203 F 
ATOM     86  C   UNL     1      20.439   0.998  11.805  1.00  0.00     0.198 A 
ATOM     87  C   UNL     1      20.215   1.323  14.173  1.00  0.00     0.198 A 
ATOM     88  F   UNL     1      18.078   1.495  15.141  1.00  0.00    -0.203 F 
ATOM     89  F   UNL     1      21.213   0.803  10.728  1.00  0.00    -0.200 F 
ATOM     90  C   UNL     1      21.018   1.149  13.056  1.00  0.00     0.200 A 
ATOM     91  F   UNL     1      20.773   1.480  15.381  1.00  0.00    -0.200 F 
ATOM     92  F   UNL     1      22.351   1.120  13.186  1.00  0.00    -0.200 F 
ENDBRANCH  59  82
ENDBRANCH  33  34
ENDBRANCH  25  28
ENDBRANCH  23  24
ENDBRANCH  22  23
ENDBRANCH   1  22
TORSDOF 14
