REMARK SMILES CCN(C(=O)c1ccccc1C(=O)NCCCCNC(=O)c1ccc(-c2c3nc(c(-c4c(F)c(F)c(F)c(F)c4F)c4ccc([nH]4)c(-c4c(F)c(F)c(F)c(F)c4F)c4nc(c(-c5c(F)c(F)c(F)c(F)c5F)c5ccc2[nH]5)C=C4)C=C3)cc1)[C@H](CCO)c1ccccc1
REMARK SMILES IDX 12 1 13 2 14 3 11 5 6 6 7 7 8 8 10 9 9 10 4 11 5 12 3 13
REMARK SMILES IDX 2 14 1 15 85 16 89 17 90 18 94 19 91 20 93 21 92 22 86 23
REMARK SMILES IDX 87 24 88 25 15 27 16 28 17 29 18 30 19 31 20 32 21 34 22 35
REMARK SMILES IDX 23 36 84 37 24 38 83 39 25 40 26 41 27 42 77 43 28 44 82 45
REMARK SMILES IDX 76 46 78 47 29 48 81 49 75 50 74 51 30 53 62 54 42 55 61 56
REMARK SMILES IDX 43 57 46 58 60 59 79 60 44 61 45 62 59 64 80 65 47 66 31 67
REMARK SMILES IDX 32 68 40 69 33 70 34 71 38 72 41 73 35 74 36 75 39 76 37 77
REMARK SMILES IDX 63 78 64 79 72 80 65 81 66 82 70 83 73 84 67 85 68 86 71 87
REMARK SMILES IDX 69 88 48 89 49 90 57 91 50 92 51 93 55 94 58 95 52 96 53 97
REMARK SMILES IDX 56 98 54 99
REMARK H PARENT 14 4 88 26 19 33 78 52 46 63
REMARK Flexibility Score: inf
ROOT
ATOM      1  C   UNL     1       2.388   1.972   3.877  1.00  0.00     0.252 C 
ATOM      2  O   UNL     1       1.687   2.494   4.753  1.00  0.00    -0.269 OA
ATOM      3  N   UNL     1       1.697   1.214   2.946  1.00  0.00    -0.352 N 
ATOM      4  H   UNL     1       0.741   1.099   3.151  1.00  0.00     0.163 HD
ENDROOT
BRANCH   1   5
ATOM      5  C   UNL     1       3.873   2.196   3.997  1.00  0.00     0.052 A 
ATOM      6  C   UNL     1       4.815   2.450   2.996  1.00  0.00     0.052 A 
ATOM      7  C   UNL     1       6.178   2.696   3.292  1.00  0.00     0.014 A 
ATOM      8  C   UNL     1       6.621   2.755   4.606  1.00  0.00     0.001 A 
ATOM      9  C   UNL     1       4.357   2.281   5.325  1.00  0.00     0.014 A 
ATOM     10  C   UNL     1       5.704   2.555   5.626  1.00  0.00     0.001 A 
BRANCH   6  11
ATOM     11  C   UNL     1       4.542   2.389   1.571  1.00  0.00     0.255 C 
ATOM     12  O   UNL     1       4.889   1.314   1.093  1.00  0.00    -0.269 OA
BRANCH  11  13
ATOM     13  N   UNL     1       4.018   3.501   0.897  1.00  0.00    -0.332 N 
BRANCH  13  14
ATOM     14  C   UNL     1       3.822   4.775   1.629  1.00  0.00     0.117 C 
ATOM     15  C   UNL     1       3.820   6.058   0.809  1.00  0.00     0.027 C 
ENDBRANCH  13  14
BRANCH  13  16
ATOM     16  C   UNL     1       3.533   3.393  -0.515  1.00  0.00     0.118 C 
BRANCH  16  17
ATOM     17  C   UNL     1       4.218   2.285  -1.360  1.00  0.00    -0.025 A 
ATOM     18  C   UNL     1       3.806   0.940  -1.308  1.00  0.00     0.006 A 
ATOM     19  C   UNL     1       5.349   2.549  -2.138  1.00  0.00     0.006 A 
ATOM     20  C   UNL     1       4.474  -0.102  -1.952  1.00  0.00     0.000 A 
ATOM     21  C   UNL     1       6.022   1.511  -2.809  1.00  0.00     0.000 A 
ATOM     22  C   UNL     1       5.591   0.188  -2.710  1.00  0.00     0.000 A 
ENDBRANCH  16  17
BRANCH  16  23
ATOM     23  C   UNL     1       1.977   3.378  -0.686  1.00  0.00     0.058 C 
BRANCH  23  24
ATOM     24  C   UNL     1       1.044   3.829   0.440  1.00  0.00     0.158 C 
BRANCH  24  25
ATOM     25  O   UNL     1       0.891   5.236   0.491  1.00  0.00    -0.396 OA
ATOM     26  H   UNL     1       1.752   5.649   0.662  1.00  0.00     0.210 HD
ENDBRANCH  24  25
ENDBRANCH  23  24
ENDBRANCH  16  23
ENDBRANCH  13  16
ENDBRANCH  11  13
ENDBRANCH   6  11
ENDBRANCH   1   5
BRANCH   3  27
ATOM     27  C   UNL     1       2.121   0.560   1.728  1.00  0.00     0.116 C 
BRANCH  27  28
ATOM     28  C   UNL     1       1.225  -0.534   1.111  1.00  0.00     0.023 C 
BRANCH  28  29
ATOM     29  C   UNL     1      -0.082  -0.242   0.337  1.00  0.00     0.023 C 
BRANCH  29  30
ATOM     30  C   UNL     1      -0.204   0.503  -1.012  1.00  0.00     0.116 C 
BRANCH  30  31
ATOM     31  N   UNL     1       0.798   0.335  -2.049  1.00  0.00    -0.352 N 
ATOM     32  C   UNL     1       0.847   0.924  -3.310  1.00  0.00     0.251 C 
ATOM     33  H   UNL     1       1.540  -0.274  -1.832  1.00  0.00     0.163 HD
ATOM     34  O   UNL     1       1.827   0.816  -4.028  1.00  0.00    -0.269 OA
BRANCH  32  35
ATOM     35  C   UNL     1      -0.373   1.550  -3.870  1.00  0.00     0.039 A 
ATOM     36  C   UNL     1      -0.867   0.994  -5.056  1.00  0.00     0.014 A 
ATOM     37  C   UNL     1      -1.100   2.529  -3.197  1.00  0.00     0.014 A 
ATOM     38  C   UNL     1      -2.174   1.263  -5.451  1.00  0.00     0.010 A 
ATOM     39  C   UNL     1      -2.427   2.755  -3.556  1.00  0.00     0.010 A 
ATOM     40  C   UNL     1      -2.991   2.062  -4.639  1.00  0.00    -0.014 A 
BRANCH  40  41
ATOM     41  C   UNL     1      -4.462   2.040  -4.820  1.00  0.00     0.031 A 
ATOM     42  C   UNL     1      -5.202   3.260  -5.263  1.00  0.00     0.074 A 
ATOM     43  C   UNL     1      -5.127   0.909  -4.503  1.00  0.00     0.049 A 
ATOM     44  N   UNL     1      -6.488   3.424  -5.443  1.00  0.00    -0.248 NA
ATOM     45  C   UNL     1      -4.397   4.464  -5.515  1.00  0.00     0.031 C 
ATOM     46  C   UNL     1      -4.510  -0.320  -3.995  1.00  0.00     0.029 A 
ATOM     47  N   UNL     1      -6.464   0.606  -4.556  1.00  0.00    -0.354 N 
ATOM     48  C   UNL     1      -6.647   4.744  -5.836  1.00  0.00     0.074 A 
ATOM     49  C   UNL     1      -5.334   5.354  -5.810  1.00  0.00     0.031 C 
ATOM     50  C   UNL     1      -5.459  -1.250  -3.810  1.00  0.00     0.029 A 
ATOM     51  C   UNL     1      -6.755  -0.678  -4.157  1.00  0.00     0.049 A 
ATOM     52  H   UNL     1      -7.151   1.246  -4.851  1.00  0.00     0.167 HD
ATOM     53  C   UNL     1      -7.784   5.378  -6.209  1.00  0.00     0.037 A 
ATOM     54  C   UNL     1      -7.935  -1.320  -4.083  1.00  0.00     0.037 A 
ATOM     55  C   UNL     1      -9.084   4.759  -6.230  1.00  0.00     0.049 A 
ATOM     56  C   UNL     1      -9.180  -0.592  -4.508  1.00  0.00     0.074 A 
ATOM     57  C   UNL     1     -10.297   5.306  -6.609  1.00  0.00     0.029 A 
ATOM     58  N   UNL     1      -9.337   3.448  -5.851  1.00  0.00    -0.354 N 
ATOM     59  N   UNL     1      -9.309   0.638  -4.945  1.00  0.00    -0.248 NA
ATOM     60  C   UNL     1     -10.442  -1.341  -4.442  1.00  0.00     0.031 C 
ATOM     61  C   UNL     1     -11.289   4.334  -6.433  1.00  0.00     0.029 A 
ATOM     62  C   UNL     1     -10.688   3.170  -5.981  1.00  0.00     0.049 A 
ATOM     63  H   UNL     1      -8.657   2.809  -5.536  1.00  0.00     0.167 HD
ATOM     64  C   UNL     1     -10.656   0.802  -5.231  1.00  0.00     0.074 A 
ATOM     65  C   UNL     1     -11.302  -0.461  -4.935  1.00  0.00     0.031 C 
ATOM     66  C   UNL     1     -11.303   1.899  -5.692  1.00  0.00     0.037 A 
BRANCH  53  67
ATOM     67  C   UNL     1      -7.661   6.810  -6.637  1.00  0.00     0.064 A 
ATOM     68  C   UNL     1      -7.036   7.156  -7.846  1.00  0.00     0.173 A 
ATOM     69  C   UNL     1      -8.181   7.845  -5.847  1.00  0.00     0.173 A 
ATOM     70  F   UNL     1      -6.509   6.204  -8.630  1.00  0.00    -0.203 F 
ATOM     71  C   UNL     1      -6.910   8.488  -8.232  1.00  0.00     0.198 A 
ATOM     72  C   UNL     1      -8.078   9.174  -6.250  1.00  0.00     0.198 A 
ATOM     73  F   UNL     1      -8.790   7.568  -4.685  1.00  0.00    -0.203 F 
ATOM     74  F   UNL     1      -6.263   8.796  -9.364  1.00  0.00    -0.200 F 
ATOM     75  C   UNL     1      -7.435   9.495  -7.437  1.00  0.00     0.200 A 
ATOM     76  F   UNL     1      -8.593  10.146  -5.486  1.00  0.00    -0.200 F 
ATOM     77  F   UNL     1      -7.313  10.776  -7.809  1.00  0.00    -0.200 F 
ENDBRANCH  53  67
BRANCH  54  78
ATOM     78  C   UNL     1      -7.994  -2.733  -3.625  1.00  0.00     0.064 A 
ATOM     79  C   UNL     1      -8.317  -3.766  -4.517  1.00  0.00     0.173 A 
ATOM     80  C   UNL     1      -7.742  -3.081  -2.290  1.00  0.00     0.173 A 
ATOM     81  F   UNL     1      -8.582  -3.482  -5.801  1.00  0.00    -0.203 F 
ATOM     82  C   UNL     1      -8.413  -5.088  -4.086  1.00  0.00     0.198 A 
ATOM     83  C   UNL     1      -7.811  -4.407  -1.866  1.00  0.00     0.198 A 
ATOM     84  F   UNL     1      -7.420  -2.133  -1.398  1.00  0.00    -0.203 F 
ATOM     85  F   UNL     1      -8.772  -6.047  -4.950  1.00  0.00    -0.200 F 
ATOM     86  C   UNL     1      -8.156  -5.408  -2.762  1.00  0.00     0.200 A 
ATOM     87  F   UNL     1      -7.549  -4.714  -0.588  1.00  0.00    -0.200 F 
ATOM     88  F   UNL     1      -8.250  -6.679  -2.347  1.00  0.00    -0.200 F 
ENDBRANCH  54  78
BRANCH  66  89
ATOM     89  C   UNL     1     -12.777   1.768  -5.936  1.00  0.00     0.064 A 
ATOM     90  C   UNL     1     -13.693   1.708  -4.876  1.00  0.00     0.173 A 
ATOM     91  C   UNL     1     -13.279   1.739  -7.245  1.00  0.00     0.173 A 
ATOM     92  F   UNL     1     -13.258   1.716  -3.607  1.00  0.00    -0.203 F 
ATOM     93  C   UNL     1     -15.059   1.601  -5.119  1.00  0.00     0.198 A 
ATOM     94  C   UNL     1     -14.647   1.658  -7.484  1.00  0.00     0.198 A 
ATOM     95  F   UNL     1     -12.442   1.797  -8.292  1.00  0.00    -0.203 F 
ATOM     96  F   UNL     1     -15.914   1.500  -4.092  1.00  0.00    -0.200 F 
ATOM     97  C   UNL     1     -15.536   1.583  -6.422  1.00  0.00     0.200 A 
ATOM     98  F   UNL     1     -15.107   1.652  -8.743  1.00  0.00    -0.200 F 
ATOM     99  F   UNL     1     -16.852   1.485  -6.653  1.00  0.00    -0.200 F 
ENDBRANCH  66  89
ENDBRANCH  40  41
ENDBRANCH  32  35
ENDBRANCH  30  31
ENDBRANCH  29  30
ENDBRANCH  28  29
ENDBRANCH  27  28
ENDBRANCH   3  27
TORSDOF 19
