REMARK SMILES CCCCCCNC(=O)Oc1cccc(-c2ccc([C@@H](C)C(=O)NCCCCNC(=O)c3ccc(-c4c5nc(c(-c6c(F)c(F)c(F)c(F)c6F)c6ccc([nH]6)c(-c6c(F)c(F)c(F)c(F)c6F)c6nc(c(-c7c(F)c(F)c(F)c(F)c7F)c7ccc4[nH]7)C=C6)C=C5)cc3)cc2F)c1
REMARK SMILES IDX 20 1 21 2 19 3 16 4 17 5 96 6 18 7 95 8 97 9 15 10 11 11
REMARK SMILES IDX 12 12 98 13 13 14 14 15 10 16 8 17 7 18 9 20 6 21 5 22 4 23
REMARK SMILES IDX 3 24 2 25 1 26 22 27 23 28 24 29 25 31 26 32 27 33 28 34
REMARK SMILES IDX 29 35 30 36 31 38 32 39 33 40 94 41 34 42 93 43 35 44 36 45
REMARK SMILES IDX 37 46 87 47 38 48 92 49 86 50 88 51 39 52 91 53 85 54 84 55
REMARK SMILES IDX 40 57 72 58 52 59 71 60 53 61 56 62 70 63 89 64 54 65 55 66
REMARK SMILES IDX 69 68 90 69 57 70 41 71 42 72 50 73 43 74 44 75 48 76 51 77
REMARK SMILES IDX 45 78 46 79 49 80 47 81 73 82 74 83 82 84 75 85 76 86 80 87
REMARK SMILES IDX 83 88 77 89 78 90 81 91 79 92 58 93 59 94 67 95 60 96 61 97
REMARK SMILES IDX 65 98 68 99 62 100 63 101 66 102 64 103
REMARK H PARENT 7 19 24 30 29 37 88 56 56 67
REMARK Flexibility Score: inf
ROOT
ATOM      1  C   UNL     1      -4.968   4.795 -12.751  1.00  0.00     0.105 C 
ATOM      2  C   UNL     1      -6.133   5.221 -13.645  1.00  0.00     0.023 C 
ENDROOT
BRANCH   1   3
ATOM      3  C   UNL     1      -5.210   4.879 -11.253  1.00  0.00    -0.033 A 
ATOM      4  C   UNL     1      -5.399   5.073  -8.399  1.00  0.00     0.018 A 
ATOM      5  C   UNL     1      -5.923   6.064  -9.247  1.00  0.00     0.012 A 
ATOM      6  C   UNL     1      -4.833   3.955  -9.029  1.00  0.00     0.131 A 
ATOM      7  C   UNL     1      -5.866   5.950 -10.643  1.00  0.00     0.005 A 
ATOM      8  C   UNL     1      -4.717   3.865 -10.420  1.00  0.00     0.044 A 
ATOM      9  F   UNL     1      -4.373   2.921  -8.306  1.00  0.00    -0.206 F 
BRANCH   4  10
ATOM     10  C   UNL     1      -5.429   5.241  -6.926  1.00  0.00    -0.012 A 
ATOM     11  C   UNL     1      -4.425   4.956  -4.725  1.00  0.00     0.133 A 
ATOM     12  C   UNL     1      -5.476   5.630  -4.114  1.00  0.00     0.047 A 
ATOM     13  C   UNL     1      -4.394   4.755  -6.107  1.00  0.00     0.056 A 
ATOM     14  C   UNL     1      -6.509   6.123  -4.902  1.00  0.00     0.004 A 
ATOM     15  C   UNL     1      -6.488   5.921  -6.287  1.00  0.00     0.009 A 
BRANCH  11  16
ATOM     16  O   UNL     1      -3.468   4.375  -3.879  1.00  0.00    -0.410 OA
BRANCH  16  17
ATOM     17  C   UNL     1      -2.134   4.685  -4.089  1.00  0.00     0.412 C 
ATOM     18  N   UNL     1      -1.294   4.022  -3.236  1.00  0.00    -0.321 N 
ATOM     19  H   UNL     1      -0.332   4.204  -3.332  1.00  0.00     0.167 HD
ATOM     20  O   UNL     1      -1.696   5.471  -4.921  1.00  0.00    -0.224 OA
BRANCH  18  21
ATOM     21  C   UNL     1      -1.679   3.079  -2.204  1.00  0.00     0.119 C 
BRANCH  21  22
ATOM     22  C   UNL     1      -1.071   1.696  -2.436  1.00  0.00     0.021 C 
BRANCH  22  23
ATOM     23  C   UNL     1       0.459   1.643  -2.345  1.00  0.00     0.002 C 
BRANCH  23  24
ATOM     24  C   UNL     1       1.058   2.111  -1.014  1.00  0.00    -0.000 C 
BRANCH  24  25
ATOM     25  C   UNL     1       0.570   1.361   0.228  1.00  0.00    -0.003 C 
ATOM     26  C   UNL     1       0.927  -0.118   0.217  1.00  0.00     0.004 C 
ENDBRANCH  24  25
ENDBRANCH  23  24
ENDBRANCH  22  23
ENDBRANCH  21  22
ENDBRANCH  18  21
ENDBRANCH  16  17
ENDBRANCH  11  16
ENDBRANCH   4  10
ENDBRANCH   1   3
BRANCH   1  27
ATOM     27  C   UNL     1      -3.609   5.369 -13.185  1.00  0.00     0.227 C 
ATOM     28  O   UNL     1      -2.703   4.606 -13.540  1.00  0.00    -0.274 OA
ATOM     29  N   UNL     1      -3.324   6.700 -13.218  1.00  0.00    -0.356 N 
ATOM     30  H   UNL     1      -2.434   6.914 -13.581  1.00  0.00     0.163 HD
BRANCH  29  31
ATOM     31  C   UNL     1      -4.095   7.857 -12.815  1.00  0.00     0.116 C 
BRANCH  31  32
ATOM     32  C   UNL     1      -3.744   8.321 -11.401  1.00  0.00     0.023 C 
BRANCH  32  33
ATOM     33  C   UNL     1      -2.560   9.280 -11.312  1.00  0.00     0.023 C 
BRANCH  33  34
ATOM     34  C   UNL     1      -2.739  10.601 -12.050  1.00  0.00     0.116 C 
BRANCH  34  35
ATOM     35  N   UNL     1      -3.900  11.371 -11.626  1.00  0.00    -0.352 N 
ATOM     36  C   UNL     1      -4.042  12.740 -11.597  1.00  0.00     0.251 C 
ATOM     37  H   UNL     1      -4.678  10.849 -11.324  1.00  0.00     0.163 HD
ATOM     38  O   UNL     1      -5.057  13.258 -11.147  1.00  0.00    -0.269 OA
BRANCH  36  39
ATOM     39  C   UNL     1      -2.924  13.580 -12.072  1.00  0.00     0.039 A 
ATOM     40  C   UNL     1      -2.424  14.578 -11.234  1.00  0.00     0.014 A 
ATOM     41  C   UNL     1      -2.324  13.322 -13.306  1.00  0.00     0.014 A 
ATOM     42  C   UNL     1      -1.265  15.265 -11.600  1.00  0.00     0.010 A 
ATOM     43  C   UNL     1      -1.127  13.950 -13.631  1.00  0.00     0.010 A 
ATOM     44  C   UNL     1      -0.583  14.924 -12.779  1.00  0.00    -0.014 A 
BRANCH  44  45
ATOM     45  C   UNL     1       0.697  15.576 -13.152  1.00  0.00     0.031 A 
ATOM     46  C   UNL     1       0.778  16.391 -14.412  1.00  0.00     0.074 A 
ATOM     47  C   UNL     1       1.799  15.371 -12.404  1.00  0.00     0.049 A 
ATOM     48  N   UNL     1       1.821  16.949 -14.974  1.00  0.00    -0.248 NA
ATOM     49  C   UNL     1      -0.476  16.578 -15.159  1.00  0.00     0.031 C 
ATOM     50  C   UNL     1       1.859  14.561 -11.185  1.00  0.00     0.029 A 
ATOM     51  N   UNL     1       3.087  15.819 -12.567  1.00  0.00    -0.354 N 
ATOM     52  C   UNL     1       1.351  17.535 -16.141  1.00  0.00     0.074 A 
ATOM     53  C   UNL     1      -0.057  17.218 -16.240  1.00  0.00     0.031 C 
ATOM     54  C   UNL     1       3.111  14.587 -10.700  1.00  0.00     0.029 A 
ATOM     55  C   UNL     1       3.951  15.381 -11.592  1.00  0.00     0.049 A 
ATOM     56  H   UNL     1       3.365  16.398 -13.312  1.00  0.00     0.167 HD
ATOM     57  C   UNL     1       2.026  18.295 -17.035  1.00  0.00     0.037 A 
ATOM     58  C   UNL     1       5.272  15.593 -11.442  1.00  0.00     0.037 A 
ATOM     59  C   UNL     1       3.418  18.637 -16.917  1.00  0.00     0.049 A 
ATOM     60  C   UNL     1       5.998  16.441 -12.454  1.00  0.00     0.074 A 
ATOM     61  C   UNL     1       4.184  19.436 -17.747  1.00  0.00     0.029 A 
ATOM     62  N   UNL     1       4.250  18.204 -15.896  1.00  0.00    -0.354 N 
ATOM     63  N   UNL     1       5.530  17.037 -13.523  1.00  0.00    -0.248 NA
ATOM     64  C   UNL     1       7.436  16.651 -12.232  1.00  0.00     0.031 C 
ATOM     65  C   UNL     1       5.489  19.460 -17.247  1.00  0.00     0.029 A 
ATOM     66  C   UNL     1       5.525  18.713 -16.080  1.00  0.00     0.049 A 
ATOM     67  H   UNL     1       3.976  17.622 -15.151  1.00  0.00     0.167 HD
ATOM     68  C   UNL     1       6.603  17.720 -14.080  1.00  0.00     0.074 A 
ATOM     69  C   UNL     1       7.744  17.474 -13.224  1.00  0.00     0.031 C 
ATOM     70  C   UNL     1       6.641  18.480 -15.201  1.00  0.00     0.037 A 
BRANCH  57  71
ATOM     71  C   UNL     1       1.262  18.826 -18.212  1.00  0.00     0.064 A 
ATOM     72  C   UNL     1       0.296  19.834 -18.061  1.00  0.00     0.173 A 
ATOM     73  C   UNL     1       1.526  18.358 -19.507  1.00  0.00     0.173 A 
ATOM     74  F   UNL     1      -0.004  20.304 -16.841  1.00  0.00    -0.203 F 
ATOM     75  C   UNL     1      -0.392  20.337 -19.162  1.00  0.00     0.198 A 
ATOM     76  C   UNL     1       0.857  18.885 -20.609  1.00  0.00     0.198 A 
ATOM     77  F   UNL     1       2.442  17.399 -19.707  1.00  0.00    -0.203 F 
ATOM     78  F   UNL     1      -1.340  21.267 -18.988  1.00  0.00    -0.200 F 
ATOM     79  C   UNL     1      -0.105  19.869 -20.435  1.00  0.00     0.200 A 
ATOM     80  F   UNL     1       1.143  18.441 -21.841  1.00  0.00    -0.200 F 
ATOM     81  F   UNL     1      -0.760  20.362 -21.495  1.00  0.00    -0.200 F 
ENDBRANCH  57  71
BRANCH  58  82
ATOM     82  C   UNL     1       6.000  15.016 -10.280  1.00  0.00     0.064 A 
ATOM     83  C   UNL     1       6.513  15.845  -9.271  1.00  0.00     0.173 A 
ATOM     84  C   UNL     1       6.228  13.637 -10.169  1.00  0.00     0.173 A 
ATOM     85  F   UNL     1       6.339  17.173  -9.344  1.00  0.00    -0.203 F 
ATOM     86  C   UNL     1       7.253  15.320  -8.214  1.00  0.00     0.198 A 
ATOM     87  C   UNL     1       6.943  13.110  -9.095  1.00  0.00     0.198 A 
ATOM     88  F   UNL     1       5.756  12.800 -11.104  1.00  0.00    -0.203 F 
ATOM     89  F   UNL     1       7.781  16.142  -7.296  1.00  0.00    -0.200 F 
ATOM     90  C   UNL     1       7.465  13.953  -8.125  1.00  0.00     0.200 A 
ATOM     91  F   UNL     1       7.137  11.787  -9.006  1.00  0.00    -0.200 F 
ATOM     92  F   UNL     1       8.182  13.449  -7.111  1.00  0.00    -0.200 F 
ENDBRANCH  58  82
BRANCH  70  93
ATOM     93  C   UNL     1       7.941  19.148 -15.538  1.00  0.00     0.064 A 
ATOM     94  C   UNL     1       9.036  18.423 -16.028  1.00  0.00     0.173 A 
ATOM     95  C   UNL     1       8.074  20.539 -15.412  1.00  0.00     0.173 A 
ATOM     96  F   UNL     1       8.963  17.089 -16.152  1.00  0.00    -0.203 F 
ATOM     97  C   UNL     1      10.226  19.065 -16.359  1.00  0.00     0.198 A 
ATOM     98  C   UNL     1       9.255  21.181 -15.772  1.00  0.00     0.198 A 
ATOM     99  F   UNL     1       7.051  21.277 -14.954  1.00  0.00    -0.203 F 
ATOM    100  F   UNL     1      11.276  18.348 -16.785  1.00  0.00    -0.200 F 
ATOM    101  C   UNL     1      10.332  20.443 -16.239  1.00  0.00     0.200 A 
ATOM    102  F   UNL     1       9.350  22.513 -15.668  1.00  0.00    -0.200 F 
ATOM    103  F   UNL     1      11.475  21.059 -16.568  1.00  0.00    -0.200 F 
ENDBRANCH  70  93
ENDBRANCH  44  45
ENDBRANCH  36  39
ENDBRANCH  34  35
ENDBRANCH  33  34
ENDBRANCH  32  33
ENDBRANCH  31  32
ENDBRANCH  29  31
ENDBRANCH   1  27
TORSDOF 20
