REMARK SMILES COCCN1C[C@H](C(=O)N2CCC(C(=O)NCCCCNC(=O)c3ccc(-c4c5nc(c(-c6c(F)c(F)c(F)c(F)c6F)c6ccc([nH]6)c(-c6c(F)c(F)c(F)c(F)c6F)c6nc(c(-c7c(F)c(F)c(F)c(F)c7F)c7ccc4[nH]7)C=C6)C=C5)cc3)CC2)CC1=O
REMARK SMILES IDX 17 1 16 2 14 3 15 4 13 6 8 7 9 8 10 9 11 10 88 11 12 12
REMARK SMILES IDX 87 13 7 14 5 15 6 16 90 17 89 18 91 19 4 20 3 21 2 22 1 23
REMARK SMILES IDX 18 24 19 25 20 26 21 27 22 28 23 30 24 31 25 32 86 33 26 34
REMARK SMILES IDX 85 35 27 36 28 37 29 38 79 39 30 40 84 41 78 42 80 43 31 44
REMARK SMILES IDX 83 45 77 46 76 47 32 49 64 50 44 51 63 52 45 53 48 54 62 55
REMARK SMILES IDX 81 56 46 57 47 58 61 60 82 61 49 62 33 63 34 64 42 65 35 66
REMARK SMILES IDX 36 67 40 68 43 69 37 70 38 71 41 72 39 73 65 74 66 75 74 76
REMARK SMILES IDX 67 77 68 78 72 79 75 80 69 81 70 82 73 83 71 84 50 85 51 86
REMARK SMILES IDX 59 87 52 88 53 89 57 90 60 91 54 92 55 93 58 94 56 95
REMARK H PARENT 16 5 21 29 80 48 48 59
REMARK Flexibility Score: inf
ROOT
ATOM      1  C   UNL     1       8.031   1.981   2.892  1.00  0.00     0.116 C 
ENDROOT
BRANCH   1   2
ATOM      2  N   UNL     1       8.571   2.566   1.674  1.00  0.00    -0.356 N 
ATOM      3  C   UNL     1       7.974   2.826   0.478  1.00  0.00     0.223 C 
ATOM      4  O   UNL     1       8.661   3.305  -0.425  1.00  0.00    -0.275 OA
ATOM      5  H   UNL     1       9.522   2.815   1.723  1.00  0.00     0.163 HD
BRANCH   3   6
ATOM      6  C   UNL     1       6.489   2.574   0.272  1.00  0.00     0.082 C 
ATOM      7  C   UNL     1       3.417   1.046   2.592  1.00  0.00     0.227 C 
ATOM      8  O   UNL     1       3.841  -0.039   3.007  1.00  0.00    -0.274 OA
ATOM      9  N   UNL     1       4.063   1.671   1.544  1.00  0.00    -0.342 N 
ATOM     10  C   UNL     1       4.670   0.834   0.518  1.00  0.00     0.120 C 
ATOM     11  C   UNL     1       4.229   3.104   1.371  1.00  0.00     0.120 C 
ATOM     12  C   UNL     1       6.155   1.082   0.376  1.00  0.00     0.035 C 
ATOM     13  C   UNL     1       5.679   3.514   1.174  1.00  0.00     0.035 C 
BRANCH   7  14
ATOM     14  C   UNL     1       2.163   1.656   3.238  1.00  0.00     0.107 C 
ATOM     15  N   UNL     1       0.569   1.919   1.572  1.00  0.00    -0.340 N 
ATOM     16  C   UNL     1       1.370   2.695   2.471  1.00  0.00     0.133 C 
ATOM     17  C   UNL     1       0.269   0.683   2.117  1.00  0.00     0.223 C 
ATOM     18  C   UNL     1       1.103   0.532   3.375  1.00  0.00     0.115 C 
ATOM     19  O   UNL     1      -0.519  -0.137   1.687  1.00  0.00    -0.275 OA
BRANCH  15  20
ATOM     20  C   UNL     1       0.097   2.428   0.289  1.00  0.00     0.148 C 
BRANCH  20  21
ATOM     21  C   UNL     1       0.963   1.980  -0.902  1.00  0.00     0.181 C 
BRANCH  21  22
ATOM     22  O   UNL     1       0.583   0.693  -1.387  1.00  0.00    -0.383 OA
ATOM     23  C   UNL     1       1.441  -0.357  -0.965  1.00  0.00     0.194 C 
ENDBRANCH  21  22
ENDBRANCH  20  21
ENDBRANCH  15  20
ENDBRANCH   7  14
ENDBRANCH   3   6
ENDBRANCH   1   2
BRANCH   1  24
ATOM     24  C   UNL     1       8.661   0.624   3.190  1.00  0.00     0.023 C 
BRANCH  24  25
ATOM     25  C   UNL     1      10.141   0.692   3.555  1.00  0.00     0.023 C 
BRANCH  25  26
ATOM     26  C   UNL     1      10.468   1.638   4.702  1.00  0.00     0.116 C 
BRANCH  26  27
ATOM     27  N   UNL     1       9.744   1.318   5.923  1.00  0.00    -0.352 N 
ATOM     28  C   UNL     1      10.221   1.200   7.204  1.00  0.00     0.251 C 
ATOM     29  H   UNL     1       8.777   1.166   5.814  1.00  0.00     0.163 HD
ATOM     30  O   UNL     1       9.497   0.780   8.100  1.00  0.00    -0.269 OA
BRANCH  28  31
ATOM     31  C   UNL     1      11.626   1.553   7.491  1.00  0.00     0.039 A 
ATOM     32  C   UNL     1      12.391   0.684   8.270  1.00  0.00     0.014 A 
ATOM     33  C   UNL     1      12.191   2.723   6.976  1.00  0.00     0.014 A 
ATOM     34  C   UNL     1      13.741   0.962   8.485  1.00  0.00     0.010 A 
ATOM     35  C   UNL     1      13.556   2.950   7.115  1.00  0.00     0.010 A 
ATOM     36  C   UNL     1      14.343   2.078   7.881  1.00  0.00    -0.014 A 
BRANCH  36  37
ATOM     37  C   UNL     1      15.793   2.349   8.053  1.00  0.00     0.031 A 
ATOM     38  C   UNL     1      16.251   3.607   8.739  1.00  0.00     0.074 A 
ATOM     39  C   UNL     1      16.696   1.483   7.551  1.00  0.00     0.049 A 
ATOM     40  N   UNL     1      17.470   4.029   8.965  1.00  0.00    -0.248 NA
ATOM     41  C   UNL     1      15.204   4.528   9.210  1.00  0.00     0.031 C 
ATOM     42  C   UNL     1      16.375   0.260   6.813  1.00  0.00     0.029 A 
ATOM     43  N   UNL     1      18.068   1.502   7.580  1.00  0.00    -0.354 N 
ATOM     44  C   UNL     1      17.334   5.264   9.584  1.00  0.00     0.074 A 
ATOM     45  C   UNL     1      15.919   5.552   9.651  1.00  0.00     0.031 C 
ATOM     46  C   UNL     1      17.516  -0.368   6.485  1.00  0.00     0.029 A 
ATOM     47  C   UNL     1      18.648   0.426   6.952  1.00  0.00     0.049 A 
ATOM     48  H   UNL     1      18.588   2.218   8.011  1.00  0.00     0.167 HD
ATOM     49  C   UNL     1      18.302   6.073  10.075  1.00  0.00     0.037 A 
ATOM     50  C   UNL     1      19.947   0.120   6.766  1.00  0.00     0.037 A 
ATOM     51  C   UNL     1      19.707   5.765  10.036  1.00  0.00     0.049 A 
ATOM     52  C   UNL     1      21.001   1.038   7.327  1.00  0.00     0.074 A 
ATOM     53  C   UNL     1      20.760   6.477  10.583  1.00  0.00     0.029 A 
ATOM     54  N   UNL     1      20.256   4.657   9.407  1.00  0.00    -0.354 N 
ATOM     55  N   UNL     1      20.856   2.153   8.001  1.00  0.00    -0.248 NA
ATOM     56  C   UNL     1      22.401   0.648   7.111  1.00  0.00     0.031 C 
ATOM     57  C   UNL     1      21.951   5.837  10.227  1.00  0.00     0.029 A 
ATOM     58  C   UNL     1      21.637   4.687   9.520  1.00  0.00     0.049 A 
ATOM     59  H   UNL     1      19.741   3.954   8.949  1.00  0.00     0.167 HD
ATOM     60  C   UNL     1      22.140   2.580   8.314  1.00  0.00     0.074 A 
ATOM     61  C   UNL     1      23.050   1.593   7.775  1.00  0.00     0.031 C 
ATOM     62  C   UNL     1      22.530   3.691   8.986  1.00  0.00     0.037 A 
BRANCH  49  63
ATOM     63  C   UNL     1      17.883   7.375  10.697  1.00  0.00     0.064 A 
ATOM     64  C   UNL     1      17.191   7.425  11.916  1.00  0.00     0.173 A 
ATOM     65  C   UNL     1      18.235   8.592  10.093  1.00  0.00     0.173 A 
ATOM     66  F   UNL     1      16.820   6.292  12.531  1.00  0.00    -0.203 F 
ATOM     67  C   UNL     1      16.845   8.644  12.495  1.00  0.00     0.198 A 
ATOM     68  C   UNL     1      17.918   9.808  10.691  1.00  0.00     0.198 A 
ATOM     69  F   UNL     1      18.902   8.602   8.929  1.00  0.00    -0.203 F 
ATOM     70  F   UNL     1      16.144   8.667  13.636  1.00  0.00    -0.200 F 
ATOM     71  C   UNL     1      17.218   9.834  11.887  1.00  0.00     0.200 A 
ATOM     72  F   UNL     1      18.293  10.957  10.110  1.00  0.00    -0.200 F 
ATOM     73  F   UNL     1      16.899  11.006  12.453  1.00  0.00    -0.200 F 
ENDBRANCH  49  63
BRANCH  50  74
ATOM     74  C   UNL     1      20.329  -1.111   6.022  1.00  0.00     0.064 A 
ATOM     75  C   UNL     1      20.987  -2.170   6.663  1.00  0.00     0.173 A 
ATOM     76  C   UNL     1      20.073  -1.241   4.649  1.00  0.00     0.173 A 
ATOM     77  F   UNL     1      21.272  -2.088   7.971  1.00  0.00    -0.203 F 
ATOM     78  C   UNL     1      21.407  -3.294   5.953  1.00  0.00     0.198 A 
ATOM     79  C   UNL     1      20.461  -2.381   3.947  1.00  0.00     0.198 A 
ATOM     80  F   UNL     1      19.440  -0.261   3.987  1.00  0.00    -0.203 F 
ATOM     81  F   UNL     1      22.092  -4.261   6.578  1.00  0.00    -0.200 F 
ATOM     82  C   UNL     1      21.140  -3.400   4.597  1.00  0.00     0.200 A 
ATOM     83  F   UNL     1      20.185  -2.486   2.640  1.00  0.00    -0.200 F 
ATOM     84  F   UNL     1      21.546  -4.479   3.914  1.00  0.00    -0.200 F 
ENDBRANCH  50  74
BRANCH  62  85
ATOM     85  C   UNL     1      24.003   3.880   9.213  1.00  0.00     0.064 A 
ATOM     86  C   UNL     1      24.881   4.182   8.162  1.00  0.00     0.173 A 
ATOM     87  C   UNL     1      24.536   3.797  10.509  1.00  0.00     0.173 A 
ATOM     88  F   UNL     1      24.426   4.260   6.902  1.00  0.00    -0.203 F 
ATOM     89  C   UNL     1      26.242   4.362   8.396  1.00  0.00     0.198 A 
ATOM     90  C   UNL     1      25.890   4.015  10.744  1.00  0.00     0.198 A 
ATOM     91  F   UNL     1      23.738   3.520  11.553  1.00  0.00    -0.203 F 
ATOM     92  F   UNL     1      27.071   4.594   7.368  1.00  0.00    -0.200 F 
ATOM     93  C   UNL     1      26.744   4.287   9.687  1.00  0.00     0.200 A 
ATOM     94  F   UNL     1      26.369   3.961  11.995  1.00  0.00    -0.200 F 
ATOM     95  F   UNL     1      28.052   4.471   9.911  1.00  0.00    -0.200 F 
ENDBRANCH  62  85
ENDBRANCH  36  37
ENDBRANCH  28  31
ENDBRANCH  26  27
ENDBRANCH  25  26
ENDBRANCH  24  25
ENDBRANCH   1  24
TORSDOF 15
