REMARK SMILES CN(c1ccc(C(=O)NCCCCNC(=O)c2ccc(-c3c4nc(c(-c5c(F)c(F)c(F)c(F)c5F)c5ccc([nH]5)c(-c5c(F)c(F)c(F)c(F)c5F)c5nc(c(-c6c(F)c(F)c(F)c(F)c6F)c6ccc3[nH]6)C=C5)C=C4)cc2)c(F)c1F)[C@H]1C[C@H]2CC[C@@H](C1)[NH2+]2
REMARK SMILES IDX 11 1 10 2 9 3 7 4 8 5 6 7 3 8 4 9 82 10 5 11 80 12 83 13
REMARK SMILES IDX 81 14 2 15 1 16 84 17 85 18 90 19 86 20 89 21 87 22 91 23
REMARK SMILES IDX 88 24 12 27 13 28 14 29 15 30 16 32 17 33 18 34 79 35 19 36
REMARK SMILES IDX 78 37 20 38 21 39 22 40 72 41 23 42 77 43 71 44 73 45 24 46
REMARK SMILES IDX 76 47 70 48 69 49 25 51 57 52 37 53 56 54 38 55 41 56 55 57
REMARK SMILES IDX 74 58 39 59 40 60 54 62 75 63 42 64 26 65 27 66 35 67 28 68
REMARK SMILES IDX 29 69 33 70 36 71 30 72 31 73 34 74 32 75 58 76 59 77 67 78
REMARK SMILES IDX 60 79 61 80 65 81 68 82 62 83 63 84 66 85 64 86 43 87 44 88
REMARK SMILES IDX 52 89 45 90 46 91 50 92 53 93 47 94 48 95 51 96 49 97
REMARK H PARENT 9 6 91 25 91 26 14 31 73 50 41 61
REMARK Flexibility Score: inf
ROOT
ATOM      1  C   UNL     1      -0.390   4.626   6.667  1.00  0.00     0.023 C 
ENDROOT
BRANCH   1   2
ATOM      2  C   UNL     1      -1.251   3.571   5.984  1.00  0.00     0.116 C 
BRANCH   2   3
ATOM      3  N   UNL     1      -2.419   4.033   5.230  1.00  0.00    -0.352 N 
ATOM      4  C   UNL     1      -3.039   3.494   4.102  1.00  0.00     0.254 C 
ATOM      5  O   UNL     1      -4.055   4.030   3.665  1.00  0.00    -0.269 OA
ATOM      6  H   UNL     1      -2.834   4.857   5.574  1.00  0.00     0.163 HD
BRANCH   4   7
ATOM      7  C   UNL     1      -2.458   2.352   3.345  1.00  0.00     0.078 A 
ATOM      8  C   UNL     1      -0.715   0.597   1.898  1.00  0.00     0.076 A 
ATOM      9  C   UNL     1      -1.700   1.344   1.239  1.00  0.00     0.030 A 
ATOM     10  C   UNL     1      -0.707   0.788   3.266  1.00  0.00     0.182 A 
ATOM     11  C   UNL     1      -2.514   2.273   1.945  1.00  0.00     0.019 A 
ATOM     12  C   UNL     1      -1.701   1.413   3.984  1.00  0.00     0.173 A 
ATOM     13  F   UNL     1       0.457   0.666   3.893  1.00  0.00    -0.201 F 
ATOM     14  F   UNL     1      -1.764   1.203   5.304  1.00  0.00    -0.203 F 
BRANCH   8  15
ATOM     15  N   UNL     1       0.230  -0.214   1.288  1.00  0.00    -0.369 N 
ATOM     16  C   UNL     1       0.680   0.144  -0.055  1.00  0.00     0.144 C 
BRANCH  15  17
ATOM     17  C   UNL     1       0.812  -1.485   1.870  1.00  0.00     0.093 C 
ATOM     18  C   UNL     1       2.283  -1.364   2.334  1.00  0.00     0.090 C 
ATOM     19  C   UNL     1      -0.093  -2.332   2.795  1.00  0.00     0.090 C 
ATOM     20  C   UNL     1       2.602  -1.891   3.747  1.00  0.00     0.184 C 
ATOM     21  C   UNL     1       0.510  -2.719   4.162  1.00  0.00     0.184 C 
ATOM     22  C   UNL     1       2.078  -1.025   4.883  1.00  0.00     0.071 C 
ATOM     23  N   UNL     1       1.900  -3.154   3.993  1.00  0.00    -0.341 N 
ATOM     24  C   UNL     1       0.679  -1.582   5.163  1.00  0.00     0.071 C 
ATOM     25  H   UNL     1       2.248  -3.610   4.837  1.00  0.00     0.346 HD
ATOM     26  H   UNL     1       2.023  -3.838   3.247  1.00  0.00     0.346 HD
ENDBRANCH  15  17
ENDBRANCH   8  15
ENDBRANCH   4   7
ENDBRANCH   2   3
ENDBRANCH   1   2
BRANCH   1  27
ATOM     27  C   UNL     1      -1.017   5.381   7.831  1.00  0.00     0.023 C 
BRANCH  27  28
ATOM     28  C   UNL     1      -1.585   4.541   8.973  1.00  0.00     0.116 C 
BRANCH  28  29
ATOM     29  N   UNL     1      -0.595   3.761   9.702  1.00  0.00    -0.352 N 
ATOM     30  C   UNL     1      -0.277   3.739  11.047  1.00  0.00     0.251 C 
ATOM     31  H   UNL     1      -0.064   3.148   9.144  1.00  0.00     0.163 HD
ATOM     32  O   UNL     1       0.645   3.045  11.440  1.00  0.00    -0.269 OA
BRANCH  30  33
ATOM     33  C   UNL     1      -1.013   4.592  12.016  1.00  0.00     0.039 A 
ATOM     34  C   UNL     1      -0.281   5.269  12.996  1.00  0.00     0.014 A 
ATOM     35  C   UNL     1      -2.400   4.737  11.971  1.00  0.00     0.014 A 
ATOM     36  C   UNL     1      -0.926   6.166  13.854  1.00  0.00     0.010 A 
ATOM     37  C   UNL     1      -3.028   5.700  12.761  1.00  0.00     0.010 A 
ATOM     38  C   UNL     1      -2.297   6.435  13.705  1.00  0.00    -0.014 A 
BRANCH  38  39
ATOM     39  C   UNL     1      -2.957   7.503  14.507  1.00  0.00     0.031 A 
ATOM     40  C   UNL     1      -4.071   7.171  15.462  1.00  0.00     0.074 A 
ATOM     41  C   UNL     1      -2.567   8.785  14.350  1.00  0.00     0.049 A 
ATOM     42  N   UNL     1      -4.749   7.972  16.246  1.00  0.00    -0.248 NA
ATOM     43  C   UNL     1      -4.495   5.764  15.536  1.00  0.00     0.031 C 
ATOM     44  C   UNL     1      -1.535   9.243  13.418  1.00  0.00     0.029 A 
ATOM     45  N   UNL     1      -2.980   9.938  14.974  1.00  0.00    -0.354 N 
ATOM     46  C   UNL     1      -5.668   7.167  16.906  1.00  0.00     0.074 A 
ATOM     47  C   UNL     1      -5.512   5.828  16.384  1.00  0.00     0.031 C 
ATOM     48  C   UNL     1      -1.355  10.564  13.572  1.00  0.00     0.029 A 
ATOM     49  C   UNL     1      -2.285  11.059  14.582  1.00  0.00     0.049 A 
ATOM     50  H   UNL     1      -3.705   9.959  15.640  1.00  0.00     0.167 HD
ATOM     51  C   UNL     1      -6.537   7.507  17.886  1.00  0.00     0.037 A 
ATOM     52  C   UNL     1      -2.378  12.338  14.996  1.00  0.00     0.037 A 
ATOM     53  C   UNL     1      -6.677   8.835  18.421  1.00  0.00     0.049 A 
ATOM     54  C   UNL     1      -3.375  12.694  16.067  1.00  0.00     0.074 A 
ATOM     55  C   UNL     1      -7.509   9.269  19.438  1.00  0.00     0.029 A 
ATOM     56  N   UNL     1      -5.963   9.942  17.986  1.00  0.00    -0.354 N 
ATOM     57  N   UNL     1      -4.193  11.909  16.724  1.00  0.00    -0.248 NA
ATOM     58  C   UNL     1      -3.463  14.109  16.456  1.00  0.00     0.031 C 
ATOM     59  C   UNL     1      -7.333  10.645  19.589  1.00  0.00     0.029 A 
ATOM     60  C   UNL     1      -6.350  11.060  18.705  1.00  0.00     0.049 A 
ATOM     61  H   UNL     1      -5.284   9.933  17.274  1.00  0.00     0.167 HD
ATOM     62  C   UNL     1      -4.863  12.724  17.626  1.00  0.00     0.074 A 
ATOM     63  C   UNL     1      -4.356  14.066  17.436  1.00  0.00     0.031 C 
ATOM     64  C   UNL     1      -5.813  12.385  18.529  1.00  0.00     0.037 A 
BRANCH  51  65
ATOM     65  C   UNL     1      -7.388   6.424  18.485  1.00  0.00     0.064 A 
ATOM     66  C   UNL     1      -8.780   6.426  18.311  1.00  0.00     0.173 A 
ATOM     67  C   UNL     1      -6.831   5.445  19.321  1.00  0.00     0.173 A 
ATOM     68  F   UNL     1      -9.364   7.347  17.530  1.00  0.00    -0.203 F 
ATOM     69  C   UNL     1      -9.585   5.499  18.969  1.00  0.00     0.198 A 
ATOM     70  C   UNL     1      -7.636   4.502  19.954  1.00  0.00     0.198 A 
ATOM     71  F   UNL     1      -5.505   5.396  19.514  1.00  0.00    -0.203 F 
ATOM     72  F   UNL     1     -10.916   5.546  18.824  1.00  0.00    -0.200 F 
ATOM     73  C   UNL     1      -9.012   4.537  19.788  1.00  0.00     0.200 A 
ATOM     74  F   UNL     1      -7.079   3.561  20.729  1.00  0.00    -0.200 F 
ATOM     75  F   UNL     1      -9.787   3.646  20.421  1.00  0.00    -0.200 F 
ENDBRANCH  51  65
BRANCH  52  76
ATOM     76  C   UNL     1      -1.459  13.366  14.437  1.00  0.00     0.064 A 
ATOM     77  C   UNL     1      -1.541  13.779  13.099  1.00  0.00     0.173 A 
ATOM     78  C   UNL     1      -0.461  13.943  15.236  1.00  0.00     0.173 A 
ATOM     79  F   UNL     1      -2.475  13.257  12.291  1.00  0.00    -0.203 F 
ATOM     80  C   UNL     1      -0.648  14.714  12.577  1.00  0.00     0.198 A 
ATOM     81  C   UNL     1       0.413  14.899  14.721  1.00  0.00     0.198 A 
ATOM     82  F   UNL     1      -0.353  13.597  16.527  1.00  0.00    -0.203 F 
ATOM     83  F   UNL     1      -0.727  15.064  11.286  1.00  0.00    -0.200 F 
ATOM     84  C   UNL     1       0.324  15.277  13.390  1.00  0.00     0.200 A 
ATOM     85  F   UNL     1       1.334  15.460  15.516  1.00  0.00    -0.200 F 
ATOM     86  F   UNL     1       1.172  16.187  12.891  1.00  0.00    -0.200 F 
ENDBRANCH  52  76
BRANCH  64  87
ATOM     87  C   UNL     1      -6.356  13.457  19.426  1.00  0.00     0.064 A 
ATOM     88  C   UNL     1      -6.065  13.440  20.800  1.00  0.00     0.173 A 
ATOM     89  C   UNL     1      -7.270  14.410  18.957  1.00  0.00     0.173 A 
ATOM     90  F   UNL     1      -5.204  12.540  21.297  1.00  0.00    -0.203 F 
ATOM     91  C   UNL     1      -6.698  14.317  21.675  1.00  0.00     0.198 A 
ATOM     92  C   UNL     1      -7.880  15.304  19.833  1.00  0.00     0.198 A 
ATOM     93  F   UNL     1      -7.571  14.471  17.651  1.00  0.00    -0.203 F 
ATOM     94  F   UNL     1      -6.447  14.247  22.990  1.00  0.00    -0.200 F 
ATOM     95  C   UNL     1      -7.606  15.246  21.192  1.00  0.00     0.200 A 
ATOM     96  F   UNL     1      -8.745  16.213  19.363  1.00  0.00    -0.200 F 
ATOM     97  F   UNL     1      -8.223  16.084  22.037  1.00  0.00    -0.200 F 
ENDBRANCH  64  87
ENDBRANCH  38  39
ENDBRANCH  30  33
ENDBRANCH  28  29
ENDBRANCH  27  28
ENDBRANCH   1  27
TORSDOF 13
