REMARK SMILES Cc1c(C(=O)NCCCCNC(=O)c2ccc(-c3c4nc(c(-c5c(F)c(F)c(F)c(F)c5F)c5ccc([nH]5)c(-c5c(F)c(F)c(F)c(F)c5F)c5nc(c(-c6c(F)c(F)c(F)c(F)c6F)c6ccc3[nH]6)C=C5)C=C4)cc2)nnn1-c1ccc(Cl)cc1[N+](=O)[O-]
REMARK SMILES IDX 8 1 7 2 6 3 4 4 5 5 3 7 1 8 2 9 79 10 77 11 78 12 80 13
REMARK SMILES IDX 81 14 86 15 82 16 85 17 83 18 84 19 87 20 88 21 89 22 9 23
REMARK SMILES IDX 10 24 11 25 12 26 13 28 14 29 15 30 76 31 16 32 75 33 17 34
REMARK SMILES IDX 18 35 19 36 69 37 20 38 74 39 68 40 70 41 21 42 73 43 67 44
REMARK SMILES IDX 66 45 22 47 54 48 34 49 53 50 35 51 38 52 52 53 71 54 36 55
REMARK SMILES IDX 37 56 51 58 72 59 39 60 23 61 24 62 32 63 25 64 26 65 30 66
REMARK SMILES IDX 33 67 27 68 28 69 31 70 29 71 55 72 56 73 64 74 57 75 58 76
REMARK SMILES IDX 62 77 65 78 59 79 60 80 63 81 61 82 40 83 41 84 49 85 42 86
REMARK SMILES IDX 43 87 47 88 50 89 44 90 45 91 48 92 46 93
REMARK H PARENT 6 6 11 27 70 46 38 57
REMARK Flexibility Score: inf
ROOT
ATOM      1  C   UNL     1       1.176  -2.737   1.254  1.00  0.00     0.023 C 
ENDROOT
BRANCH   1   2
ATOM      2  C   UNL     1      -0.228  -2.115   1.304  1.00  0.00     0.116 C 
BRANCH   2   3
ATOM      3  N   UNL     1      -0.487  -1.510   2.586  1.00  0.00    -0.351 N 
ATOM      4  C   UNL     1      -0.313  -0.248   3.094  1.00  0.00     0.273 C 
ATOM      5  O   UNL     1      -0.659  -0.139   4.276  1.00  0.00    -0.267 OA
ATOM      6  H   UNL     1      -0.873  -2.139   3.238  1.00  0.00     0.163 HD
BRANCH   4   7
ATOM      7  C   UNL     1       0.182   0.921   2.351  1.00  0.00     0.173 A 
ATOM      8  C   UNL     1       1.544   0.405   0.094  1.00  0.00     0.069 C 
ATOM      9  C   UNL     1       0.834   1.170   1.143  1.00  0.00     0.075 A 
ATOM     10  N   UNL     1       0.818   2.558   1.052  1.00  0.00    -0.210 N 
ATOM     11  N   UNL     1       0.075   2.146   3.007  1.00  0.00    -0.124 NA
ATOM     12  N   UNL     1       0.579   3.102   2.249  1.00  0.00    -0.061 NA
BRANCH  10  13
ATOM     13  C   UNL     1       1.271   3.333  -0.033  1.00  0.00     0.144 A 
ATOM     14  C   UNL     1       2.479   4.025   0.129  1.00  0.00     0.037 A 
ATOM     15  C   UNL     1       0.646   3.284  -1.292  1.00  0.00     0.296 A 
ATOM     16  C   UNL     1       3.087   4.612  -0.983  1.00  0.00     0.023 A 
ATOM     17  C   UNL     1       1.253   3.893  -2.400  1.00  0.00     0.108 A 
ATOM     18  C   UNL     1       2.478   4.537  -2.237  1.00  0.00     0.048 A 
ATOM     19  Cl  UNL     1       3.256   5.232  -3.604  1.00  0.00    -0.084 Cl
BRANCH  15  20
ATOM     20  N   UNL     1      -0.656   2.638  -1.499  1.00  0.00     0.065 N 
ATOM     21  O   UNL     1      -0.901   2.208  -2.634  1.00  0.00    -0.258 OA
ATOM     22  O   UNL     1      -1.423   2.547  -0.534  1.00  0.00    -0.258 OA
ENDBRANCH  15  20
ENDBRANCH  10  13
ENDBRANCH   4   7
ENDBRANCH   2   3
ENDBRANCH   1   2
BRANCH   1  23
ATOM     23  C   UNL     1       1.333  -4.152   1.816  1.00  0.00     0.023 C 
BRANCH  23  24
ATOM     24  C   UNL     1       0.677  -5.242   0.978  1.00  0.00     0.116 C 
BRANCH  24  25
ATOM     25  N   UNL     1       1.173  -5.310  -0.408  1.00  0.00    -0.352 N 
ATOM     26  C   UNL     1       0.584  -5.922  -1.512  1.00  0.00     0.251 C 
ATOM     27  H   UNL     1       2.034  -4.863  -0.575  1.00  0.00     0.163 HD
ATOM     28  O   UNL     1       1.229  -6.248  -2.490  1.00  0.00    -0.269 OA
BRANCH  26  29
ATOM     29  C   UNL     1      -0.875  -6.113  -1.476  1.00  0.00     0.039 A 
ATOM     30  C   UNL     1      -1.532  -7.278  -1.882  1.00  0.00     0.014 A 
ATOM     31  C   UNL     1      -1.569  -5.072  -0.886  1.00  0.00     0.014 A 
ATOM     32  C   UNL     1      -2.900  -7.381  -1.624  1.00  0.00     0.010 A 
ATOM     33  C   UNL     1      -2.772  -5.343  -0.323  1.00  0.00     0.010 A 
ATOM     34  C   UNL     1      -3.507  -6.394  -0.834  1.00  0.00    -0.014 A 
BRANCH  34  35
ATOM     35  C   UNL     1      -4.901  -6.405  -0.429  1.00  0.00     0.031 A 
ATOM     36  C   UNL     1      -5.274  -7.596   0.360  1.00  0.00     0.074 A 
ATOM     37  C   UNL     1      -5.676  -5.297  -0.522  1.00  0.00     0.049 A 
ATOM     38  N   UNL     1      -5.969  -8.606  -0.037  1.00  0.00    -0.248 NA
ATOM     39  C   UNL     1      -4.656  -7.784   1.684  1.00  0.00     0.031 C 
ATOM     40  C   UNL     1      -5.284  -3.942  -0.956  1.00  0.00     0.029 A 
ATOM     41  N   UNL     1      -6.976  -5.115  -0.156  1.00  0.00    -0.354 N 
ATOM     42  C   UNL     1      -6.097  -9.429   1.077  1.00  0.00     0.074 A 
ATOM     43  C   UNL     1      -5.085  -9.007   2.006  1.00  0.00     0.031 C 
ATOM     44  C   UNL     1      -6.239  -3.049  -0.615  1.00  0.00     0.029 A 
ATOM     45  C   UNL     1      -7.387  -3.784  -0.127  1.00  0.00     0.049 A 
ATOM     46  H   UNL     1      -7.575  -5.863   0.070  1.00  0.00     0.167 HD
ATOM     47  C   UNL     1      -7.243 -10.141   1.266  1.00  0.00     0.037 A 
ATOM     48  C   UNL     1      -8.601  -3.322   0.257  1.00  0.00     0.037 A 
ATOM     49  C   UNL     1      -8.064 -10.081   0.080  1.00  0.00     0.049 A 
ATOM     50  C   UNL     1      -9.547  -4.455   0.138  1.00  0.00     0.074 A 
ATOM     51  C   UNL     1      -8.050 -10.646  -1.175  1.00  0.00     0.029 A 
ATOM     52  N   UNL     1      -8.843  -8.954   0.016  1.00  0.00    -0.354 N 
ATOM     53  N   UNL     1      -9.854  -5.010  -1.003  1.00  0.00    -0.248 NA
ATOM     54  C   UNL     1      -9.850  -5.251   1.321  1.00  0.00     0.031 C 
ATOM     55  C   UNL     1      -8.703  -9.711  -2.036  1.00  0.00     0.029 A 
ATOM     56  C   UNL     1      -9.151  -8.631  -1.277  1.00  0.00     0.049 A 
ATOM     57  H   UNL     1      -9.142  -8.442   0.802  1.00  0.00     0.167 HD
ATOM     58  C   UNL     1      -9.978  -6.355  -0.709  1.00  0.00     0.074 A 
ATOM     59  C   UNL     1     -10.138  -6.419   0.739  1.00  0.00     0.031 C 
ATOM     60  C   UNL     1      -9.607  -7.302  -1.620  1.00  0.00     0.037 A 
BRANCH  47  61
ATOM     61  C   UNL     1      -7.874 -10.447   2.607  1.00  0.00     0.064 A 
ATOM     62  C   UNL     1      -8.988 -11.312   2.650  1.00  0.00     0.173 A 
ATOM     63  C   UNL     1      -7.645  -9.699   3.781  1.00  0.00     0.173 A 
ATOM     64  F   UNL     1      -9.316 -12.055   1.582  1.00  0.00    -0.203 F 
ATOM     65  C   UNL     1      -9.839 -11.371   3.759  1.00  0.00     0.198 A 
ATOM     66  C   UNL     1      -8.466  -9.798   4.904  1.00  0.00     0.198 A 
ATOM     67  F   UNL     1      -6.698  -8.757   3.856  1.00  0.00    -0.203 F 
ATOM     68  F   UNL     1     -10.949 -12.120   3.709  1.00  0.00    -0.200 F 
ATOM     69  C   UNL     1      -9.579 -10.610   4.883  1.00  0.00     0.200 A 
ATOM     70  F   UNL     1      -8.210  -9.032   5.975  1.00  0.00    -0.200 F 
ATOM     71  F   UNL     1     -10.421 -10.620   5.925  1.00  0.00    -0.200 F 
ENDBRANCH  47  61
BRANCH  48  72
ATOM     72  C   UNL     1      -8.926  -2.079   0.993  1.00  0.00     0.064 A 
ATOM     73  C   UNL     1     -10.218  -1.529   0.981  1.00  0.00     0.173 A 
ATOM     74  C   UNL     1      -8.039  -1.577   1.965  1.00  0.00     0.173 A 
ATOM     75  F   UNL     1     -11.134  -1.984   0.114  1.00  0.00    -0.203 F 
ATOM     76  C   UNL     1     -10.609  -0.556   1.909  1.00  0.00     0.198 A 
ATOM     77  C   UNL     1      -8.431  -0.609   2.892  1.00  0.00     0.198 A 
ATOM     78  F   UNL     1      -6.809  -2.096   2.096  1.00  0.00    -0.203 F 
ATOM     79  F   UNL     1     -11.869  -0.099   1.909  1.00  0.00    -0.200 F 
ATOM     80  C   UNL     1      -9.719  -0.108   2.872  1.00  0.00     0.200 A 
ATOM     81  F   UNL     1      -7.575  -0.220   3.848  1.00  0.00    -0.200 F 
ATOM     82  F   UNL     1     -10.115   0.768   3.807  1.00  0.00    -0.200 F 
ENDBRANCH  48  72
BRANCH  60  83
ATOM     83  C   UNL     1      -9.535  -6.881  -3.057  1.00  0.00     0.064 A 
ATOM     84  C   UNL     1      -8.583  -5.996  -3.587  1.00  0.00     0.173 A 
ATOM     85  C   UNL     1     -10.434  -7.473  -3.953  1.00  0.00     0.173 A 
ATOM     86  F   UNL     1      -7.642  -5.449  -2.810  1.00  0.00    -0.203 F 
ATOM     87  C   UNL     1      -8.560  -5.690  -4.948  1.00  0.00     0.198 A 
ATOM     88  C   UNL     1     -10.389  -7.193  -5.314  1.00  0.00     0.198 A 
ATOM     89  F   UNL     1     -11.338  -8.359  -3.507  1.00  0.00    -0.203 F 
ATOM     90  F   UNL     1      -7.650  -4.829  -5.429  1.00  0.00    -0.200 F 
ATOM     91  C   UNL     1      -9.460  -6.293  -5.810  1.00  0.00     0.200 A 
ATOM     92  F   UNL     1     -11.234  -7.813  -6.148  1.00  0.00    -0.200 F 
ATOM     93  F   UNL     1      -9.419  -6.025  -7.123  1.00  0.00    -0.200 F 
ENDBRANCH  60  83
ENDBRANCH  34  35
ENDBRANCH  26  29
ENDBRANCH  24  25
ENDBRANCH  23  24
ENDBRANCH   1  23
TORSDOF 13
