REMARK SMILES [NH3+][C@@H]1C(=O)N2C(C(=O)NCCCCNC(=O)c3ccc(-c4c5nc(c(-c6c(F)c(F)c(F)c(F)c6F)c6ccc([nH]6)c(-c6c(F)c(F)c(F)c(F)c6F)c6nc(c(-c7c(F)c(F)c(F)c(F)c7F)c7ccc4[nH]7)C=C6)C=C5)cc3)=CCS[C@@H]12
REMARK SMILES IDX 12 1 11 2 10 3 9 4 7 5 8 6 6 8 2 9 3 10 83 11 4 12 5 13
REMARK SMILES IDX 82 14 81 15 80 16 1 17 13 21 14 22 15 23 16 25 17 26 18 27
REMARK SMILES IDX 79 28 19 29 78 30 20 31 21 32 22 33 72 34 23 35 77 36 71 37
REMARK SMILES IDX 73 38 24 39 76 40 70 41 69 42 25 44 57 45 37 46 56 47 38 48
REMARK SMILES IDX 41 49 55 50 74 51 39 52 40 53 54 55 75 56 42 57 26 58 27 59
REMARK SMILES IDX 35 60 28 61 29 62 33 63 36 64 30 65 31 66 34 67 32 68 58 69
REMARK SMILES IDX 59 70 67 71 60 72 61 73 65 74 68 75 62 76 63 77 66 78 64 79
REMARK SMILES IDX 43 80 44 81 52 82 45 83 46 84 50 85 53 86 47 87 48 88 51 89
REMARK SMILES IDX 49 90
REMARK H PARENT 9 7 1 18 1 19 1 20 14 24 73 43 41 54
REMARK Flexibility Score: inf
ROOT
ATOM      1  C   UNL     1       3.440   5.046   7.636  1.00  0.00     0.023 C 
ENDROOT
BRANCH   1   2
ATOM      2  C   UNL     1       3.180   3.608   7.170  1.00  0.00     0.023 C 
BRANCH   2   3
ATOM      3  C   UNL     1       1.729   3.345   6.753  1.00  0.00     0.116 C 
BRANCH   3   4
ATOM      4  N   UNL     1       1.506   3.841   5.409  1.00  0.00    -0.351 N 
ATOM      5  C   UNL     1       1.542   3.271   4.172  1.00  0.00     0.267 C 
ATOM      6  O   UNL     1       1.499   4.052   3.221  1.00  0.00    -0.268 OA
ATOM      7  H   UNL     1       1.279   4.799   5.385  1.00  0.00     0.163 HD
BRANCH   5   8
ATOM      8  C   UNL     1       1.612   1.778   3.937  1.00  0.00     0.107 C 
ATOM      9  C   UNL     1       0.438   0.227   1.116  1.00  0.00     0.305 C 
ATOM     10  C   UNL     1       0.391   1.689   1.692  1.00  0.00     0.289 C 
ATOM     11  C   UNL     1       1.465  -0.023   2.253  1.00  0.00     0.217 C 
ATOM     12  O   UNL     1      -0.119   2.722   1.338  1.00  0.00    -0.267 OA
ATOM     13  N   UNL     1       1.103   1.287   2.770  1.00  0.00    -0.283 N 
ATOM     14  S   UNL     1       1.003  -1.253   3.496  1.00  0.00    -0.126 SA
ATOM     15  C   UNL     1       2.181  -0.595   4.709  1.00  0.00     0.101 C 
ATOM     16  C   UNL     1       2.202   0.910   4.786  1.00  0.00     0.016 C 
BRANCH   9  17
ATOM     17  N   UNL     1       1.095   0.086  -0.207  1.00  0.00    -0.345 N 
ATOM     18  H   UNL     1       0.411   0.252  -0.946  1.00  0.00     0.345 HD
ATOM     19  H   UNL     1       1.473  -0.857  -0.300  1.00  0.00     0.345 HD
ATOM     20  H   UNL     1       1.851   0.765  -0.285  1.00  0.00     0.345 HD
ENDBRANCH   9  17
ENDBRANCH   5   8
ENDBRANCH   3   4
ENDBRANCH   2   3
ENDBRANCH   1   2
BRANCH   1  21
ATOM     21  C   UNL     1       2.636   5.480   8.857  1.00  0.00     0.116 C 
BRANCH  21  22
ATOM     22  N   UNL     1       2.832   4.611  10.009  1.00  0.00    -0.352 N 
ATOM     23  C   UNL     1       2.916   4.951  11.337  1.00  0.00     0.251 C 
ATOM     24  H   UNL     1       2.915   3.651   9.809  1.00  0.00     0.163 HD
ATOM     25  O   UNL     1       3.214   4.108  12.176  1.00  0.00    -0.269 OA
BRANCH  23  26
ATOM     26  C   UNL     1       2.684   6.352  11.739  1.00  0.00     0.039 A 
ATOM     27  C   UNL     1       3.600   6.967  12.593  1.00  0.00     0.014 A 
ATOM     28  C   UNL     1       1.593   7.066  11.237  1.00  0.00     0.014 A 
ATOM     29  C   UNL     1       3.458   8.323  12.888  1.00  0.00     0.010 A 
ATOM     30  C   UNL     1       1.504   8.436  11.460  1.00  0.00     0.010 A 
ATOM     31  C   UNL     1       2.436   9.079  12.289  1.00  0.00    -0.014 A 
BRANCH  31  32
ATOM     32  C   UNL     1       2.344  10.545  12.509  1.00  0.00     0.031 A 
ATOM     33  C   UNL     1       1.135  11.141  13.174  1.00  0.00     0.074 A 
ATOM     34  C   UNL     1       3.334  11.344  12.064  1.00  0.00     0.049 A 
ATOM     35  N   UNL     1       0.872  12.396  13.439  1.00  0.00    -0.248 NA
ATOM     36  C   UNL     1       0.069  10.209  13.572  1.00  0.00     0.031 C 
ATOM     37  C   UNL     1       4.530  10.890  11.351  1.00  0.00     0.029 A 
ATOM     38  N   UNL     1       3.493  12.705  12.143  1.00  0.00    -0.354 N 
ATOM     39  C   UNL     1      -0.386  12.402  14.027  1.00  0.00     0.074 A 
ATOM     40  C   UNL     1      -0.863  11.037  14.019  1.00  0.00     0.031 C 
ATOM     41  C   UNL     1       5.316  11.946  11.093  1.00  0.00     0.029 A 
ATOM     42  C   UNL     1       4.661  13.157  11.579  1.00  0.00     0.049 A 
ATOM     43  H   UNL     1       2.832  13.301  12.565  1.00  0.00     0.167 HD
ATOM     44  C   UNL     1      -1.069  13.448  14.551  1.00  0.00     0.037 A 
ATOM     45  C   UNL     1       5.147  14.407  11.461  1.00  0.00     0.037 A 
ATOM     46  C   UNL     1      -0.584  14.804  14.562  1.00  0.00     0.049 A 
ATOM     47  C   UNL     1       4.357  15.554  12.032  1.00  0.00     0.074 A 
ATOM     48  C   UNL     1      -1.175  15.926  15.114  1.00  0.00     0.029 A 
ATOM     49  N   UNL     1       0.604  15.224  13.981  1.00  0.00    -0.354 N 
ATOM     50  N   UNL     1       3.207  15.538  12.660  1.00  0.00    -0.248 NA
ATOM     51  C   UNL     1       4.940  16.895  11.886  1.00  0.00     0.031 C 
ATOM     52  C   UNL     1      -0.380  17.035  14.809  1.00  0.00     0.029 A 
ATOM     53  C   UNL     1       0.748  16.594  14.135  1.00  0.00     0.049 A 
ATOM     54  H   UNL     1       1.250  14.636  13.526  1.00  0.00     0.167 HD
ATOM     55  C   UNL     1       2.945  16.855  13.014  1.00  0.00     0.074 A 
ATOM     56  C   UNL     1       4.066  17.642  12.545  1.00  0.00     0.031 C 
ATOM     57  C   UNL     1       1.873  17.365  13.670  1.00  0.00     0.037 A 
BRANCH  44  58
ATOM     58  C   UNL     1      -2.417  13.168  15.153  1.00  0.00     0.064 A 
ATOM     59  C   UNL     1      -2.560  12.407  16.325  1.00  0.00     0.173 A 
ATOM     60  C   UNL     1      -3.580  13.698  14.574  1.00  0.00     0.173 A 
ATOM     61  F   UNL     1      -1.484  11.868  16.916  1.00  0.00    -0.203 F 
ATOM     62  C   UNL     1      -3.817  12.160  16.872  1.00  0.00     0.198 A 
ATOM     63  C   UNL     1      -4.832  13.480  15.145  1.00  0.00     0.198 A 
ATOM     64  F   UNL     1      -3.504  14.438  13.457  1.00  0.00    -0.203 F 
ATOM     65  F   UNL     1      -3.932  11.383  17.958  1.00  0.00    -0.200 F 
ATOM     66  C   UNL     1      -4.950  12.704  16.287  1.00  0.00     0.200 A 
ATOM     67  F   UNL     1      -5.924  14.021  14.588  1.00  0.00    -0.200 F 
ATOM     68  F   UNL     1      -6.158  12.473  16.820  1.00  0.00    -0.200 F 
ENDBRANCH  44  58
BRANCH  45  69
ATOM     69  C   UNL     1       6.457  14.638  10.795  1.00  0.00     0.064 A 
ATOM     70  C   UNL     1       7.564  15.104  11.518  1.00  0.00     0.173 A 
ATOM     71  C   UNL     1       6.627  14.410   9.421  1.00  0.00     0.173 A 
ATOM     72  F   UNL     1       7.450  15.355  12.831  1.00  0.00    -0.203 F 
ATOM     73  C   UNL     1       8.781  15.361  10.888  1.00  0.00     0.198 A 
ATOM     74  C   UNL     1       7.854  14.633   8.799  1.00  0.00     0.198 A 
ATOM     75  F   UNL     1       5.603  13.957   8.683  1.00  0.00    -0.203 F 
ATOM     76  F   UNL     1       9.805  15.860  11.593  1.00  0.00    -0.200 F 
ATOM     77  C   UNL     1       8.927  15.119   9.531  1.00  0.00     0.200 A 
ATOM     78  F   UNL     1       7.995  14.379   7.491  1.00  0.00    -0.200 F 
ATOM     79  F   UNL     1      10.098  15.362   8.927  1.00  0.00    -0.200 F 
ENDBRANCH  45  69
BRANCH  57  80
ATOM     80  C   UNL     1       1.883  18.839  13.966  1.00  0.00     0.064 A 
ATOM     81  C   UNL     1       1.763  19.803  12.954  1.00  0.00     0.173 A 
ATOM     82  C   UNL     1       1.979  19.292  15.292  1.00  0.00     0.173 A 
ATOM     83  F   UNL     1       1.680  19.426  11.669  1.00  0.00    -0.203 F 
ATOM     84  C   UNL     1       1.775  21.163  13.254  1.00  0.00     0.198 A 
ATOM     85  C   UNL     1       1.952  20.651  15.592  1.00  0.00     0.198 A 
ATOM     86  F   UNL     1       2.087  18.414  16.301  1.00  0.00    -0.203 F 
ATOM     87  F   UNL     1       1.721  22.066  12.265  1.00  0.00    -0.200 F 
ATOM     88  C   UNL     1       1.861  21.585  14.572  1.00  0.00     0.200 A 
ATOM     89  F   UNL     1       2.014  21.055  16.868  1.00  0.00    -0.200 F 
ATOM     90  F   UNL     1       1.864  22.894  14.860  1.00  0.00    -0.200 F 
ENDBRANCH  57  80
ENDBRANCH  31  32
ENDBRANCH  23  26
ENDBRANCH  21  22
ENDBRANCH   1  21
TORSDOF 12
