REMARK SMILES O=C(NCCCCNC(=O)[C@@H]1[C@H](C(=O)NCc2ccncc2)[C@H]2C=C[C@@H]1O2)c1ccc(-c2c3nc(c(-c4c(F)c(F)c(F)c(F)c4F)c4ccc([nH]4)c(-c4c(F)c(F)c(F)c(F)c4F)c4nc(c(-c5c(F)c(F)c(F)c(F)c5F)c5ccc2[nH]5)C=C4)C=C3)cc1
REMARK SMILES IDX 6 1 5 2 4 3 3 4 1 5 2 6 28 8 29 9 90 10 30 11 89 12 31 13
REMARK SMILES IDX 32 14 33 15 83 16 34 17 88 18 82 19 84 20 35 21 87 22 81 23
REMARK SMILES IDX 80 24 36 26 68 27 48 28 67 29 49 30 52 31 66 32 85 33 50 34
REMARK SMILES IDX 51 35 65 37 86 38 53 39 37 40 38 41 46 42 39 43 40 44 44 45
REMARK SMILES IDX 47 46 41 47 42 48 45 49 43 50 69 51 70 52 78 53 71 54 72 55
REMARK SMILES IDX 76 56 79 57 73 58 74 59 77 60 75 61 54 62 55 63 63 64 56 65
REMARK SMILES IDX 57 66 61 67 64 68 58 69 59 70 62 71 60 72 7 73 8 74 9 75
REMARK SMILES IDX 10 77 11 78 12 79 26 80 23 81 25 82 27 83 24 84 13 85 14 86
REMARK SMILES IDX 15 87 16 89 17 90 18 91 22 92 19 93 21 94 20 95
REMARK H PARENT 3 7 84 25 52 36 8 76 15 88
REMARK Flexibility Score: inf
ROOT
ATOM      1  C   UNL     1       4.000   3.697  -1.552  1.00  0.00     0.023 C 
ENDROOT
BRANCH   1   2
ATOM      2  C   UNL     1       4.576   2.280  -1.646  1.00  0.00     0.023 C 
BRANCH   2   3
ATOM      3  C   UNL     1       4.384   1.425  -0.399  1.00  0.00     0.116 C 
BRANCH   3   4
ATOM      4  N   UNL     1       2.980   1.222  -0.083  1.00  0.00    -0.352 N 
ATOM      5  O   UNL     1       1.061   0.069   0.153  1.00  0.00    -0.269 OA
ATOM      6  C   UNL     1       2.281   0.050   0.072  1.00  0.00     0.251 C 
ATOM      7  H   UNL     1       2.454   2.045   0.038  1.00  0.00     0.163 HD
BRANCH   6   8
ATOM      8  C   UNL     1       3.006  -1.238   0.124  1.00  0.00     0.039 A 
ATOM      9  C   UNL     1       4.165  -1.375   0.891  1.00  0.00     0.014 A 
ATOM     10  C   UNL     1       2.500  -2.331  -0.585  1.00  0.00     0.014 A 
ATOM     11  C   UNL     1       4.884  -2.564   0.852  1.00  0.00     0.010 A 
ATOM     12  C   UNL     1       3.180  -3.551  -0.559  1.00  0.00     0.010 A 
ATOM     13  C   UNL     1       4.390  -3.671   0.142  1.00  0.00    -0.014 A 
BRANCH  13  14
ATOM     14  C   UNL     1       5.117  -4.963   0.210  1.00  0.00     0.031 A 
ATOM     15  C   UNL     1       5.758  -5.561  -1.009  1.00  0.00     0.074 A 
ATOM     16  C   UNL     1       5.208  -5.587   1.400  1.00  0.00     0.049 A 
ATOM     17  N   UNL     1       6.437  -6.676  -1.120  1.00  0.00    -0.248 NA
ATOM     18  C   UNL     1       5.612  -4.821  -2.271  1.00  0.00     0.031 C 
ATOM     19  C   UNL     1       4.611  -5.105   2.648  1.00  0.00     0.029 A 
ATOM     20  N   UNL     1       5.842  -6.747   1.761  1.00  0.00    -0.354 N 
ATOM     21  C   UNL     1       6.788  -6.777  -2.459  1.00  0.00     0.074 A 
ATOM     22  C   UNL     1       6.223  -5.626  -3.130  1.00  0.00     0.031 C 
ATOM     23  C   UNL     1       4.940  -5.940   3.644  1.00  0.00     0.029 A 
ATOM     24  C   UNL     1       5.719  -7.045   3.096  1.00  0.00     0.049 A 
ATOM     25  H   UNL     1       6.337  -7.312   1.125  1.00  0.00     0.167 HD
ATOM     26  C   UNL     1       7.523  -7.741  -3.067  1.00  0.00     0.037 A 
ATOM     27  C   UNL     1       6.167  -8.100   3.800  1.00  0.00     0.037 A 
ATOM     28  C   UNL     1       8.092  -8.878  -2.388  1.00  0.00     0.049 A 
ATOM     29  C   UNL     1       6.956  -9.165   3.093  1.00  0.00     0.074 A 
ATOM     30  C   UNL     1       8.883  -9.887  -2.909  1.00  0.00     0.029 A 
ATOM     31  N   UNL     1       7.925  -9.159  -1.039  1.00  0.00    -0.354 N 
ATOM     32  N   UNL     1       7.314  -9.229   1.835  1.00  0.00    -0.248 NA
ATOM     33  C   UNL     1       7.401 -10.304   3.905  1.00  0.00     0.031 C 
ATOM     34  C   UNL     1       9.153 -10.805  -1.888  1.00  0.00     0.029 A 
ATOM     35  C   UNL     1       8.576 -10.340  -0.717  1.00  0.00     0.049 A 
ATOM     36  H   UNL     1       7.419  -8.602  -0.404  1.00  0.00     0.167 HD
ATOM     37  C   UNL     1       8.042 -10.402   1.705  1.00  0.00     0.074 A 
ATOM     38  C   UNL     1       8.091 -11.009   3.020  1.00  0.00     0.031 C 
ATOM     39  C   UNL     1       8.616 -10.931   0.597  1.00  0.00     0.037 A 
BRANCH  26  40
ATOM     40  C   UNL     1       7.745  -7.621  -4.547  1.00  0.00     0.064 A 
ATOM     41  C   UNL     1       8.595  -6.647  -5.090  1.00  0.00     0.173 A 
ATOM     42  C   UNL     1       7.141  -8.529  -5.431  1.00  0.00     0.173 A 
ATOM     43  F   UNL     1       9.189  -5.748  -4.291  1.00  0.00    -0.203 F 
ATOM     44  C   UNL     1       8.816  -6.572  -6.464  1.00  0.00     0.198 A 
ATOM     45  C   UNL     1       7.386  -8.469  -6.801  1.00  0.00     0.198 A 
ATOM     46  F   UNL     1       6.325  -9.486  -4.965  1.00  0.00    -0.203 F 
ATOM     47  F   UNL     1       9.602  -5.608  -6.963  1.00  0.00    -0.200 F 
ATOM     48  C   UNL     1       8.218  -7.488  -7.317  1.00  0.00     0.200 A 
ATOM     49  F   UNL     1       6.818  -9.364  -7.622  1.00  0.00    -0.200 F 
ATOM     50  F   UNL     1       8.440  -7.420  -8.637  1.00  0.00    -0.200 F 
ENDBRANCH  26  40
BRANCH  27  51
ATOM     51  C   UNL     1       5.874  -8.194   5.253  1.00  0.00     0.064 A 
ATOM     52  C   UNL     1       6.894  -8.066   6.205  1.00  0.00     0.173 A 
ATOM     53  C   UNL     1       4.566  -8.397   5.718  1.00  0.00     0.173 A 
ATOM     54  F   UNL     1       8.162  -7.889   5.808  1.00  0.00    -0.203 F 
ATOM     55  C   UNL     1       6.619  -8.153   7.568  1.00  0.00     0.198 A 
ATOM     56  C   UNL     1       4.288  -8.452   7.082  1.00  0.00     0.198 A 
ATOM     57  F   UNL     1       3.554  -8.518   4.847  1.00  0.00    -0.203 F 
ATOM     58  F   UNL     1       7.618  -8.068   8.457  1.00  0.00    -0.200 F 
ATOM     59  C   UNL     1       5.316  -8.338   8.005  1.00  0.00     0.200 A 
ATOM     60  F   UNL     1       3.025  -8.612   7.499  1.00  0.00    -0.200 F 
ATOM     61  F   UNL     1       5.051  -8.412   9.316  1.00  0.00    -0.200 F 
ENDBRANCH  27  51
BRANCH  39  62
ATOM     62  C   UNL     1       9.370 -12.217   0.767  1.00  0.00     0.064 A 
ATOM     63  C   UNL     1       8.709 -13.432   0.995  1.00  0.00     0.173 A 
ATOM     64  C   UNL     1      10.770 -12.236   0.675  1.00  0.00     0.173 A 
ATOM     65  F   UNL     1       7.373 -13.463   1.109  1.00  0.00    -0.203 F 
ATOM     66  C   UNL     1       9.424 -14.617   1.151  1.00  0.00     0.198 A 
ATOM     67  C   UNL     1      11.480 -13.426   0.802  1.00  0.00     0.198 A 
ATOM     68  F   UNL     1      11.449 -11.100   0.454  1.00  0.00    -0.203 F 
ATOM     69  F   UNL     1       8.776 -15.758   1.419  1.00  0.00    -0.200 F 
ATOM     70  C   UNL     1      10.807 -14.614   1.048  1.00  0.00     0.200 A 
ATOM     71  F   UNL     1      12.815 -13.423   0.690  1.00  0.00    -0.200 F 
ATOM     72  F   UNL     1      11.494 -15.755   1.195  1.00  0.00    -0.200 F 
ENDBRANCH  39  62
ENDBRANCH  13  14
ENDBRANCH   6   8
ENDBRANCH   3   4
ENDBRANCH   2   3
ENDBRANCH   1   2
BRANCH   1  73
ATOM     73  C   UNL     1       4.494   4.512  -0.354  1.00  0.00     0.116 C 
BRANCH  73  74
ATOM     74  N   UNL     1       5.933   4.665  -0.406  1.00  0.00    -0.356 N 
ATOM     75  C   UNL     1       6.603   5.721  -0.941  1.00  0.00     0.227 C 
ATOM     76  H   UNL     1       6.475   3.940  -0.019  1.00  0.00     0.163 HD
ATOM     77  O   UNL     1       7.538   5.458  -1.695  1.00  0.00    -0.275 OA
BRANCH  75  78
ATOM     78  C   UNL     1       6.103   7.127  -0.726  1.00  0.00     0.127 C 
ATOM     79  C   UNL     1       7.171   8.247  -0.881  1.00  0.00     0.127 C 
ATOM     80  C   UNL     1       5.535   7.458   0.672  1.00  0.00     0.155 C 
ATOM     81  C   UNL     1       6.918   9.110   0.360  1.00  0.00     0.155 C 
ATOM     82  C   UNL     1       4.680   8.685   0.546  1.00  0.00     0.004 C 
ATOM     83  O   UNL     1       6.662   8.078   1.343  1.00  0.00    -0.365 OA
ATOM     84  C   UNL     1       5.530   9.701   0.328  1.00  0.00     0.004 C 
BRANCH  79  85
ATOM     85  C   UNL     1       8.650   7.892  -1.076  1.00  0.00     0.227 C 
ATOM     86  O   UNL     1       9.229   8.345  -2.073  1.00  0.00    -0.275 OA
ATOM     87  N   UNL     1       9.412   7.135  -0.242  1.00  0.00    -0.352 N 
ATOM     88  H   UNL     1      10.290   6.893  -0.615  1.00  0.00     0.163 HD
BRANCH  87  89
ATOM     89  C   UNL     1       9.180   6.618   1.089  1.00  0.00     0.151 C 
BRANCH  89  90
ATOM     90  C   UNL     1       9.770   5.255   1.362  1.00  0.00    -0.026 A 
ATOM     91  C   UNL     1       9.525   4.171   0.515  1.00  0.00     0.025 A 
ATOM     92  C   UNL     1      10.414   4.997   2.576  1.00  0.00     0.025 A 
ATOM     93  C   UNL     1       9.870   2.894   0.929  1.00  0.00     0.111 A 
ATOM     94  C   UNL     1      10.740   3.686   2.896  1.00  0.00     0.111 A 
ATOM     95  N   UNL     1      10.463   2.626   2.108  1.00  0.00    -0.265 NA
ENDBRANCH  89  90
ENDBRANCH  87  89
ENDBRANCH  79  85
ENDBRANCH  75  78
ENDBRANCH  73  74
ENDBRANCH   1  73
TORSDOF 14
