REMARK SMILES COCc1c(C(=O)NCCCCNC(=O)c2ccc(-c3c4nc(c(-c5c(F)c(F)c(F)c(F)c5F)c5ccc([nH]5)c(-c5c(F)c(F)c(F)c(F)c5F)c5nc(c(-c6c(F)c(F)c(F)c(F)c6F)c6ccc3[nH]6)C=C5)C=C4)cc2)sc2ccccc12
REMARK SMILES IDX 10 1 9 2 8 3 6 4 7 5 5 7 4 8 85 9 79 10 80 11 84 12 81 13
REMARK SMILES IDX 83 14 82 15 3 16 2 17 1 18 11 19 12 20 13 21 14 22 15 24
REMARK SMILES IDX 16 25 17 26 78 27 18 28 77 29 19 30 20 31 21 32 71 33 22 34
REMARK SMILES IDX 76 35 70 36 72 37 23 38 75 39 69 40 68 41 24 43 56 44 36 45
REMARK SMILES IDX 55 46 37 47 40 48 54 49 73 50 38 51 39 52 53 54 74 55 41 56
REMARK SMILES IDX 25 57 26 58 34 59 27 60 28 61 32 62 35 63 29 64 30 65 33 66
REMARK SMILES IDX 31 67 57 68 58 69 66 70 59 71 60 72 64 73 67 74 61 75 62 76
REMARK SMILES IDX 65 77 63 78 42 79 43 80 51 81 44 82 45 83 49 84 52 85 46 86
REMARK SMILES IDX 47 87 50 88 48 89
REMARK H PARENT 8 6 13 23 72 42 40 53
REMARK Flexibility Score: inf
ROOT
ATOM      1  C   UNL     1       0.686   4.953  -1.359  1.00  0.00     0.023 C 
ENDROOT
BRANCH   1   2
ATOM      2  C   UNL     1       1.676   4.274  -2.301  1.00  0.00     0.116 C 
BRANCH   2   3
ATOM      3  N   UNL     1       2.218   3.045  -1.754  1.00  0.00    -0.351 N 
ATOM      4  C   UNL     1       2.015   1.704  -1.981  1.00  0.00     0.261 C 
ATOM      5  O   UNL     1       2.714   0.986  -1.257  1.00  0.00    -0.268 OA
ATOM      6  H   UNL     1       2.892   3.210  -1.055  1.00  0.00     0.163 HD
BRANCH   4   7
ATOM      7  C   UNL     1       1.072   1.137  -2.948  1.00  0.00     0.099 A 
ATOM      8  C   UNL     1       0.593  -0.179  -2.976  1.00  0.00     0.009 A 
ATOM      9  C   UNL     1      -0.275  -0.427  -4.123  1.00  0.00    -0.001 A 
ATOM     10  S   UNL     1       0.501   2.001  -4.299  1.00  0.00    -0.130 S 
ATOM     11  C   UNL     1      -0.420   0.710  -4.912  1.00  0.00     0.035 A 
ATOM     12  C   UNL     1      -0.954  -1.599  -4.549  1.00  0.00     0.010 A 
ATOM     13  C   UNL     1      -1.220   0.729  -6.071  1.00  0.00     0.019 A 
ATOM     14  C   UNL     1      -1.731  -1.598  -5.714  1.00  0.00     0.001 A 
ATOM     15  C   UNL     1      -1.868  -0.440  -6.463  1.00  0.00     0.001 A 
BRANCH   8  16
ATOM     16  C   UNL     1       0.936  -1.256  -1.974  1.00  0.00     0.197 C 
BRANCH  16  17
ATOM     17  O   UNL     1       0.016  -1.310  -0.879  1.00  0.00    -0.380 OA
ATOM     18  C   UNL     1       0.431  -0.526   0.231  1.00  0.00     0.195 C 
ENDBRANCH  16  17
ENDBRANCH   8  16
ENDBRANCH   4   7
ENDBRANCH   2   3
ENDBRANCH   1   2
BRANCH   1  19
ATOM     19  C   UNL     1       1.306   5.588  -0.112  1.00  0.00     0.023 C 
BRANCH  19  20
ATOM     20  C   UNL     1       2.536   6.460  -0.350  1.00  0.00     0.116 C 
BRANCH  20  21
ATOM     21  N   UNL     1       2.357   7.463  -1.389  1.00  0.00    -0.352 N 
ATOM     22  C   UNL     1       2.905   8.718  -1.483  1.00  0.00     0.251 C 
ATOM     23  H   UNL     1       1.761   7.205  -2.129  1.00  0.00     0.163 HD
ATOM     24  O   UNL     1       2.606   9.457  -2.415  1.00  0.00    -0.269 OA
BRANCH  22  25
ATOM     25  C   UNL     1       3.820   9.198  -0.427  1.00  0.00     0.039 A 
ATOM     26  C   UNL     1       3.592  10.460   0.127  1.00  0.00     0.014 A 
ATOM     27  C   UNL     1       4.873   8.404   0.034  1.00  0.00     0.014 A 
ATOM     28  C   UNL     1       4.378  10.898   1.193  1.00  0.00     0.010 A 
ATOM     29  C   UNL     1       5.610   8.811   1.142  1.00  0.00     0.010 A 
ATOM     30  C   UNL     1       5.369  10.062   1.732  1.00  0.00    -0.014 A 
BRANCH  30  31
ATOM     31  C   UNL     1       6.163  10.481   2.913  1.00  0.00     0.031 A 
ATOM     32  C   UNL     1       7.643  10.701   2.786  1.00  0.00     0.074 A 
ATOM     33  C   UNL     1       5.559  10.603   4.111  1.00  0.00     0.049 A 
ATOM     34  N   UNL     1       8.516  11.014   3.710  1.00  0.00    -0.248 NA
ATOM     35  C   UNL     1       8.226  10.516   1.448  1.00  0.00     0.031 C 
ATOM     36  C   UNL     1       4.139  10.362   4.371  1.00  0.00     0.029 A 
ATOM     37  N   UNL     1       6.066  10.951   5.337  1.00  0.00    -0.354 N 
ATOM     38  C   UNL     1       9.747  11.047   3.069  1.00  0.00     0.074 A 
ATOM     39  C   UNL     1       9.518  10.670   1.692  1.00  0.00     0.031 C 
ATOM     40  C   UNL     1       3.884  10.592   5.669  1.00  0.00     0.029 A 
ATOM     41  C   UNL     1       5.126  10.966   6.338  1.00  0.00     0.049 A 
ATOM     42  H   UNL     1       7.015  11.170   5.486  1.00  0.00     0.167 HD
ATOM     43  C   UNL     1      10.955  11.387   3.579  1.00  0.00     0.037 A 
ATOM     44  C   UNL     1       5.255  11.250   7.648  1.00  0.00     0.037 A 
ATOM     45  C   UNL     1      11.174  11.790   4.943  1.00  0.00     0.049 A 
ATOM     46  C   UNL     1       6.605  11.641   8.184  1.00  0.00     0.074 A 
ATOM     47  C   UNL     1      12.348  12.208   5.543  1.00  0.00     0.029 A 
ATOM     48  N   UNL     1      10.190  11.826   5.921  1.00  0.00    -0.354 N 
ATOM     49  N   UNL     1       7.750  11.737   7.554  1.00  0.00    -0.248 NA
ATOM     50  C   UNL     1       6.677  11.975   9.614  1.00  0.00     0.031 C 
ATOM     51  C   UNL     1      12.084  12.460   6.893  1.00  0.00     0.029 A 
ATOM     52  C   UNL     1      10.734  12.246   7.124  1.00  0.00     0.049 A 
ATOM     53  H   UNL     1       9.245  11.588   5.780  1.00  0.00     0.167 HD
ATOM     54  C   UNL     1       8.670  12.171   8.498  1.00  0.00     0.074 A 
ATOM     55  C   UNL     1       7.947  12.333   9.742  1.00  0.00     0.031 C 
ATOM     56  C   UNL     1       9.996  12.414   8.349  1.00  0.00     0.037 A 
BRANCH  43  57
ATOM     57  C   UNL     1      12.134  11.343   2.650  1.00  0.00     0.064 A 
ATOM     58  C   UNL     1      12.284  12.271   1.608  1.00  0.00     0.173 A 
ATOM     59  C   UNL     1      13.140  10.380   2.820  1.00  0.00     0.173 A 
ATOM     60  F   UNL     1      11.343  13.203   1.394  1.00  0.00    -0.203 F 
ATOM     61  C   UNL     1      13.380  12.217   0.752  1.00  0.00     0.198 A 
ATOM     62  C   UNL     1      14.251  10.349   1.981  1.00  0.00     0.198 A 
ATOM     63  F   UNL     1      13.050   9.472   3.803  1.00  0.00    -0.203 F 
ATOM     64  F   UNL     1      13.474  13.081  -0.268  1.00  0.00    -0.200 F 
ATOM     65  C   UNL     1      14.366  11.261   0.943  1.00  0.00     0.200 A 
ATOM     66  F   UNL     1      15.209   9.432   2.174  1.00  0.00    -0.200 F 
ATOM     67  F   UNL     1      15.424  11.214   0.121  1.00  0.00    -0.200 F 
ENDBRANCH  43  57
BRANCH  44  68
ATOM     68  C   UNL     1       4.064  11.212   8.536  1.00  0.00     0.064 A 
ATOM     69  C   UNL     1       3.521  12.394   9.059  1.00  0.00     0.173 A 
ATOM     70  C   UNL     1       3.449  10.001   8.884  1.00  0.00     0.173 A 
ATOM     71  F   UNL     1       4.086  13.575   8.771  1.00  0.00    -0.203 F 
ATOM     72  C   UNL     1       2.421  12.364   9.914  1.00  0.00     0.198 A 
ATOM     73  C   UNL     1       2.333   9.974   9.718  1.00  0.00     0.198 A 
ATOM     74  F   UNL     1       3.927   8.843   8.405  1.00  0.00    -0.203 F 
ATOM     75  F   UNL     1       1.951  13.505  10.436  1.00  0.00    -0.200 F 
ATOM     76  C   UNL     1       1.825  11.155  10.239  1.00  0.00     0.200 A 
ATOM     77  F   UNL     1       1.751   8.805  10.018  1.00  0.00    -0.200 F 
ATOM     78  F   UNL     1       0.766  11.127  11.059  1.00  0.00    -0.200 F 
ENDBRANCH  44  68
BRANCH  56  79
ATOM     79  C   UNL     1      10.739  12.921   9.549  1.00  0.00     0.064 A 
ATOM     80  C   UNL     1      11.029  12.091  10.642  1.00  0.00     0.173 A 
ATOM     81  C   UNL     1      11.196  14.247   9.590  1.00  0.00     0.173 A 
ATOM     82  F   UNL     1      10.600  10.820  10.657  1.00  0.00    -0.203 F 
ATOM     83  C   UNL     1      11.724  12.579  11.745  1.00  0.00     0.198 A 
ATOM     84  C   UNL     1      11.917  14.723  10.682  1.00  0.00     0.198 A 
ATOM     85  F   UNL     1      10.951  15.079   8.566  1.00  0.00    -0.203 F 
ATOM     86  F   UNL     1      11.946  11.784  12.801  1.00  0.00    -0.200 F 
ATOM     87  C   UNL     1      12.173  13.892  11.761  1.00  0.00     0.200 A 
ATOM     88  F   UNL     1      12.361  15.988  10.690  1.00  0.00    -0.200 F 
ATOM     89  F   UNL     1      12.846  14.358  12.822  1.00  0.00    -0.200 F 
ENDBRANCH  56  79
ENDBRANCH  30  31
ENDBRANCH  22  25
ENDBRANCH  20  21
ENDBRANCH  19  20
ENDBRANCH   1  19
TORSDOF 13
