REMARK SMILES CC(C)[C@H](C)CNC(=O)N1CC(n2cc(C(=O)NCCCCNC(=O)c3ccc(-c4c5nc(c(-c6c(F)c(F)c(F)c(F)c6F)c6ccc([nH]6)c(-c6c(F)c(F)c(F)c(F)c6F)c6nc(c(-c7c(F)c(F)c(F)c(F)c7F)c7ccc4[nH]7)C=C6)C=C5)cc3)nn2)C1
REMARK SMILES IDX 19 1 18 2 16 3 17 4 15 6 13 7 14 8 90 9 89 10 12 11 7 12
REMARK SMILES IDX 8 13 9 15 10 16 11 17 91 18 6 19 4 20 5 21 2 22 1 23 3 24
REMARK SMILES IDX 20 25 21 26 22 27 23 28 24 29 25 31 26 32 27 33 88 34 28 35
REMARK SMILES IDX 87 36 29 37 30 38 31 39 81 40 32 41 86 42 80 43 82 44 33 45
REMARK SMILES IDX 85 46 79 47 78 48 34 50 66 51 46 52 65 53 47 54 50 55 64 56
REMARK SMILES IDX 83 57 48 58 49 59 63 61 84 62 51 63 35 64 36 65 44 66 37 67
REMARK SMILES IDX 38 68 42 69 45 70 39 71 40 72 43 73 41 74 67 75 68 76 76 77
REMARK SMILES IDX 69 78 70 79 74 80 77 81 71 82 72 83 75 84 73 85 52 86 53 87
REMARK SMILES IDX 61 88 54 89 55 90 59 91 62 92 56 93 57 94 60 95 58 96
REMARK H PARENT 18 5 7 14 23 30 82 49 50 60
REMARK Flexibility Score: inf
ROOT
ATOM      1  C   UNL     1      -8.880   3.361  -5.339  1.00  0.00     0.116 C 
ENDROOT
BRANCH   1   2
ATOM      2  N   UNL     1      -9.940   2.537  -4.795  1.00  0.00    -0.351 N 
ATOM      3  C   UNL     1      -9.939   1.266  -4.265  1.00  0.00     0.273 C 
ATOM      4  O   UNL     1     -10.999   0.885  -3.766  1.00  0.00    -0.267 OA
ATOM      5  H   UNL     1     -10.826   2.965  -4.807  1.00  0.00     0.163 HD
BRANCH   3   6
ATOM      6  C   UNL     1      -8.743   0.428  -4.263  1.00  0.00     0.170 A 
ATOM      7  N   UNL     1      -6.808  -0.530  -4.533  1.00  0.00    -0.245 N 
ATOM      8  C   UNL     1      -7.612   0.446  -5.056  1.00  0.00     0.145 A 
ATOM      9  N   UNL     1      -7.414  -1.167  -3.524  1.00  0.00    -0.066 NA
ATOM     10  N   UNL     1      -8.610  -0.616  -3.368  1.00  0.00    -0.125 NA
BRANCH   7  11
ATOM     11  C   UNL     1      -5.461  -0.749  -4.957  1.00  0.00     0.148 C 
ATOM     12  N   UNL     1      -1.438  -0.189  -3.959  1.00  0.00    -0.338 N 
ATOM     13  C   UNL     1      -2.310  -1.149  -4.359  1.00  0.00     0.317 C 
ATOM     14  H   UNL     1      -0.560  -0.214  -4.403  1.00  0.00     0.165 HD
ATOM     15  O   UNL     1      -1.874  -2.121  -4.973  1.00  0.00    -0.249 OA
ATOM     16  N   UNL     1      -3.628  -1.003  -4.072  1.00  0.00    -0.320 N 
ATOM     17  C   UNL     1      -4.720  -1.940  -4.337  1.00  0.00     0.150 C 
ATOM     18  C   UNL     1      -4.497   0.159  -4.166  1.00  0.00     0.150 C 
BRANCH  12  19
ATOM     19  C   UNL     1      -1.600   0.872  -2.977  1.00  0.00     0.121 C 
BRANCH  19  20
ATOM     20  C   UNL     1      -1.032   0.507  -1.585  1.00  0.00     0.008 C 
ATOM     21  C   UNL     1       0.486   0.283  -1.681  1.00  0.00     0.010 C 
BRANCH  20  22
ATOM     22  C   UNL     1      -1.469   1.498  -0.440  1.00  0.00    -0.013 C 
ATOM     23  C   UNL     1      -0.348   1.916   0.521  1.00  0.00     0.008 C 
ATOM     24  C   UNL     1      -2.200   2.764  -0.907  1.00  0.00     0.008 C 
ENDBRANCH  20  22
ENDBRANCH  19  20
ENDBRANCH  12  19
ENDBRANCH   7  11
ENDBRANCH   3   6
ENDBRANCH   1   2
BRANCH   1  25
ATOM     25  C   UNL     1      -8.954   3.458  -6.865  1.00  0.00     0.023 C 
BRANCH  25  26
ATOM     26  C   UNL     1     -10.064   4.369  -7.416  1.00  0.00     0.023 C 
BRANCH  26  27
ATOM     27  C   UNL     1      -9.939   5.844  -7.045  1.00  0.00     0.116 C 
BRANCH  27  28
ATOM     28  N   UNL     1      -8.703   6.460  -7.525  1.00  0.00    -0.352 N 
ATOM     29  C   UNL     1      -8.197   7.713  -7.214  1.00  0.00     0.251 C 
ATOM     30  H   UNL     1      -8.163   5.919  -8.146  1.00  0.00     0.163 HD
ATOM     31  O   UNL     1      -7.411   8.279  -7.953  1.00  0.00    -0.269 OA
BRANCH  29  32
ATOM     32  C   UNL     1      -8.615   8.342  -5.948  1.00  0.00     0.039 A 
ATOM     33  C   UNL     1      -8.931   9.701  -5.870  1.00  0.00     0.014 A 
ATOM     34  C   UNL     1      -8.716   7.520  -4.830  1.00  0.00     0.014 A 
ATOM     35  C   UNL     1      -9.434  10.201  -4.671  1.00  0.00     0.010 A 
ATOM     36  C   UNL     1      -9.355   7.973  -3.706  1.00  0.00     0.010 A 
ATOM     37  C   UNL     1      -9.667   9.322  -3.599  1.00  0.00    -0.014 A 
BRANCH  37  38
ATOM     38  C   UNL     1     -10.388   9.760  -2.408  1.00  0.00     0.031 A 
ATOM     39  C   UNL     1     -11.727  10.329  -2.715  1.00  0.00     0.074 A 
ATOM     40  C   UNL     1      -9.984   9.465  -1.150  1.00  0.00     0.049 A 
ATOM     41  N   UNL     1     -12.091  11.562  -2.612  1.00  0.00    -0.248 NA
ATOM     42  C   UNL     1     -12.729   9.473  -3.374  1.00  0.00     0.031 C 
ATOM     43  C   UNL     1      -8.848   8.621  -0.754  1.00  0.00     0.029 A 
ATOM     44  N   UNL     1     -10.557   9.768   0.053  1.00  0.00    -0.354 N 
ATOM     45  C   UNL     1     -13.444  11.588  -2.948  1.00  0.00     0.074 A 
ATOM     46  C   UNL     1     -13.714  10.344  -3.614  1.00  0.00     0.031 C 
ATOM     47  C   UNL     1      -8.952   8.290   0.551  1.00  0.00     0.029 A 
ATOM     48  C   UNL     1     -10.049   9.041   1.130  1.00  0.00     0.049 A 
ATOM     49  H   UNL     1     -11.267  10.443   0.151  1.00  0.00     0.167 HD
ATOM     50  C   UNL     1     -14.271  12.489  -2.347  1.00  0.00     0.037 A 
ATOM     51  C   UNL     1     -10.490   9.061   2.412  1.00  0.00     0.037 A 
ATOM     52  C   UNL     1     -13.491  13.488  -1.658  1.00  0.00     0.049 A 
ATOM     53  C   UNL     1     -11.242  10.320   2.597  1.00  0.00     0.074 A 
ATOM     54  C   UNL     1     -12.740  14.589  -2.002  1.00  0.00     0.029 A 
ATOM     55  N   UNL     1     -13.102  13.099  -0.404  1.00  0.00    -0.354 N 
ATOM     56  N   UNL     1     -10.679  11.495   2.576  1.00  0.00    -0.248 NA
ATOM     57  C   UNL     1     -12.692  10.314   2.441  1.00  0.00     0.031 C 
ATOM     58  C   UNL     1     -11.777  14.753  -0.961  1.00  0.00     0.029 A 
ATOM     59  C   UNL     1     -12.001  13.788   0.018  1.00  0.00     0.049 A 
ATOM     60  H   UNL     1     -13.559  12.407   0.127  1.00  0.00     0.167 HD
ATOM     61  C   UNL     1     -11.616  12.304   1.967  1.00  0.00     0.074 A 
ATOM     62  C   UNL     1     -12.880  11.586   2.078  1.00  0.00     0.031 C 
ATOM     63  C   UNL     1     -11.220  13.306   1.132  1.00  0.00     0.037 A 
BRANCH  50  64
ATOM     64  C   UNL     1     -15.702  12.218  -1.911  1.00  0.00     0.064 A 
ATOM     65  C   UNL     1     -16.432  13.267  -1.306  1.00  0.00     0.173 A 
ATOM     66  C   UNL     1     -16.261  10.932  -1.752  1.00  0.00     0.173 A 
ATOM     67  F   UNL     1     -15.998  14.534  -1.380  1.00  0.00    -0.203 F 
ATOM     68  C   UNL     1     -17.575  13.031  -0.534  1.00  0.00     0.198 A 
ATOM     69  C   UNL     1     -17.427  10.706  -1.020  1.00  0.00     0.198 A 
ATOM     70  F   UNL     1     -15.654   9.827  -2.194  1.00  0.00    -0.203 F 
ATOM     71  F   UNL     1     -18.158  14.043   0.122  1.00  0.00    -0.200 F 
ATOM     72  C   UNL     1     -18.066  11.748  -0.384  1.00  0.00     0.200 A 
ATOM     73  F   UNL     1     -17.874   9.451  -0.868  1.00  0.00    -0.200 F 
ATOM     74  F   UNL     1     -19.122  11.508   0.405  1.00  0.00    -0.200 F 
ENDBRANCH  50  64
BRANCH  51  75
ATOM     75  C   UNL     1     -10.483   8.001   3.447  1.00  0.00     0.064 A 
ATOM     76  C   UNL     1     -10.610   8.310   4.812  1.00  0.00     0.173 A 
ATOM     77  C   UNL     1     -10.667   6.654   3.089  1.00  0.00     0.173 A 
ATOM     78  F   UNL     1     -10.482   9.577   5.232  1.00  0.00    -0.203 F 
ATOM     79  C   UNL     1     -10.947   7.335   5.758  1.00  0.00     0.198 A 
ATOM     80  C   UNL     1     -11.004   5.681   4.033  1.00  0.00     0.198 A 
ATOM     81  F   UNL     1     -10.624   6.279   1.802  1.00  0.00    -0.203 F 
ATOM     82  F   UNL     1     -11.128   7.681   7.040  1.00  0.00    -0.200 F 
ATOM     83  C   UNL     1     -11.161   6.025   5.364  1.00  0.00     0.200 A 
ATOM     84  F   UNL     1     -11.246   4.424   3.635  1.00  0.00    -0.200 F 
ATOM     85  F   UNL     1     -11.559   5.106   6.255  1.00  0.00    -0.200 F 
ENDBRANCH  51  75
BRANCH  63  86
ATOM     86  C   UNL     1      -9.830  13.831   1.306  1.00  0.00     0.064 A 
ATOM     87  C   UNL     1      -8.659  13.108   1.031  1.00  0.00     0.173 A 
ATOM     88  C   UNL     1      -9.691  15.163   1.716  1.00  0.00     0.173 A 
ATOM     89  F   UNL     1      -8.714  11.854   0.565  1.00  0.00    -0.203 F 
ATOM     90  C   UNL     1      -7.402  13.687   1.199  1.00  0.00     0.198 A 
ATOM     91  C   UNL     1      -8.438  15.750   1.847  1.00  0.00     0.198 A 
ATOM     92  F   UNL     1     -10.781  15.908   1.956  1.00  0.00    -0.203 F 
ATOM     93  F   UNL     1      -6.293  12.974   0.950  1.00  0.00    -0.200 F 
ATOM     94  C   UNL     1      -7.294  15.009   1.601  1.00  0.00     0.200 A 
ATOM     95  F   UNL     1      -8.343  17.040   2.196  1.00  0.00    -0.200 F 
ATOM     96  F   UNL     1      -6.087  15.577   1.732  1.00  0.00    -0.200 F 
ENDBRANCH  63  86
ENDBRANCH  37  38
ENDBRANCH  29  32
ENDBRANCH  27  28
ENDBRANCH  26  27
ENDBRANCH  25  26
ENDBRANCH   1  25
TORSDOF 15
