REMARK SMILES [NH3+]C[C@H]1CC[C@@H](C(=O)Nc2ccc(C(=O)NCCCCNC(=O)c3ccc(-c4c5nc(c(-c6c(F)c(F)c(F)c(F)c6F)c6ccc([nH]6)c(-c6c(F)c(F)c(F)c(F)c6F)c6nc(c(-c7c(F)c(F)c(F)c(F)c7F)c7ccc4[nH]7)C=C6)C=C5)cc3)cc2Br)CC1
REMARK SMILES IDX 17 1 16 2 14 3 15 4 13 6 10 7 11 8 88 9 12 10 87 11 89 12
REMARK SMILES IDX 9 13 7 14 8 15 6 17 3 18 4 19 91 20 5 21 90 22 2 23 1 24
REMARK SMILES IDX 18 28 19 29 20 30 21 31 22 32 23 34 24 35 25 36 86 37 26 38
REMARK SMILES IDX 85 39 27 40 28 41 29 42 79 43 30 44 84 45 78 46 80 47 31 48
REMARK SMILES IDX 83 49 77 50 76 51 32 53 64 54 44 55 63 56 45 57 48 58 62 59
REMARK SMILES IDX 81 60 46 61 47 62 61 64 82 65 49 66 33 67 34 68 42 69 35 70
REMARK SMILES IDX 36 71 40 72 43 73 37 74 38 75 41 76 39 77 65 78 66 79 74 80
REMARK SMILES IDX 67 81 68 82 72 83 75 84 69 85 70 86 73 87 71 88 50 89 51 90
REMARK SMILES IDX 59 91 52 92 53 93 57 94 60 95 54 96 55 97 58 98 56 99
REMARK H PARENT 16 5 9 16 1 25 1 26 1 27 21 33 80 52 48 63
REMARK Flexibility Score: inf
ROOT
ATOM      1  C   UNL     1       2.410  -0.977  -0.269  1.00  0.00     0.116 C 
ENDROOT
BRANCH   1   2
ATOM      2  N   UNL     1       1.405  -1.724   0.473  1.00  0.00    -0.352 N 
ATOM      3  C   UNL     1       0.729  -1.421   1.628  1.00  0.00     0.251 C 
ATOM      4  O   UNL     1      -0.174  -2.164   2.007  1.00  0.00    -0.269 OA
ATOM      5  H   UNL     1       1.169  -2.595   0.079  1.00  0.00     0.163 HD
BRANCH   3   6
ATOM      6  C   UNL     1       0.996  -0.165   2.367  1.00  0.00     0.041 A 
ATOM      7  C   UNL     1       1.341   2.439   3.320  1.00  0.00     0.055 A 
ATOM      8  C   UNL     1       0.069   1.860   3.312  1.00  0.00     0.028 A 
ATOM      9  C   UNL     1       2.458   1.627   3.076  1.00  0.00     0.042 A 
ATOM     10  C   UNL     1      -0.107   0.568   2.816  1.00  0.00     0.016 A 
ATOM     11  C   UNL     1       2.284   0.321   2.602  1.00  0.00     0.031 A 
ATOM     12  Br  UNL     1       4.230   2.197   3.444  1.00  0.00    -0.049 Br
BRANCH   7  13
ATOM     13  N   UNL     1       1.423   3.776   3.712  1.00  0.00    -0.325 N 
ATOM     14  C   UNL     1       1.887   4.888   3.081  1.00  0.00     0.227 C 
ATOM     15  O   UNL     1       2.076   5.869   3.817  1.00  0.00    -0.274 OA
ATOM     16  H   UNL     1       1.080   3.946   4.618  1.00  0.00     0.169 HD
BRANCH  14  17
ATOM     17  C   UNL     1       1.967   5.105   1.552  1.00  0.00     0.079 C 
ATOM     18  C   UNL     1       0.498   3.385  -0.467  1.00  0.00     0.044 C 
ATOM     19  C   UNL     1      -0.225   4.297   0.534  1.00  0.00     0.010 C 
ATOM     20  C   UNL     1       1.930   3.046  -0.029  1.00  0.00     0.010 C 
ATOM     21  C   UNL     1       0.606   5.493   0.966  1.00  0.00     0.014 C 
ATOM     22  C   UNL     1       2.727   4.176   0.615  1.00  0.00     0.014 C 
BRANCH  18  23
ATOM     23  C   UNL     1      -0.345   2.104  -0.653  1.00  0.00     0.262 C 
BRANCH  23  24
ATOM     24  N   UNL     1       0.209   1.181  -1.636  1.00  0.00    -0.357 N 
ATOM     25  H   UNL     1      -0.393   0.361  -1.710  1.00  0.00     0.344 HD
ATOM     26  H   UNL     1       1.143   0.892  -1.343  1.00  0.00     0.344 HD
ATOM     27  H   UNL     1       0.266   1.644  -2.543  1.00  0.00     0.344 HD
ENDBRANCH  23  24
ENDBRANCH  18  23
ENDBRANCH  14  17
ENDBRANCH   7  13
ENDBRANCH   3   6
ENDBRANCH   1   2
BRANCH   1  28
ATOM     28  C   UNL     1       3.760  -1.690  -0.233  1.00  0.00     0.023 C 
BRANCH  28  29
ATOM     29  C   UNL     1       3.803  -2.961  -1.085  1.00  0.00     0.023 C 
BRANCH  29  30
ATOM     30  C   UNL     1       3.604  -2.735  -2.581  1.00  0.00     0.116 C 
BRANCH  30  31
ATOM     31  N   UNL     1       4.658  -1.926  -3.178  1.00  0.00    -0.352 N 
ATOM     32  C   UNL     1       5.422  -2.197  -4.287  1.00  0.00     0.251 C 
ATOM     33  H   UNL     1       4.848  -1.072  -2.726  1.00  0.00     0.163 HD
ATOM     34  O   UNL     1       6.369  -1.479  -4.594  1.00  0.00    -0.269 OA
BRANCH  32  35
ATOM     35  C   UNL     1       5.105  -3.389  -5.096  1.00  0.00     0.039 A 
ATOM     36  C   UNL     1       6.111  -4.320  -5.365  1.00  0.00     0.014 A 
ATOM     37  C   UNL     1       3.798  -3.607  -5.538  1.00  0.00     0.014 A 
ATOM     38  C   UNL     1       5.788  -5.515  -6.011  1.00  0.00     0.010 A 
ATOM     39  C   UNL     1       3.466  -4.824  -6.121  1.00  0.00     0.010 A 
ATOM     40  C   UNL     1       4.456  -5.793  -6.357  1.00  0.00    -0.014 A 
BRANCH  40  41
ATOM     41  C   UNL     1       4.056  -7.080  -6.979  1.00  0.00     0.031 A 
ATOM     42  C   UNL     1       3.471  -7.078  -8.363  1.00  0.00     0.074 A 
ATOM     43  C   UNL     1       4.122  -8.225  -6.272  1.00  0.00     0.049 A 
ATOM     44  N   UNL     1       2.875  -8.043  -9.015  1.00  0.00    -0.248 NA
ATOM     45  C   UNL     1       3.539  -5.806  -9.101  1.00  0.00     0.031 C 
ATOM     46  C   UNL     1       4.650  -8.356  -4.913  1.00  0.00     0.029 A 
ATOM     47  N   UNL     1       3.716  -9.498  -6.593  1.00  0.00    -0.354 N 
ATOM     48  C   UNL     1       2.479  -7.490 -10.225  1.00  0.00     0.074 A 
ATOM     49  C   UNL     1       2.861  -6.095 -10.202  1.00  0.00     0.031 C 
ATOM     50  C   UNL     1       4.537  -9.635  -4.518  1.00  0.00     0.029 A 
ATOM     51  C   UNL     1       3.886 -10.404  -5.574  1.00  0.00     0.049 A 
ATOM     52  H   UNL     1       3.338  -9.737  -7.470  1.00  0.00     0.167 HD
ATOM     53  C   UNL     1       1.868  -8.098 -11.269  1.00  0.00     0.037 A 
ATOM     54  C   UNL     1       3.534 -11.702  -5.495  1.00  0.00     0.037 A 
ATOM     55  C   UNL     1       1.518  -9.492 -11.301  1.00  0.00     0.049 A 
ATOM     56  C   UNL     1       2.846 -12.350  -6.669  1.00  0.00     0.074 A 
ATOM     57  C   UNL     1       0.910 -10.206 -12.319  1.00  0.00     0.029 A 
ATOM     58  N   UNL     1       1.759 -10.387 -10.270  1.00  0.00    -0.354 N 
ATOM     59  N   UNL     1       2.496 -11.823  -7.817  1.00  0.00    -0.248 NA
ATOM     60  C   UNL     1       2.505 -13.775  -6.538  1.00  0.00     0.031 C 
ATOM     61  C   UNL     1       0.760 -11.530 -11.894  1.00  0.00     0.029 A 
ATOM     62  C   UNL     1       1.315 -11.648 -10.630  1.00  0.00     0.049 A 
ATOM     63  H   UNL     1       2.183 -10.160  -9.411  1.00  0.00     0.167 HD
ATOM     64  C   UNL     1       1.940 -12.857  -8.558  1.00  0.00     0.074 A 
ATOM     65  C   UNL     1       1.998 -14.044  -7.732  1.00  0.00     0.031 C 
ATOM     66  C   UNL     1       1.428 -12.826  -9.812  1.00  0.00     0.037 A 
BRANCH  53  67
ATOM     67  C   UNL     1       1.554  -7.262 -12.474  1.00  0.00     0.064 A 
ATOM     68  C   UNL     1       2.566  -6.809 -13.333  1.00  0.00     0.173 A 
ATOM     69  C   UNL     1       0.225  -6.958 -12.806  1.00  0.00     0.173 A 
ATOM     70  F   UNL     1       3.853  -7.063 -13.051  1.00  0.00    -0.203 F 
ATOM     71  C   UNL     1       2.262  -6.066 -14.469  1.00  0.00     0.198 A 
ATOM     72  C   UNL     1      -0.078  -6.238 -13.959  1.00  0.00     0.198 A 
ATOM     73  F   UNL     1      -0.781  -7.371 -12.020  1.00  0.00    -0.203 F 
ATOM     74  F   UNL     1       3.248  -5.611 -15.254  1.00  0.00    -0.200 F 
ATOM     75  C   UNL     1       0.941  -5.789 -14.786  1.00  0.00     0.200 A 
ATOM     76  F   UNL     1      -1.356  -5.982 -14.271  1.00  0.00    -0.200 F 
ATOM     77  F   UNL     1       0.648  -5.085 -15.888  1.00  0.00    -0.200 F 
ENDBRANCH  53  67
BRANCH  54  78
ATOM     78  C   UNL     1       3.824 -12.488  -4.266  1.00  0.00     0.064 A 
ATOM     79  C   UNL     1       4.762 -13.531  -4.284  1.00  0.00     0.173 A 
ATOM     80  C   UNL     1       3.143 -12.246  -3.064  1.00  0.00     0.173 A 
ATOM     81  F   UNL     1       5.423 -13.816  -5.415  1.00  0.00    -0.203 F 
ATOM     82  C   UNL     1       4.982 -14.322  -3.158  1.00  0.00     0.198 A 
ATOM     83  C   UNL     1       3.386 -13.018  -1.930  1.00  0.00     0.198 A 
ATOM     84  F   UNL     1       2.238 -11.258  -2.991  1.00  0.00    -0.203 F 
ATOM     85  F   UNL     1       5.838 -15.351  -3.222  1.00  0.00    -0.200 F 
ATOM     86  C   UNL     1       4.296 -14.063  -1.981  1.00  0.00     0.200 A 
ATOM     87  F   UNL     1       2.730 -12.757  -0.791  1.00  0.00    -0.200 F 
ATOM     88  F   UNL     1       4.502 -14.829  -0.901  1.00  0.00    -0.200 F 
ENDBRANCH  54  78
BRANCH  66  89
ATOM     89  C   UNL     1       0.964 -14.122 -10.406  1.00  0.00     0.064 A 
ATOM     90  C   UNL     1      -0.232 -14.733 -10.007  1.00  0.00     0.173 A 
ATOM     91  C   UNL     1       1.696 -14.719 -11.444  1.00  0.00     0.173 A 
ATOM     92  F   UNL     1      -0.959 -14.207  -9.010  1.00  0.00    -0.203 F 
ATOM     93  C   UNL     1      -0.673 -15.905 -10.617  1.00  0.00     0.198 A 
ATOM     94  C   UNL     1       1.240 -15.875 -12.069  1.00  0.00     0.198 A 
ATOM     95  F   UNL     1       2.844 -14.167 -11.865  1.00  0.00    -0.203 F 
ATOM     96  F   UNL     1      -1.803 -16.491 -10.199  1.00  0.00    -0.200 F 
ATOM     97  C   UNL     1       0.058 -16.469 -11.653  1.00  0.00     0.200 A 
ATOM     98  F   UNL     1       1.939 -16.410 -13.079  1.00  0.00    -0.200 F 
ATOM     99  F   UNL     1      -0.377 -17.587 -12.250  1.00  0.00    -0.200 F 
ENDBRANCH  66  89
ENDBRANCH  40  41
ENDBRANCH  32  35
ENDBRANCH  30  31
ENDBRANCH  29  30
ENDBRANCH  28  29
ENDBRANCH   1  28
TORSDOF 15
