REMARK SMILES O=C(NCCCCNC(=O)C1(C/C=C/c2ccccc2)CCCCC1)c1ccc(-c2c3nc(c(-c4c(F)c(F)c(F)c(F)c4F)c4ccc([nH]4)c(-c4c(F)c(F)c(F)c(F)c4F)c4nc(c(-c5c(F)c(F)c(F)c(F)c5F)c5ccc2[nH]5)C=C4)C=C3)cc1
REMARK SMILES IDX 6 1 5 2 4 3 3 4 1 5 2 6 26 8 27 9 88 10 28 11 87 12 29 13
REMARK SMILES IDX 30 14 31 15 81 16 32 17 86 18 80 19 82 20 33 21 85 22 79 23
REMARK SMILES IDX 78 24 34 26 66 27 46 28 65 29 47 30 50 31 64 32 83 33 48 34
REMARK SMILES IDX 49 35 63 37 84 38 51 39 35 40 36 41 44 42 37 43 38 44 42 45
REMARK SMILES IDX 45 46 39 47 40 48 43 49 41 50 67 51 68 52 76 53 69 54 70 55
REMARK SMILES IDX 74 56 77 57 71 58 72 59 75 60 73 61 52 62 53 63 61 64 54 65
REMARK SMILES IDX 55 66 59 67 62 68 56 69 57 70 60 71 58 72 7 73 8 74 9 75
REMARK SMILES IDX 10 77 11 78 21 79 25 80 22 81 24 82 23 83 12 84 13 85 14 86
REMARK SMILES IDX 15 87 16 88 20 89 17 90 19 91 18 92
REMARK H PARENT 3 7 82 25 50 36 8 76
REMARK Flexibility Score: inf
ROOT
ATOM      1  C   UNL     1       5.705  -2.472   2.322  1.00  0.00     0.023 C 
ENDROOT
BRANCH   1   2
ATOM      2  C   UNL     1       5.707  -1.046   1.791  1.00  0.00     0.023 C 
BRANCH   2   3
ATOM      3  C   UNL     1       5.290  -0.801   0.350  1.00  0.00     0.116 C 
BRANCH   3   4
ATOM      4  N   UNL     1       3.864  -0.918   0.063  1.00  0.00    -0.352 N 
ATOM      5  O   UNL     1       1.856  -0.185  -0.775  1.00  0.00    -0.269 OA
ATOM      6  C   UNL     1       3.015   0.035  -0.467  1.00  0.00     0.251 C 
ATOM      7  H   UNL     1       3.454  -1.788   0.274  1.00  0.00     0.163 HD
BRANCH   6   8
ATOM      8  C   UNL     1       3.526   1.394  -0.648  1.00  0.00     0.039 A 
ATOM      9  C   UNL     1       4.663   1.585  -1.427  1.00  0.00     0.014 A 
ATOM     10  C   UNL     1       2.902   2.451   0.020  1.00  0.00     0.014 A 
ATOM     11  C   UNL     1       5.298   2.807  -1.380  1.00  0.00     0.010 A 
ATOM     12  C   UNL     1       3.470   3.718  -0.048  1.00  0.00     0.010 A 
ATOM     13  C   UNL     1       4.686   3.889  -0.723  1.00  0.00    -0.014 A 
BRANCH  13  14
ATOM     14  C   UNL     1       5.305   5.216  -0.884  1.00  0.00     0.031 A 
ATOM     15  C   UNL     1       5.927   5.925   0.273  1.00  0.00     0.074 A 
ATOM     16  C   UNL     1       5.349   5.705  -2.137  1.00  0.00     0.049 A 
ATOM     17  N   UNL     1       6.603   7.044   0.277  1.00  0.00    -0.248 NA
ATOM     18  C   UNL     1       5.769   5.312   1.600  1.00  0.00     0.031 C 
ATOM     19  C   UNL     1       4.745   5.055  -3.307  1.00  0.00     0.029 A 
ATOM     20  N   UNL     1       5.957   6.813  -2.652  1.00  0.00    -0.354 N 
ATOM     21  C   UNL     1       6.940   7.277   1.603  1.00  0.00     0.074 A 
ATOM     22  C   UNL     1       6.371   6.199   2.382  1.00  0.00     0.031 C 
ATOM     23  C   UNL     1       5.081   5.733  -4.410  1.00  0.00     0.029 A 
ATOM     24  C   UNL     1       5.847   6.905  -4.017  1.00  0.00     0.049 A 
ATOM     25  H   UNL     1       6.427   7.479  -2.099  1.00  0.00     0.167 HD
ATOM     26  C   UNL     1       7.665   8.304   2.106  1.00  0.00     0.037 A 
ATOM     27  C   UNL     1       6.306   7.848  -4.856  1.00  0.00     0.037 A 
ATOM     28  C   UNL     1       8.207   9.361   1.290  1.00  0.00     0.049 A 
ATOM     29  C   UNL     1       7.087   8.982  -4.263  1.00  0.00     0.074 A 
ATOM     30  C   UNL     1       8.963  10.453   1.675  1.00  0.00     0.029 A 
ATOM     31  N   UNL     1       8.039   9.457  -0.088  1.00  0.00    -0.354 N 
ATOM     32  N   UNL     1       7.427   9.182  -3.011  1.00  0.00    -0.248 NA
ATOM     33  C   UNL     1       7.543  10.020  -5.190  1.00  0.00     0.031 C 
ATOM     34  C   UNL     1       9.202  11.238   0.541  1.00  0.00     0.029 A 
ATOM     35  C   UNL     1       8.654  10.604  -0.565  1.00  0.00     0.049 A 
ATOM     36  H   UNL     1       7.554   8.805  -0.644  1.00  0.00     0.167 HD
ATOM     37  C   UNL     1       8.149  10.364  -2.998  1.00  0.00     0.074 A 
ATOM     38  C   UNL     1       8.219  10.818  -4.375  1.00  0.00     0.031 C 
ATOM     39  C   UNL     1       8.698  11.020  -1.946  1.00  0.00     0.037 A 
BRANCH  26  40
ATOM     40  C   UNL     1       7.872   8.350   3.594  1.00  0.00     0.064 A 
ATOM     41  C   UNL     1       8.675   7.413   4.263  1.00  0.00     0.173 A 
ATOM     42  C   UNL     1       7.267   9.356   4.364  1.00  0.00     0.173 A 
ATOM     43  F   UNL     1       9.266   6.421   3.580  1.00  0.00    -0.203 F 
ATOM     44  C   UNL     1       8.835   7.460   5.646  1.00  0.00     0.198 A 
ATOM     45  C   UNL     1       7.455   9.418   5.743  1.00  0.00     0.198 A 
ATOM     46  F   UNL     1       6.491  10.281   3.780  1.00  0.00    -0.203 F 
ATOM     47  F   UNL     1       9.561   6.519   6.268  1.00  0.00    -0.200 F 
ATOM     48  C   UNL     1       8.230   8.466   6.385  1.00  0.00     0.200 A 
ATOM     49  F   UNL     1       6.877  10.398   6.453  1.00  0.00    -0.200 F 
ATOM     50  F   UNL     1       8.386   8.509   7.715  1.00  0.00    -0.200 F 
ENDBRANCH  26  40
BRANCH  27  51
ATOM     51  C   UNL     1       6.024   7.744  -6.310  1.00  0.00     0.064 A 
ATOM     52  C   UNL     1       7.052   7.529  -7.237  1.00  0.00     0.173 A 
ATOM     53  C   UNL     1       4.710   7.816  -6.800  1.00  0.00     0.173 A 
ATOM     54  F   UNL     1       8.325   7.457  -6.821  1.00  0.00    -0.203 F 
ATOM     55  C   UNL     1       6.779   7.409  -8.598  1.00  0.00     0.198 A 
ATOM     56  C   UNL     1       4.435   7.660  -8.156  1.00  0.00     0.198 A 
ATOM     57  F   UNL     1       3.686   8.004  -5.954  1.00  0.00    -0.203 F 
ATOM     58  F   UNL     1       7.785   7.244  -9.468  1.00  0.00    -0.200 F 
ATOM     59  C   UNL     1       5.471   7.467  -9.056  1.00  0.00     0.200 A 
ATOM     60  F   UNL     1       3.167   7.690  -8.588  1.00  0.00    -0.200 F 
ATOM     61  F   UNL     1       5.209   7.338 -10.364  1.00  0.00    -0.200 F 
ENDBRANCH  27  51
BRANCH  39  62
ATOM     62  C   UNL     1       9.442  12.283  -2.262  1.00  0.00     0.064 A 
ATOM     63  C   UNL     1       8.775  13.450  -2.662  1.00  0.00     0.173 A 
ATOM     64  C   UNL     1      10.838  12.329  -2.137  1.00  0.00     0.173 A 
ATOM     65  F   UNL     1       7.442  13.447  -2.814  1.00  0.00    -0.203 F 
ATOM     66  C   UNL     1       9.483  14.611  -2.954  1.00  0.00     0.198 A 
ATOM     67  C   UNL     1      11.540  13.501  -2.395  1.00  0.00     0.198 A 
ATOM     68  F   UNL     1      11.520  11.238  -1.754  1.00  0.00    -0.203 F 
ATOM     69  F   UNL     1       8.833  15.698  -3.389  1.00  0.00    -0.200 F 
ATOM     70  C   UNL     1      10.863  14.638  -2.812  1.00  0.00     0.200 A 
ATOM     71  F   UNL     1      12.870  13.530  -2.243  1.00  0.00    -0.200 F 
ATOM     72  F   UNL     1      11.543  15.759  -3.086  1.00  0.00    -0.200 F 
ENDBRANCH  39  62
ENDBRANCH  13  14
ENDBRANCH   6   8
ENDBRANCH   3   4
ENDBRANCH   2   3
ENDBRANCH   1   2
BRANCH   1  73
ATOM     73  C   UNL     1       5.757  -3.612   1.323  1.00  0.00     0.116 C 
BRANCH  73  74
ATOM     74  N   UNL     1       7.045  -4.206   1.097  1.00  0.00    -0.356 N 
ATOM     75  C   UNL     1       7.346  -5.528   0.934  1.00  0.00     0.226 C 
ATOM     76  H   UNL     1       7.805  -3.583   1.055  1.00  0.00     0.163 HD
ATOM     77  O   UNL     1       8.500  -5.756   0.551  1.00  0.00    -0.274 OA
BRANCH  75  78
ATOM     78  C   UNL     1       6.345  -6.694   1.272  1.00  0.00     0.053 C 
ATOM     79  C   UNL     1       7.115  -8.020   0.923  1.00  0.00     0.017 C 
ATOM     80  C   UNL     1       6.106  -6.709   2.805  1.00  0.00     0.017 C 
ATOM     81  C   UNL     1       6.459  -9.301   1.442  1.00  0.00     0.001 C 
ATOM     82  C   UNL     1       5.418  -7.976   3.313  1.00  0.00     0.001 C 
ATOM     83  C   UNL     1       6.192  -9.231   2.938  1.00  0.00     0.000 C 
BRANCH  78  84
ATOM     84  C   UNL     1       5.038  -6.678   0.382  1.00  0.00     0.044 C 
BRANCH  84  85
ATOM     85  C   UNL     1       3.791  -5.973   0.887  1.00  0.00    -0.025 C 
ATOM     86  C   UNL     1       3.102  -5.078   0.157  1.00  0.00     0.004 C 
BRANCH  86  87
ATOM     87  C   UNL     1       2.086  -4.141   0.674  1.00  0.00    -0.026 A 
ATOM     88  C   UNL     1       1.163  -3.592  -0.222  1.00  0.00     0.008 A 
ATOM     89  C   UNL     1       2.154  -3.603   1.971  1.00  0.00     0.008 A 
ATOM     90  C   UNL     1       0.347  -2.523   0.159  1.00  0.00     0.001 A 
ATOM     91  C   UNL     1       1.363  -2.510   2.341  1.00  0.00     0.001 A 
ATOM     92  C   UNL     1       0.465  -1.966   1.431  1.00  0.00     0.000 A 
ENDBRANCH  86  87
ENDBRANCH  84  85
ENDBRANCH  78  84
ENDBRANCH  75  78
ENDBRANCH  73  74
ENDBRANCH   1  73
TORSDOF 14
