REMARK SMILES CC(=O)[C@H]1CC(C)=C(C)C[C@@H]1C(=O)NCCCCNC(=O)c1ccc(-c2c3nc(c(-c4c(F)c(F)c(F)c(F)c4F)c4ccc([nH]4)c(-c4c(F)c(F)c(F)c(F)c4F)c4nc(c(-c5c(F)c(F)c(F)c(F)c5F)c5ccc2[nH]5)C=C4)C=C3)cc1
REMARK SMILES IDX 17 1 16 2 15 3 14 4 12 5 13 6 11 8 4 9 5 10 6 11 10 12 7 13
REMARK SMILES IDX 8 14 9 15 2 16 1 17 3 18 18 19 19 20 20 21 21 23 22 24 23 25
REMARK SMILES IDX 84 26 24 27 83 28 25 29 26 30 27 31 77 32 28 33 82 34 76 35
REMARK SMILES IDX 78 36 29 37 81 38 75 39 74 40 30 42 62 43 42 44 61 45 43 46
REMARK SMILES IDX 46 47 60 48 79 49 44 50 45 51 59 53 80 54 47 55 31 56 32 57
REMARK SMILES IDX 40 58 33 59 34 60 38 61 41 62 35 63 36 64 39 65 37 66 63 67
REMARK SMILES IDX 64 68 72 69 65 70 66 71 70 72 73 73 67 74 68 75 71 76 69 77
REMARK SMILES IDX 48 78 49 79 57 80 50 81 51 82 55 83 58 84 52 85 53 86 56 87
REMARK SMILES IDX 54 88
REMARK H PARENT 14 7 19 22 78 41 46 52
REMARK Flexibility Score: inf
ROOT
ATOM      1  C   UNL     1       5.182   2.025   2.564  1.00  0.00     0.023 C 
ENDROOT
BRANCH   1   2
ATOM      2  C   UNL     1       4.266   1.393   1.510  1.00  0.00     0.023 C 
BRANCH   2   3
ATOM      3  C   UNL     1       4.585  -0.069   1.202  1.00  0.00     0.116 C 
BRANCH   3   4
ATOM      4  N   UNL     1       4.247  -0.928   2.323  1.00  0.00    -0.356 N 
ATOM      5  C   UNL     1       3.128  -1.677   2.543  1.00  0.00     0.224 C 
ATOM      6  O   UNL     1       3.021  -2.266   3.618  1.00  0.00    -0.275 OA
ATOM      7  H   UNL     1       4.929  -0.977   3.031  1.00  0.00     0.163 HD
BRANCH   5   8
ATOM      8  C   UNL     1       2.096  -1.823   1.430  1.00  0.00     0.093 C 
ATOM      9  C   UNL     1       0.680  -1.599   1.982  1.00  0.00     0.072 C 
ATOM     10  C   UNL     1      -0.331  -2.741   1.855  1.00  0.00     0.043 C 
ATOM     11  C   UNL     1       0.055  -3.955   1.054  1.00  0.00    -0.074 C 
ATOM     12  C   UNL     1       2.395  -3.139   0.700  1.00  0.00     0.045 C 
ATOM     13  C   UNL     1      -1.056  -4.973   0.945  1.00  0.00     0.039 C 
ATOM     14  C   UNL     1       1.281  -4.132   0.530  1.00  0.00    -0.074 C 
ATOM     15  C   UNL     1       1.673  -5.372  -0.238  1.00  0.00     0.039 C 
BRANCH   9  16
ATOM     16  C   UNL     1       0.055  -0.323   1.405  1.00  0.00     0.134 C 
ATOM     17  C   UNL     1       0.151  -0.050  -0.076  1.00  0.00     0.088 C 
ATOM     18  O   UNL     1      -0.527   0.479   2.140  1.00  0.00    -0.300 OA
ENDBRANCH   9  16
ENDBRANCH   5   8
ENDBRANCH   3   4
ENDBRANCH   2   3
ENDBRANCH   1   2
BRANCH   1  19
ATOM     19  C   UNL     1       6.676   1.908   2.276  1.00  0.00     0.116 C 
BRANCH  19  20
ATOM     20  N   UNL     1       7.060   2.468   0.990  1.00  0.00    -0.352 N 
ATOM     21  C   UNL     1       8.216   3.130   0.657  1.00  0.00     0.251 C 
ATOM     22  H   UNL     1       6.405   2.358   0.262  1.00  0.00     0.163 HD
ATOM     23  O   UNL     1       8.348   3.639  -0.451  1.00  0.00    -0.269 OA
BRANCH  21  24
ATOM     24  C   UNL     1       9.288   3.259   1.665  1.00  0.00     0.039 A 
ATOM     25  C   UNL     1       9.825   4.523   1.918  1.00  0.00     0.014 A 
ATOM     26  C   UNL     1       9.730   2.145   2.383  1.00  0.00     0.014 A 
ATOM     27  C   UNL     1      10.758   4.682   2.943  1.00  0.00     0.010 A 
ATOM     28  C   UNL     1      10.608   2.316   3.448  1.00  0.00     0.010 A 
ATOM     29  C   UNL     1      11.128   3.587   3.741  1.00  0.00    -0.014 A 
BRANCH  29  30
ATOM     30  C   UNL     1      12.056   3.750   4.888  1.00  0.00     0.031 A 
ATOM     31  C   UNL     1      13.398   3.073   4.871  1.00  0.00     0.074 A 
ATOM     32  C   UNL     1      11.668   4.460   5.965  1.00  0.00     0.049 A 
ATOM     33  N   UNL     1      14.314   3.027   5.805  1.00  0.00    -0.248 NA
ATOM     34  C   UNL     1      13.747   2.327   3.651  1.00  0.00     0.031 C 
ATOM     35  C   UNL     1      10.376   5.133   6.116  1.00  0.00     0.029 A 
ATOM     36  N   UNL     1      12.319   4.726   7.144  1.00  0.00    -0.354 N 
ATOM     37  C   UNL     1      15.341   2.250   5.288  1.00  0.00     0.074 A 
ATOM     38  C   UNL     1      14.913   1.794   3.983  1.00  0.00     0.031 C 
ATOM     39  C   UNL     1      10.339   5.753   7.307  1.00  0.00     0.029 A 
ATOM     40  C   UNL     1      11.585   5.489   8.020  1.00  0.00     0.049 A 
ATOM     41  H   UNL     1      13.226   4.401   7.343  1.00  0.00     0.167 HD
ATOM     42  C   UNL     1      16.546   1.967   5.838  1.00  0.00     0.037 A 
ATOM     43  C   UNL     1      11.883   5.918   9.261  1.00  0.00     0.037 A 
ATOM     44  C   UNL     1      16.978   2.436   7.129  1.00  0.00     0.049 A 
ATOM     45  C   UNL     1      13.217   5.559   9.860  1.00  0.00     0.074 A 
ATOM     46  C   UNL     1      18.189   2.224   7.763  1.00  0.00     0.029 A 
ATOM     47  N   UNL     1      16.211   3.217   7.981  1.00  0.00    -0.354 N 
ATOM     48  N   UNL     1      14.201   4.868   9.339  1.00  0.00    -0.248 NA
ATOM     49  C   UNL     1      13.484   6.048  11.220  1.00  0.00     0.031 C 
ATOM     50  C   UNL     1      18.143   2.847   9.014  1.00  0.00     0.029 A 
ATOM     51  C   UNL     1      16.920   3.486   9.140  1.00  0.00     0.049 A 
ATOM     52  H   UNL     1      15.298   3.533   7.790  1.00  0.00     0.167 HD
ATOM     53  C   UNL     1      15.214   4.870  10.289  1.00  0.00     0.074 A 
ATOM     54  C   UNL     1      14.731   5.644  11.412  1.00  0.00     0.031 C 
ATOM     55  C   UNL     1      16.433   4.280  10.238  1.00  0.00     0.037 A 
BRANCH  42  56
ATOM     56  C   UNL     1      17.495   1.126   5.037  1.00  0.00     0.064 A 
ATOM     57  C   UNL     1      18.126   1.630   3.890  1.00  0.00     0.173 A 
ATOM     58  C   UNL     1      17.821  -0.176   5.447  1.00  0.00     0.173 A 
ATOM     59  F   UNL     1      17.838   2.865   3.449  1.00  0.00    -0.203 F 
ATOM     60  C   UNL     1      19.032   0.856   3.171  1.00  0.00     0.198 A 
ATOM     61  C   UNL     1      18.750  -0.937   4.742  1.00  0.00     0.198 A 
ATOM     62  F   UNL     1      17.250  -0.704   6.540  1.00  0.00    -0.203 F 
ATOM     63  F   UNL     1      19.591   1.345   2.055  1.00  0.00    -0.200 F 
ATOM     64  C   UNL     1      19.350  -0.423   3.602  1.00  0.00     0.200 A 
ATOM     65  F   UNL     1      19.066  -2.168   5.166  1.00  0.00    -0.200 F 
ATOM     66  F   UNL     1      20.233  -1.162   2.916  1.00  0.00    -0.200 F 
ENDBRANCH  42  56
BRANCH  43  67
ATOM     67  C   UNL     1      10.914   6.749  10.025  1.00  0.00     0.064 A 
ATOM     68  C   UNL     1      11.198   8.089  10.325  1.00  0.00     0.173 A 
ATOM     69  C   UNL     1       9.710   6.215  10.507  1.00  0.00     0.173 A 
ATOM     70  F   UNL     1      12.347   8.639   9.905  1.00  0.00    -0.203 F 
ATOM     71  C   UNL     1      10.334   8.851  11.108  1.00  0.00     0.198 A 
ATOM     72  C   UNL     1       8.831   6.988  11.263  1.00  0.00     0.198 A 
ATOM     73  F   UNL     1       9.388   4.940  10.244  1.00  0.00    -0.203 F 
ATOM     74  F   UNL     1      10.662  10.109  11.433  1.00  0.00    -0.200 F 
ATOM     75  C   UNL     1       9.150   8.301  11.574  1.00  0.00     0.200 A 
ATOM     76  F   UNL     1       7.682   6.456  11.700  1.00  0.00    -0.200 F 
ATOM     77  F   UNL     1       8.322   9.032  12.333  1.00  0.00    -0.200 F 
ENDBRANCH  43  67
BRANCH  55  78
ATOM     78  C   UNL     1      17.350   4.494  11.406  1.00  0.00     0.064 A 
ATOM     79  C   UNL     1      17.120   3.881  12.646  1.00  0.00     0.173 A 
ATOM     80  C   UNL     1      18.495   5.294  11.269  1.00  0.00     0.173 A 
ATOM     81  F   UNL     1      16.031   3.120  12.831  1.00  0.00    -0.203 F 
ATOM     82  C   UNL     1      17.988   4.085  13.716  1.00  0.00     0.198 A 
ATOM     83  C   UNL     1      19.377   5.470  12.332  1.00  0.00     0.198 A 
ATOM     84  F   UNL     1      18.764   5.896  10.101  1.00  0.00    -0.203 F 
ATOM     85  F   UNL     1      17.721   3.530  14.906  1.00  0.00    -0.200 F 
ATOM     86  C   UNL     1      19.118   4.872  13.556  1.00  0.00     0.200 A 
ATOM     87  F   UNL     1      20.476   6.220  12.171  1.00  0.00    -0.200 F 
ATOM     88  F   UNL     1      19.956   5.061  14.585  1.00  0.00    -0.200 F 
ENDBRANCH  55  78
ENDBRANCH  29  30
ENDBRANCH  21  24
ENDBRANCH  19  20
ENDBRANCH   1  19
TORSDOF 12
