REMARK SMILES COc1cc(NC(=O)c2ccc([N+](=O)[O-])cc2)c(C(=O)NCCCCNC(=O)c2ccc(-c3c4nc(c(-c5c(F)c(F)c(F)c(F)c5F)c5ccc([nH]5)c(-c5c(F)c(F)c(F)c(F)c5F)c5nc(c(-c6c(F)c(F)c(F)c(F)c6F)c6ccc3[nH]6)C=C5)C=C4)cc2)cc1OC
REMARK SMILES IDX 23 1 22 2 21 3 19 4 20 5 18 7 3 8 4 9 93 10 5 11 92 12 2 13
REMARK SMILES IDX 1 14 94 15 95 16 6 17 7 18 8 20 9 21 10 22 17 23 11 24 16 25
REMARK SMILES IDX 12 26 13 27 14 28 15 29 24 30 25 31 26 32 27 33 28 35 29 36
REMARK SMILES IDX 30 37 91 38 31 39 90 40 32 41 33 42 34 43 84 44 35 45 89 46
REMARK SMILES IDX 83 47 85 48 36 49 88 50 82 51 81 52 37 54 69 55 49 56 68 57
REMARK SMILES IDX 50 58 53 59 67 60 86 61 51 62 52 63 66 65 87 66 54 67 38 68
REMARK SMILES IDX 39 69 47 70 40 71 41 72 45 73 48 74 42 75 43 76 46 77 44 78
REMARK SMILES IDX 70 79 71 80 79 81 72 82 73 83 77 84 80 85 74 86 75 87 78 88
REMARK SMILES IDX 76 89 55 90 56 91 64 92 57 93 58 94 62 95 65 96 59 97 60 98
REMARK SMILES IDX 63 99 61 100
REMARK H PARENT 21 6 6 19 26 34 85 53 53 64
REMARK Flexibility Score: inf
ROOT
ATOM      1  C   UNL     1       5.358   1.497  -5.478  1.00  0.00     0.023 C 
ENDROOT
BRANCH   1   2
ATOM      2  C   UNL     1       4.224   2.510  -5.282  1.00  0.00     0.116 C 
BRANCH   2   3
ATOM      3  N   UNL     1       3.086   2.170  -6.114  1.00  0.00    -0.352 N 
ATOM      4  C   UNL     1       1.982   1.380  -5.913  1.00  0.00     0.253 C 
ATOM      5  O   UNL     1       1.198   1.296  -6.862  1.00  0.00    -0.269 OA
ATOM      6  H   UNL     1       3.111   2.592  -7.003  1.00  0.00     0.163 HD
BRANCH   4   7
ATOM      7  C   UNL     1       1.655   0.671  -4.627  1.00  0.00     0.067 A 
ATOM      8  C   UNL     1       1.067  -0.553  -2.158  1.00  0.00     0.162 A 
ATOM      9  C   UNL     1       0.065  -0.356  -3.120  1.00  0.00     0.077 A 
ATOM     10  C   UNL     1       2.382  -0.237  -2.458  1.00  0.00     0.161 A 
ATOM     11  C   UNL     1       0.319   0.286  -4.343  1.00  0.00     0.058 A 
ATOM     12  C   UNL     1       2.655   0.335  -3.702  1.00  0.00     0.066 A 
BRANCH   8  13
ATOM     13  O   UNL     1       0.730  -1.156  -0.977  1.00  0.00    -0.493 OA
ATOM     14  C   UNL     1      -0.031  -0.276  -0.145  1.00  0.00     0.278 C 
ENDBRANCH   8  13
BRANCH  10  15
ATOM     15  O   UNL     1       3.507  -0.435  -1.707  1.00  0.00    -0.493 OA
ATOM     16  C   UNL     1       3.356  -0.588  -0.304  1.00  0.00     0.278 C 
ENDBRANCH  10  15
BRANCH  11  17
ATOM     17  N   UNL     1      -0.689   0.511  -5.319  1.00  0.00    -0.321 N 
ATOM     18  C   UNL     1      -2.052   0.339  -5.368  1.00  0.00     0.255 C 
ATOM     19  H   UNL     1      -0.326   0.877  -6.158  1.00  0.00     0.170 HD
ATOM     20  O   UNL     1      -2.669   0.442  -6.425  1.00  0.00    -0.269 OA
BRANCH  18  21
ATOM     21  C   UNL     1      -2.829   0.052  -4.157  1.00  0.00     0.040 A 
ATOM     22  C   UNL     1      -3.481  -1.183  -4.056  1.00  0.00     0.021 A 
ATOM     23  C   UNL     1      -2.877   0.986  -3.115  1.00  0.00     0.021 A 
ATOM     24  C   UNL     1      -4.110  -1.532  -2.861  1.00  0.00     0.086 A 
ATOM     25  C   UNL     1      -3.503   0.640  -1.917  1.00  0.00     0.086 A 
ATOM     26  C   UNL     1      -4.093  -0.628  -1.787  1.00  0.00     0.269 A 
BRANCH  26  27
ATOM     27  N   UNL     1      -4.648  -1.033  -0.493  1.00  0.00     0.062 N 
ATOM     28  O   UNL     1      -5.383  -2.030  -0.467  1.00  0.00    -0.258 OA
ATOM     29  O   UNL     1      -4.323  -0.366   0.500  1.00  0.00    -0.258 OA
ENDBRANCH  26  27
ENDBRANCH  18  21
ENDBRANCH  11  17
ENDBRANCH   4   7
ENDBRANCH   2   3
ENDBRANCH   1   2
BRANCH   1  30
ATOM     30  C   UNL     1       6.216   1.741  -6.717  1.00  0.00     0.023 C 
BRANCH  30  31
ATOM     31  C   UNL     1       7.059   3.005  -6.655  1.00  0.00     0.116 C 
BRANCH  31  32
ATOM     32  N   UNL     1       8.003   3.020  -5.546  1.00  0.00    -0.352 N 
ATOM     33  C   UNL     1       9.203   3.686  -5.478  1.00  0.00     0.251 C 
ATOM     34  H   UNL     1       7.753   2.491  -4.755  1.00  0.00     0.163 HD
ATOM     35  O   UNL     1       9.950   3.556  -4.515  1.00  0.00    -0.269 OA
BRANCH  33  36
ATOM     36  C   UNL     1       9.599   4.525  -6.623  1.00  0.00     0.039 A 
ATOM     37  C   UNL     1      10.801   4.248  -7.278  1.00  0.00     0.014 A 
ATOM     38  C   UNL     1       8.729   5.507  -7.103  1.00  0.00     0.014 A 
ATOM     39  C   UNL     1      11.096   4.906  -8.472  1.00  0.00     0.010 A 
ATOM     40  C   UNL     1       8.995   6.113  -8.324  1.00  0.00     0.010 A 
ATOM     41  C   UNL     1      10.174   5.808  -9.024  1.00  0.00    -0.014 A 
BRANCH  41  42
ATOM     42  C   UNL     1      10.401   6.448 -10.341  1.00  0.00     0.031 A 
ATOM     43  C   UNL     1      10.569   7.936 -10.421  1.00  0.00     0.074 A 
ATOM     44  C   UNL     1      10.341   5.706 -11.462  1.00  0.00     0.049 A 
ATOM     45  N   UNL     1      10.605   8.710 -11.475  1.00  0.00    -0.248 NA
ATOM     46  C   UNL     1      10.676   8.651  -9.140  1.00  0.00     0.031 C 
ATOM     47  C   UNL     1      10.136   4.258 -11.511  1.00  0.00     0.029 A 
ATOM     48  N   UNL     1      10.417   6.076 -12.782  1.00  0.00    -0.354 N 
ATOM     49  C   UNL     1      10.712  10.003 -10.984  1.00  0.00     0.074 A 
ATOM     50  C   UNL     1      10.693   9.914  -9.539  1.00  0.00     0.031 C 
ATOM     51  C   UNL     1      10.101   3.862 -12.794  1.00  0.00     0.029 A 
ATOM     52  C   UNL     1      10.243   5.032 -13.656  1.00  0.00     0.049 A 
ATOM     53  H   UNL     1      10.581   7.002 -13.073  1.00  0.00     0.167 HD
ATOM     54  C   UNL     1      10.833  11.160 -11.678  1.00  0.00     0.037 A 
ATOM     55  C   UNL     1      10.185   5.024 -15.001  1.00  0.00     0.037 A 
ATOM     56  C   UNL     1      10.879  11.239 -13.113  1.00  0.00     0.049 A 
ATOM     57  C   UNL     1      10.341   6.318 -15.750  1.00  0.00     0.074 A 
ATOM     58  C   UNL     1      11.048  12.356 -13.912  1.00  0.00     0.029 A 
ATOM     59  N   UNL     1      10.759  10.151 -13.965  1.00  0.00    -0.354 N 
ATOM     60  N   UNL     1      10.487   7.532 -15.279  1.00  0.00    -0.248 NA
ATOM     61  C   UNL     1      10.327   6.241 -17.218  1.00  0.00     0.031 C 
ATOM     62  C   UNL     1      11.002  11.947 -15.249  1.00  0.00     0.029 A 
ATOM     63  C   UNL     1      10.842  10.571 -15.282  1.00  0.00     0.049 A 
ATOM     64  H   UNL     1      10.633   9.218 -13.676  1.00  0.00     0.167 HD
ATOM     65  C   UNL     1      10.607   8.360 -16.386  1.00  0.00     0.074 A 
ATOM     66  C   UNL     1      10.525   7.508 -17.555  1.00  0.00     0.031 C 
ATOM     67  C   UNL     1      10.771   9.704 -16.430  1.00  0.00     0.037 A 
BRANCH  54  68
ATOM     68  C   UNL     1      10.924  12.429 -10.884  1.00  0.00     0.064 A 
ATOM     69  C   UNL     1      12.065  12.741 -10.130  1.00  0.00     0.173 A 
ATOM     70  C   UNL     1       9.864  13.346 -10.882  1.00  0.00     0.173 A 
ATOM     71  F   UNL     1      13.100  11.888 -10.086  1.00  0.00    -0.203 F 
ATOM     72  C   UNL     1      12.128  13.910  -9.376  1.00  0.00     0.198 A 
ATOM     73  C   UNL     1       9.941  14.528 -10.150  1.00  0.00     0.198 A 
ATOM     74  F   UNL     1       8.751  13.096 -11.588  1.00  0.00    -0.203 F 
ATOM     75  F   UNL     1      13.205  14.160  -8.619  1.00  0.00    -0.200 F 
ATOM     76  C   UNL     1      11.068  14.804  -9.390  1.00  0.00     0.200 A 
ATOM     77  F   UNL     1       8.920  15.396 -10.171  1.00  0.00    -0.200 F 
ATOM     78  F   UNL     1      11.129  15.928  -8.663  1.00  0.00    -0.200 F 
ENDBRANCH  54  68
BRANCH  55  79
ATOM     79  C   UNL     1       9.985   3.741 -15.721  1.00  0.00     0.064 A 
ATOM     80  C   UNL     1      11.037   3.143 -16.428  1.00  0.00     0.173 A 
ATOM     81  C   UNL     1       8.748   3.080 -15.703  1.00  0.00     0.173 A 
ATOM     82  F   UNL     1      12.232   3.748 -16.488  1.00  0.00    -0.203 F 
ATOM     83  C   UNL     1      10.856   1.937 -17.101  1.00  0.00     0.198 A 
ATOM     84  C   UNL     1       8.575   1.862 -16.358  1.00  0.00     0.198 A 
ATOM     85  F   UNL     1       7.714   3.610 -15.034  1.00  0.00    -0.203 F 
ATOM     86  F   UNL     1      11.868   1.402 -17.797  1.00  0.00    -0.200 F 
ATOM     87  C   UNL     1       9.627   1.294 -17.061  1.00  0.00     0.200 A 
ATOM     88  F   UNL     1       7.391   1.238 -16.305  1.00  0.00    -0.200 F 
ATOM     89  F   UNL     1       9.456   0.131 -17.702  1.00  0.00    -0.200 F 
ENDBRANCH  55  79
BRANCH  67  90
ATOM     90  C   UNL     1      10.909  10.336 -17.783  1.00  0.00     0.064 A 
ATOM     91  C   UNL     1       9.803  10.515 -18.625  1.00  0.00     0.173 A 
ATOM     92  C   UNL     1      12.154  10.817 -18.214  1.00  0.00     0.173 A 
ATOM     93  F   UNL     1       8.596  10.057 -18.261  1.00  0.00    -0.203 F 
ATOM     94  C   UNL     1       9.942  11.144 -19.859  1.00  0.00     0.198 A 
ATOM     95  C   UNL     1      12.284  11.466 -19.438  1.00  0.00     0.198 A 
ATOM     96  F   UNL     1      13.240  10.672 -17.440  1.00  0.00    -0.203 F 
ATOM     97  F   UNL     1       8.878  11.278 -20.664  1.00  0.00    -0.200 F 
ATOM     98  C   UNL     1      11.179  11.626 -20.261  1.00  0.00     0.200 A 
ATOM     99  F   UNL     1      13.478  11.939 -19.821  1.00  0.00    -0.200 F 
ATOM    100  F   UNL     1      11.308  12.240 -21.445  1.00  0.00    -0.200 F 
ENDBRANCH  67  90
ENDBRANCH  41  42
ENDBRANCH  33  36
ENDBRANCH  31  32
ENDBRANCH  30  31
ENDBRANCH   1  30
TORSDOF 16
