REMARK SMILES O=C(NCCCCNC(=O)[C@@H]1CC=CC[C@@H]1C(=O)N1CCN(C(=O)c2sc3cc([N+](=O)[O-])ccc3c2Cl)CC1)c1ccc(-c2c3nc(c(-c4c(F)c(F)c(F)c(F)c4F)c4ccc([nH]4)c(-c4c(F)c(F)c(F)c(F)c4F)c4nc(c(-c5c(F)c(F)c(F)c(F)c5F)c5ccc2[nH]5)C=C4)C=C3)cc1
REMARK SMILES IDX 6 1 5 2 4 3 3 4 1 5 2 6 40 8 41 9 102 10 42 11 101 12 43 13
REMARK SMILES IDX 44 14 45 15 95 16 46 17 100 18 94 19 96 20 47 21 99 22 93 23
REMARK SMILES IDX 92 24 48 26 80 27 60 28 79 29 61 30 64 31 78 32 97 33 62 34
REMARK SMILES IDX 63 35 77 37 98 38 65 39 49 40 50 41 58 42 51 43 52 44 56 45
REMARK SMILES IDX 59 46 53 47 54 48 57 49 55 50 81 51 82 52 90 53 83 54 84 55
REMARK SMILES IDX 88 56 91 57 85 58 86 59 89 60 87 61 66 62 67 63 75 64 68 65
REMARK SMILES IDX 69 66 73 67 76 68 70 69 71 70 74 71 72 72 7 73 8 74 9 75
REMARK SMILES IDX 10 77 11 78 12 79 16 80 13 81 15 82 14 83 17 84 18 85 19 86
REMARK SMILES IDX 20 87 39 88 21 89 38 90 22 91 23 92 24 93 25 94 26 95 36 96
REMARK SMILES IDX 27 97 35 98 37 99 28 100 34 101 29 102 33 103 30 104 31 105
REMARK SMILES IDX 32 106
REMARK H PARENT 3 7 96 25 64 36 8 76
REMARK Flexibility Score: inf
ROOT
ATOM      1  C   UNL     1       9.707   4.162   5.912  1.00  0.00     0.023 C 
ENDROOT
BRANCH   1   2
ATOM      2  C   UNL     1      10.755   4.969   6.687  1.00  0.00     0.023 C 
BRANCH   2   3
ATOM      3  C   UNL     1      10.546   4.991   8.192  1.00  0.00     0.116 C 
BRANCH   3   4
ATOM      4  N   UNL     1      10.559   3.658   8.814  1.00  0.00    -0.352 N 
ATOM      5  O   UNL     1      10.731   2.278  10.623  1.00  0.00    -0.269 OA
ATOM      6  C   UNL     1      10.335   3.325  10.149  1.00  0.00     0.251 C 
ATOM      7  H   UNL     1      10.750   2.905   8.210  1.00  0.00     0.163 HD
BRANCH   6   8
ATOM      8  C   UNL     1       9.559   4.274  10.966  1.00  0.00     0.039 A 
ATOM      9  C   UNL     1       9.816   4.568  12.307  1.00  0.00     0.014 A 
ATOM     10  C   UNL     1       8.560   4.943  10.286  1.00  0.00     0.014 A 
ATOM     11  C   UNL     1       9.027   5.542  12.918  1.00  0.00     0.010 A 
ATOM     12  C   UNL     1       8.158   6.149  10.748  1.00  0.00     0.010 A 
ATOM     13  C   UNL     1       8.169   6.307  12.111  1.00  0.00    -0.014 A 
BRANCH  13  14
ATOM     14  C   UNL     1       7.270   7.335  12.598  1.00  0.00     0.031 A 
ATOM     15  C   UNL     1       7.975   8.413  13.308  1.00  0.00     0.074 A 
ATOM     16  C   UNL     1       5.966   7.398  12.233  1.00  0.00     0.049 A 
ATOM     17  N   UNL     1       8.013   8.597  14.582  1.00  0.00    -0.248 NA
ATOM     18  C   UNL     1       8.914   9.252  12.548  1.00  0.00     0.031 C 
ATOM     19  C   UNL     1       5.230   6.562  11.268  1.00  0.00     0.029 A 
ATOM     20  N   UNL     1       5.016   8.296  12.612  1.00  0.00    -0.354 N 
ATOM     21  C   UNL     1       8.793   9.728  14.768  1.00  0.00     0.074 A 
ATOM     22  C   UNL     1       9.498   9.940  13.532  1.00  0.00     0.031 C 
ATOM     23  C   UNL     1       4.027   7.117  10.993  1.00  0.00     0.029 A 
ATOM     24  C   UNL     1       3.827   8.239  11.886  1.00  0.00     0.049 A 
ATOM     25  H   UNL     1       5.159   8.939  13.345  1.00  0.00     0.167 HD
ATOM     26  C   UNL     1       8.551  10.553  15.822  1.00  0.00     0.037 A 
ATOM     27  C   UNL     1       2.757   9.061  12.032  1.00  0.00     0.037 A 
ATOM     28  C   UNL     1       7.687   9.903  16.781  1.00  0.00     0.049 A 
ATOM     29  C   UNL     1       2.875   9.660  13.382  1.00  0.00     0.074 A 
ATOM     30  C   UNL     1       7.792   8.804  17.607  1.00  0.00     0.029 A 
ATOM     31  N   UNL     1       6.345  10.157  16.638  1.00  0.00    -0.354 N 
ATOM     32  N   UNL     1       2.765   8.980  14.489  1.00  0.00    -0.248 NA
ATOM     33  C   UNL     1       3.551  10.942  13.499  1.00  0.00     0.031 C 
ATOM     34  C   UNL     1       6.492   8.213  17.621  1.00  0.00     0.029 A 
ATOM     35  C   UNL     1       5.631   9.011  16.865  1.00  0.00     0.049 A 
ATOM     36  H   UNL     1       5.955  11.031  16.407  1.00  0.00     0.167 HD
ATOM     37  C   UNL     1       3.721   9.526  15.331  1.00  0.00     0.074 A 
ATOM     38  C   UNL     1       4.077  10.804  14.719  1.00  0.00     0.031 C 
ATOM     39  C   UNL     1       4.336   8.748  16.270  1.00  0.00     0.037 A 
BRANCH  26  40
ATOM     40  C   UNL     1       8.708  12.054  15.781  1.00  0.00     0.064 A 
ATOM     41  C   UNL     1       8.545  12.785  16.974  1.00  0.00     0.173 A 
ATOM     42  C   UNL     1       8.723  12.823  14.596  1.00  0.00     0.173 A 
ATOM     43  F   UNL     1       8.484  12.156  18.157  1.00  0.00    -0.203 F 
ATOM     44  C   UNL     1       8.351  14.169  16.972  1.00  0.00     0.198 A 
ATOM     45  C   UNL     1       8.585  14.209  14.602  1.00  0.00     0.198 A 
ATOM     46  F   UNL     1       8.754  12.269  13.380  1.00  0.00    -0.203 F 
ATOM     47  F   UNL     1       8.080  14.804  18.120  1.00  0.00    -0.200 F 
ATOM     48  C   UNL     1       8.369  14.880  15.786  1.00  0.00     0.200 A 
ATOM     49  F   UNL     1       8.580  14.875  13.438  1.00  0.00    -0.200 F 
ATOM     50  F   UNL     1       8.131  16.197  15.775  1.00  0.00    -0.200 F 
ENDBRANCH  26  40
BRANCH  27  51
ATOM     51  C   UNL     1       1.827   9.612  11.014  1.00  0.00     0.064 A 
ATOM     52  C   UNL     1       0.638  10.258  11.400  1.00  0.00     0.173 A 
ATOM     53  C   UNL     1       2.242   9.814   9.684  1.00  0.00     0.173 A 
ATOM     54  F   UNL     1       0.187  10.145  12.658  1.00  0.00    -0.203 F 
ATOM     55  C   UNL     1      -0.059  11.102  10.528  1.00  0.00     0.198 A 
ATOM     56  C   UNL     1       1.542  10.653   8.813  1.00  0.00     0.198 A 
ATOM     57  F   UNL     1       3.392   9.289   9.239  1.00  0.00    -0.203 F 
ATOM     58  F   UNL     1      -1.141  11.766  10.961  1.00  0.00    -0.200 F 
ATOM     59  C   UNL     1       0.404  11.314   9.241  1.00  0.00     0.200 A 
ATOM     60  F   UNL     1       2.018  10.877   7.579  1.00  0.00    -0.200 F 
ATOM     61  F   UNL     1      -0.216  12.184   8.432  1.00  0.00    -0.200 F 
ENDBRANCH  27  51
BRANCH  39  62
ATOM     62  C   UNL     1       3.702   7.418  16.584  1.00  0.00     0.064 A 
ATOM     63  C   UNL     1       3.634   6.333  15.691  1.00  0.00     0.173 A 
ATOM     64  C   UNL     1       3.258   7.197  17.894  1.00  0.00     0.173 A 
ATOM     65  F   UNL     1       4.106   6.435  14.444  1.00  0.00    -0.203 F 
ATOM     66  C   UNL     1       3.121   5.098  16.088  1.00  0.00     0.198 A 
ATOM     67  C   UNL     1       2.780   5.954  18.298  1.00  0.00     0.198 A 
ATOM     68  F   UNL     1       3.338   8.182  18.802  1.00  0.00    -0.203 F 
ATOM     69  F   UNL     1       3.061   4.080  15.215  1.00  0.00    -0.200 F 
ATOM     70  C   UNL     1       2.704   4.907  17.394  1.00  0.00     0.200 A 
ATOM     71  F   UNL     1       2.420   5.763  19.574  1.00  0.00    -0.200 F 
ATOM     72  F   UNL     1       2.253   3.708  17.790  1.00  0.00    -0.200 F 
ENDBRANCH  39  62
ENDBRANCH  13  14
ENDBRANCH   6   8
ENDBRANCH   3   4
ENDBRANCH   2   3
ENDBRANCH   1   2
BRANCH   1  73
ATOM     73  C   UNL     1       8.248   4.545   6.153  1.00  0.00     0.116 C 
BRANCH  73  74
ATOM     74  N   UNL     1       7.925   5.871   5.661  1.00  0.00    -0.356 N 
ATOM     75  C   UNL     1       7.145   6.217   4.594  1.00  0.00     0.224 C 
ATOM     76  H   UNL     1       8.321   6.621   6.162  1.00  0.00     0.163 HD
ATOM     77  O   UNL     1       7.019   7.407   4.307  1.00  0.00    -0.275 OA
BRANCH  75  78
ATOM     78  C   UNL     1       6.447   5.104   3.824  1.00  0.00     0.095 C 
ATOM     79  C   UNL     1       6.122   5.537   2.393  1.00  0.00     0.041 C 
ATOM     80  C   UNL     1       5.213   4.570   4.590  1.00  0.00     0.095 C 
ATOM     81  C   UNL     1       5.223   4.559   1.689  1.00  0.00    -0.030 C 
ATOM     82  C   UNL     1       4.514   3.448   3.822  1.00  0.00     0.041 C 
ATOM     83  C   UNL     1       4.531   3.604   2.327  1.00  0.00    -0.030 C 
BRANCH  80  84
ATOM     84  C   UNL     1       4.361   5.687   5.222  1.00  0.00     0.226 C 
ATOM     85  O   UNL     1       4.447   5.866   6.443  1.00  0.00    -0.275 OA
ATOM     86  N   UNL     1       3.671   6.577   4.435  1.00  0.00    -0.339 N 
ATOM     87  C   UNL     1       3.557   7.971   4.875  1.00  0.00     0.141 C 
ATOM     88  C   UNL     1       2.736   6.233   3.371  1.00  0.00     0.141 C 
ATOM     89  C   UNL     1       3.725   8.929   3.683  1.00  0.00     0.141 C 
ATOM     90  C   UNL     1       2.901   7.151   2.158  1.00  0.00     0.141 C 
ATOM     91  N   UNL     1       2.868   8.571   2.537  1.00  0.00    -0.334 N 
ATOM     92  C   UNL     1       2.377   9.601   1.728  1.00  0.00     0.265 C 
ATOM     93  O   UNL     1       2.560  10.781   2.022  1.00  0.00    -0.268 OA
BRANCH  92  94
ATOM     94  C   UNL     1       1.692   9.226   0.506  1.00  0.00     0.112 A 
ATOM     95  S   UNL     1       2.317   9.800  -0.975  1.00  0.00    -0.128 S 
ATOM     96  C   UNL     1       0.551   8.477   0.316  1.00  0.00     0.072 A 
ATOM     97  C   UNL     1       1.152   8.934  -1.897  1.00  0.00     0.043 A 
ATOM     98  C   UNL     1       0.285   8.210  -1.074  1.00  0.00     0.012 A 
ATOM     99  Cl  UNL     1      -0.450   7.857   1.573  1.00  0.00    -0.082 Cl
ATOM    100  C   UNL     1       1.036   8.921  -3.302  1.00  0.00     0.105 A 
ATOM    101  C   UNL     1      -0.687   7.384  -1.697  1.00  0.00     0.018 A 
ATOM    102  C   UNL     1       0.035   8.126  -3.878  1.00  0.00     0.270 A 
ATOM    103  C   UNL     1      -0.803   7.340  -3.090  1.00  0.00     0.086 A 
BRANCH 102 104
ATOM    104  N   UNL     1      -0.141   8.134  -5.336  1.00  0.00     0.062 N 
ATOM    105  O   UNL     1       0.601   8.871  -6.002  1.00  0.00    -0.258 OA
ATOM    106  O   UNL     1      -1.024   7.409  -5.814  1.00  0.00    -0.258 OA
ENDBRANCH 102 104
ENDBRANCH  92  94
ENDBRANCH  80  84
ENDBRANCH  75  78
ENDBRANCH  73  74
ENDBRANCH   1  73
TORSDOF 14
