REMARK SMILES O=C(NCCCCNC(=O)[C@@H]1Cc2[nH]cnc2CN1C(=O)NCC(F)(F)F)c1ccc(-c2c3nc(c(-c4c(F)c(F)c(F)c(F)c4F)c4ccc([nH]4)c(-c4c(F)c(F)c(F)c(F)c4F)c4nc(c(-c5c(F)c(F)c(F)c(F)c5F)c5ccc2[nH]5)C=C4)C=C3)cc1
REMARK SMILES IDX 6 1 5 2 4 3 3 4 1 5 2 6 28 8 29 9 90 10 30 11 89 12 31 13
REMARK SMILES IDX 32 14 33 15 83 16 34 17 88 18 82 19 84 20 35 21 87 22 81 23
REMARK SMILES IDX 80 24 36 26 68 27 48 28 67 29 49 30 52 31 66 32 85 33 50 34
REMARK SMILES IDX 51 35 65 37 86 38 53 39 37 40 38 41 46 42 39 43 40 44 44 45
REMARK SMILES IDX 47 46 41 47 42 48 45 49 43 50 69 51 70 52 78 53 71 54 72 55
REMARK SMILES IDX 76 56 79 57 73 58 74 59 77 60 75 61 54 62 55 63 63 64 56 65
REMARK SMILES IDX 57 66 61 67 64 68 58 69 59 70 62 71 60 72 7 73 8 74 9 75
REMARK SMILES IDX 10 77 11 78 12 79 19 80 13 81 18 82 14 83 17 84 15 85 16 87
REMARK SMILES IDX 20 88 21 89 22 90 23 92 24 93 25 94 26 95 27 96
REMARK H PARENT 3 7 84 25 52 36 8 76 14 86 22 91
REMARK Flexibility Score: inf
ROOT
ATOM      1  C   UNL     1       6.674  -9.235   0.796  1.00  0.00     0.023 C 
ENDROOT
BRANCH   1   2
ATOM      2  C   UNL     1       5.456  -9.900   1.429  1.00  0.00     0.023 C 
BRANCH   2   3
ATOM      3  C   UNL     1       4.718 -10.943   0.584  1.00  0.00     0.116 C 
BRANCH   3   4
ATOM      4  N   UNL     1       5.510 -12.020   0.020  1.00  0.00    -0.352 N 
ATOM      5  O   UNL     1       6.372 -14.037  -0.322  1.00  0.00    -0.269 OA
ATOM      6  C   UNL     1       5.994 -13.203   0.506  1.00  0.00     0.251 C 
ATOM      7  H   UNL     1       5.753 -11.864  -0.921  1.00  0.00     0.163 HD
BRANCH   6   8
ATOM      8  C   UNL     1       6.188 -13.499   1.946  1.00  0.00     0.039 A 
ATOM      9  C   UNL     1       5.567 -12.819   2.990  1.00  0.00     0.014 A 
ATOM     10  C   UNL     1       7.112 -14.515   2.254  1.00  0.00     0.014 A 
ATOM     11  C   UNL     1       5.974 -13.024   4.300  1.00  0.00     0.010 A 
ATOM     12  C   UNL     1       7.484 -14.768   3.568  1.00  0.00     0.010 A 
ATOM     13  C   UNL     1       6.947 -13.984   4.585  1.00  0.00    -0.014 A 
BRANCH  13  14
ATOM     14  C   UNL     1       7.200 -14.282   5.991  1.00  0.00     0.031 A 
ATOM     15  C   UNL     1       6.014 -14.835   6.704  1.00  0.00     0.074 A 
ATOM     16  C   UNL     1       8.416 -14.209   6.565  1.00  0.00     0.049 A 
ATOM     17  N   UNL     1       5.422 -14.371   7.756  1.00  0.00    -0.248 NA
ATOM     18  C   UNL     1       5.327 -15.983   6.089  1.00  0.00     0.031 C 
ATOM     19  C   UNL     1       9.692 -13.959   5.893  1.00  0.00     0.029 A 
ATOM     20  N   UNL     1       8.787 -14.467   7.855  1.00  0.00    -0.354 N 
ATOM     21  C   UNL     1       4.395 -15.271   8.041  1.00  0.00     0.074 A 
ATOM     22  C   UNL     1       4.282 -16.137   6.901  1.00  0.00     0.031 C 
ATOM     23  C   UNL     1      10.702 -14.307   6.720  1.00  0.00     0.029 A 
ATOM     24  C   UNL     1      10.149 -14.694   8.008  1.00  0.00     0.049 A 
ATOM     25  H   UNL     1       8.149 -14.490   8.604  1.00  0.00     0.167 HD
ATOM     26  C   UNL     1       3.918 -15.401   9.309  1.00  0.00     0.037 A 
ATOM     27  C   UNL     1      10.768 -15.240   9.083  1.00  0.00     0.037 A 
ATOM     28  C   UNL     1       4.225 -14.232  10.094  1.00  0.00     0.049 A 
ATOM     29  C   UNL     1       9.855 -15.118  10.243  1.00  0.00     0.074 A 
ATOM     30  C   UNL     1       3.887 -12.895  10.072  1.00  0.00     0.029 A 
ATOM     31  N   UNL     1       5.298 -14.344  10.936  1.00  0.00    -0.354 N 
ATOM     32  N   UNL     1       9.555 -13.994  10.828  1.00  0.00    -0.248 NA
ATOM     33  C   UNL     1       8.987 -16.241  10.570  1.00  0.00     0.031 C 
ATOM     34  C   UNL     1       5.010 -12.207  10.627  1.00  0.00     0.029 A 
ATOM     35  C   UNL     1       5.966 -13.156  10.988  1.00  0.00     0.049 A 
ATOM     36  H   UNL     1       5.549 -15.158  11.430  1.00  0.00     0.167 HD
ATOM     37  C   UNL     1       8.236 -14.150  11.219  1.00  0.00     0.074 A 
ATOM     38  C   UNL     1       8.005 -15.589  11.196  1.00  0.00     0.031 C 
ATOM     39  C   UNL     1       7.389 -13.079  11.221  1.00  0.00     0.037 A 
BRANCH  26  40
ATOM     40  C   UNL     1       3.670 -16.751   9.976  1.00  0.00     0.064 A 
ATOM     41  C   UNL     1       3.273 -16.758  11.332  1.00  0.00     0.173 A 
ATOM     42  C   UNL     1       4.160 -17.984   9.491  1.00  0.00     0.173 A 
ATOM     43  F   UNL     1       2.768 -15.653  11.903  1.00  0.00    -0.203 F 
ATOM     44  C   UNL     1       3.507 -17.854  12.168  1.00  0.00     0.198 A 
ATOM     45  C   UNL     1       4.346 -19.091  10.318  1.00  0.00     0.198 A 
ATOM     46  F   UNL     1       4.578 -18.154   8.234  1.00  0.00    -0.203 F 
ATOM     47  F   UNL     1       3.274 -17.749  13.483  1.00  0.00    -0.200 F 
ATOM     48  C   UNL     1       4.065 -19.012  11.664  1.00  0.00     0.200 A 
ATOM     49  F   UNL     1       4.893 -20.205   9.810  1.00  0.00    -0.200 F 
ATOM     50  F   UNL     1       4.376 -20.030  12.476  1.00  0.00    -0.200 F 
ENDBRANCH  26  40
BRANCH  27  51
ATOM     51  C   UNL     1      11.985 -16.087   9.127  1.00  0.00     0.064 A 
ATOM     52  C   UNL     1      12.657 -16.331  10.338  1.00  0.00     0.173 A 
ATOM     53  C   UNL     1      12.361 -16.893   8.034  1.00  0.00     0.173 A 
ATOM     54  F   UNL     1      12.331 -15.643  11.442  1.00  0.00    -0.203 F 
ATOM     55  C   UNL     1      13.622 -17.337  10.454  1.00  0.00     0.198 A 
ATOM     56  C   UNL     1      13.334 -17.887   8.148  1.00  0.00     0.198 A 
ATOM     57  F   UNL     1      11.724 -16.803   6.859  1.00  0.00    -0.203 F 
ATOM     58  F   UNL     1      14.189 -17.586  11.643  1.00  0.00    -0.200 F 
ATOM     59  C   UNL     1      13.953 -18.120   9.360  1.00  0.00     0.200 A 
ATOM     60  F   UNL     1      13.619 -18.659   7.090  1.00  0.00    -0.200 F 
ATOM     61  F   UNL     1      14.833 -19.123   9.485  1.00  0.00    -0.200 F 
ENDBRANCH  27  51
BRANCH  39  62
ATOM     62  C   UNL     1       8.009 -11.716  11.256  1.00  0.00     0.064 A 
ATOM     63  C   UNL     1       8.829 -11.188  10.245  1.00  0.00     0.173 A 
ATOM     64  C   UNL     1       7.684 -10.879  12.332  1.00  0.00     0.173 A 
ATOM     65  F   UNL     1       9.102 -11.891   9.138  1.00  0.00    -0.203 F 
ATOM     66  C   UNL     1       9.350  -9.899  10.345  1.00  0.00     0.198 A 
ATOM     67  C   UNL     1       8.170  -9.579  12.407  1.00  0.00     0.198 A 
ATOM     68  F   UNL     1       6.861 -11.315  13.300  1.00  0.00    -0.203 F 
ATOM     69  F   UNL     1      10.157  -9.425   9.384  1.00  0.00    -0.200 F 
ATOM     70  C   UNL     1       9.015  -9.095  11.422  1.00  0.00     0.200 A 
ATOM     71  F   UNL     1       7.804  -8.788  13.425  1.00  0.00    -0.200 F 
ATOM     72  F   UNL     1       9.489  -7.844  11.500  1.00  0.00    -0.200 F 
ENDBRANCH  39  62
ENDBRANCH  13  14
ENDBRANCH   6   8
ENDBRANCH   3   4
ENDBRANCH   2   3
ENDBRANCH   1   2
BRANCH   1  73
ATOM     73  C   UNL     1       6.487  -8.708  -0.616  1.00  0.00     0.116 C 
BRANCH  73  74
ATOM     74  N   UNL     1       5.437  -7.724  -0.744  1.00  0.00    -0.354 N 
ATOM     75  C   UNL     1       5.209  -6.811  -1.726  1.00  0.00     0.243 C 
ATOM     76  H   UNL     1       4.785  -7.713  -0.007  1.00  0.00     0.163 HD
ATOM     77  O   UNL     1       4.118  -6.227  -1.656  1.00  0.00    -0.273 OA
BRANCH  75  78
ATOM     78  C   UNL     1       6.299  -6.314  -2.728  1.00  0.00     0.182 C 
ATOM     79  C   UNL     1       5.582  -5.791  -4.018  1.00  0.00     0.091 C 
ATOM     80  N   UNL     1       7.451  -7.189  -3.118  1.00  0.00    -0.306 N 
ATOM     81  C   UNL     1       5.274  -6.977  -4.854  1.00  0.00     0.042 A 
ATOM     82  C   UNL     1       7.135  -8.408  -3.913  1.00  0.00     0.180 C 
ATOM     83  N   UNL     1       4.265  -7.174  -5.747  1.00  0.00    -0.348 N 
ATOM     84  C   UNL     1       5.965  -8.164  -4.797  1.00  0.00     0.081 A 
ATOM     85  C   UNL     1       4.369  -8.474  -6.172  1.00  0.00     0.197 A 
ATOM     86  H   UNL     1       3.593  -6.513  -6.031  1.00  0.00     0.167 HD
ATOM     87  N   UNL     1       5.387  -9.096  -5.614  1.00  0.00    -0.240 NA
BRANCH  80  88
ATOM     88  C   UNL     1       8.752  -7.086  -2.726  1.00  0.00     0.318 C 
ATOM     89  O   UNL     1       9.508  -8.061  -2.749  1.00  0.00    -0.249 OA
ATOM     90  N   UNL     1       9.317  -5.942  -2.313  1.00  0.00    -0.329 N 
ATOM     91  H   UNL     1      10.197  -6.094  -1.898  1.00  0.00     0.165 HD
BRANCH  90  92
ATOM     92  C   UNL     1       8.953  -4.523  -2.324  1.00  0.00     0.233 C 
BRANCH  92  93
ATOM     93  C   UNL     1       8.743  -3.925  -0.930  1.00  0.00     0.405 C 
ATOM     94  F   UNL     1       9.923  -3.788  -0.284  1.00  0.00    -0.169 F 
ATOM     95  F   UNL     1       8.175  -2.702  -1.013  1.00  0.00    -0.169 F 
ATOM     96  F   UNL     1       7.940  -4.698  -0.166  1.00  0.00    -0.169 F 
ENDBRANCH  92  93
ENDBRANCH  90  92
ENDBRANCH  80  88
ENDBRANCH  75  78
ENDBRANCH  73  74
ENDBRANCH   1  73
TORSDOF 14
