REMARK SMILES C[C@H](CNS(=O)(=O)c1ccc(C(=O)NCCCCNC(=O)c2ccc(-c3c4nc(c(-c5c(F)c(F)c(F)c(F)c5F)c5ccc([nH]5)c(-c5c(F)c(F)c(F)c(F)c5F)c5nc(c(-c6c(F)c(F)c(F)c(F)c6F)c6ccc3[nH]6)C=C5)C=C4)cc2)cc1F)[NH+](C)C
REMARK SMILES IDX 15 1 14 2 12 3 13 4 11 6 8 7 9 8 86 9 10 10 85 11 87 12 5 13
REMARK SMILES IDX 6 14 7 15 4 16 3 18 2 19 1 20 88 21 89 22 90 23 16 25 17 26
REMARK SMILES IDX 18 27 19 28 20 29 21 31 22 32 23 33 84 34 24 35 83 36 25 37
REMARK SMILES IDX 26 38 27 39 77 40 28 41 82 42 76 43 78 44 29 45 81 46 75 47
REMARK SMILES IDX 74 48 30 50 62 51 42 52 61 53 43 54 46 55 60 56 79 57 44 58
REMARK SMILES IDX 45 59 59 61 80 62 47 63 31 64 32 65 40 66 33 67 34 68 38 69
REMARK SMILES IDX 41 70 35 71 36 72 39 73 37 74 63 75 64 76 72 77 65 78 66 79
REMARK SMILES IDX 70 80 73 81 67 82 68 83 71 84 69 85 48 86 49 87 57 88 50 89
REMARK SMILES IDX 51 90 55 91 58 92 52 93 53 94 56 95 54 96
REMARK H PARENT 14 5 4 17 88 24 19 30 78 49 46 60
REMARK Flexibility Score: inf
ROOT
ATOM      1  C   UNL     1       4.003   2.801  -6.779  1.00  0.00     0.116 C 
ENDROOT
BRANCH   1   2
ATOM      2  N   UNL     1       3.032   3.736  -6.251  1.00  0.00    -0.352 N 
ATOM      3  C   UNL     1       2.392   3.822  -5.044  1.00  0.00     0.251 C 
ATOM      4  O   UNL     1       1.567   4.725  -4.904  1.00  0.00    -0.269 OA
ATOM      5  H   UNL     1       2.784   4.449  -6.883  1.00  0.00     0.163 HD
BRANCH   3   6
ATOM      6  C   UNL     1       2.689   2.934  -3.884  1.00  0.00     0.042 A 
ATOM      7  C   UNL     1       3.320   1.487  -1.565  1.00  0.00     0.118 A 
ATOM      8  C   UNL     1       2.754   2.755  -1.450  1.00  0.00     0.026 A 
ATOM      9  C   UNL     1       3.516   0.924  -2.818  1.00  0.00     0.144 A 
ATOM     10  C   UNL     1       2.441   3.471  -2.607  1.00  0.00     0.015 A 
ATOM     11  C   UNL     1       3.175   1.628  -3.973  1.00  0.00     0.054 A 
ATOM     12  F   UNL     1       4.010  -0.314  -2.954  1.00  0.00    -0.205 F 
BRANCH   7  13
ATOM     13  S   UNL     1       3.835   0.603  -0.134  1.00  0.00     0.243 S 
ATOM     14  O   UNL     1       3.636   1.463   1.014  1.00  0.00    -0.207 OA
ATOM     15  O   UNL     1       5.119   0.005  -0.409  1.00  0.00    -0.207 OA
BRANCH  13  16
ATOM     16  N   UNL     1       2.721  -0.638  -0.035  1.00  0.00    -0.205 NA
ATOM     17  H   UNL     1       2.790  -1.165  -0.905  1.00  0.00     0.141 HD
BRANCH  16  18
ATOM     18  C   UNL     1       1.296  -0.336   0.167  1.00  0.00     0.163 C 
BRANCH  18  19
ATOM     19  C   UNL     1       0.549  -1.617   0.631  1.00  0.00     0.195 C 
ATOM     20  C   UNL     1       1.049  -2.069   2.014  1.00  0.00     0.076 C 
BRANCH  19  21
ATOM     21  N   UNL     1      -0.923  -1.482   0.513  1.00  0.00    -0.337 N 
ATOM     22  C   UNL     1      -1.607  -2.762   0.713  1.00  0.00     0.332 C 
ATOM     23  C   UNL     1      -1.513  -0.457   1.374  1.00  0.00     0.332 C 
ATOM     24  H   UNL     1      -1.069  -1.168  -0.446  1.00  0.00     0.347 HD
ENDBRANCH  19  21
ENDBRANCH  18  19
ENDBRANCH  16  18
ENDBRANCH  13  16
ENDBRANCH   7  13
ENDBRANCH   3   6
ENDBRANCH   1   2
BRANCH   1  25
ATOM     25  C   UNL     1       3.295   1.731  -7.612  1.00  0.00     0.023 C 
BRANCH  25  26
ATOM     26  C   UNL     1       2.893   2.210  -9.011  1.00  0.00     0.023 C 
BRANCH  26  27
ATOM     27  C   UNL     1       4.061   2.633  -9.892  1.00  0.00     0.116 C 
BRANCH  27  28
ATOM     28  N   UNL     1       5.052   1.583 -10.070  1.00  0.00    -0.352 N 
ATOM     29  C   UNL     1       5.814   1.314 -11.180  1.00  0.00     0.251 C 
ATOM     30  H   UNL     1       5.194   0.990  -9.297  1.00  0.00     0.163 HD
ATOM     31  O   UNL     1       6.514   0.309 -11.230  1.00  0.00    -0.269 OA
BRANCH  29  32
ATOM     32  C   UNL     1       5.749   2.237 -12.329  1.00  0.00     0.039 A 
ATOM     33  C   UNL     1       5.556   1.712 -13.607  1.00  0.00     0.014 A 
ATOM     34  C   UNL     1       5.843   3.617 -12.132  1.00  0.00     0.014 A 
ATOM     35  C   UNL     1       5.410   2.581 -14.688  1.00  0.00     0.010 A 
ATOM     36  C   UNL     1       5.605   4.481 -13.193  1.00  0.00     0.010 A 
ATOM     37  C   UNL     1       5.407   3.972 -14.485  1.00  0.00    -0.014 A 
BRANCH  37  38
ATOM     38  C   UNL     1       5.239   4.911 -15.621  1.00  0.00     0.031 A 
ATOM     39  C   UNL     1       6.350   5.859 -15.977  1.00  0.00     0.074 A 
ATOM     40  C   UNL     1       4.078   4.937 -16.303  1.00  0.00     0.049 A 
ATOM     41  N   UNL     1       6.386   6.777 -16.909  1.00  0.00    -0.248 NA
ATOM     42  C   UNL     1       7.573   5.788 -15.161  1.00  0.00     0.031 C 
ATOM     43  C   UNL     1       2.914   4.096 -16.021  1.00  0.00     0.029 A 
ATOM     44  N   UNL     1       3.687   5.699 -17.375  1.00  0.00    -0.354 N 
ATOM     45  C   UNL     1       7.624   7.392 -16.783  1.00  0.00     0.074 A 
ATOM     46  C   UNL     1       8.282   6.797 -15.643  1.00  0.00     0.031 C 
ATOM     47  C   UNL     1       1.954   4.360 -16.921  1.00  0.00     0.029 A 
ATOM     48  C   UNL     1       2.417   5.416 -17.817  1.00  0.00     0.049 A 
ATOM     49  H   UNL     1       4.261   6.383 -17.788  1.00  0.00     0.167 HD
ATOM     50  C   UNL     1       8.176   8.345 -17.570  1.00  0.00     0.037 A 
ATOM     51  C   UNL     1       1.709   5.946 -18.833  1.00  0.00     0.037 A 
ATOM     52  C   UNL     1       7.525   8.914 -18.719  1.00  0.00     0.049 A 
ATOM     53  C   UNL     1       2.341   7.011 -19.689  1.00  0.00     0.074 A 
ATOM     54  C   UNL     1       8.016   9.854 -19.608  1.00  0.00     0.029 A 
ATOM     55  N   UNL     1       6.241   8.597 -19.139  1.00  0.00    -0.354 N 
ATOM     56  N   UNL     1       3.533   7.548 -19.594  1.00  0.00    -0.248 NA
ATOM     57  C   UNL     1       1.535   7.533 -20.801  1.00  0.00     0.031 C 
ATOM     58  C   UNL     1       7.009  10.150 -20.529  1.00  0.00     0.029 A 
ATOM     59  C   UNL     1       5.917   9.338 -20.264  1.00  0.00     0.049 A 
ATOM     60  H   UNL     1       5.649   7.942 -18.703  1.00  0.00     0.167 HD
ATOM     61  C   UNL     1       3.635   8.443 -20.651  1.00  0.00     0.074 A 
ATOM     62  C   UNL     1       2.385   8.371 -21.379  1.00  0.00     0.031 C 
ATOM     63  C   UNL     1       4.675   9.244 -20.990  1.00  0.00     0.037 A 
BRANCH  50  64
ATOM     64  C   UNL     1       9.558   8.824 -17.226  1.00  0.00     0.064 A 
ATOM     65  C   UNL     1       9.770  10.147 -16.810  1.00  0.00     0.173 A 
ATOM     66  C   UNL     1      10.681   7.994 -17.365  1.00  0.00     0.173 A 
ATOM     67  F   UNL     1       8.732  10.985 -16.663  1.00  0.00    -0.203 F 
ATOM     68  C   UNL     1      11.054  10.624 -16.561  1.00  0.00     0.198 A 
ATOM     69  C   UNL     1      11.960   8.464 -17.080  1.00  0.00     0.198 A 
ATOM     70  F   UNL     1      10.535   6.716 -17.746  1.00  0.00    -0.203 F 
ATOM     71  F   UNL     1      11.233  11.902 -16.200  1.00  0.00    -0.200 F 
ATOM     72  C   UNL     1      12.147   9.781 -16.690  1.00  0.00     0.200 A 
ATOM     73  F   UNL     1      13.012   7.639 -17.175  1.00  0.00    -0.200 F 
ATOM     74  F   UNL     1      13.381  10.238 -16.435  1.00  0.00    -0.200 F 
ENDBRANCH  50  64
BRANCH  51  75
ATOM     75  C   UNL     1       0.344   5.433 -19.119  1.00  0.00     0.064 A 
ATOM     76  C   UNL     1      -0.722   5.657 -18.235  1.00  0.00     0.173 A 
ATOM     77  C   UNL     1       0.088   4.670 -20.267  1.00  0.00     0.173 A 
ATOM     78  F   UNL     1      -0.529   6.374 -17.118  1.00  0.00    -0.203 F 
ATOM     79  C   UNL     1      -1.984   5.119 -18.477  1.00  0.00     0.198 A 
ATOM     80  C   UNL     1      -1.182   4.157 -20.524  1.00  0.00     0.198 A 
ATOM     81  F   UNL     1       1.069   4.443 -21.152  1.00  0.00    -0.203 F 
ATOM     82  F   UNL     1      -2.974   5.313 -17.595  1.00  0.00    -0.200 F 
ATOM     83  C   UNL     1      -2.215   4.373 -19.623  1.00  0.00     0.200 A 
ATOM     84  F   UNL     1      -1.406   3.458 -21.644  1.00  0.00    -0.200 F 
ATOM     85  F   UNL     1      -3.431   3.864 -19.860  1.00  0.00    -0.200 F 
ENDBRANCH  51  75
BRANCH  63  86
ATOM     86  C   UNL     1       4.544  10.078 -22.232  1.00  0.00     0.064 A 
ATOM     87  C   UNL     1       5.360   9.815 -23.345  1.00  0.00     0.173 A 
ATOM     88  C   UNL     1       3.683  11.183 -22.298  1.00  0.00     0.173 A 
ATOM     89  F   UNL     1       6.210   8.777 -23.331  1.00  0.00    -0.203 F 
ATOM     90  C   UNL     1       5.330  10.637 -24.467  1.00  0.00     0.198 A 
ATOM     91  C   UNL     1       3.630  11.982 -23.437  1.00  0.00     0.198 A 
ATOM     92  F   UNL     1       2.876  11.473 -21.266  1.00  0.00    -0.203 F 
ATOM     93  F   UNL     1       6.151  10.391 -25.498  1.00  0.00    -0.200 F 
ATOM     94  C   UNL     1       4.462  11.716 -24.515  1.00  0.00     0.200 A 
ATOM     95  F   UNL     1       2.771  13.009 -23.493  1.00  0.00    -0.200 F 
ATOM     96  F   UNL     1       4.425  12.500 -25.602  1.00  0.00    -0.200 F 
ENDBRANCH  63  86
ENDBRANCH  37  38
ENDBRANCH  29  32
ENDBRANCH  27  28
ENDBRANCH  26  27
ENDBRANCH  25  26
ENDBRANCH   1  25
TORSDOF 16
