REMARK SMILES CC(C)N(CCCC(=O)NCCCCNC(=O)c1ccc(-c2c3nc(c(-c4c(F)c(F)c(F)c(F)c4F)c4ccc([nH]4)c(-c4c(F)c(F)c(F)c(F)c4F)c4nc(c(-c5c(F)c(F)c(F)c(F)c5F)c5ccc2[nH]5)C=C4)C=C3)cc1)c1cc(Cl)c(Cl)cc1[N+](=O)[O-]
REMARK SMILES IDX 11 1 10 2 8 3 9 4 7 6 6 7 5 8 4 9 2 10 1 11 3 12 81 13 82 14
REMARK SMILES IDX 88 15 83 16 87 17 84 18 85 19 86 20 89 21 90 22 91 23 12 24
REMARK SMILES IDX 13 25 14 26 15 27 16 28 17 30 18 31 19 32 80 33 20 34 79 35
REMARK SMILES IDX 21 36 22 37 23 38 73 39 24 40 78 41 72 42 74 43 25 44 77 45
REMARK SMILES IDX 71 46 70 47 26 49 58 50 38 51 57 52 39 53 42 54 56 55 75 56
REMARK SMILES IDX 40 57 41 58 55 60 76 61 43 62 27 63 28 64 36 65 29 66 30 67
REMARK SMILES IDX 34 68 37 69 31 70 32 71 35 72 33 73 59 74 60 75 68 76 61 77
REMARK SMILES IDX 62 78 66 79 69 80 63 81 64 82 67 83 65 84 44 85 45 86 53 87
REMARK SMILES IDX 46 88 47 89 51 90 54 91 48 92 49 93 52 94 50 95
REMARK H PARENT 10 5 15 29 74 48 42 59
REMARK Flexibility Score: inf
ROOT
ATOM      1  C   UNL     1      -3.374   0.587  -1.291  1.00  0.00     0.116 C 
ENDROOT
BRANCH   1   2
ATOM      2  N   UNL     1      -4.462  -0.188  -1.846  1.00  0.00    -0.356 N 
ATOM      3  C   UNL     1      -4.675  -1.530  -1.769  1.00  0.00     0.220 C 
ATOM      4  O   UNL     1      -5.533  -2.036  -2.492  1.00  0.00    -0.275 OA
ATOM      5  H   UNL     1      -5.139   0.324  -2.346  1.00  0.00     0.163 HD
BRANCH   3   6
ATOM      6  C   UNL     1      -3.894  -2.361  -0.770  1.00  0.00     0.102 C 
BRANCH   6   7
ATOM      7  C   UNL     1      -2.627  -3.021  -1.321  1.00  0.00     0.031 C 
BRANCH   7   8
ATOM      8  C   UNL     1      -1.318  -2.219  -1.311  1.00  0.00     0.117 C 
BRANCH   8   9
ATOM      9  N   UNL     1      -0.563  -2.058  -0.034  1.00  0.00    -0.364 N 
BRANCH   9  10
ATOM     10  C   UNL     1       0.914  -2.230  -0.140  1.00  0.00     0.076 C 
ATOM     11  C   UNL     1       1.687  -0.918  -0.223  1.00  0.00     0.030 C 
ATOM     12  C   UNL     1       1.466  -3.143   0.949  1.00  0.00     0.030 C 
ENDBRANCH   9  10
BRANCH   9  13
ATOM     13  C   UNL     1      -1.198  -1.750   1.161  1.00  0.00     0.117 A 
ATOM     14  C   UNL     1      -1.958  -2.769   1.773  1.00  0.00     0.055 A 
ATOM     15  C   UNL     1      -1.202  -0.518   1.846  1.00  0.00     0.294 A 
ATOM     16  C   UNL     1      -2.775  -2.546   2.893  1.00  0.00     0.062 A 
ATOM     17  C   UNL     1      -1.993  -0.280   2.990  1.00  0.00     0.110 A 
ATOM     18  Cl  UNL     1      -3.762  -3.853   3.439  1.00  0.00    -0.083 Cl
ATOM     19  C   UNL     1      -2.804  -1.289   3.493  1.00  0.00     0.066 A 
ATOM     20  Cl  UNL     1      -3.820  -0.913   4.835  1.00  0.00    -0.082 Cl
BRANCH  15  21
ATOM     21  N   UNL     1      -0.435   0.631   1.417  1.00  0.00     0.065 N 
ATOM     22  O   UNL     1       0.414   1.058   2.211  1.00  0.00    -0.258 OA
ATOM     23  O   UNL     1      -0.752   1.169   0.349  1.00  0.00    -0.258 OA
ENDBRANCH  15  21
ENDBRANCH   9  13
ENDBRANCH   8   9
ENDBRANCH   7   8
ENDBRANCH   6   7
ENDBRANCH   3   6
ENDBRANCH   1   2
BRANCH   1  24
ATOM     24  C   UNL     1      -2.382   0.958  -2.396  1.00  0.00     0.023 C 
BRANCH  24  25
ATOM     25  C   UNL     1      -2.567   2.367  -2.933  1.00  0.00     0.023 C 
BRANCH  25  26
ATOM     26  C   UNL     1      -2.234   3.456  -1.922  1.00  0.00     0.116 C 
BRANCH  26  27
ATOM     27  N   UNL     1      -0.839   3.470  -1.499  1.00  0.00    -0.352 N 
ATOM     28  C   UNL     1      -0.051   4.569  -1.232  1.00  0.00     0.251 C 
ATOM     29  H   UNL     1      -0.409   2.591  -1.392  1.00  0.00     0.163 HD
ATOM     30  O   UNL     1       1.137   4.471  -0.969  1.00  0.00    -0.269 OA
BRANCH  28  31
ATOM     31  C   UNL     1      -0.694   5.894  -1.306  1.00  0.00     0.039 A 
ATOM     32  C   UNL     1      -0.193   6.846  -2.193  1.00  0.00     0.014 A 
ATOM     33  C   UNL     1      -1.879   6.119  -0.599  1.00  0.00     0.014 A 
ATOM     34  C   UNL     1      -0.942   7.994  -2.448  1.00  0.00     0.010 A 
ATOM     35  C   UNL     1      -2.664   7.215  -0.923  1.00  0.00     0.010 A 
ATOM     36  C   UNL     1      -2.207   8.157  -1.858  1.00  0.00    -0.014 A 
BRANCH  36  37
ATOM     37  C   UNL     1      -3.086   9.294  -2.221  1.00  0.00     0.031 A 
ATOM     38  C   UNL     1      -3.486  10.292  -1.175  1.00  0.00     0.074 A 
ATOM     39  C   UNL     1      -3.595   9.370  -3.466  1.00  0.00     0.049 A 
ATOM     40  N   UNL     1      -4.307  11.306  -1.269  1.00  0.00    -0.248 NA
ATOM     41  C   UNL     1      -2.920  10.100   0.170  1.00  0.00     0.031 C 
ATOM     42  C   UNL     1      -3.343   8.413  -4.545  1.00  0.00     0.029 A 
ATOM     43  N   UNL     1      -4.443  10.290  -4.030  1.00  0.00    -0.354 N 
ATOM     44  C   UNL     1      -4.368  11.858   0.002  1.00  0.00     0.074 A 
ATOM     45  C   UNL     1      -3.554  11.031   0.865  1.00  0.00     0.031 C 
ATOM     46  C   UNL     1      -3.999   8.810  -5.647  1.00  0.00     0.029 A 
ATOM     47  C   UNL     1      -4.741  10.030  -5.345  1.00  0.00     0.049 A 
ATOM     48  H   UNL     1      -4.803  11.063  -3.538  1.00  0.00     0.167 HD
ATOM     49  C   UNL     1      -5.020  12.973   0.407  1.00  0.00     0.037 A 
ATOM     50  C   UNL     1      -5.524  10.704  -6.208  1.00  0.00     0.037 A 
ATOM     51  C   UNL     1      -5.799  13.812  -0.464  1.00  0.00     0.049 A 
ATOM     52  C   UNL     1      -6.209  11.960  -5.746  1.00  0.00     0.074 A 
ATOM     53  C   UNL     1      -6.438  15.003  -0.172  1.00  0.00     0.029 A 
ATOM     54  N   UNL     1      -6.042  13.542  -1.803  1.00  0.00    -0.354 N 
ATOM     55  N   UNL     1      -6.194  12.520  -4.561  1.00  0.00    -0.248 NA
ATOM     56  C   UNL     1      -7.011  12.682  -6.742  1.00  0.00     0.031 C 
ATOM     57  C   UNL     1      -7.096  15.438  -1.328  1.00  0.00     0.029 A 
ATOM     58  C   UNL     1      -6.835  14.538  -2.349  1.00  0.00     0.049 A 
ATOM     59  H   UNL     1      -5.701  12.759  -2.293  1.00  0.00     0.167 HD
ATOM     60  C   UNL     1      -6.967  13.667  -4.671  1.00  0.00     0.074 A 
ATOM     61  C   UNL     1      -7.421  13.733  -6.045  1.00  0.00     0.031 C 
ATOM     62  C   UNL     1      -7.275  14.583  -3.720  1.00  0.00     0.037 A 
BRANCH  49  63
ATOM     63  C   UNL     1      -4.900  13.350   1.854  1.00  0.00     0.064 A 
ATOM     64  C   UNL     1      -3.689  13.815   2.392  1.00  0.00     0.173 A 
ATOM     65  C   UNL     1      -6.004  13.250   2.713  1.00  0.00     0.173 A 
ATOM     66  F   UNL     1      -2.599  13.914   1.616  1.00  0.00    -0.203 F 
ATOM     67  C   UNL     1      -3.579  14.130   3.744  1.00  0.00     0.198 A 
ATOM     68  C   UNL     1      -5.898  13.594   4.058  1.00  0.00     0.198 A 
ATOM     69  F   UNL     1      -7.184  12.813   2.249  1.00  0.00    -0.203 F 
ATOM     70  F   UNL     1      -2.398  14.514   4.246  1.00  0.00    -0.200 F 
ATOM     71  C   UNL     1      -4.685  14.024   4.574  1.00  0.00     0.200 A 
ATOM     72  F   UNL     1      -6.969  13.501   4.858  1.00  0.00    -0.200 F 
ATOM     73  F   UNL     1      -4.577  14.326   5.875  1.00  0.00    -0.200 F 
ENDBRANCH  49  63
BRANCH  50  74
ATOM     74  C   UNL     1      -5.666  10.223  -7.606  1.00  0.00     0.064 A 
ATOM     75  C   UNL     1      -5.055  10.909  -8.665  1.00  0.00     0.173 A 
ATOM     76  C   UNL     1      -6.396   9.066  -7.912  1.00  0.00     0.173 A 
ATOM     77  F   UNL     1      -4.361  12.031  -8.424  1.00  0.00    -0.203 F 
ATOM     78  C   UNL     1      -5.183  10.465  -9.980  1.00  0.00     0.198 A 
ATOM     79  C   UNL     1      -6.504   8.609  -9.224  1.00  0.00     0.198 A 
ATOM     80  F   UNL     1      -6.993   8.371  -6.933  1.00  0.00    -0.203 F 
ATOM     81  F   UNL     1      -4.618  11.159 -10.977  1.00  0.00    -0.200 F 
ATOM     82  C   UNL     1      -5.902   9.312 -10.257  1.00  0.00     0.200 A 
ATOM     83  F   UNL     1      -7.188   7.488  -9.487  1.00  0.00    -0.200 F 
ATOM     84  F   UNL     1      -6.018   8.880 -11.521  1.00  0.00    -0.200 F 
ENDBRANCH  50  74
BRANCH  62  85
ATOM     85  C   UNL     1      -8.129  15.741  -4.138  1.00  0.00     0.064 A 
ATOM     86  C   UNL     1      -9.502  15.588  -4.380  1.00  0.00     0.173 A 
ATOM     87  C   UNL     1      -7.577  17.025  -4.255  1.00  0.00     0.173 A 
ATOM     88  F   UNL     1     -10.071  14.376  -4.295  1.00  0.00    -0.203 F 
ATOM     89  C   UNL     1     -10.289  16.677  -4.743  1.00  0.00     0.198 A 
ATOM     90  C   UNL     1      -8.372  18.116  -4.594  1.00  0.00     0.198 A 
ATOM     91  F   UNL     1      -6.270  17.223  -4.029  1.00  0.00    -0.203 F 
ATOM     92  F   UNL     1     -11.590  16.502  -5.009  1.00  0.00    -0.200 F 
ATOM     93  C   UNL     1      -9.725  17.941  -4.843  1.00  0.00     0.200 A 
ATOM     94  F   UNL     1      -7.829  19.339  -4.679  1.00  0.00    -0.200 F 
ATOM     95  F   UNL     1     -10.486  18.989  -5.186  1.00  0.00    -0.200 F 
ENDBRANCH  62  85
ENDBRANCH  36  37
ENDBRANCH  28  31
ENDBRANCH  26  27
ENDBRANCH  25  26
ENDBRANCH  24  25
ENDBRANCH   1  24
TORSDOF 17
