REMARK SMILES Cc1cc(N2N=C(C(=O)NCCCCNC(=O)c3ccc(-c4c5nc(c(-c6c(F)c(F)c(F)c(F)c6F)c6ccc([nH]6)c(-c6c(F)c(F)c(F)c(F)c6F)c6nc(c(-c7c(F)c(F)c(F)c(F)c7F)c7ccc4[nH]7)C=C6)C=C5)cc3)C[C@H]2c2ccccc2)c([N+](=O)[O-])cc1C
REMARK SMILES IDX 12 1 11 2 10 3 8 4 9 5 7 7 5 8 6 9 82 10 81 11 4 12 1 13
REMARK SMILES IDX 2 14 3 15 94 16 93 17 95 18 89 19 90 20 91 21 92 22 83 23
REMARK SMILES IDX 84 24 88 25 85 26 87 27 86 28 13 29 14 30 15 31 16 32 17 34
REMARK SMILES IDX 18 35 19 36 80 37 20 38 79 39 21 40 22 41 23 42 73 43 24 44
REMARK SMILES IDX 78 45 72 46 74 47 25 48 77 49 71 50 70 51 26 53 58 54 38 55
REMARK SMILES IDX 57 56 39 57 42 58 56 59 75 60 40 61 41 62 55 64 76 65 43 66
REMARK SMILES IDX 27 67 28 68 36 69 29 70 30 71 34 72 37 73 31 74 32 75 35 76
REMARK SMILES IDX 33 77 59 78 60 79 68 80 61 81 62 82 66 83 69 84 63 85 64 86
REMARK SMILES IDX 67 87 65 88 44 89 45 90 53 91 46 92 47 93 51 94 54 95 48 96
REMARK SMILES IDX 49 97 52 98 50 99
REMARK H PARENT 10 6 15 33 74 52 42 63
REMARK Flexibility Score: inf
ROOT
ATOM      1  C   UNL     1      -8.775   2.935  -0.868  1.00  0.00     0.023 C 
ENDROOT
BRANCH   1   2
ATOM      2  C   UNL     1      -7.629   3.520  -0.050  1.00  0.00     0.116 C 
BRANCH   2   3
ATOM      3  N   UNL     1      -7.284   2.675   1.073  1.00  0.00    -0.351 N 
ATOM      4  C   UNL     1      -6.163   1.972   1.437  1.00  0.00     0.267 C 
ATOM      5  O   UNL     1      -6.226   1.319   2.477  1.00  0.00    -0.268 OA
ATOM      6  H   UNL     1      -8.020   2.583   1.721  1.00  0.00     0.163 HD
BRANCH   4   7
ATOM      7  C   UNL     1      -4.848   1.986   0.669  1.00  0.00     0.128 C 
ATOM      8  N   UNL     1      -2.757   1.699   0.313  1.00  0.00    -0.250 N 
ATOM      9  N   UNL     1      -3.767   1.492   1.200  1.00  0.00    -0.171 NA
ATOM     10  C   UNL     1      -3.195   2.318  -0.942  1.00  0.00     0.144 C 
ATOM     11  C   UNL     1      -4.699   2.487  -0.729  1.00  0.00     0.096 C 
BRANCH   8  12
ATOM     12  C   UNL     1      -1.670   0.823   0.288  1.00  0.00     0.138 A 
ATOM     13  C   UNL     1       2.112   1.333   0.290  1.00  0.00     0.045 C 
ATOM     14  C   UNL     1       0.790   0.616   0.256  1.00  0.00    -0.046 A 
ATOM     15  C   UNL     1      -0.384   1.381   0.379  1.00  0.00     0.039 A 
ATOM     16  C   UNL     1       0.688  -0.776   0.094  1.00  0.00    -0.041 A 
ATOM     17  C   UNL     1      -0.589  -1.361   0.047  1.00  0.00     0.091 A 
ATOM     18  C   UNL     1       1.885  -1.678  -0.022  1.00  0.00     0.045 C 
ATOM     19  C   UNL     1      -1.745  -0.565   0.132  1.00  0.00     0.294 A 
BRANCH  19  20
ATOM     20  N   UNL     1      -3.025  -1.234  -0.052  1.00  0.00     0.065 N 
ATOM     21  O   UNL     1      -3.222  -2.269   0.602  1.00  0.00    -0.258 OA
ATOM     22  O   UNL     1      -3.785  -0.797  -0.933  1.00  0.00    -0.258 OA
ENDBRANCH  19  20
ENDBRANCH   8  12
BRANCH  10  23
ATOM     23  C   UNL     1      -2.426   3.606  -1.222  1.00  0.00    -0.023 A 
ATOM     24  C   UNL     1      -2.799   4.859  -0.706  1.00  0.00     0.006 A 
ATOM     25  C   UNL     1      -1.257   3.538  -2.002  1.00  0.00     0.006 A 
ATOM     26  C   UNL     1      -2.058   6.007  -1.000  1.00  0.00     0.000 A 
ATOM     27  C   UNL     1      -0.494   4.678  -2.259  1.00  0.00     0.000 A 
ATOM     28  C   UNL     1      -0.903   5.915  -1.770  1.00  0.00     0.000 A 
ENDBRANCH  10  23
ENDBRANCH   4   7
ENDBRANCH   2   3
ENDBRANCH   1   2
BRANCH   1  29
ATOM     29  C   UNL     1     -10.154   3.120  -0.240  1.00  0.00     0.023 C 
BRANCH  29  30
ATOM     30  C   UNL     1     -10.522   4.559   0.106  1.00  0.00     0.116 C 
BRANCH  30  31
ATOM     31  N   UNL     1     -10.370   5.488  -1.008  1.00  0.00    -0.352 N 
ATOM     32  C   UNL     1     -11.193   6.520  -1.383  1.00  0.00     0.251 C 
ATOM     33  H   UNL     1      -9.570   5.356  -1.565  1.00  0.00     0.163 HD
ATOM     34  O   UNL     1     -10.970   7.158  -2.406  1.00  0.00    -0.269 OA
BRANCH  32  35
ATOM     35  C   UNL     1     -12.379   6.825  -0.562  1.00  0.00     0.039 A 
ATOM     36  C   UNL     1     -13.627   6.909  -1.182  1.00  0.00     0.014 A 
ATOM     37  C   UNL     1     -12.263   6.963   0.824  1.00  0.00     0.014 A 
ATOM     38  C   UNL     1     -14.774   7.051  -0.401  1.00  0.00     0.010 A 
ATOM     39  C   UNL     1     -13.410   7.026   1.605  1.00  0.00     0.010 A 
ATOM     40  C   UNL     1     -14.676   7.067   1.000  1.00  0.00    -0.014 A 
BRANCH  40  41
ATOM     41  C   UNL     1     -15.887   7.115   1.855  1.00  0.00     0.031 A 
ATOM     42  C   UNL     1     -16.126   8.293   2.754  1.00  0.00     0.074 A 
ATOM     43  C   UNL     1     -16.720   6.057   1.888  1.00  0.00     0.049 A 
ATOM     44  N   UNL     1     -17.074   8.483   3.636  1.00  0.00    -0.248 NA
ATOM     45  C   UNL     1     -15.146   9.387   2.680  1.00  0.00     0.031 C 
ATOM     46  C   UNL     1     -16.554   4.825   1.114  1.00  0.00     0.029 A 
ATOM     47  N   UNL     1     -17.862   5.840   2.617  1.00  0.00    -0.354 N 
ATOM     48  C   UNL     1     -16.791   9.703   4.234  1.00  0.00     0.074 A 
ATOM     49  C   UNL     1     -15.556  10.184   3.654  1.00  0.00     0.031 C 
ATOM     50  C   UNL     1     -17.562   3.987   1.402  1.00  0.00     0.029 A 
ATOM     51  C   UNL     1     -18.427   4.608   2.400  1.00  0.00     0.049 A 
ATOM     52  H   UNL     1     -18.240   6.505   3.237  1.00  0.00     0.167 HD
ATOM     53  C   UNL     1     -17.511  10.373   5.165  1.00  0.00     0.037 A 
ATOM     54  C   UNL     1     -19.517   4.040   2.952  1.00  0.00     0.037 A 
ATOM     55  C   UNL     1     -18.757   9.906   5.712  1.00  0.00     0.049 A 
ATOM     56  C   UNL     1     -20.319   4.817   3.958  1.00  0.00     0.074 A 
ATOM     57  C   UNL     1     -19.609  10.550   6.592  1.00  0.00     0.029 A 
ATOM     58  N   UNL     1     -19.328   8.673   5.431  1.00  0.00    -0.354 N 
ATOM     59  N   UNL     1     -20.094   6.011   4.449  1.00  0.00    -0.248 NA
ATOM     60  C   UNL     1     -21.534   4.174   4.477  1.00  0.00     0.031 C 
ATOM     61  C   UNL     1     -20.673   9.687   6.878  1.00  0.00     0.029 A 
ATOM     62  C   UNL     1     -20.509   8.526   6.140  1.00  0.00     0.049 A 
ATOM     63  H   UNL     1     -18.949   8.001   4.819  1.00  0.00     0.167 HD
ATOM     64  C   UNL     1     -21.144   6.271   5.319  1.00  0.00     0.074 A 
ATOM     65  C   UNL     1     -22.017   5.116   5.274  1.00  0.00     0.031 C 
ATOM     66  C   UNL     1     -21.365   7.368   6.085  1.00  0.00     0.037 A 
BRANCH  53  67
ATOM     67  C   UNL     1     -16.963  11.685   5.648  1.00  0.00     0.064 A 
ATOM     68  C   UNL     1     -16.915  12.815   4.817  1.00  0.00     0.173 A 
ATOM     69  C   UNL     1     -16.493  11.818   6.963  1.00  0.00     0.173 A 
ATOM     70  F   UNL     1     -17.340  12.737   3.546  1.00  0.00    -0.203 F 
ATOM     71  C   UNL     1     -16.381  14.017   5.272  1.00  0.00     0.198 A 
ATOM     72  C   UNL     1     -15.989  13.031   7.425  1.00  0.00     0.198 A 
ATOM     73  F   UNL     1     -16.521  10.771   7.801  1.00  0.00    -0.203 F 
ATOM     74  F   UNL     1     -16.290  15.065   4.441  1.00  0.00    -0.200 F 
ATOM     75  C   UNL     1     -15.924  14.126   6.576  1.00  0.00     0.200 A 
ATOM     76  F   UNL     1     -15.559  13.139   8.689  1.00  0.00    -0.200 F 
ATOM     77  F   UNL     1     -15.411  15.285   7.013  1.00  0.00    -0.200 F 
ENDBRANCH  53  67
BRANCH  54  78
ATOM     78  C   UNL     1     -19.920   2.671   2.539  1.00  0.00     0.064 A 
ATOM     79  C   UNL     1     -21.055   2.464   1.743  1.00  0.00     0.173 A 
ATOM     80  C   UNL     1     -19.171   1.547   2.916  1.00  0.00     0.173 A 
ATOM     81  F   UNL     1     -21.812   3.507   1.373  1.00  0.00    -0.203 F 
ATOM     82  C   UNL     1     -21.433   1.182   1.349  1.00  0.00     0.198 A 
ATOM     83  C   UNL     1     -19.536   0.268   2.500  1.00  0.00     0.198 A 
ATOM     84  F   UNL     1     -18.073   1.694   3.671  1.00  0.00    -0.203 F 
ATOM     85  F   UNL     1     -22.541   1.008   0.617  1.00  0.00    -0.200 F 
ATOM     86  C   UNL     1     -20.670   0.086   1.722  1.00  0.00     0.200 A 
ATOM     87  F   UNL     1     -18.788  -0.787   2.850  1.00  0.00    -0.200 F 
ATOM     88  F   UNL     1     -21.029  -1.146   1.336  1.00  0.00    -0.200 F 
ENDBRANCH  54  78
BRANCH  66  89
ATOM     89  C   UNL     1     -22.610   7.381   6.922  1.00  0.00     0.064 A 
ATOM     90  C   UNL     1     -22.732   6.584   8.069  1.00  0.00     0.173 A 
ATOM     91  C   UNL     1     -23.676   8.234   6.597  1.00  0.00     0.173 A 
ATOM     92  F   UNL     1     -21.746   5.741   8.413  1.00  0.00    -0.203 F 
ATOM     93  C   UNL     1     -23.885   6.624   8.849  1.00  0.00     0.198 A 
ATOM     94  C   UNL     1     -24.815   8.293   7.394  1.00  0.00     0.198 A 
ATOM     95  F   UNL     1     -23.606   9.021   5.512  1.00  0.00    -0.203 F 
ATOM     96  F   UNL     1     -23.997   5.822   9.917  1.00  0.00    -0.200 F 
ATOM     97  C   UNL     1     -24.921   7.484   8.515  1.00  0.00     0.200 A 
ATOM     98  F   UNL     1     -25.810   9.132   7.077  1.00  0.00    -0.200 F 
ATOM     99  F   UNL     1     -26.027   7.527   9.271  1.00  0.00    -0.200 F 
ENDBRANCH  66  89
ENDBRANCH  40  41
ENDBRANCH  32  35
ENDBRANCH  30  31
ENDBRANCH  29  30
ENDBRANCH   1  29
TORSDOF 14
