REMARK SMILES Cc1cc(Cl)ccc1OCC(=O)Nc1ccc(CC(=O)NCCCCNC(=O)c2ccc(-c3c4nc(c(-c5c(F)c(F)c(F)c(F)c5F)c5ccc([nH]5)c(-c5c(F)c(F)c(F)c(F)c5F)c5nc(c(-c6c(F)c(F)c(F)c(F)c6F)c6ccc3[nH]6)C=C5)C=C4)cc2)cc1
REMARK SMILES IDX 22 1 21 2 19 3 20 4 18 6 17 7 14 8 15 9 93 10 16 11 92 12
REMARK SMILES IDX 13 13 11 14 12 15 10 17 9 18 8 19 1 20 2 21 3 22 4 23 7 24
REMARK SMILES IDX 5 25 6 26 23 27 24 28 25 29 26 30 27 31 28 33 29 34 30 35
REMARK SMILES IDX 91 36 31 37 90 38 32 39 33 40 34 41 84 42 35 43 89 44 83 45
REMARK SMILES IDX 85 46 36 47 88 48 82 49 81 50 37 52 69 53 49 54 68 55 50 56
REMARK SMILES IDX 53 57 67 58 86 59 51 60 52 61 66 63 87 64 54 65 38 66 39 67
REMARK SMILES IDX 47 68 40 69 41 70 45 71 48 72 42 73 43 74 46 75 44 76 70 77
REMARK SMILES IDX 71 78 79 79 72 80 73 81 77 82 80 83 74 84 75 85 78 86 76 87
REMARK SMILES IDX 55 88 56 89 64 90 57 91 58 92 62 93 65 94 59 95 60 96 63 97
REMARK SMILES IDX 61 98
REMARK H PARENT 21 5 13 16 26 32 85 51 53 62
REMARK Flexibility Score: inf
ROOT
ATOM      1  C   UNL     1      -2.264  -5.646   4.239  1.00  0.00     0.116 C 
ENDROOT
BRANCH   1   2
ATOM      2  N   UNL     1      -3.337  -6.220   5.028  1.00  0.00    -0.356 N 
ATOM      3  C   UNL     1      -4.675  -6.274   4.759  1.00  0.00     0.224 C 
ATOM      4  O   UNL     1      -5.424  -6.754   5.613  1.00  0.00    -0.275 OA
ATOM      5  H   UNL     1      -3.062  -6.629   5.880  1.00  0.00     0.163 HD
BRANCH   3   6
ATOM      6  C   UNL     1      -5.210  -5.800   3.421  1.00  0.00     0.135 C 
BRANCH   6   7
ATOM      7  C   UNL     1      -5.082  -4.314   3.202  1.00  0.00    -0.039 A 
ATOM      8  C   UNL     1      -4.754  -1.552   2.787  1.00  0.00     0.041 A 
ATOM      9  C   UNL     1      -5.531  -2.018   3.851  1.00  0.00     0.026 A 
ATOM     10  C   UNL     1      -4.106  -2.474   1.978  1.00  0.00     0.026 A 
ATOM     11  C   UNL     1      -5.707  -3.392   4.050  1.00  0.00     0.006 A 
ATOM     12  C   UNL     1      -4.292  -3.839   2.154  1.00  0.00     0.006 A 
BRANCH   8  13
ATOM     13  N   UNL     1      -4.644  -0.170   2.602  1.00  0.00    -0.323 N 
ATOM     14  C   UNL     1      -4.392   0.568   1.478  1.00  0.00     0.262 C 
ATOM     15  O   UNL     1      -4.314   1.794   1.618  1.00  0.00    -0.271 OA
ATOM     16  H   UNL     1      -4.770   0.363   3.420  1.00  0.00     0.170 HD
BRANCH  14  17
ATOM     17  C   UNL     1      -4.406  -0.066   0.064  1.00  0.00     0.329 C 
BRANCH  17  18
ATOM     18  O   UNL     1      -3.333  -0.718  -0.586  1.00  0.00    -0.483 OA
BRANCH  18  19
ATOM     19  C   UNL     1      -2.039  -0.365  -0.353  1.00  0.00     0.123 A 
ATOM     20  C   UNL     1      -2.265   2.193  -0.545  1.00  0.00     0.048 C 
ATOM     21  C   UNL     1      -1.500   0.925  -0.309  1.00  0.00    -0.007 A 
ATOM     22  C   UNL     1      -0.115   1.068  -0.072  1.00  0.00     0.027 A 
ATOM     23  C   UNL     1       0.721  -0.042   0.045  1.00  0.00     0.041 A 
ATOM     24  C   UNL     1      -1.174  -1.474  -0.273  1.00  0.00     0.048 A 
ATOM     25  Cl  UNL     1       2.409   0.176   0.287  1.00  0.00    -0.084 Cl
ATOM     26  C   UNL     1       0.197  -1.320  -0.068  1.00  0.00     0.024 A 
ENDBRANCH  18  19
ENDBRANCH  17  18
ENDBRANCH  14  17
ENDBRANCH   8  13
ENDBRANCH   6   7
ENDBRANCH   3   6
ENDBRANCH   1   2
BRANCH   1  27
ATOM     27  C   UNL     1      -1.845  -4.270   4.762  1.00  0.00     0.023 C 
BRANCH  27  28
ATOM     28  C   UNL     1      -1.162  -4.296   6.132  1.00  0.00     0.023 C 
BRANCH  28  29
ATOM     29  C   UNL     1       0.078  -5.177   6.218  1.00  0.00     0.116 C 
BRANCH  29  30
ATOM     30  N   UNL     1       1.127  -4.777   5.294  1.00  0.00    -0.352 N 
ATOM     31  C   UNL     1       2.486  -4.758   5.488  1.00  0.00     0.251 C 
ATOM     32  H   UNL     1       0.820  -4.479   4.407  1.00  0.00     0.163 HD
ATOM     33  O   UNL     1       3.221  -4.269   4.633  1.00  0.00    -0.269 OA
BRANCH  31  34
ATOM     34  C   UNL     1       3.063  -5.291   6.740  1.00  0.00     0.039 A 
ATOM     35  C   UNL     1       4.067  -4.560   7.378  1.00  0.00     0.014 A 
ATOM     36  C   UNL     1       2.620  -6.498   7.290  1.00  0.00     0.014 A 
ATOM     37  C   UNL     1       4.585  -5.010   8.594  1.00  0.00     0.010 A 
ATOM     38  C   UNL     1       3.077  -6.902   8.542  1.00  0.00     0.010 A 
ATOM     39  C   UNL     1       4.070  -6.167   9.205  1.00  0.00    -0.014 A 
BRANCH  39  40
ATOM     40  C   UNL     1       4.569  -6.607  10.534  1.00  0.00     0.031 A 
ATOM     41  C   UNL     1       5.280  -7.925  10.684  1.00  0.00     0.074 A 
ATOM     42  C   UNL     1       4.363  -5.826  11.613  1.00  0.00     0.049 A 
ATOM     43  N   UNL     1       5.793  -8.471  11.759  1.00  0.00    -0.248 NA
ATOM     44  C   UNL     1       5.417  -8.749   9.473  1.00  0.00     0.031 C 
ATOM     45  C   UNL     1       3.643  -4.551  11.608  1.00  0.00     0.029 A 
ATOM     46  N   UNL     1       4.745  -5.985  12.922  1.00  0.00    -0.354 N 
ATOM     47  C   UNL     1       6.319  -9.690  11.351  1.00  0.00     0.074 A 
ATOM     48  C   UNL     1       5.996  -9.842   9.949  1.00  0.00     0.031 C 
ATOM     49  C   UNL     1       3.670  -4.026  12.843  1.00  0.00     0.029 A 
ATOM     50  C   UNL     1       4.373  -4.941  13.735  1.00  0.00     0.049 A 
ATOM     51  H   UNL     1       5.238  -6.772  13.247  1.00  0.00     0.167 HD
ATOM     52  C   UNL     1       7.038 -10.586  12.069  1.00  0.00     0.037 A 
ATOM     53  C   UNL     1       4.579  -4.746  15.052  1.00  0.00     0.037 A 
ATOM     54  C   UNL     1       7.362 -10.435  13.463  1.00  0.00     0.049 A 
ATOM     55  C   UNL     1       5.349  -5.780  15.832  1.00  0.00     0.074 A 
ATOM     56  C   UNL     1       8.100 -11.278  14.276  1.00  0.00     0.029 A 
ATOM     57  N   UNL     1       6.965  -9.366  14.254  1.00  0.00    -0.354 N 
ATOM     58  N   UNL     1       5.900  -6.894  15.417  1.00  0.00    -0.248 NA
ATOM     59  C   UNL     1       5.536  -5.518  17.265  1.00  0.00     0.031 C 
ATOM     60  C   UNL     1       8.110 -10.743  15.569  1.00  0.00     0.029 A 
ATOM     61  C   UNL     1       7.430  -9.537  15.549  1.00  0.00     0.049 A 
ATOM     62  H   UNL     1       6.432  -8.599  13.942  1.00  0.00     0.167 HD
ATOM     63  C   UNL     1       6.530  -7.445  16.526  1.00  0.00     0.074 A 
ATOM     64  C   UNL     1       6.313  -6.528  17.625  1.00  0.00     0.031 C 
ATOM     65  C   UNL     1       7.221  -8.607  16.628  1.00  0.00     0.037 A 
BRANCH  52  66
ATOM     66  C   UNL     1       7.545 -11.805  11.350  1.00  0.00     0.064 A 
ATOM     67  C   UNL     1       8.550 -11.711  10.373  1.00  0.00     0.173 A 
ATOM     68  C   UNL     1       7.064 -13.082  11.672  1.00  0.00     0.173 A 
ATOM     69  F   UNL     1       9.038 -10.513  10.020  1.00  0.00    -0.203 F 
ATOM     70  C   UNL     1       9.033 -12.847   9.729  1.00  0.00     0.198 A 
ATOM     71  C   UNL     1       7.573 -14.219  11.049  1.00  0.00     0.198 A 
ATOM     72  F   UNL     1       6.108 -13.231  12.601  1.00  0.00    -0.203 F 
ATOM     73  F   UNL     1       9.958 -12.726   8.766  1.00  0.00    -0.200 F 
ATOM     74  C   UNL     1       8.552 -14.100  10.073  1.00  0.00     0.200 A 
ATOM     75  F   UNL     1       7.117 -15.432  11.393  1.00  0.00    -0.200 F 
ATOM     76  F   UNL     1       9.027 -15.193   9.461  1.00  0.00    -0.200 F 
ENDBRANCH  52  66
BRANCH  53  77
ATOM     77  C   UNL     1       4.072  -3.518  15.723  1.00  0.00     0.064 A 
ATOM     78  C   UNL     1       4.957  -2.574  16.265  1.00  0.00     0.173 A 
ATOM     79  C   UNL     1       2.698  -3.287  15.883  1.00  0.00     0.173 A 
ATOM     80  F   UNL     1       6.281  -2.757  16.156  1.00  0.00    -0.203 F 
ATOM     81  C   UNL     1       4.488  -1.473  16.979  1.00  0.00     0.198 A 
ATOM     82  C   UNL     1       2.230  -2.165  16.564  1.00  0.00     0.198 A 
ATOM     83  F   UNL     1       1.807  -4.153  15.379  1.00  0.00    -0.203 F 
ATOM     84  F   UNL     1       5.358  -0.628  17.550  1.00  0.00    -0.200 F 
ATOM     85  C   UNL     1       3.125  -1.268  17.125  1.00  0.00     0.200 A 
ATOM     86  F   UNL     1       0.911  -1.962  16.689  1.00  0.00    -0.200 F 
ATOM     87  F   UNL     1       2.675  -0.214  17.819  1.00  0.00    -0.200 F 
ENDBRANCH  53  77
BRANCH  65  88
ATOM     88  C   UNL     1       7.837  -8.923  17.962  1.00  0.00     0.064 A 
ATOM     89  C   UNL     1       7.056  -9.240  19.084  1.00  0.00     0.173 A 
ATOM     90  C   UNL     1       9.232  -8.918  18.117  1.00  0.00     0.173 A 
ATOM     91  F   UNL     1       5.717  -9.246  18.994  1.00  0.00    -0.203 F 
ATOM     92  C   UNL     1       7.646  -9.496  20.319  1.00  0.00     0.198 A 
ATOM     93  C   UNL     1       9.820  -9.212  19.344  1.00  0.00     0.198 A 
ATOM     94  F   UNL     1      10.028  -8.631  17.076  1.00  0.00    -0.203 F 
ATOM     95  F   UNL     1       6.876  -9.728  21.391  1.00  0.00    -0.200 F 
ATOM     96  C   UNL     1       9.027  -9.488  20.447  1.00  0.00     0.200 A 
ATOM     97  F   UNL     1      11.155  -9.221  19.461  1.00  0.00    -0.200 F 
ATOM     98  F   UNL     1       9.592  -9.735  21.636  1.00  0.00    -0.200 F 
ENDBRANCH  65  88
ENDBRANCH  39  40
ENDBRANCH  31  34
ENDBRANCH  29  30
ENDBRANCH  28  29
ENDBRANCH  27  28
ENDBRANCH   1  27
TORSDOF 16
