REMARK SMILES CC(C)c1ccc(C(=O)[C@H](Br)CC(=O)NCCCCNC(=O)c2ccc(-c3c4nc(c(-c5c(F)c(F)c(F)c(F)c5F)c5ccc([nH]5)c(-c5c(F)c(F)c(F)c(F)c5F)c5nc(c(-c6c(F)c(F)c(F)c(F)c6F)c6ccc3[nH]6)C=C5)C=C4)cc2)cc1
REMARK SMILES IDX 16 1 15 2 13 3 14 4 12 6 10 7 11 8 8 9 9 10 7 11 4 12 5 13
REMARK SMILES IDX 87 14 6 15 86 16 2 17 1 18 3 19 17 20 18 21 19 22 20 23
REMARK SMILES IDX 21 24 22 26 23 27 24 28 85 29 25 30 84 31 26 32 27 33 28 34
REMARK SMILES IDX 78 35 29 36 83 37 77 38 79 39 30 40 82 41 76 42 75 43 31 45
REMARK SMILES IDX 63 46 43 47 62 48 44 49 47 50 61 51 80 52 45 53 46 54 60 56
REMARK SMILES IDX 81 57 48 58 32 59 33 60 41 61 34 62 35 63 39 64 42 65 36 66
REMARK SMILES IDX 37 67 40 68 38 69 64 70 65 71 73 72 66 73 67 74 71 75 74 76
REMARK SMILES IDX 68 77 69 78 72 79 70 80 49 81 50 82 58 83 51 84 52 85 56 86
REMARK SMILES IDX 59 87 53 88 54 89 57 90 55 91
REMARK H PARENT 15 5 20 25 79 44 47 55
REMARK Flexibility Score: inf
ROOT
ATOM      1  C   UNL     1      -4.422   1.688   1.127  1.00  0.00     0.116 C 
ENDROOT
BRANCH   1   2
ATOM      2  N   UNL     1      -5.411   0.869   1.799  1.00  0.00    -0.356 N 
ATOM      3  C   UNL     1      -6.133  -0.146   1.248  1.00  0.00     0.221 C 
ATOM      4  O   UNL     1      -7.175  -0.519   1.783  1.00  0.00    -0.275 OA
ATOM      5  H   UNL     1      -5.577   1.066   2.749  1.00  0.00     0.163 HD
BRANCH   3   6
ATOM      6  C   UNL     1      -5.577  -0.847   0.039  1.00  0.00     0.123 C 
BRANCH   6   7
ATOM      7  C   UNL     1      -6.500  -0.806  -1.162  1.00  0.00     0.138 C 
ATOM      8  Br  UNL     1      -6.703   0.993  -1.903  1.00  0.00    -0.080 Br
BRANCH   7   9
ATOM      9  C   UNL     1      -5.887  -1.650  -2.263  1.00  0.00     0.176 C 
ATOM     10  O   UNL     1      -5.081  -1.215  -3.085  1.00  0.00    -0.293 OA
BRANCH   9  11
ATOM     11  C   UNL     1      -6.188  -3.103  -2.280  1.00  0.00     0.019 A 
ATOM     12  C   UNL     1      -6.540  -5.880  -2.331  1.00  0.00    -0.045 A 
ATOM     13  C   UNL     1      -6.085  -5.203  -3.471  1.00  0.00     0.005 A 
ATOM     14  C   UNL     1      -6.837  -5.147  -1.176  1.00  0.00     0.005 A 
ATOM     15  C   UNL     1      -5.899  -3.823  -3.442  1.00  0.00     0.012 A 
ATOM     16  C   UNL     1      -6.686  -3.766  -1.156  1.00  0.00     0.012 A 
BRANCH  12  17
ATOM     17  C   UNL     1      -6.725  -7.382  -2.358  1.00  0.00     0.013 C 
ATOM     18  C   UNL     1      -5.844  -8.069  -1.310  1.00  0.00     0.012 C 
ATOM     19  C   UNL     1      -8.201  -7.732  -2.160  1.00  0.00     0.012 C 
ENDBRANCH  12  17
ENDBRANCH   9  11
ENDBRANCH   7   9
ENDBRANCH   6   7
ENDBRANCH   3   6
ENDBRANCH   1   2
BRANCH   1  20
ATOM     20  C   UNL     1      -5.078   2.965   0.614  1.00  0.00     0.023 C 
BRANCH  20  21
ATOM     21  C   UNL     1      -5.359   3.990   1.701  1.00  0.00     0.023 C 
BRANCH  21  22
ATOM     22  C   UNL     1      -4.134   4.371   2.508  1.00  0.00     0.116 C 
BRANCH  22  23
ATOM     23  N   UNL     1      -3.008   4.768   1.674  1.00  0.00    -0.352 N 
ATOM     24  C   UNL     1      -2.157   5.833   1.837  1.00  0.00     0.251 C 
ATOM     25  H   UNL     1      -2.835   4.198   0.890  1.00  0.00     0.163 HD
ATOM     26  O   UNL     1      -1.349   6.132   0.975  1.00  0.00    -0.269 OA
BRANCH  24  27
ATOM     27  C   UNL     1      -2.271   6.627   3.073  1.00  0.00     0.039 A 
ATOM     28  C   UNL     1      -2.321   8.017   2.978  1.00  0.00     0.014 A 
ATOM     29  C   UNL     1      -2.399   5.987   4.309  1.00  0.00     0.014 A 
ATOM     30  C   UNL     1      -2.548   8.765   4.129  1.00  0.00     0.010 A 
ATOM     31  C   UNL     1      -2.745   6.726   5.428  1.00  0.00     0.010 A 
ATOM     32  C   UNL     1      -2.793   8.124   5.356  1.00  0.00    -0.014 A 
BRANCH  32  33
ATOM     33  C   UNL     1      -3.057   8.909   6.583  1.00  0.00     0.031 A 
ATOM     34  C   UNL     1      -2.108   8.815   7.745  1.00  0.00     0.074 A 
ATOM     35  C   UNL     1      -4.160   9.676   6.656  1.00  0.00     0.049 A 
ATOM     36  N   UNL     1      -2.151   9.431   8.899  1.00  0.00    -0.248 NA
ATOM     37  C   UNL     1      -0.979   7.880   7.610  1.00  0.00     0.031 C 
ATOM     38  C   UNL     1      -5.184   9.789   5.616  1.00  0.00     0.029 A 
ATOM     39  N   UNL     1      -4.599  10.515   7.647  1.00  0.00    -0.354 N 
ATOM     40  C   UNL     1      -1.066   8.952   9.620  1.00  0.00     0.074 A 
ATOM     41  C   UNL     1      -0.431   7.936   8.813  1.00  0.00     0.031 C 
ATOM     42  C   UNL     1      -6.105  10.685   6.002  1.00  0.00     0.029 A 
ATOM     43  C   UNL     1      -5.755  11.183   7.328  1.00  0.00     0.049 A 
ATOM     44  H   UNL     1      -4.130  10.628   8.506  1.00  0.00     0.167 HD
ATOM     45  C   UNL     1      -0.614   9.353  10.832  1.00  0.00     0.037 A 
ATOM     46  C   UNL     1      -6.445  12.104   8.027  1.00  0.00     0.037 A 
ATOM     47  C   UNL     1      -1.240  10.382  11.616  1.00  0.00     0.049 A 
ATOM     48  C   UNL     1      -5.919  12.538   9.369  1.00  0.00     0.074 A 
ATOM     49  C   UNL     1      -0.843  10.902  12.834  1.00  0.00     0.029 A 
ATOM     50  N   UNL     1      -2.403  11.048  11.255  1.00  0.00    -0.354 N 
ATOM     51  N   UNL     1      -4.847  12.138  10.009  1.00  0.00    -0.248 NA
ATOM     52  C   UNL     1      -6.694  13.563  10.079  1.00  0.00     0.031 C 
ATOM     53  C   UNL     1      -1.793  11.847  13.235  1.00  0.00     0.029 A 
ATOM     54  C   UNL     1      -2.749  11.962  12.237  1.00  0.00     0.049 A 
ATOM     55  H   UNL     1      -2.908  10.894  10.424  1.00  0.00     0.167 HD
ATOM     56  C   UNL     1      -4.796  12.886  11.177  1.00  0.00     0.074 A 
ATOM     57  C   UNL     1      -5.940  13.775  11.149  1.00  0.00     0.031 C 
ATOM     58  C   UNL     1      -3.886  12.845  12.181  1.00  0.00     0.037 A 
BRANCH  45  59
ATOM     59  C   UNL     1       0.616   8.679  11.369  1.00  0.00     0.064 A 
ATOM     60  C   UNL     1       1.874   8.848  10.767  1.00  0.00     0.173 A 
ATOM     61  C   UNL     1       0.542   7.864  12.508  1.00  0.00     0.173 A 
ATOM     62  F   UNL     1       1.999   9.604   9.665  1.00  0.00    -0.203 F 
ATOM     63  C   UNL     1       3.001   8.198  11.262  1.00  0.00     0.198 A 
ATOM     64  C   UNL     1       1.679   7.244  13.022  1.00  0.00     0.198 A 
ATOM     65  F   UNL     1      -0.632   7.667  13.125  1.00  0.00    -0.203 F 
ATOM     66  F   UNL     1       4.177   8.326  10.631  1.00  0.00    -0.200 F 
ATOM     67  C   UNL     1       2.905   7.404  12.393  1.00  0.00     0.200 A 
ATOM     68  F   UNL     1       1.587   6.487  14.124  1.00  0.00    -0.200 F 
ATOM     69  F   UNL     1       3.991   6.783  12.873  1.00  0.00    -0.200 F 
ENDBRANCH  45  59
BRANCH  46  70
ATOM     70  C   UNL     1      -7.672  12.712   7.449  1.00  0.00     0.064 A 
ATOM     71  C   UNL     1      -7.695  14.060   7.064  1.00  0.00     0.173 A 
ATOM     72  C   UNL     1      -8.844  11.963   7.269  1.00  0.00     0.173 A 
ATOM     73  F   UNL     1      -6.604  14.823   7.231  1.00  0.00    -0.203 F 
ATOM     74  C   UNL     1      -8.850  14.642   6.546  1.00  0.00     0.198 A 
ATOM     75  C   UNL     1      -9.989  12.538   6.721  1.00  0.00     0.198 A 
ATOM     76  F   UNL     1      -8.872  10.667   7.611  1.00  0.00    -0.203 F 
ATOM     77  F   UNL     1      -8.859  15.945   6.234  1.00  0.00    -0.200 F 
ATOM     78  C   UNL     1      -9.995  13.879   6.370  1.00  0.00     0.200 A 
ATOM     79  F   UNL     1     -11.087  11.793   6.537  1.00  0.00    -0.200 F 
ATOM     80  F   UNL     1     -11.104  14.438   5.868  1.00  0.00    -0.200 F 
ENDBRANCH  46  70
BRANCH  58  81
ATOM     81  C   UNL     1      -4.062  13.824  13.307  1.00  0.00     0.064 A 
ATOM     82  C   UNL     1      -5.113  13.714  14.228  1.00  0.00     0.173 A 
ATOM     83  C   UNL     1      -3.143  14.870  13.480  1.00  0.00     0.173 A 
ATOM     84  F   UNL     1      -6.026  12.739  14.099  1.00  0.00    -0.203 F 
ATOM     85  C   UNL     1      -5.259  14.638  15.259  1.00  0.00     0.198 A 
ATOM     86  C   UNL     1      -3.271  15.770  14.534  1.00  0.00     0.198 A 
ATOM     87  F   UNL     1      -2.112  15.014  12.633  1.00  0.00    -0.203 F 
ATOM     88  F   UNL     1      -6.306  14.549  16.091  1.00  0.00    -0.200 F 
ATOM     89  C   UNL     1      -4.335  15.660  15.416  1.00  0.00     0.200 A 
ATOM     90  F   UNL     1      -2.366  16.745  14.694  1.00  0.00    -0.200 F 
ATOM     91  F   UNL     1      -4.474  16.544  16.412  1.00  0.00    -0.200 F 
ENDBRANCH  58  81
ENDBRANCH  32  33
ENDBRANCH  24  27
ENDBRANCH  22  23
ENDBRANCH  21  22
ENDBRANCH  20  21
ENDBRANCH   1  20
TORSDOF 15
