REMARK SMILES Cc1ccc([C@@H](C)Nc2ccc(N)cc2C(=O)NCCCCNC(=O)c2ccc(-c3c4nc(c(-c5c(F)c(F)c(F)c(F)c5F)c5ccc([nH]5)c(-c5c(F)c(F)c(F)c(F)c5F)c5nc(c(-c6c(F)c(F)c(F)c(F)c6F)c6ccc3[nH]6)C=C5)C=C4)cc2)cc1F
REMARK SMILES IDX 20 1 19 2 18 3 16 4 17 5 15 7 9 8 10 9 11 10 14 11 12 12
REMARK SMILES IDX 8 13 6 15 7 16 5 17 1 18 2 19 3 20 90 21 4 22 89 23 91 24
REMARK SMILES IDX 13 25 21 28 22 29 23 30 24 31 25 33 26 34 27 35 88 36 28 37
REMARK SMILES IDX 87 38 29 39 30 40 31 41 81 42 32 43 86 44 80 45 82 46 33 47
REMARK SMILES IDX 85 48 79 49 78 50 34 52 66 53 46 54 65 55 47 56 50 57 64 58
REMARK SMILES IDX 83 59 48 60 49 61 63 63 84 64 51 65 35 66 36 67 44 68 37 69
REMARK SMILES IDX 38 70 42 71 45 72 39 73 40 74 43 75 41 76 67 77 68 78 76 79
REMARK SMILES IDX 69 80 70 81 74 82 77 83 71 84 72 85 75 86 73 87 52 88 53 89
REMARK SMILES IDX 61 90 54 91 55 92 59 93 62 94 56 95 57 96 60 97 58 98
REMARK H PARENT 18 6 8 14 13 26 13 27 23 32 82 51 50 62
REMARK Flexibility Score: inf
ROOT
ATOM      1  C   UNL     1      -0.208  -1.435   0.500  1.00  0.00     0.023 C 
ENDROOT
BRANCH   1   2
ATOM      2  C   UNL     1      -0.592  -3.110   0.605  1.00  0.00     0.116 C 
BRANCH   2   3
ATOM      3  N   UNL     1      -0.813  -3.894  -0.606  1.00  0.00    -0.352 N 
ATOM      4  C   UNL     1      -1.900  -4.636  -0.996  1.00  0.00     0.253 C 
ATOM      5  O   UNL     1      -1.991  -5.028  -2.158  1.00  0.00    -0.269 OA
ATOM      6  H   UNL     1      -0.063  -3.890  -1.245  1.00  0.00     0.163 HD
BRANCH   4   7
ATOM      7  C   UNL     1      -2.853  -5.110   0.024  1.00  0.00     0.065 A 
ATOM      8  C   UNL     1      -3.451  -4.301   0.995  1.00  0.00     0.048 A 
ATOM      9  C   UNL     1      -3.742  -4.956   2.207  1.00  0.00     0.028 A 
ATOM     10  C   UNL     1      -3.589  -6.346   2.366  1.00  0.00     0.027 A 
ATOM     11  C   UNL     1      -2.860  -6.516   0.119  1.00  0.00     0.041 A 
ATOM     12  C   UNL     1      -3.252  -7.151   1.286  1.00  0.00     0.032 A 
BRANCH   8  13
ATOM     13  N   UNL     1      -3.731  -2.947   0.906  1.00  0.00    -0.378 N 
ATOM     14  H   UNL     1      -4.082  -2.545   1.733  1.00  0.00     0.161 HD
BRANCH  13  15
ATOM     15  C   UNL     1      -3.589  -2.009  -0.219  1.00  0.00     0.106 C 
ATOM     16  C   UNL     1      -4.274  -2.469  -1.499  1.00  0.00     0.036 C 
BRANCH  15  17
ATOM     17  C   UNL     1      -2.197  -1.373  -0.211  1.00  0.00    -0.023 A 
ATOM     18  C   UNL     1       2.075   1.360   0.287  1.00  0.00     0.047 C 
ATOM     19  C   UNL     1       0.998   0.316   0.235  1.00  0.00    -0.015 A 
ATOM     20  C   UNL     1      -0.287   0.468   1.474  1.00  0.00     0.007 A 
ATOM     21  C   UNL     1       0.680  -0.670  -1.259  1.00  0.00     0.126 A 
ATOM     22  C   UNL     1      -1.858  -0.404   1.277  1.00  0.00     0.006 A 
ATOM     23  C   UNL     1      -0.904  -1.533  -1.479  1.00  0.00     0.045 A 
ATOM     24  F   UNL     1       1.591  -0.693  -2.238  1.00  0.00    -0.207 F 
ENDBRANCH  15  17
ENDBRANCH  13  15
ENDBRANCH   8  13
BRANCH  12  25
ATOM     25  N   UNL     1      -3.097  -8.521   1.417  1.00  0.00    -0.399 N 
ATOM     26  H   UNL     1      -3.376  -8.970   2.247  1.00  0.00     0.156 HD
ATOM     27  H   UNL     1      -2.708  -9.044   0.680  1.00  0.00     0.156 HD
ENDBRANCH  12  25
ENDBRANCH   4   7
ENDBRANCH   2   3
ENDBRANCH   1   2
BRANCH   1  28
ATOM     28  C   UNL     1      -0.999   0.334  -0.528  1.00  0.00     0.023 C 
BRANCH  28  29
ATOM     29  C   UNL     1      -2.214   1.370  -0.330  1.00  0.00     0.116 C 
BRANCH  29  30
ATOM     30  N   UNL     1      -1.992   2.410   0.696  1.00  0.00    -0.352 N 
ATOM     31  C   UNL     1      -1.872   3.764   0.494  1.00  0.00     0.251 C 
ATOM     32  H   UNL     1      -1.923   2.099   1.628  1.00  0.00     0.163 HD
ATOM     33  O   UNL     1      -1.126   4.471   1.152  1.00  0.00    -0.269 OA
BRANCH  31  34
ATOM     34  C   UNL     1      -2.843   4.321  -0.448  1.00  0.00     0.039 A 
ATOM     35  C   UNL     1      -2.805   5.616  -0.960  1.00  0.00     0.014 A 
ATOM     36  C   UNL     1      -3.916   3.480  -0.719  1.00  0.00     0.014 A 
ATOM     37  C   UNL     1      -3.904   6.038  -1.692  1.00  0.00     0.010 A 
ATOM     38  C   UNL     1      -4.705   3.728  -1.759  1.00  0.00     0.010 A 
ATOM     39  C   UNL     1      -4.851   5.069  -2.032  1.00  0.00    -0.014 A 
BRANCH  39  40
ATOM     40  C   UNL     1      -6.114   5.253  -2.693  1.00  0.00     0.031 A 
ATOM     41  C   UNL     1      -5.934   5.561  -4.108  1.00  0.00     0.074 A 
ATOM     42  C   UNL     1      -7.160   4.810  -1.945  1.00  0.00     0.049 A 
ATOM     43  N   UNL     1      -6.485   6.522  -4.758  1.00  0.00    -0.248 NA
ATOM     44  C   UNL     1      -4.876   4.889  -4.892  1.00  0.00     0.031 C 
ATOM     45  C   UNL     1      -8.526   4.430  -2.247  1.00  0.00     0.029 A 
ATOM     46  N   UNL     1      -7.111   4.635  -0.539  1.00  0.00    -0.354 N 
ATOM     47  C   UNL     1      -6.307   6.153  -6.076  1.00  0.00     0.074 A 
ATOM     48  C   UNL     1      -5.069   5.419  -6.101  1.00  0.00     0.031 C 
ATOM     49  C   UNL     1      -9.257   4.509  -1.111  1.00  0.00     0.029 A 
ATOM     50  C   UNL     1      -8.379   4.955  -0.037  1.00  0.00     0.049 A 
ATOM     51  H   UNL     1      -6.332   4.342  -0.014  1.00  0.00     0.167 HD
ATOM     52  C   UNL     1      -7.421   6.002  -6.855  1.00  0.00     0.037 A 
ATOM     53  C   UNL     1      -8.464   6.116   0.681  1.00  0.00     0.037 A 
ATOM     54  C   UNL     1      -8.619   6.157  -6.018  1.00  0.00     0.049 A 
ATOM     55  C   UNL     1      -9.056   7.179  -0.208  1.00  0.00     0.074 A 
ATOM     56  C   UNL     1      -9.532   5.252  -5.500  1.00  0.00     0.029 A 
ATOM     57  N   UNL     1      -8.775   7.323  -5.280  1.00  0.00    -0.354 N 
ATOM     58  N   UNL     1      -8.942   7.179  -1.511  1.00  0.00    -0.248 NA
ATOM     59  C   UNL     1      -9.944   8.222   0.283  1.00  0.00     0.031 C 
ATOM     60  C   UNL     1     -10.222   5.893  -4.428  1.00  0.00     0.029 A 
ATOM     61  C   UNL     1      -9.679   7.154  -4.252  1.00  0.00     0.049 A 
ATOM     62  H   UNL     1      -8.301   8.165  -5.468  1.00  0.00     0.167 HD
ATOM     63  C   UNL     1      -9.787   8.113  -2.037  1.00  0.00     0.074 A 
ATOM     64  C   UNL     1     -10.372   8.758  -0.873  1.00  0.00     0.031 C 
ATOM     65  C   UNL     1      -9.979   8.278  -3.378  1.00  0.00     0.037 A 
BRANCH  52  66
ATOM     66  C   UNL     1      -7.464   5.439  -8.257  1.00  0.00     0.064 A 
ATOM     67  C   UNL     1      -8.704   5.121  -8.852  1.00  0.00     0.173 A 
ATOM     68  C   UNL     1      -6.348   5.280  -9.105  1.00  0.00     0.173 A 
ATOM     69  F   UNL     1      -9.860   5.282  -8.193  1.00  0.00    -0.203 F 
ATOM     70  C   UNL     1      -8.816   4.662 -10.166  1.00  0.00     0.198 A 
ATOM     71  C   UNL     1      -6.458   4.790 -10.412  1.00  0.00     0.198 A 
ATOM     72  F   UNL     1      -5.119   5.654  -8.738  1.00  0.00    -0.203 F 
ATOM     73  F   UNL     1     -10.029   4.409 -10.676  1.00  0.00    -0.200 F 
ATOM     74  C   UNL     1      -7.693   4.490 -10.945  1.00  0.00     0.200 A 
ATOM     75  F   UNL     1      -5.355   4.644 -11.160  1.00  0.00    -0.200 F 
ATOM     76  F   UNL     1      -7.802   4.071 -12.212  1.00  0.00    -0.200 F 
ENDBRANCH  52  66
BRANCH  53  77
ATOM     77  C   UNL     1      -7.287   6.229   1.616  1.00  0.00     0.064 A 
ATOM     78  C   UNL     1      -7.157   5.177   2.555  1.00  0.00     0.173 A 
ATOM     79  C   UNL     1      -6.121   6.941   1.300  1.00  0.00     0.173 A 
ATOM     80  F   UNL     1      -8.243   4.481   2.932  1.00  0.00    -0.203 F 
ATOM     81  C   UNL     1      -5.908   4.709   2.959  1.00  0.00     0.198 A 
ATOM     82  C   UNL     1      -4.871   6.506   1.766  1.00  0.00     0.198 A 
ATOM     83  F   UNL     1      -6.165   7.976   0.451  1.00  0.00    -0.203 F 
ATOM     84  F   UNL     1      -5.815   3.572   3.665  1.00  0.00    -0.200 F 
ATOM     85  C   UNL     1      -4.763   5.354   2.534  1.00  0.00     0.200 A 
ATOM     86  F   UNL     1      -3.756   7.153   1.395  1.00  0.00    -0.200 F 
ATOM     87  F   UNL     1      -3.564   4.832   2.831  1.00  0.00    -0.200 F 
ENDBRANCH  53  77
BRANCH  65  88
ATOM     88  C   UNL     1     -10.511   9.538  -4.011  1.00  0.00     0.064 A 
ATOM     89  C   UNL     1     -10.436  10.796  -3.395  1.00  0.00     0.173 A 
ATOM     90  C   UNL     1     -10.928   9.544  -5.365  1.00  0.00     0.173 A 
ATOM     91  F   UNL     1      -9.917  10.953  -2.170  1.00  0.00    -0.203 F 
ATOM     92  C   UNL     1     -10.834  11.958  -4.051  1.00  0.00     0.198 A 
ATOM     93  C   UNL     1     -11.220  10.718  -6.048  1.00  0.00     0.198 A 
ATOM     94  F   UNL     1     -11.028   8.416  -6.085  1.00  0.00    -0.203 F 
ATOM     95  F   UNL     1     -10.820  13.124  -3.391  1.00  0.00    -0.200 F 
ATOM     96  C   UNL     1     -11.204  11.923  -5.382  1.00  0.00     0.200 A 
ATOM     97  F   UNL     1     -11.491  10.672  -7.360  1.00  0.00    -0.200 F 
ATOM     98  F   UNL     1     -11.527  13.051  -6.025  1.00  0.00    -0.200 F 
ENDBRANCH  65  88
ENDBRANCH  39  40
ENDBRANCH  31  34
ENDBRANCH  29  30
ENDBRANCH  28  29
ENDBRANCH   1  28
TORSDOF 15
