REMARK SMILES COc1cc(/C=C2\SC(=S)N(CC(=O)NCCCCNC(=O)c3ccc(-c4c5nc(c(-c6c(F)c(F)c(F)c(F)c6F)c6ccc([nH]6)c(-c6c(F)c(F)c(F)c(F)c6F)c6nc(c(-c7c(F)c(F)c(F)c(F)c7F)c7ccc4[nH]7)C=C6)C=C5)cc3)C2=O)cc2c1OCO2
REMARK SMILES IDX 17 1 16 2 15 3 13 4 14 5 12 7 11 8 6 9 7 10 8 11 86 12 9 13
REMARK SMILES IDX 87 14 10 15 5 16 3 17 4 18 90 19 89 20 91 21 88 22 93 23
REMARK SMILES IDX 92 24 2 25 1 26 18 27 19 28 20 29 21 30 22 32 23 33 24 34
REMARK SMILES IDX 85 35 25 36 84 37 26 38 27 39 28 40 78 41 29 42 83 43 77 44
REMARK SMILES IDX 79 45 30 46 82 47 76 48 75 49 31 51 63 52 43 53 62 54 44 55
REMARK SMILES IDX 47 56 61 57 80 58 45 59 46 60 60 62 81 63 48 64 32 65 33 66
REMARK SMILES IDX 41 67 34 68 35 69 39 70 42 71 36 72 37 73 40 74 38 75 64 76
REMARK SMILES IDX 65 77 73 78 66 79 67 80 71 81 74 82 68 83 69 84 72 85 70 86
REMARK SMILES IDX 49 87 50 88 58 89 51 90 52 91 56 92 59 93 53 94 54 95 57 96
REMARK SMILES IDX 55 97
REMARK H PARENT 15 6 20 31 79 50 47 61
REMARK Flexibility Score: inf
ROOT
ATOM      1  C   UNL     1      -2.063   3.187  -8.002  1.00  0.00     0.023 C 
ENDROOT
BRANCH   1   2
ATOM      2  C   UNL     1      -2.250   4.417  -8.885  1.00  0.00     0.116 C 
BRANCH   2   3
ATOM      3  N   UNL     1      -3.317   5.275  -8.417  1.00  0.00    -0.355 N 
ATOM      4  C   UNL     1      -3.270   6.506  -7.834  1.00  0.00     0.240 C 
ATOM      5  O   UNL     1      -4.330   7.139  -7.790  1.00  0.00    -0.273 OA
ATOM      6  H   UNL     1      -4.223   4.910  -8.540  1.00  0.00     0.163 HD
BRANCH   4   7
ATOM      7  C   UNL     1      -1.950   7.174  -7.427  1.00  0.00     0.227 C 
BRANCH   7   8
ATOM      8  N   UNL     1      -1.040   6.330  -6.655  1.00  0.00    -0.283 N 
ATOM      9  C   UNL     1      -0.556   4.607  -3.508  1.00  0.00     0.029 C 
ATOM     10  C   UNL     1      -0.397   5.118  -4.737  1.00  0.00     0.081 C 
ATOM     11  S   UNL     1       0.945   4.943  -5.796  1.00  0.00    -0.054 SA
ATOM     12  C   UNL     1      -1.452   5.941  -5.389  1.00  0.00     0.266 C 
ATOM     13  C   UNL     1       0.254   6.013  -7.004  1.00  0.00     0.148 C 
ATOM     14  O   UNL     1      -2.512   6.223  -4.862  1.00  0.00    -0.268 OA
ATOM     15  S   UNL     1       1.132   6.515  -8.331  1.00  0.00    -0.052 S 
BRANCH   9  16
ATOM     16  C   UNL     1       0.414   3.760  -2.802  1.00  0.00    -0.017 A 
ATOM     17  C   UNL     1       0.900   1.644  -1.670  1.00  0.00     0.165 A 
ATOM     18  C   UNL     1       0.002   2.501  -2.320  1.00  0.00     0.058 A 
ATOM     19  C   UNL     1       2.216   2.054  -1.558  1.00  0.00     0.207 A 
ATOM     20  C   UNL     1       2.612   3.294  -2.008  1.00  0.00     0.170 A 
ATOM     21  O   UNL     1       3.267   1.349  -1.054  1.00  0.00    -0.450 OA
ATOM     22  C   UNL     1       1.736   4.178  -2.601  1.00  0.00     0.059 A 
ATOM     23  O   UNL     1       3.942   3.522  -1.830  1.00  0.00    -0.453 OA
ATOM     24  C   UNL     1       4.364   2.244  -1.320  1.00  0.00     0.468 C 
BRANCH  17  25
ATOM     25  O   UNL     1       0.393   0.443  -1.266  1.00  0.00    -0.493 OA
ATOM     26  C   UNL     1       0.872   0.005   0.003  1.00  0.00     0.278 C 
ENDBRANCH  17  25
ENDBRANCH   9  16
ENDBRANCH   7   8
ENDBRANCH   4   7
ENDBRANCH   2   3
ENDBRANCH   1   2
BRANCH   1  27
ATOM     27  C   UNL     1      -3.209   2.173  -8.069  1.00  0.00     0.023 C 
BRANCH  27  28
ATOM     28  C   UNL     1      -3.522   1.629  -9.459  1.00  0.00     0.116 C 
BRANCH  28  29
ATOM     29  N   UNL     1      -2.395   0.954 -10.082  1.00  0.00    -0.352 N 
ATOM     30  C   UNL     1      -2.386  -0.197 -10.834  1.00  0.00     0.251 C 
ATOM     31  H   UNL     1      -1.517   1.380  -9.947  1.00  0.00     0.163 HD
ATOM     32  O   UNL     1      -1.323  -0.693 -11.193  1.00  0.00    -0.269 OA
BRANCH  30  33
ATOM     33  C   UNL     1      -3.662  -0.860 -11.178  1.00  0.00     0.039 A 
ATOM     34  C   UNL     1      -3.774  -2.241 -10.993  1.00  0.00     0.014 A 
ATOM     35  C   UNL     1      -4.747  -0.127 -11.667  1.00  0.00     0.014 A 
ATOM     36  C   UNL     1      -4.995  -2.876 -11.233  1.00  0.00     0.010 A 
ATOM     37  C   UNL     1      -5.981  -0.749 -11.840  1.00  0.00     0.010 A 
ATOM     38  C   UNL     1      -6.118  -2.129 -11.623  1.00  0.00    -0.014 A 
BRANCH  38  39
ATOM     39  C   UNL     1      -7.445  -2.772 -11.807  1.00  0.00     0.031 A 
ATOM     40  C   UNL     1      -8.094  -2.791 -13.163  1.00  0.00     0.074 A 
ATOM     41  C   UNL     1      -8.095  -3.278 -10.740  1.00  0.00     0.049 A 
ATOM     42  N   UNL     1      -9.278  -3.231 -13.509  1.00  0.00    -0.248 NA
ATOM     43  C   UNL     1      -7.321  -2.216 -14.276  1.00  0.00     0.031 C 
ATOM     44  C   UNL     1      -7.595  -3.276  -9.364  1.00  0.00     0.029 A 
ATOM     45  N   UNL     1      -9.326  -3.879 -10.643  1.00  0.00    -0.354 N 
ATOM     46  C   UNL     1      -9.398  -2.967 -14.867  1.00  0.00     0.074 A 
ATOM     47  C   UNL     1      -8.187  -2.290 -15.276  1.00  0.00     0.031 C 
ATOM     48  C   UNL     1      -8.502  -3.861  -8.565  1.00  0.00     0.029 A 
ATOM     49  C   UNL     1      -9.662  -4.246  -9.362  1.00  0.00     0.049 A 
ATOM     50  H   UNL     1      -9.913  -4.033 -11.418  1.00  0.00     0.167 HD
ATOM     51  C   UNL     1     -10.418  -3.282 -15.701  1.00  0.00     0.037 A 
ATOM     52  C   UNL     1     -10.784  -4.818  -8.884  1.00  0.00     0.037 A 
ATOM     53  C   UNL     1     -11.604  -3.990 -15.300  1.00  0.00     0.049 A 
ATOM     54  C   UNL     1     -11.896  -5.164  -9.838  1.00  0.00     0.074 A 
ATOM     55  C   UNL     1     -12.660  -4.418 -16.087  1.00  0.00     0.029 A 
ATOM     56  N   UNL     1     -11.892  -4.377 -14.000  1.00  0.00    -0.354 N 
ATOM     57  N   UNL     1     -11.963  -4.980 -11.134  1.00  0.00    -0.248 NA
ATOM     58  C   UNL     1     -13.087  -5.807  -9.264  1.00  0.00     0.031 C 
ATOM     59  C   UNL     1     -13.607  -5.024 -15.257  1.00  0.00     0.029 A 
ATOM     60  C   UNL     1     -13.119  -5.020 -13.961  1.00  0.00     0.049 A 
ATOM     61  H   UNL     1     -11.312  -4.218 -13.221  1.00  0.00     0.167 HD
ATOM     62  C   UNL     1     -13.181  -5.514 -11.533  1.00  0.00     0.074 A 
ATOM     63  C   UNL     1     -13.816  -6.043 -10.345  1.00  0.00     0.031 C 
ATOM     64  C   UNL     1     -13.727  -5.561 -12.773  1.00  0.00     0.037 A 
BRANCH  51  65
ATOM     65  C   UNL     1     -10.299  -2.874 -17.140  1.00  0.00     0.064 A 
ATOM     66  C   UNL     1      -9.403  -3.509 -18.012  1.00  0.00     0.173 A 
ATOM     67  C   UNL     1     -11.143  -1.886 -17.670  1.00  0.00     0.173 A 
ATOM     68  F   UNL     1      -8.567  -4.452 -17.553  1.00  0.00    -0.203 F 
ATOM     69  C   UNL     1      -9.344  -3.158 -19.359  1.00  0.00     0.198 A 
ATOM     70  C   UNL     1     -11.101  -1.558 -19.023  1.00  0.00     0.198 A 
ATOM     71  F   UNL     1     -12.023  -1.252 -16.880  1.00  0.00    -0.203 F 
ATOM     72  F   UNL     1      -8.456  -3.754 -20.166  1.00  0.00    -0.200 F 
ATOM     73  C   UNL     1     -10.200  -2.191 -19.865  1.00  0.00     0.200 A 
ATOM     74  F   UNL     1     -11.939  -0.634 -19.513  1.00  0.00    -0.200 F 
ATOM     75  F   UNL     1     -10.154  -1.868 -21.164  1.00  0.00    -0.200 F 
ENDBRANCH  51  65
BRANCH  52  76
ATOM     76  C   UNL     1     -10.916  -5.116  -7.433  1.00  0.00     0.064 A 
ATOM     77  C   UNL     1     -10.957  -6.439  -6.969  1.00  0.00     0.173 A 
ATOM     78  C   UNL     1     -11.043  -4.091  -6.485  1.00  0.00     0.173 A 
ATOM     79  F   UNL     1     -10.861  -7.456  -7.839  1.00  0.00    -0.203 F 
ATOM     80  C   UNL     1     -11.155  -6.725  -5.620  1.00  0.00     0.198 A 
ATOM     81  C   UNL     1     -11.209  -4.377  -5.131  1.00  0.00     0.198 A 
ATOM     82  F   UNL     1     -11.006  -2.808  -6.874  1.00  0.00    -0.203 F 
ATOM     83  F   UNL     1     -11.253  -7.999  -5.215  1.00  0.00    -0.200 F 
ATOM     84  C   UNL     1     -11.277  -5.694  -4.702  1.00  0.00     0.200 A 
ATOM     85  F   UNL     1     -11.313  -3.378  -4.245  1.00  0.00    -0.200 F 
ATOM     86  F   UNL     1     -11.473  -5.969  -3.405  1.00  0.00    -0.200 F 
ENDBRANCH  52  76
BRANCH  64  87
ATOM     87  C   UNL     1     -15.052  -6.252 -12.919  1.00  0.00     0.064 A 
ATOM     88  C   UNL     1     -16.237  -5.685 -12.431  1.00  0.00     0.173 A 
ATOM     89  C   UNL     1     -15.138  -7.479 -13.594  1.00  0.00     0.173 A 
ATOM     90  F   UNL     1     -16.205  -4.520 -11.766  1.00  0.00    -0.203 F 
ATOM     91  C   UNL     1     -17.459  -6.335 -12.589  1.00  0.00     0.198 A 
ATOM     92  C   UNL     1     -16.365  -8.111 -13.778  1.00  0.00     0.198 A 
ATOM     93  F   UNL     1     -14.034  -8.060 -14.087  1.00  0.00    -0.203 F 
ATOM     94  F   UNL     1     -18.572  -5.799 -12.071  1.00  0.00    -0.200 F 
ATOM     95  C   UNL     1     -17.522  -7.542 -13.268  1.00  0.00     0.200 A 
ATOM     96  F   UNL     1     -16.426  -9.270 -14.447  1.00  0.00    -0.200 F 
ATOM     97  F   UNL     1     -18.700  -8.162 -13.426  1.00  0.00    -0.200 F 
ENDBRANCH  64  87
ENDBRANCH  38  39
ENDBRANCH  30  33
ENDBRANCH  28  29
ENDBRANCH  27  28
ENDBRANCH   1  27
TORSDOF 14
