REMARK SMILES CNC(=O)[C@H](C)Oc1cc([N+](=O)[O-])c(C(=O)NCCCCNC(=O)c2ccc(-c3c4nc(c(-c5c(F)c(F)c(F)c(F)c5F)c5ccc([nH]5)c(-c5c(F)c(F)c(F)c(F)c5F)c5nc(c(-c6c(F)c(F)c(F)c(F)c6F)c6ccc3[nH]6)C=C5)C=C4)cc2)cc1OC
REMARK SMILES IDX 19 1 18 2 17 3 15 4 16 5 14 7 8 8 9 9 89 10 10 11 88 12 7 13
REMARK SMILES IDX 5 14 6 15 3 16 1 17 2 18 4 20 90 21 91 22 11 23 12 24 13 25
REMARK SMILES IDX 20 26 21 27 22 28 23 29 24 31 25 32 26 33 87 34 27 35 86 36
REMARK SMILES IDX 28 37 29 38 30 39 80 40 31 41 85 42 79 43 81 44 32 45 84 46
REMARK SMILES IDX 78 47 77 48 33 50 65 51 45 52 64 53 46 54 49 55 63 56 82 57
REMARK SMILES IDX 47 58 48 59 62 61 83 62 50 63 34 64 35 65 43 66 36 67 37 68
REMARK SMILES IDX 41 69 44 70 38 71 39 72 42 73 40 74 66 75 67 76 75 77 68 78
REMARK SMILES IDX 69 79 73 80 76 81 70 82 71 83 74 84 72 85 51 86 52 87 60 88
REMARK SMILES IDX 53 89 54 90 58 91 61 92 55 93 56 94 59 95 57 96
REMARK H PARENT 17 6 2 19 22 30 81 49 49 60
REMARK Flexibility Score: inf
ROOT
ATOM      1  C   UNL     1       1.027  -0.832   4.843  1.00  0.00     0.023 C 
ENDROOT
BRANCH   1   2
ATOM      2  C   UNL     1       1.753  -1.613   3.746  1.00  0.00     0.116 C 
BRANCH   2   3
ATOM      3  N   UNL     1       1.134  -2.905   3.537  1.00  0.00    -0.352 N 
ATOM      4  C   UNL     1       0.172  -3.361   2.672  1.00  0.00     0.258 C 
ATOM      5  O   UNL     1      -0.037  -4.571   2.703  1.00  0.00    -0.269 OA
ATOM      6  H   UNL     1       1.475  -3.602   4.142  1.00  0.00     0.163 HD
BRANCH   4   7
ATOM      7  C   UNL     1      -0.520  -2.505   1.659  1.00  0.00     0.121 A 
ATOM      8  C   UNL     1      -1.392  -0.937  -0.546  1.00  0.00     0.169 A 
ATOM      9  C   UNL     1      -1.584  -2.315  -0.545  1.00  0.00     0.137 A 
ATOM     10  C   UNL     1      -0.899  -0.325   0.603  1.00  0.00     0.162 A 
ATOM     11  C   UNL     1      -1.157  -3.081   0.551  1.00  0.00     0.286 A 
ATOM     12  C   UNL     1      -0.513  -1.105   1.705  1.00  0.00     0.071 A 
BRANCH   8  13
ATOM     13  O   UNL     1      -1.891  -0.282  -1.615  1.00  0.00    -0.477 OA
BRANCH  13  14
ATOM     14  C   UNL     1      -1.045   0.404  -2.508  1.00  0.00     0.259 C 
ATOM     15  C   UNL     1      -1.294   1.917  -2.342  1.00  0.00     0.064 C 
BRANCH  14  16
ATOM     16  C   UNL     1       0.376   0.203  -3.161  1.00  0.00     0.260 C 
ATOM     17  C   UNL     1       1.758  -1.198  -1.487  1.00  0.00     0.142 C 
ATOM     18  N   UNL     1       1.442  -0.468  -2.683  1.00  0.00    -0.356 N 
ATOM     19  H   UNL     1       2.198  -0.453  -3.314  1.00  0.00     0.163 HD
ATOM     20  O   UNL     1       0.588   0.738  -4.264  1.00  0.00    -0.271 OA
ENDBRANCH  14  16
ENDBRANCH  13  14
ENDBRANCH   8  13
BRANCH  10  21
ATOM     21  O   UNL     1      -0.837   1.036   0.722  1.00  0.00    -0.493 OA
ATOM     22  C   UNL     1       0.500   1.526   0.581  1.00  0.00     0.278 C 
ENDBRANCH  10  21
BRANCH  11  23
ATOM     23  N   UNL     1      -1.525  -4.483   0.520  1.00  0.00     0.063 N 
ATOM     24  O   UNL     1      -0.996  -5.176  -0.359  1.00  0.00    -0.258 OA
ATOM     25  O   UNL     1      -2.443  -4.833   1.275  1.00  0.00    -0.258 OA
ENDBRANCH  11  23
ENDBRANCH   4   7
ENDBRANCH   2   3
ENDBRANCH   1   2
BRANCH   1  26
ATOM     26  C   UNL     1       1.386  -1.267   6.264  1.00  0.00     0.023 C 
BRANCH  26  27
ATOM     27  C   UNL     1       2.863  -1.145   6.616  1.00  0.00     0.116 C 
BRANCH  27  28
ATOM     28  N   UNL     1       3.395   0.191   6.394  1.00  0.00    -0.352 N 
ATOM     29  C   UNL     1       4.349   0.866   7.110  1.00  0.00     0.251 C 
ATOM     30  H   UNL     1       3.018   0.676   5.624  1.00  0.00     0.163 HD
ATOM     31  O   UNL     1       4.589   2.043   6.857  1.00  0.00    -0.269 OA
BRANCH  29  32
ATOM     32  C   UNL     1       5.058   0.183   8.211  1.00  0.00     0.039 A 
ATOM     33  C   UNL     1       5.224   0.862   9.419  1.00  0.00     0.014 A 
ATOM     34  C   UNL     1       5.539  -1.121   8.062  1.00  0.00     0.014 A 
ATOM     35  C   UNL     1       5.829   0.212  10.494  1.00  0.00     0.010 A 
ATOM     36  C   UNL     1       6.061  -1.796   9.161  1.00  0.00     0.010 A 
ATOM     37  C   UNL     1       6.221  -1.133  10.385  1.00  0.00    -0.014 A 
BRANCH  37  38
ATOM     38  C   UNL     1       6.794  -1.845  11.554  1.00  0.00     0.031 A 
ATOM     39  C   UNL     1       8.209  -2.351  11.524  1.00  0.00     0.074 A 
ATOM     40  C   UNL     1       6.023  -2.049  12.640  1.00  0.00     0.049 A 
ATOM     41  N   UNL     1       8.892  -2.949  12.468  1.00  0.00    -0.248 NA
ATOM     42  C   UNL     1       8.948  -2.190  10.263  1.00  0.00     0.031 C 
ATOM     43  C   UNL     1       4.615  -1.666  12.759  1.00  0.00     0.029 A 
ATOM     44  N   UNL     1       6.316  -2.620  13.852  1.00  0.00    -0.354 N 
ATOM     45  C   UNL     1      10.134  -3.232  11.915  1.00  0.00     0.074 A 
ATOM     46  C   UNL     1      10.089  -2.806  10.534  1.00  0.00     0.031 C 
ATOM     47  C   UNL     1       4.180  -1.970  13.992  1.00  0.00     0.029 A 
ATOM     48  C   UNL     1       5.265  -2.599  14.737  1.00  0.00     0.049 A 
ATOM     49  H   UNL     1       7.194  -3.009  14.068  1.00  0.00     0.167 HD
ATOM     50  C   UNL     1      11.223  -3.771  12.514  1.00  0.00     0.037 A 
ATOM     51  C   UNL     1       5.190  -3.032  16.009  1.00  0.00     0.037 A 
ATOM     52  C   UNL     1      11.263  -4.184  13.893  1.00  0.00     0.049 A 
ATOM     53  C   UNL     1       6.416  -3.624  16.651  1.00  0.00     0.074 A 
ATOM     54  C   UNL     1      12.332  -4.690  14.612  1.00  0.00     0.029 A 
ATOM     55  N   UNL     1      10.181  -4.146  14.761  1.00  0.00    -0.354 N 
ATOM     56  N   UNL     1       7.612  -3.803  16.146  1.00  0.00    -0.248 NA
ATOM     57  C   UNL     1       6.282  -4.060  18.047  1.00  0.00     0.031 C 
ATOM     58  C   UNL     1      11.882  -5.013  15.897  1.00  0.00     0.029 A 
ATOM     59  C   UNL     1      10.550  -4.645  16.001  1.00  0.00     0.049 A 
ATOM     60  H   UNL     1       9.284  -3.813  14.531  1.00  0.00     0.167 HD
ATOM     61  C   UNL     1       8.380  -4.346  17.167  1.00  0.00     0.074 A 
ATOM     62  C   UNL     1       7.519  -4.440  18.328  1.00  0.00     0.031 C 
ATOM     63  C   UNL     1       9.679  -4.736  17.146  1.00  0.00     0.037 A 
BRANCH  50  64
ATOM     64  C   UNL     1      12.462  -3.941  11.681  1.00  0.00     0.064 A 
ATOM     65  C   UNL     1      13.196  -2.838  11.216  1.00  0.00     0.173 A 
ATOM     66  C   UNL     1      12.944  -5.223  11.373  1.00  0.00     0.173 A 
ATOM     67  F   UNL     1      12.774  -1.590  11.470  1.00  0.00    -0.203 F 
ATOM     68  C   UNL     1      14.346  -3.012  10.449  1.00  0.00     0.198 A 
ATOM     69  C   UNL     1      14.114  -5.392  10.635  1.00  0.00     0.198 A 
ATOM     70  F   UNL     1      12.286  -6.313  11.794  1.00  0.00    -0.203 F 
ATOM     71  F   UNL     1      14.998  -1.943   9.971  1.00  0.00    -0.200 F 
ATOM     72  C   UNL     1      14.808  -4.288  10.167  1.00  0.00     0.200 A 
ATOM     73  F   UNL     1      14.567  -6.627  10.376  1.00  0.00    -0.200 F 
ATOM     74  F   UNL     1      15.920  -4.453   9.437  1.00  0.00    -0.200 F 
ENDBRANCH  50  64
BRANCH  51  75
ATOM     75  C   UNL     1       3.921  -2.889  16.771  1.00  0.00     0.064 A 
ATOM     76  C   UNL     1       3.828  -2.015  17.864  1.00  0.00     0.173 A 
ATOM     77  C   UNL     1       2.779  -3.629  16.431  1.00  0.00     0.173 A 
ATOM     78  F   UNL     1       4.896  -1.297  18.240  1.00  0.00    -0.203 F 
ATOM     79  C   UNL     1       2.652  -1.908  18.604  1.00  0.00     0.198 A 
ATOM     80  C   UNL     1       1.593  -3.496  17.151  1.00  0.00     0.198 A 
ATOM     81  F   UNL     1       2.811  -4.473  15.389  1.00  0.00    -0.203 F 
ATOM     82  F   UNL     1       2.608  -1.106  19.676  1.00  0.00    -0.200 F 
ATOM     83  C   UNL     1       1.534  -2.644  18.243  1.00  0.00     0.200 A 
ATOM     84  F   UNL     1       0.510  -4.196  16.787  1.00  0.00    -0.200 F 
ATOM     85  F   UNL     1       0.402  -2.539  18.952  1.00  0.00    -0.200 F 
ENDBRANCH  51  75
BRANCH  63  86
ATOM     86  C   UNL     1      10.252  -5.270  18.429  1.00  0.00     0.064 A 
ATOM     87  C   UNL     1       9.836  -6.496  18.972  1.00  0.00     0.173 A 
ATOM     88  C   UNL     1      11.234  -4.546  19.124  1.00  0.00     0.173 A 
ATOM     89  F   UNL     1       8.892  -7.222  18.355  1.00  0.00    -0.203 F 
ATOM     90  C   UNL     1      10.347  -6.953  20.184  1.00  0.00     0.198 A 
ATOM     91  C   UNL     1      11.771  -5.026  20.315  1.00  0.00     0.198 A 
ATOM     92  F   UNL     1      11.676  -3.374  18.645  1.00  0.00    -0.203 F 
ATOM     93  F   UNL     1       9.881  -8.091  20.718  1.00  0.00    -0.200 F 
ATOM     94  C   UNL     1      11.317  -6.221  20.851  1.00  0.00     0.200 A 
ATOM     95  F   UNL     1      12.721  -4.326  20.949  1.00  0.00    -0.200 F 
ATOM     96  F   UNL     1      11.806  -6.662  22.018  1.00  0.00    -0.200 F 
ENDBRANCH  63  86
ENDBRANCH  37  38
ENDBRANCH  29  32
ENDBRANCH  27  28
ENDBRANCH  26  27
ENDBRANCH   1  26
TORSDOF 16
