REMARK SMILES NC(=O)C[C@H](C(=O)NCCCCNC(=O)c1ccc(-c2c3nc(c(-c4c(F)c(F)c(F)c(F)c4F)c4ccc([nH]4)c(-c4c(F)c(F)c(F)c(F)c4F)c4nc(c(-c5c(F)c(F)c(F)c(F)c5F)c5ccc2[nH]5)C=C4)C=C3)cc1)N1C(=O)/C(=C/c2ccccc2)SC1=S
REMARK SMILES IDX 10 1 9 2 8 3 6 4 7 5 5 7 4 8 2 9 1 10 3 13 79 14 80 15 91 16
REMARK SMILES IDX 81 17 82 18 90 19 92 20 83 21 84 22 85 23 89 24 86 25 88 26
REMARK SMILES IDX 87 27 11 28 12 29 13 30 14 31 15 33 16 34 17 35 78 36 18 37
REMARK SMILES IDX 77 38 19 39 20 40 21 41 71 42 22 43 76 44 70 45 72 46 23 47
REMARK SMILES IDX 75 48 69 49 68 50 24 52 56 53 36 54 55 55 37 56 40 57 54 58
REMARK SMILES IDX 73 59 38 60 39 61 53 63 74 64 41 65 25 66 26 67 34 68 27 69
REMARK SMILES IDX 28 70 32 71 35 72 29 73 30 74 33 75 31 76 57 77 58 78 66 79
REMARK SMILES IDX 59 80 60 81 64 82 67 83 61 84 62 85 65 86 63 87 42 88 43 89
REMARK SMILES IDX 51 90 44 91 45 92 49 93 52 94 46 95 47 96 50 97 48 98
REMARK H PARENT 8 6 1 11 1 12 13 32 72 51 40 62
REMARK Flexibility Score: inf
ROOT
ATOM      1  C   UNL     1       0.947  -5.780   1.843  1.00  0.00     0.023 C 
ENDROOT
BRANCH   1   2
ATOM      2  C   UNL     1       0.251  -4.803   0.898  1.00  0.00     0.116 C 
BRANCH   2   3
ATOM      3  N   UNL     1       0.585  -3.430   1.208  1.00  0.00    -0.354 N 
ATOM      4  C   UNL     1       1.389  -2.523   0.581  1.00  0.00     0.243 C 
ATOM      5  O   UNL     1       1.308  -1.369   1.012  1.00  0.00    -0.273 OA
ATOM      6  H   UNL     1       0.153  -3.087   2.023  1.00  0.00     0.163 HD
BRANCH   4   7
ATOM      7  C   UNL     1       2.161  -2.855  -0.728  1.00  0.00     0.190 C 
BRANCH   7   8
ATOM      8  C   UNL     1       3.128  -1.722  -1.128  1.00  0.00     0.135 C 
BRANCH   8   9
ATOM      9  C   UNL     1       2.798  -1.159  -2.488  1.00  0.00     0.220 C 
ATOM     10  N   UNL     1       2.924  -2.015  -3.540  1.00  0.00    -0.370 N 
ATOM     11  H   UNL     1       2.723  -1.706  -4.452  1.00  0.00     0.159 HD
ATOM     12  H   UNL     1       3.217  -2.942  -3.387  1.00  0.00     0.159 HD
ATOM     13  O   UNL     1       2.474   0.007  -2.675  1.00  0.00    -0.275 OA
ENDBRANCH   8   9
ENDBRANCH   7   8
BRANCH   7  14
ATOM     14  N   UNL     1       2.856  -4.166  -0.697  1.00  0.00    -0.280 N 
ATOM     15  C   UNL     1       3.893  -4.344   0.206  1.00  0.00     0.266 C 
ATOM     16  C   UNL     1       2.621  -5.220  -1.557  1.00  0.00     0.149 C 
ATOM     17  O   UNL     1       4.282  -3.517   1.018  1.00  0.00    -0.268 OA
ATOM     18  C   UNL     1       4.490  -5.700   0.059  1.00  0.00     0.081 C 
ATOM     19  S   UNL     1       3.575  -6.608  -1.071  1.00  0.00    -0.054 SA
ATOM     20  S   UNL     1       1.625  -5.277  -2.894  1.00  0.00    -0.052 S 
ATOM     21  C   UNL     1       5.569  -6.072   0.763  1.00  0.00     0.029 C 
BRANCH  21  22
ATOM     22  C   UNL     1       6.229  -7.390   0.804  1.00  0.00    -0.024 A 
ATOM     23  C   UNL     1       6.723  -7.836   2.039  1.00  0.00     0.008 A 
ATOM     24  C   UNL     1       6.415  -8.205  -0.320  1.00  0.00     0.008 A 
ATOM     25  C   UNL     1       7.325  -9.091   2.158  1.00  0.00     0.001 A 
ATOM     26  C   UNL     1       7.000  -9.468  -0.198  1.00  0.00     0.001 A 
ATOM     27  C   UNL     1       7.448  -9.914   1.042  1.00  0.00     0.000 A 
ENDBRANCH  21  22
ENDBRANCH   7  14
ENDBRANCH   4   7
ENDBRANCH   2   3
ENDBRANCH   1   2
BRANCH   1  28
ATOM     28  C   UNL     1       0.277  -5.907   3.212  1.00  0.00     0.023 C 
BRANCH  28  29
ATOM     29  C   UNL     1      -1.156  -6.427   3.184  1.00  0.00     0.116 C 
BRANCH  29  30
ATOM     30  N   UNL     1      -1.285  -7.744   2.576  1.00  0.00    -0.352 N 
ATOM     31  C   UNL     1      -2.106  -8.781   2.952  1.00  0.00     0.251 C 
ATOM     32  H   UNL     1      -0.710  -7.913   1.795  1.00  0.00     0.163 HD
ATOM     33  O   UNL     1      -2.026  -9.873   2.401  1.00  0.00    -0.269 OA
BRANCH  31  34
ATOM     34  C   UNL     1      -3.058  -8.576   4.062  1.00  0.00     0.039 A 
ATOM     35  C   UNL     1      -3.084  -9.500   5.109  1.00  0.00     0.014 A 
ATOM     36  C   UNL     1      -3.880  -7.447   4.093  1.00  0.00     0.014 A 
ATOM     37  C   UNL     1      -3.882  -9.250   6.227  1.00  0.00     0.010 A 
ATOM     38  C   UNL     1      -4.613  -7.161   5.239  1.00  0.00     0.010 A 
ATOM     39  C   UNL     1      -4.620  -8.059   6.318  1.00  0.00    -0.014 A 
BRANCH  39  40
ATOM     40  C   UNL     1      -5.407  -7.729   7.534  1.00  0.00     0.031 A 
ATOM     41  C   UNL     1      -6.901  -7.586   7.445  1.00  0.00     0.074 A 
ATOM     42  C   UNL     1      -4.772  -7.488   8.697  1.00  0.00     0.049 A 
ATOM     43  N   UNL     1      -7.755  -7.223   8.368  1.00  0.00    -0.248 NA
ATOM     44  C   UNL     1      -7.513  -7.856   6.134  1.00  0.00     0.031 C 
ATOM     45  C   UNL     1      -3.323  -7.544   8.899  1.00  0.00     0.029 A 
ATOM     46  N   UNL     1      -5.264  -7.132   9.929  1.00  0.00    -0.354 N 
ATOM     47  C   UNL     1      -8.997  -7.206   7.747  1.00  0.00     0.074 A 
ATOM     48  C   UNL     1      -8.779  -7.537   6.356  1.00  0.00     0.031 C 
ATOM     49  C   UNL     1      -3.046  -7.258  10.181  1.00  0.00     0.029 A 
ATOM     50  C   UNL     1      -4.290  -6.958  10.882  1.00  0.00     0.049 A 
ATOM     51  H   UNL     1      -6.224  -7.014  10.111  1.00  0.00     0.167 HD
ATOM     52  C   UNL     1     -10.212  -6.962   8.293  1.00  0.00     0.037 A 
ATOM     53  C   UNL     1      -4.391  -6.589  12.173  1.00  0.00     0.037 A 
ATOM     54  C   UNL     1     -10.426  -6.660   9.684  1.00  0.00     0.049 A 
ATOM     55  C   UNL     1      -5.753  -6.319  12.755  1.00  0.00     0.074 A 
ATOM     56  C   UNL     1     -11.623  -6.458  10.348  1.00  0.00     0.029 A 
ATOM     57  N   UNL     1      -9.417  -6.515  10.624  1.00  0.00    -0.354 N 
ATOM     58  N   UNL     1      -6.927  -6.377  12.175  1.00  0.00    -0.248 NA
ATOM     59  C   UNL     1      -5.804  -5.938  14.173  1.00  0.00     0.031 C 
ATOM     60  C   UNL     1     -11.336  -6.142  11.680  1.00  0.00     0.029 A 
ATOM     61  C   UNL     1      -9.963  -6.203  11.859  1.00  0.00     0.049 A 
ATOM     62  H   UNL     1      -8.455  -6.618  10.441  1.00  0.00     0.167 HD
ATOM     63  C   UNL     1      -7.856  -6.074  13.162  1.00  0.00     0.074 A 
ATOM     64  C   UNL     1      -7.110  -5.846  14.381  1.00  0.00     0.031 C 
ATOM     65  C   UNL     1      -9.206  -5.992  13.066  1.00  0.00     0.037 A 
BRANCH  52  66
ATOM     66  C   UNL     1     -11.405  -7.018   7.384  1.00  0.00     0.064 A 
ATOM     67  C   UNL     1     -11.854  -8.228   6.831  1.00  0.00     0.173 A 
ATOM     68  C   UNL     1     -12.130  -5.854   7.087  1.00  0.00     0.173 A 
ATOM     69  F   UNL     1     -11.190  -9.368   7.073  1.00  0.00    -0.203 F 
ATOM     70  C   UNL     1     -12.964  -8.265   5.992  1.00  0.00     0.198 A 
ATOM     71  C   UNL     1     -13.259  -5.900   6.274  1.00  0.00     0.198 A 
ATOM     72  F   UNL     1     -11.748  -4.672   7.593  1.00  0.00    -0.203 F 
ATOM     73  F   UNL     1     -13.341  -9.424   5.433  1.00  0.00    -0.200 F 
ATOM     74  C   UNL     1     -13.670  -7.103   5.720  1.00  0.00     0.200 A 
ATOM     75  F   UNL     1     -13.949  -4.779   6.023  1.00  0.00    -0.200 F 
ATOM     76  F   UNL     1     -14.743  -7.142   4.918  1.00  0.00    -0.200 F 
ENDBRANCH  52  66
BRANCH  53  77
ATOM     77  C   UNL     1      -3.170  -6.476  13.014  1.00  0.00     0.064 A 
ATOM     78  C   UNL     1      -2.930  -7.380  14.059  1.00  0.00     0.173 A 
ATOM     79  C   UNL     1      -2.226  -5.461  12.802  1.00  0.00     0.173 A 
ATOM     80  F   UNL     1      -3.813  -8.356  14.315  1.00  0.00    -0.203 F 
ATOM     81  C   UNL     1      -1.807  -7.258  14.875  1.00  0.00     0.198 A 
ATOM     82  C   UNL     1      -1.087  -5.358  13.599  1.00  0.00     0.198 A 
ATOM     83  F   UNL     1      -2.404  -4.574  11.812  1.00  0.00    -0.203 F 
ATOM     84  F   UNL     1      -1.629  -8.105  15.898  1.00  0.00    -0.200 F 
ATOM     85  C   UNL     1      -0.883  -6.251  14.640  1.00  0.00     0.200 A 
ATOM     86  F   UNL     1      -0.189  -4.393  13.360  1.00  0.00    -0.200 F 
ATOM     87  F   UNL     1       0.198  -6.135  15.423  1.00  0.00    -0.200 F 
ENDBRANCH  53  77
BRANCH  65  88
ATOM     88  C   UNL     1      -9.969  -5.686  14.322  1.00  0.00     0.064 A 
ATOM     89  C   UNL     1      -9.942  -4.413  14.912  1.00  0.00     0.173 A 
ATOM     90  C   UNL     1     -10.775  -6.668  14.918  1.00  0.00     0.173 A 
ATOM     91  F   UNL     1      -9.175  -3.444  14.390  1.00  0.00    -0.203 F 
ATOM     92  C   UNL     1     -10.673  -4.144  16.066  1.00  0.00     0.198 A 
ATOM     93  C   UNL     1     -11.530  -6.386  16.053  1.00  0.00     0.198 A 
ATOM     94  F   UNL     1     -10.843  -7.900  14.389  1.00  0.00    -0.203 F 
ATOM     95  F   UNL     1     -10.593  -2.935  16.639  1.00  0.00    -0.200 F 
ATOM     96  C   UNL     1     -11.472  -5.127  16.630  1.00  0.00     0.200 A 
ATOM     97  F   UNL     1     -12.314  -7.333  16.587  1.00  0.00    -0.200 F 
ATOM     98  F   UNL     1     -12.183  -4.862  17.735  1.00  0.00    -0.200 F 
ENDBRANCH  65  88
ENDBRANCH  39  40
ENDBRANCH  31  34
ENDBRANCH  29  30
ENDBRANCH  28  29
ENDBRANCH   1  28
TORSDOF 15
