REMARK SMILES Cc1cc(C(=O)NCCCCNC(=O)c2ccc(-c3c4nc(c(-c5c(F)c(F)c(F)c(F)c5F)c5ccc([nH]5)c(-c5c(F)c(F)c(F)c(F)c5F)c5nc(c(-c6c(F)c(F)c(F)c(F)c6F)c6ccc3[nH]6)C=C5)C=C4)cc2)ccc1NC(=O)c1ccc(=O)n(CCOc2ccccc2)n1
REMARK SMILES IDX 5 1 6 2 7 3 4 5 1 6 2 7 3 8 80 9 79 10 78 11 81 12 82 13
REMARK SMILES IDX 83 15 84 16 85 17 99 18 86 19 89 20 87 21 88 22 90 23 91 24
REMARK SMILES IDX 92 25 93 26 94 27 98 28 95 29 97 30 96 31 8 32 9 33 10 34
REMARK SMILES IDX 11 35 12 36 13 37 14 39 15 40 16 41 77 42 17 43 76 44 18 45
REMARK SMILES IDX 19 46 20 47 70 48 21 49 75 50 69 51 71 52 22 53 74 54 68 55
REMARK SMILES IDX 67 56 23 58 55 59 35 60 54 61 36 62 39 63 53 64 72 65 37 66
REMARK SMILES IDX 38 67 52 69 73 70 40 71 24 72 25 73 33 74 26 75 27 76 31 77
REMARK SMILES IDX 34 78 28 79 29 80 32 81 30 82 56 83 57 84 65 85 58 86 59 87
REMARK SMILES IDX 63 88 66 89 60 90 61 91 64 92 62 93 41 94 42 95 50 96 43 97
REMARK SMILES IDX 44 98 48 99 51 100 45 101 46 102 49 103 47 104
REMARK H PARENT 7 4 81 14 12 38 71 57 39 68
REMARK Flexibility Score: inf
ROOT
ATOM      1  C   UNL     1      -1.536  -2.650  -0.165  1.00  0.00     0.251 C 
ATOM      2  O   UNL     1      -0.974  -3.740  -0.064  1.00  0.00    -0.269 OA
ATOM      3  N   UNL     1      -2.914  -2.618  -0.171  1.00  0.00    -0.352 N 
ATOM      4  H   UNL     1      -3.333  -3.500  -0.295  1.00  0.00     0.163 HD
ENDROOT
BRANCH   1   5
ATOM      5  C   UNL     1      -0.706  -1.420  -0.255  1.00  0.00     0.040 A 
ATOM      6  C   UNL     1       2.792  -0.301   0.737  1.00  0.00     0.046 C 
ATOM      7  C   UNL     1       1.357  -0.196   0.301  1.00  0.00    -0.027 A 
ATOM      8  C   UNL     1       0.578  -1.382   0.308  1.00  0.00     0.019 A 
ATOM      9  C   UNL     1       0.784   0.979  -0.206  1.00  0.00     0.044 A 
ATOM     10  C   UNL     1      -0.358   0.840  -0.986  1.00  0.00     0.027 A 
ATOM     11  C   UNL     1      -1.105  -0.332  -1.005  1.00  0.00     0.016 A 
BRANCH   9  12
ATOM     12  N   UNL     1       1.339   2.252   0.065  1.00  0.00    -0.320 N 
ATOM     13  C   UNL     1       0.703   3.484   0.168  1.00  0.00     0.276 C 
ATOM     14  H   UNL     1       2.314   2.267   0.201  1.00  0.00     0.170 HD
ATOM     15  O   UNL     1       1.317   4.520   0.394  1.00  0.00    -0.267 OA
BRANCH  13  16
ATOM     16  C   UNL     1      -0.806   3.559   0.016  1.00  0.00     0.149 A 
ATOM     17  C   UNL     1      -1.283   3.981  -1.318  1.00  0.00     0.042 A 
ATOM     18  N   UNL     1      -1.579   3.207   1.001  1.00  0.00    -0.164 NA
ATOM     19  C   UNL     1      -2.491   3.521  -1.651  1.00  0.00     0.076 A 
ATOM     20  N   UNL     1      -2.913   2.990   0.663  1.00  0.00    -0.226 N 
ATOM     21  C   UNL     1      -3.288   2.765  -0.655  1.00  0.00     0.266 A 
ATOM     22  O   UNL     1      -4.228   2.073  -1.029  1.00  0.00    -0.268 OA
BRANCH  20  23
ATOM     23  C   UNL     1      -3.869   2.800   1.754  1.00  0.00     0.190 C 
BRANCH  23  24
ATOM     24  C   UNL     1      -4.500   4.134   2.199  1.00  0.00     0.253 C 
BRANCH  24  25
ATOM     25  O   UNL     1      -5.751   4.380   1.528  1.00  0.00    -0.492 OA
BRANCH  25  26
ATOM     26  C   UNL     1      -5.667   5.363   0.586  1.00  0.00     0.119 A 
ATOM     27  C   UNL     1      -5.824   6.703   0.920  1.00  0.00     0.046 A 
ATOM     28  C   UNL     1      -5.532   4.994  -0.747  1.00  0.00     0.046 A 
ATOM     29  C   UNL     1      -5.730   7.675  -0.082  1.00  0.00     0.004 A 
ATOM     30  C   UNL     1      -5.370   5.958  -1.737  1.00  0.00     0.004 A 
ATOM     31  C   UNL     1      -5.463   7.304  -1.402  1.00  0.00     0.000 A 
ENDBRANCH  25  26
ENDBRANCH  24  25
ENDBRANCH  23  24
ENDBRANCH  20  23
ENDBRANCH  13  16
ENDBRANCH   9  12
ENDBRANCH   1   5
BRANCH   3  32
ATOM     32  C   UNL     1      -3.872  -1.521  -0.029  1.00  0.00     0.116 C 
BRANCH  32  33
ATOM     33  C   UNL     1      -4.598  -1.148  -1.334  1.00  0.00     0.023 C 
BRANCH  33  34
ATOM     34  C   UNL     1      -5.418  -2.264  -1.980  1.00  0.00     0.023 C 
BRANCH  34  35
ATOM     35  C   UNL     1      -6.762  -2.505  -1.308  1.00  0.00     0.116 C 
BRANCH  35  36
ATOM     36  N   UNL     1      -7.860  -1.695  -1.828  1.00  0.00    -0.352 N 
ATOM     37  C   UNL     1      -9.184  -1.617  -1.418  1.00  0.00     0.251 C 
ATOM     38  H   UNL     1      -7.625  -1.115  -2.588  1.00  0.00     0.163 HD
ATOM     39  O   UNL     1      -9.980  -0.936  -2.041  1.00  0.00    -0.269 OA
BRANCH  37  40
ATOM     40  C   UNL     1      -9.592  -2.236  -0.127  1.00  0.00     0.039 A 
ATOM     41  C   UNL     1     -10.379  -1.466   0.741  1.00  0.00     0.014 A 
ATOM     42  C   UNL     1      -9.000  -3.405   0.329  1.00  0.00     0.014 A 
ATOM     43  C   UNL     1     -10.308  -1.700   2.111  1.00  0.00     0.010 A 
ATOM     44  C   UNL     1      -8.819  -3.559   1.686  1.00  0.00     0.010 A 
ATOM     45  C   UNL     1      -9.401  -2.648   2.573  1.00  0.00    -0.014 A 
BRANCH  45  46
ATOM     46  C   UNL     1      -8.846  -2.639   3.922  1.00  0.00     0.031 A 
ATOM     47  C   UNL     1      -9.099  -3.756   4.853  1.00  0.00     0.074 A 
ATOM     48  C   UNL     1      -7.932  -1.689   4.224  1.00  0.00     0.049 A 
ATOM     49  N   UNL     1      -8.854  -3.726   6.119  1.00  0.00    -0.248 NA
ATOM     50  C   UNL     1      -9.713  -5.003   4.421  1.00  0.00     0.031 C 
ATOM     51  C   UNL     1      -6.959  -1.702   5.313  1.00  0.00     0.029 A 
ATOM     52  N   UNL     1      -7.830  -0.395   3.683  1.00  0.00    -0.354 N 
ATOM     53  C   UNL     1      -8.993  -5.007   6.609  1.00  0.00     0.074 A 
ATOM     54  C   UNL     1      -9.620  -5.736   5.533  1.00  0.00     0.031 C 
ATOM     55  C   UNL     1      -6.566  -0.443   5.558  1.00  0.00     0.029 A 
ATOM     56  C   UNL     1      -7.404   0.426   4.751  1.00  0.00     0.049 A 
ATOM     57  H   UNL     1      -8.017  -0.119   2.756  1.00  0.00     0.167 HD
ATOM     58  C   UNL     1      -8.426  -5.312   7.814  1.00  0.00     0.037 A 
ATOM     59  C   UNL     1      -8.210   1.404   5.256  1.00  0.00     0.037 A 
ATOM     60  C   UNL     1      -7.931  -4.098   8.472  1.00  0.00     0.049 A 
ATOM     61  C   UNL     1      -8.528   1.249   6.721  1.00  0.00     0.074 A 
ATOM     62  C   UNL     1      -6.667  -3.544   8.599  1.00  0.00     0.029 A 
ATOM     63  N   UNL     1      -8.832  -3.109   8.856  1.00  0.00    -0.354 N 
ATOM     64  N   UNL     1      -8.438   0.119   7.364  1.00  0.00    -0.248 NA
ATOM     65  C   UNL     1      -8.994   2.343   7.567  1.00  0.00     0.031 C 
ATOM     66  C   UNL     1      -6.817  -2.193   9.002  1.00  0.00     0.029 A 
ATOM     67  C   UNL     1      -8.169  -1.932   9.143  1.00  0.00     0.049 A 
ATOM     68  H   UNL     1      -9.807  -3.232   8.916  1.00  0.00     0.167 HD
ATOM     69  C   UNL     1      -8.842   0.301   8.659  1.00  0.00     0.074 A 
ATOM     70  C   UNL     1      -9.161   1.714   8.743  1.00  0.00     0.031 C 
ATOM     71  C   UNL     1      -8.898  -0.737   9.544  1.00  0.00     0.037 A 
BRANCH  58  72
ATOM     72  C   UNL     1      -8.042  -6.715   8.272  1.00  0.00     0.064 A 
ATOM     73  C   UNL     1      -7.042  -6.898   9.257  1.00  0.00     0.173 A 
ATOM     74  C   UNL     1      -8.535  -7.919   7.733  1.00  0.00     0.173 A 
ATOM     75  F   UNL     1      -6.551  -5.868   9.958  1.00  0.00    -0.203 F 
ATOM     76  C   UNL     1      -6.501  -8.152   9.568  1.00  0.00     0.198 A 
ATOM     77  C   UNL     1      -7.971  -9.169   8.015  1.00  0.00     0.198 A 
ATOM     78  F   UNL     1      -9.622  -7.957   6.962  1.00  0.00    -0.203 F 
ATOM     79  F   UNL     1      -5.538  -8.249  10.495  1.00  0.00    -0.200 F 
ATOM     80  C   UNL     1      -6.942  -9.285   8.920  1.00  0.00     0.200 A 
ATOM     81  F   UNL     1      -8.445 -10.262   7.398  1.00  0.00    -0.200 F 
ATOM     82  F   UNL     1      -6.403 -10.481   9.189  1.00  0.00    -0.200 F 
ENDBRANCH  58  72
BRANCH  59  83
ATOM     83  C   UNL     1      -9.121   2.000   4.246  1.00  0.00     0.064 A 
ATOM     84  C   UNL     1      -8.539   2.726   3.193  1.00  0.00     0.173 A 
ATOM     85  C   UNL     1     -10.437   1.557   4.079  1.00  0.00     0.173 A 
ATOM     86  F   UNL     1      -7.279   3.165   3.325  1.00  0.00    -0.203 F 
ATOM     87  C   UNL     1      -9.196   2.898   1.977  1.00  0.00     0.198 A 
ATOM     88  C   UNL     1     -11.101   1.744   2.864  1.00  0.00     0.198 A 
ATOM     89  F   UNL     1     -11.037   0.837   5.037  1.00  0.00    -0.203 F 
ATOM     90  F   UNL     1      -8.573   3.492   0.950  1.00  0.00    -0.200 F 
ATOM     91  C   UNL     1     -10.468   2.380   1.805  1.00  0.00     0.200 A 
ATOM     92  F   UNL     1     -12.319   1.213   2.683  1.00  0.00    -0.200 F 
ATOM     93  F   UNL     1     -11.068   2.452   0.608  1.00  0.00    -0.200 F 
ENDBRANCH  59  83
BRANCH  71  94
ATOM     94  C   UNL     1      -9.567  -0.702  10.894  1.00  0.00     0.064 A 
ATOM     95  C   UNL     1     -10.675   0.108  11.196  1.00  0.00     0.173 A 
ATOM     96  C   UNL     1      -9.195  -1.626  11.900  1.00  0.00     0.173 A 
ATOM     97  F   UNL     1     -11.197   0.942  10.286  1.00  0.00    -0.203 F 
ATOM     98  C   UNL     1     -11.325   0.041  12.431  1.00  0.00     0.198 A 
ATOM     99  C   UNL     1      -9.883  -1.731  13.108  1.00  0.00     0.198 A 
ATOM    100  F   UNL     1      -8.171  -2.475  11.726  1.00  0.00    -0.203 F 
ATOM    101  F   UNL     1     -12.353   0.863  12.684  1.00  0.00    -0.200 F 
ATOM    102  C   UNL     1     -10.938  -0.886  13.380  1.00  0.00     0.200 A 
ATOM    103  F   UNL     1      -9.529  -2.670  13.996  1.00  0.00    -0.200 F 
ATOM    104  F   UNL     1     -11.596  -0.981  14.543  1.00  0.00    -0.200 F 
ENDBRANCH  71  94
ENDBRANCH  45  46
ENDBRANCH  37  40
ENDBRANCH  35  36
ENDBRANCH  34  35
ENDBRANCH  33  34
ENDBRANCH  32  33
ENDBRANCH   3  32
TORSDOF 17
