REMARK SMILES CC(=O)N[C@@H](CS[C@@H]1CC(=O)N(c2cccc3ccccc23)C1=O)C(=O)NCCCCNC(=O)c1ccc(-c2c3nc(c(-c4c(F)c(F)c(F)c(F)c4F)c4ccc([nH]4)c(-c4c(F)c(F)c(F)c(F)c4F)c4nc(c(-c5c(F)c(F)c(F)c(F)c5F)c5ccc2[nH]5)C=C4)C=C3)cc1
REMARK SMILES IDX 28 1 27 2 25 3 26 4 5 6 4 7 1 8 2 9 3 10 6 12 7 13 8 14 9 15
REMARK SMILES IDX 23 16 10 17 12 18 24 19 11 20 13 21 14 22 22 23 15 24 17 25
REMARK SMILES IDX 21 26 16 27 18 28 20 29 19 30 29 31 30 32 31 33 32 34 33 35
REMARK SMILES IDX 34 37 35 38 36 39 97 40 37 41 96 42 38 43 39 44 40 45 90 46
REMARK SMILES IDX 41 47 95 48 89 49 91 50 42 51 94 52 88 53 87 54 43 56 75 57
REMARK SMILES IDX 55 58 74 59 56 60 59 61 73 62 92 63 57 64 58 65 72 67 93 68
REMARK SMILES IDX 60 69 44 70 45 71 53 72 46 73 47 74 51 75 54 76 48 77 49 78
REMARK SMILES IDX 52 79 50 80 76 81 77 82 85 83 78 84 79 85 83 86 86 87 80 88
REMARK SMILES IDX 81 89 84 90 82 91 61 92 62 93 70 94 63 95 64 96 68 97 71 98
REMARK SMILES IDX 65 99 66 100 69 101 67 102
REMARK H PARENT 27 5 4 11 32 36 91 55 59 66
REMARK Flexibility Score: inf
ROOT
ATOM      1  C   UNL     1       0.328   5.528  -0.570  1.00  0.00     0.116 C 
ENDROOT
BRANCH   1   2
ATOM      2  N   UNL     1       0.300   4.995   0.767  1.00  0.00    -0.354 N 
ATOM      3  C   UNL     1       0.989   3.925   1.262  1.00  0.00     0.243 C 
ATOM      4  O   UNL     1       1.201   3.908   2.479  1.00  0.00    -0.273 OA
ATOM      5  H   UNL     1      -0.290   5.459   1.404  1.00  0.00     0.163 HD
BRANCH   3   6
ATOM      6  C   UNL     1       1.527   2.778   0.367  1.00  0.00     0.181 C 
BRANCH   6   7
ATOM      7  N   UNL     1       0.521   2.239  -0.542  1.00  0.00    -0.344 N 
ATOM      8  C   UNL     1       1.028  -0.136  -0.058  1.00  0.00     0.114 C 
ATOM      9  C   UNL     1       0.228   0.925  -0.768  1.00  0.00     0.217 C 
ATOM     10  O   UNL     1      -0.672   0.650  -1.557  1.00  0.00    -0.275 OA
ATOM     11  H   UNL     1      -0.005   2.897  -1.050  1.00  0.00     0.164 HD
ENDBRANCH   6   7
BRANCH   6  12
ATOM     12  C   UNL     1       2.925   2.959  -0.259  1.00  0.00     0.105 C 
BRANCH  12  13
ATOM     13  S   UNL     1       3.306   3.981  -1.740  1.00  0.00    -0.145 SA
BRANCH  13  14
ATOM     14  C   UNL     1       2.084   3.461  -3.026  1.00  0.00     0.146 C 
ATOM     15  C   UNL     1       2.114   2.013  -3.454  1.00  0.00     0.125 C 
ATOM     16  C   UNL     1       2.424   4.225  -4.291  1.00  0.00     0.247 C 
ATOM     17  C   UNL     1       2.678   2.033  -4.842  1.00  0.00     0.235 C 
ATOM     18  N   UNL     1       2.900   3.334  -5.217  1.00  0.00    -0.249 N 
ATOM     19  O   UNL     1       2.239   5.430  -4.417  1.00  0.00    -0.273 OA
ATOM     20  O   UNL     1       2.869   1.013  -5.484  1.00  0.00    -0.274 OA
BRANCH  18  21
ATOM     21  C   UNL     1       3.465   3.697  -6.465  1.00  0.00     0.060 A 
ATOM     22  C   UNL     1       2.941   3.102  -7.625  1.00  0.00     0.027 A 
ATOM     23  C   UNL     1       4.600   4.562  -6.553  1.00  0.00     0.006 A 
ATOM     24  C   UNL     1       3.497   3.363  -8.872  1.00  0.00     0.003 A 
ATOM     25  C   UNL     1       5.174   4.783  -7.833  1.00  0.00    -0.016 A 
ATOM     26  C   UNL     1       5.254   5.164  -5.447  1.00  0.00     0.011 A 
ATOM     27  C   UNL     1       4.607   4.193  -8.972  1.00  0.00     0.009 A 
ATOM     28  C   UNL     1       6.334   5.565  -7.966  1.00  0.00     0.009 A 
ATOM     29  C   UNL     1       6.406   5.941  -5.596  1.00  0.00     0.001 A 
ATOM     30  C   UNL     1       6.949   6.138  -6.855  1.00  0.00     0.001 A 
ENDBRANCH  18  21
ENDBRANCH  13  14
ENDBRANCH  12  13
ENDBRANCH   6  12
ENDBRANCH   3   6
ENDBRANCH   1   2
BRANCH   1  31
ATOM     31  C   UNL     1      -1.021   5.569  -1.271  1.00  0.00     0.023 C 
BRANCH  31  32
ATOM     32  C   UNL     1      -1.865   6.796  -0.955  1.00  0.00     0.023 C 
BRANCH  32  33
ATOM     33  C   UNL     1      -1.174   8.141  -1.158  1.00  0.00     0.116 C 
BRANCH  33  34
ATOM     34  N   UNL     1      -0.632   8.348  -2.493  1.00  0.00    -0.352 N 
ATOM     35  C   UNL     1      -0.625   9.505  -3.241  1.00  0.00     0.251 C 
ATOM     36  H   UNL     1      -0.218   7.561  -2.916  1.00  0.00     0.163 HD
ATOM     37  O   UNL     1      -0.206   9.507  -4.393  1.00  0.00    -0.269 OA
BRANCH  35  38
ATOM     38  C   UNL     1      -1.185  10.744  -2.661  1.00  0.00     0.039 A 
ATOM     39  C   UNL     1      -2.110  11.474  -3.410  1.00  0.00     0.014 A 
ATOM     40  C   UNL     1      -0.856  11.142  -1.363  1.00  0.00     0.014 A 
ATOM     41  C   UNL     1      -2.778  12.547  -2.819  1.00  0.00     0.010 A 
ATOM     42  C   UNL     1      -1.587  12.153  -0.747  1.00  0.00     0.010 A 
ATOM     43  C   UNL     1      -2.562  12.859  -1.466  1.00  0.00    -0.014 A 
BRANCH  43  44
ATOM     44  C   UNL     1      -3.378  13.897  -0.788  1.00  0.00     0.031 A 
ATOM     45  C   UNL     1      -2.735  15.134  -0.231  1.00  0.00     0.074 A 
ATOM     46  C   UNL     1      -4.700  13.691  -0.623  1.00  0.00     0.049 A 
ATOM     47  N   UNL     1      -3.289  16.146   0.389  1.00  0.00    -0.248 NA
ATOM     48  C   UNL     1      -1.273  15.237  -0.357  1.00  0.00     0.031 C 
ATOM     49  C   UNL     1      -5.429  12.491  -1.042  1.00  0.00     0.029 A 
ATOM     50  N   UNL     1      -5.668  14.485  -0.060  1.00  0.00    -0.354 N 
ATOM     51  C   UNL     1      -2.246  16.995   0.733  1.00  0.00     0.074 A 
ATOM     52  C   UNL     1      -1.021  16.353   0.310  1.00  0.00     0.031 C 
ATOM     53  C   UNL     1      -6.732  12.645  -0.758  1.00  0.00     0.029 A 
ATOM     54  C   UNL     1      -6.928  13.940  -0.115  1.00  0.00     0.049 A 
ATOM     55  H   UNL     1      -5.477  15.362   0.345  1.00  0.00     0.167 HD
ATOM     56  C   UNL     1      -2.308  18.213   1.321  1.00  0.00     0.037 A 
ATOM     57  C   UNL     1      -8.110  14.436   0.296  1.00  0.00     0.037 A 
ATOM     58  C   UNL     1      -3.530  18.863   1.712  1.00  0.00     0.049 A 
ATOM     59  C   UNL     1      -8.155  15.807   0.912  1.00  0.00     0.074 A 
ATOM     60  C   UNL     1      -3.705  20.130   2.241  1.00  0.00     0.029 A 
ATOM     61  N   UNL     1      -4.792  18.293   1.615  1.00  0.00    -0.354 N 
ATOM     62  N   UNL     1      -7.172  16.641   1.146  1.00  0.00    -0.248 NA
ATOM     63  C   UNL     1      -9.477  16.309   1.310  1.00  0.00     0.031 C 
ATOM     64  C   UNL     1      -5.068  20.311   2.502  1.00  0.00     0.029 A 
ATOM     65  C   UNL     1      -5.747  19.175   2.095  1.00  0.00     0.049 A 
ATOM     66  H   UNL     1      -4.980  17.395   1.258  1.00  0.00     0.167 HD
ATOM     67  C   UNL     1      -7.755  17.772   1.699  1.00  0.00     0.074 A 
ATOM     68  C   UNL     1      -9.182  17.526   1.743  1.00  0.00     0.031 C 
ATOM     69  C   UNL     1      -7.162  18.911   2.136  1.00  0.00     0.037 A 
BRANCH  56  70
ATOM     70  C   UNL     1      -1.011  18.930   1.562  1.00  0.00     0.064 A 
ATOM     71  C   UNL     1      -0.254  19.453   0.502  1.00  0.00     0.173 A 
ATOM     72  C   UNL     1      -0.536  19.126   2.867  1.00  0.00     0.173 A 
ATOM     73  F   UNL     1      -0.659  19.281  -0.766  1.00  0.00    -0.203 F 
ATOM     74  C   UNL     1       0.946  20.119   0.738  1.00  0.00     0.198 A 
ATOM     75  C   UNL     1       0.650  19.818   3.101  1.00  0.00     0.198 A 
ATOM     76  F   UNL     1      -1.223  18.651   3.916  1.00  0.00    -0.203 F 
ATOM     77  F   UNL     1       1.676  20.565  -0.293  1.00  0.00    -0.200 F 
ATOM     78  C   UNL     1       1.393  20.307   2.037  1.00  0.00     0.200 A 
ATOM     79  F   UNL     1       1.076  20.009   4.357  1.00  0.00    -0.200 F 
ATOM     80  F   UNL     1       2.545  20.953   2.263  1.00  0.00    -0.200 F 
ENDBRANCH  56  70
BRANCH  57  81
ATOM     81  C   UNL     1      -9.354  13.649   0.096  1.00  0.00     0.064 A 
ATOM     82  C   UNL     1     -10.309  14.045  -0.851  1.00  0.00     0.173 A 
ATOM     83  C   UNL     1      -9.615  12.491   0.841  1.00  0.00     0.173 A 
ATOM     84  F   UNL     1     -10.112  15.158  -1.575  1.00  0.00    -0.203 F 
ATOM     85  C   UNL     1     -11.487  13.324  -1.031  1.00  0.00     0.198 A 
ATOM     86  C   UNL     1     -10.782  11.756   0.642  1.00  0.00     0.198 A 
ATOM     87  F   UNL     1      -8.730  12.067   1.755  1.00  0.00    -0.203 F 
ATOM     88  F   UNL     1     -12.402  13.749  -1.913  1.00  0.00    -0.200 F 
ATOM     89  C   UNL     1     -11.720  12.177  -0.288  1.00  0.00     0.200 A 
ATOM     90  F   UNL     1     -10.998  10.640   1.352  1.00  0.00    -0.200 F 
ATOM     91  F   UNL     1     -12.852  11.481  -0.464  1.00  0.00    -0.200 F 
ENDBRANCH  57  81
BRANCH  69  92
ATOM     92  C   UNL     1      -8.061  19.978   2.688  1.00  0.00     0.064 A 
ATOM     93  C   UNL     1      -8.695  19.831   3.931  1.00  0.00     0.173 A 
ATOM     94  C   UNL     1      -8.276  21.167   1.976  1.00  0.00     0.173 A 
ATOM     95  F   UNL     1      -8.533  18.705   4.642  1.00  0.00    -0.203 F 
ATOM     96  C   UNL     1      -9.534  20.825   4.427  1.00  0.00     0.198 A 
ATOM     97  C   UNL     1      -9.093  22.171   2.488  1.00  0.00     0.198 A 
ATOM     98  F   UNL     1      -7.688  21.358   0.785  1.00  0.00    -0.203 F 
ATOM     99  F   UNL     1     -10.171  20.641   5.592  1.00  0.00    -0.200 F 
ATOM    100  C   UNL     1      -9.728  21.995   3.708  1.00  0.00     0.200 A 
ATOM    101  F   UNL     1      -9.270  23.306   1.799  1.00  0.00    -0.200 F 
ATOM    102  F   UNL     1     -10.536  22.951   4.188  1.00  0.00    -0.200 F 
ENDBRANCH  69  92
ENDBRANCH  43  44
ENDBRANCH  35  38
ENDBRANCH  33  34
ENDBRANCH  32  33
ENDBRANCH  31  32
ENDBRANCH   1  31
TORSDOF 16
