REMARK SMILES C[C@H]1CS(=O)(=O)N(c2cccc(C(=O)Nc3ccc(O)c(C(=O)NCCCCNC(=O)c4ccc(-c5c6nc(c(-c7c(F)c(F)c(F)c(F)c7F)c7ccc([nH]7)c(-c7c(F)c(F)c(F)c(F)c7F)c7nc(c(-c8c(F)c(F)c(F)c(F)c8F)c8ccc5[nH]8)C=C7)C=C6)cc4)c3)c2)C1=O
REMARK SMILES IDX 26 1 25 2 24 3 22 4 23 5 21 7 16 8 17 9 95 10 18 11 19 12
REMARK SMILES IDX 15 13 13 14 14 15 12 17 8 18 9 19 96 20 10 21 11 22 7 23
REMARK SMILES IDX 1 24 2 25 3 26 97 27 4 28 98 29 5 30 6 31 20 32 27 34 28 35
REMARK SMILES IDX 29 36 30 37 31 39 32 40 33 41 94 42 34 43 93 44 35 45 36 46
REMARK SMILES IDX 37 47 87 48 38 49 92 50 86 51 88 52 39 53 91 54 85 55 84 56
REMARK SMILES IDX 40 58 72 59 52 60 71 61 53 62 56 63 70 64 89 65 54 66 55 67
REMARK SMILES IDX 69 69 90 70 57 71 41 72 42 73 50 74 43 75 44 76 48 77 51 78
REMARK SMILES IDX 45 79 46 80 49 81 47 82 73 83 74 84 82 85 75 86 76 87 80 88
REMARK SMILES IDX 83 89 77 90 78 91 81 92 79 93 58 94 59 95 67 96 60 97 61 98
REMARK SMILES IDX 65 99 68 100 62 101 63 102 66 103 64 104
REMARK H PARENT 24 6 15 16 20 33 29 38 88 57 56 68
REMARK Flexibility Score: inf
ROOT
ATOM      1  C   UNL     1      -4.066  -3.327   1.226  1.00  0.00     0.023 C 
ENDROOT
BRANCH   1   2
ATOM      2  C   UNL     1      -2.682  -3.244   1.847  1.00  0.00     0.116 C 
BRANCH   2   3
ATOM      3  N   UNL     1      -2.259  -1.854   1.982  1.00  0.00    -0.352 N 
ATOM      4  C   UNL     1      -1.929  -1.009   3.013  1.00  0.00     0.255 C 
ATOM      5  O   UNL     1      -1.540   0.121   2.700  1.00  0.00    -0.269 OA
ATOM      6  H   UNL     1      -2.195  -1.405   1.108  1.00  0.00     0.163 HD
BRANCH   4   7
ATOM      7  C   UNL     1      -1.881  -1.377   4.452  1.00  0.00     0.083 A 
ATOM      8  C   UNL     1      -1.929  -3.105   6.122  1.00  0.00     0.042 A 
ATOM      9  C   UNL     1      -1.313  -2.284   7.057  1.00  0.00     0.030 A 
ATOM     10  C   UNL     1      -2.387  -2.578   4.921  1.00  0.00     0.043 A 
ATOM     11  C   UNL     1      -0.950  -0.994   6.676  1.00  0.00     0.049 A 
ATOM     12  C   UNL     1      -1.173  -0.571   5.363  1.00  0.00     0.128 A 
BRANCH   8  13
ATOM     13  N   UNL     1      -1.984  -4.481   6.341  1.00  0.00    -0.322 N 
ATOM     14  C   UNL     1      -1.718  -5.523   5.465  1.00  0.00     0.255 C 
ATOM     15  O   UNL     1      -2.136  -6.641   5.779  1.00  0.00    -0.269 OA
ATOM     16  H   UNL     1      -2.250  -4.752   7.250  1.00  0.00     0.170 HD
BRANCH  14  17
ATOM     17  C   UNL     1      -0.881  -5.403   4.203  1.00  0.00     0.042 A 
ATOM     18  C   UNL     1       0.593  -4.261   2.587  1.00  0.00     0.061 A 
ATOM     19  C   UNL     1       0.557  -5.393   1.768  1.00  0.00     0.027 A 
ATOM     20  C   UNL     1      -0.063  -4.313   3.837  1.00  0.00     0.041 A 
ATOM     21  C   UNL     1      -0.172  -6.519   2.147  1.00  0.00     0.003 A 
ATOM     22  C   UNL     1      -0.905  -6.510   3.337  1.00  0.00     0.014 A 
BRANCH  18  23
ATOM     23  N   UNL     1       1.166  -3.051   2.065  1.00  0.00    -0.207 N 
ATOM     24  C   UNL     1       0.415  -0.171  -0.088  1.00  0.00     0.019 C 
ATOM     25  C   UNL     1       1.386  -1.147   0.568  1.00  0.00     0.094 C 
ATOM     26  C   UNL     1       1.902  -0.637   1.912  1.00  0.00     0.173 C 
ATOM     27  C   UNL     1       0.745  -2.504   0.826  1.00  0.00     0.244 C 
ATOM     28  S   UNL     1       2.235  -2.076   2.908  1.00  0.00     0.242 S 
ATOM     29  O   UNL     1      -0.002  -3.047   0.021  1.00  0.00    -0.273 OA
ATOM     30  O   UNL     1       3.576  -2.530   2.634  1.00  0.00    -0.206 OA
ATOM     31  O   UNL     1       1.757  -1.830   4.250  1.00  0.00    -0.206 OA
ENDBRANCH  18  23
ENDBRANCH  14  17
ENDBRANCH   8  13
BRANCH  12  32
ATOM     32  O   UNL     1      -0.628   0.642   5.031  1.00  0.00    -0.507 OA
ATOM     33  H   UNL     1      -0.166   1.140   5.676  1.00  0.00     0.293 HD
ENDBRANCH  12  32
ENDBRANCH   4   7
ENDBRANCH   2   3
ENDBRANCH   1   2
BRANCH   1  34
ATOM     34  C   UNL     1      -4.027  -3.190  -0.296  1.00  0.00     0.023 C 
BRANCH  34  35
ATOM     35  C   UNL     1      -3.232  -4.275  -1.019  1.00  0.00     0.116 C 
BRANCH  35  36
ATOM     36  N   UNL     1      -3.666  -5.625  -0.686  1.00  0.00    -0.352 N 
ATOM     37  C   UNL     1      -4.044  -6.645  -1.523  1.00  0.00     0.251 C 
ATOM     38  H   UNL     1      -3.692  -5.835   0.276  1.00  0.00     0.163 HD
ATOM     39  O   UNL     1      -4.509  -7.686  -1.073  1.00  0.00    -0.269 OA
BRANCH  37  40
ATOM     40  C   UNL     1      -3.912  -6.462  -2.981  1.00  0.00     0.039 A 
ATOM     41  C   UNL     1      -5.010  -6.735  -3.799  1.00  0.00     0.014 A 
ATOM     42  C   UNL     1      -2.721  -5.977  -3.527  1.00  0.00     0.014 A 
ATOM     43  C   UNL     1      -4.939  -6.444  -5.162  1.00  0.00     0.010 A 
ATOM     44  C   UNL     1      -2.682  -5.612  -4.868  1.00  0.00     0.010 A 
ATOM     45  C   UNL     1      -3.792  -5.837  -5.698  1.00  0.00    -0.014 A 
BRANCH  45  46
ATOM     46  C   UNL     1      -3.730  -5.418  -7.121  1.00  0.00     0.031 A 
ATOM     47  C   UNL     1      -2.716  -6.035  -8.041  1.00  0.00     0.074 A 
ATOM     48  C   UNL     1      -4.534  -4.431  -7.562  1.00  0.00     0.049 A 
ATOM     49  N   UNL     1      -2.436  -5.737  -9.285  1.00  0.00    -0.248 NA
ATOM     50  C   UNL     1      -1.885  -7.113  -7.481  1.00  0.00     0.031 C 
ATOM     51  C   UNL     1      -5.533  -3.728  -6.756  1.00  0.00     0.029 A 
ATOM     52  N   UNL     1      -4.626  -3.835  -8.796  1.00  0.00    -0.354 N 
ATOM     53  C   UNL     1      -1.393  -6.578  -9.648  1.00  0.00     0.074 A 
ATOM     54  C   UNL     1      -1.050  -7.358  -8.479  1.00  0.00     0.031 C 
ATOM     55  C   UNL     1      -6.151  -2.813  -7.519  1.00  0.00     0.029 A 
ATOM     56  C   UNL     1      -5.559  -2.828  -8.854  1.00  0.00     0.049 A 
ATOM     57  H   UNL     1      -4.076  -4.105  -9.567  1.00  0.00     0.167 HD
ATOM     58  C   UNL     1      -0.792  -6.705 -10.855  1.00  0.00     0.037 A 
ATOM     59  C   UNL     1      -5.888  -1.999  -9.863  1.00  0.00     0.037 A 
ATOM     60  C   UNL     1      -1.149  -5.937 -12.019  1.00  0.00     0.049 A 
ATOM     61  C   UNL     1      -5.178  -2.135 -11.184  1.00  0.00     0.074 A 
ATOM     62  C   UNL     1      -0.636  -6.026 -13.301  1.00  0.00     0.029 A 
ATOM     63  N   UNL     1      -2.104  -4.930 -12.039  1.00  0.00    -0.354 N 
ATOM     64  N   UNL     1      -4.239  -2.979 -11.537  1.00  0.00    -0.248 NA
ATOM     65  C   UNL     1      -5.577  -1.206 -12.251  1.00  0.00     0.031 C 
ATOM     66  C   UNL     1      -1.234  -5.032 -14.081  1.00  0.00     0.029 A 
ATOM     67  C   UNL     1      -2.173  -4.371 -13.305  1.00  0.00     0.049 A 
ATOM     68  H   UNL     1      -2.652  -4.655 -11.269  1.00  0.00     0.167 HD
ATOM     69  C   UNL     1      -3.962  -2.709 -12.870  1.00  0.00     0.074 A 
ATOM     70  C   UNL     1      -4.838  -1.627 -13.268  1.00  0.00     0.031 C 
ATOM     71  C   UNL     1      -3.063  -3.306 -13.692  1.00  0.00     0.037 A 
BRANCH  58  72
ATOM     72  C   UNL     1       0.317  -7.710 -10.979  1.00  0.00     0.064 A 
ATOM     73  C   UNL     1       0.076  -9.091 -10.899  1.00  0.00     0.173 A 
ATOM     74  C   UNL     1       1.634  -7.289 -11.220  1.00  0.00     0.173 A 
ATOM     75  F   UNL     1      -1.163  -9.547 -10.661  1.00  0.00    -0.203 F 
ATOM     76  C   UNL     1       1.115 -10.009 -11.023  1.00  0.00     0.198 A 
ATOM     77  C   UNL     1       2.665  -8.212 -11.379  1.00  0.00     0.198 A 
ATOM     78  F   UNL     1       1.921  -5.982 -11.313  1.00  0.00    -0.203 F 
ATOM     79  F   UNL     1       0.869 -11.319 -10.887  1.00  0.00    -0.200 F 
ATOM     80  C   UNL     1       2.407  -9.570 -11.271  1.00  0.00     0.200 A 
ATOM     81  F   UNL     1       3.909  -7.786 -11.636  1.00  0.00    -0.200 F 
ATOM     82  F   UNL     1       3.404 -10.455 -11.399  1.00  0.00    -0.200 F 
ENDBRANCH  58  72
BRANCH  59  83
ATOM     83  C   UNL     1      -6.946  -0.971  -9.670  1.00  0.00     0.064 A 
ATOM     84  C   UNL     1      -8.164  -1.052 -10.360  1.00  0.00     0.173 A 
ATOM     85  C   UNL     1      -6.759   0.118  -8.806  1.00  0.00     0.173 A 
ATOM     86  F   UNL     1      -8.384  -2.063 -11.213  1.00  0.00    -0.203 F 
ATOM     87  C   UNL     1      -9.143  -0.071 -10.213  1.00  0.00     0.198 A 
ATOM     88  C   UNL     1      -7.752   1.081  -8.634  1.00  0.00     0.198 A 
ATOM     89  F   UNL     1      -5.615   0.242  -8.117  1.00  0.00    -0.203 F 
ATOM     90  F   UNL     1     -10.275  -0.146 -10.926  1.00  0.00    -0.200 F 
ATOM     91  C   UNL     1      -8.939   0.992  -9.346  1.00  0.00     0.200 A 
ATOM     92  F   UNL     1      -7.557   2.097  -7.782  1.00  0.00    -0.200 F 
ATOM     93  F   UNL     1      -9.881   1.933  -9.203  1.00  0.00    -0.200 F 
ENDBRANCH  59  83
BRANCH  71  94
ATOM     94  C   UNL     1      -3.013  -2.845 -15.121  1.00  0.00     0.064 A 
ATOM     95  C   UNL     1      -2.493  -1.594 -15.479  1.00  0.00     0.173 A 
ATOM     96  C   UNL     1      -3.433  -3.701 -16.152  1.00  0.00     0.173 A 
ATOM     97  F   UNL     1      -2.091  -0.733 -14.532  1.00  0.00    -0.203 F 
ATOM     98  C   UNL     1      -2.412  -1.208 -16.815  1.00  0.00     0.198 A 
ATOM     99  C   UNL     1      -3.320  -3.326 -17.487  1.00  0.00     0.198 A 
ATOM    100  F   UNL     1      -3.933  -4.912 -15.864  1.00  0.00    -0.203 F 
ATOM    101  F   UNL     1      -1.951   0.010 -17.132  1.00  0.00    -0.200 F 
ATOM    102  C   UNL     1      -2.815  -2.078 -17.817  1.00  0.00     0.200 A 
ATOM    103  F   UNL     1      -3.692  -4.176 -18.454  1.00  0.00    -0.200 F 
ATOM    104  F   UNL     1      -2.720  -1.712 -19.103  1.00  0.00    -0.200 F 
ENDBRANCH  71  94
ENDBRANCH  45  46
ENDBRANCH  37  40
ENDBRANCH  35  36
ENDBRANCH  34  35
ENDBRANCH   1  34
TORSDOF 15
