REMARK SMILES CCC(CC)([NH2+]Cc1cc(C(N)=O)ccc1F)C(=O)NCCCCNC(=O)c1ccc(-c2c3nc(c(-c4c(F)c(F)c(F)c(F)c4F)c4ccc([nH]4)c(-c4c(F)c(F)c(F)c(F)c4F)c4nc(c(-c5c(F)c(F)c(F)c(F)c5F)c5ccc2[nH]5)C=C4)C=C3)cc1
REMARK SMILES IDX 21 1 20 2 18 3 19 4 3 6 2 7 1 8 4 9 5 10 6 11 7 14 8 15 9 16
REMARK SMILES IDX 16 17 10 18 15 19 17 20 14 21 11 22 12 23 13 24 22 27 23 28
REMARK SMILES IDX 24 29 25 30 26 31 27 33 28 34 29 35 90 36 30 37 89 38 31 39
REMARK SMILES IDX 32 40 33 41 83 42 34 43 88 44 82 45 84 46 35 47 87 48 81 49
REMARK SMILES IDX 80 50 36 52 68 53 48 54 67 55 49 56 52 57 66 58 85 59 50 60
REMARK SMILES IDX 51 61 65 63 86 64 53 65 37 66 38 67 46 68 39 69 40 70 44 71
REMARK SMILES IDX 47 72 41 73 42 74 45 75 43 76 69 77 70 78 78 79 71 80 72 81
REMARK SMILES IDX 76 82 79 83 73 84 74 85 77 86 75 87 54 88 55 89 63 90 56 91
REMARK SMILES IDX 57 92 61 93 64 94 58 95 59 96 62 97 60 98
REMARK H PARENT 20 5 6 12 6 13 12 25 12 26 25 32 84 51 52 62
REMARK Flexibility Score: inf
ROOT
ATOM      1  C   UNL     1       3.305  -4.153   1.817  1.00  0.00     0.116 C 
ENDROOT
BRANCH   1   2
ATOM      2  N   UNL     1       3.338  -3.199   0.743  1.00  0.00    -0.351 N 
ATOM      3  C   UNL     1       2.438  -2.402   0.124  1.00  0.00     0.281 C 
ATOM      4  O   UNL     1       3.004  -1.695  -0.731  1.00  0.00    -0.268 OA
ATOM      5  H   UNL     1       4.241  -3.101   0.363  1.00  0.00     0.163 HD
BRANCH   3   6
ATOM      6  C   UNL     1       0.869  -2.239   0.387  1.00  0.00     0.175 C 
BRANCH   6   7
ATOM      7  C   UNL     1       0.353  -1.507  -0.944  1.00  0.00     0.076 C 
ATOM      8  C   UNL     1       0.656  -0.001  -1.064  1.00  0.00     0.011 C 
ENDBRANCH   6   7
BRANCH   6   9
ATOM      9  C   UNL     1       0.494  -1.290   1.550  1.00  0.00     0.076 C 
ATOM     10  C   UNL     1      -1.009  -1.223   1.855  1.00  0.00     0.011 C 
ENDBRANCH   6   9
BRANCH   6  11
ATOM     11  N   UNL     1       0.097  -3.513   0.390  1.00  0.00    -0.330 N 
ATOM     12  H   UNL     1       0.252  -3.899  -0.542  1.00  0.00     0.347 HD
ATOM     13  H   UNL     1      -0.776  -3.137   0.759  1.00  0.00     0.347 HD
BRANCH  11  14
ATOM     14  C   UNL     1       0.192  -4.669   1.271  1.00  0.00     0.301 C 
BRANCH  14  15
ATOM     15  C   UNL     1      -0.183  -4.717   2.753  1.00  0.00     0.043 A 
ATOM     16  C   UNL     1      -0.841  -5.878   3.227  1.00  0.00     0.026 A 
ATOM     17  C   UNL     1       0.243  -3.847   3.767  1.00  0.00     0.132 A 
ATOM     18  C   UNL     1      -1.116  -6.070   4.599  1.00  0.00     0.040 A 
ATOM     19  C   UNL     1      -0.151  -3.952   5.101  1.00  0.00     0.040 A 
ATOM     20  F   UNL     1       1.214  -2.960   3.570  1.00  0.00    -0.206 F 
ATOM     21  C   UNL     1      -0.851  -5.063   5.522  1.00  0.00     0.017 A 
BRANCH  18  22
ATOM     22  C   UNL     1      -1.561  -7.371   5.152  1.00  0.00     0.248 C 
ATOM     23  N   UNL     1      -1.045  -8.491   4.565  1.00  0.00    -0.366 N 
ATOM     24  O   UNL     1      -2.268  -7.437   6.149  1.00  0.00    -0.270 OA
ATOM     25  H   UNL     1      -0.480  -8.410   3.763  1.00  0.00     0.159 HD
ATOM     26  H   UNL     1      -1.238  -9.378   4.944  1.00  0.00     0.159 HD
ENDBRANCH  18  22
ENDBRANCH  14  15
ENDBRANCH  11  14
ENDBRANCH   6  11
ENDBRANCH   3   6
ENDBRANCH   1   2
BRANCH   1  27
ATOM     27  C   UNL     1       3.479  -5.597   1.332  1.00  0.00     0.023 C 
BRANCH  27  28
ATOM     28  C   UNL     1       4.872  -6.174   1.529  1.00  0.00     0.023 C 
BRANCH  28  29
ATOM     29  C   UNL     1       5.325  -6.236   2.981  1.00  0.00     0.116 C 
BRANCH  29  30
ATOM     30  N   UNL     1       4.481  -7.055   3.843  1.00  0.00    -0.352 N 
ATOM     31  C   UNL     1       4.880  -7.886   4.867  1.00  0.00     0.251 C 
ATOM     32  H   UNL     1       3.512  -7.008   3.674  1.00  0.00     0.163 HD
ATOM     33  O   UNL     1       4.074  -8.587   5.466  1.00  0.00    -0.269 OA
BRANCH  31  34
ATOM     34  C   UNL     1       6.321  -7.952   5.186  1.00  0.00     0.039 A 
ATOM     35  C   UNL     1       6.966  -9.189   5.162  1.00  0.00     0.014 A 
ATOM     36  C   UNL     1       7.047  -6.771   5.362  1.00  0.00     0.014 A 
ATOM     37  C   UNL     1       8.360  -9.232   5.214  1.00  0.00     0.010 A 
ATOM     38  C   UNL     1       8.434  -6.811   5.311  1.00  0.00     0.010 A 
ATOM     39  C   UNL     1       9.106  -8.040   5.230  1.00  0.00    -0.014 A 
BRANCH  39  40
ATOM     40  C   UNL     1      10.589  -8.052   5.154  1.00  0.00     0.031 A 
ATOM     41  C   UNL     1      11.399  -7.468   6.276  1.00  0.00     0.074 A 
ATOM     42  C   UNL     1      11.202  -8.515   4.047  1.00  0.00     0.049 A 
ATOM     43  N   UNL     1      12.695  -7.310   6.365  1.00  0.00    -0.248 NA
ATOM     44  C   UNL     1      10.653  -6.962   7.440  1.00  0.00     0.031 C 
ATOM     45  C   UNL     1      10.525  -9.051   2.865  1.00  0.00     0.029 A 
ATOM     46  N   UNL     1      12.536  -8.604   3.731  1.00  0.00    -0.354 N 
ATOM     47  C   UNL     1      12.913  -6.674   7.580  1.00  0.00     0.074 A 
ATOM     48  C   UNL     1      11.617  -6.416   8.165  1.00  0.00     0.031 C 
ATOM     49  C   UNL     1      11.445  -9.450   1.972  1.00  0.00     0.029 A 
ATOM     50  C   UNL     1      12.776  -9.161   2.498  1.00  0.00     0.049 A 
ATOM     51  H   UNL     1      13.253  -8.298   4.333  1.00  0.00     0.167 HD
ATOM     52  C   UNL     1      14.090  -6.365   8.170  1.00  0.00     0.037 A 
ATOM     53  C   UNL     1      13.939  -9.411   1.864  1.00  0.00     0.037 A 
ATOM     54  C   UNL     1      15.378  -6.662   7.604  1.00  0.00     0.049 A 
ATOM     55  C   UNL     1      15.236  -9.062   2.543  1.00  0.00     0.074 A 
ATOM     56  C   UNL     1      16.629  -6.450   8.156  1.00  0.00     0.029 A 
ATOM     57  N   UNL     1      15.580  -7.238   6.359  1.00  0.00    -0.354 N 
ATOM     58  N   UNL     1      15.431  -8.519   3.720  1.00  0.00    -0.248 NA
ATOM     59  C   UNL     1      16.473  -9.361   1.808  1.00  0.00     0.031 C 
ATOM     60  C   UNL     1      17.589  -6.856   7.226  1.00  0.00     0.029 A 
ATOM     61  C   UNL     1      16.937  -7.370   6.116  1.00  0.00     0.049 A 
ATOM     62  H   UNL     1      14.865  -7.512   5.740  1.00  0.00     0.167 HD
ATOM     63  C   UNL     1      16.807  -8.433   3.878  1.00  0.00     0.074 A 
ATOM     64  C   UNL     1      17.401  -8.991   2.681  1.00  0.00     0.031 C 
ATOM     65  C   UNL     1      17.513  -7.936   4.923  1.00  0.00     0.037 A 
BRANCH  52  66
ATOM     66  C   UNL     1      14.044  -5.691   9.510  1.00  0.00     0.064 A 
ATOM     67  C   UNL     1      14.482  -4.366   9.657  1.00  0.00     0.173 A 
ATOM     68  C   UNL     1      13.618  -6.373  10.660  1.00  0.00     0.173 A 
ATOM     69  F   UNL     1      14.902  -3.670   8.590  1.00  0.00    -0.203 F 
ATOM     70  C   UNL     1      14.505  -3.755  10.907  1.00  0.00     0.198 A 
ATOM     71  C   UNL     1      13.613  -5.748  11.903  1.00  0.00     0.198 A 
ATOM     72  F   UNL     1      13.177  -7.637  10.570  1.00  0.00    -0.203 F 
ATOM     73  F   UNL     1      14.956  -2.498  11.029  1.00  0.00    -0.200 F 
ATOM     74  C   UNL     1      14.066  -4.444  12.028  1.00  0.00     0.200 A 
ATOM     75  F   UNL     1      13.162  -6.407  12.980  1.00  0.00    -0.200 F 
ATOM     76  F   UNL     1      14.075  -3.849  13.229  1.00  0.00    -0.200 F 
ENDBRANCH  52  66
BRANCH  53  77
ATOM     77  C   UNL     1      13.923 -10.069   0.531  1.00  0.00     0.064 A 
ATOM     78  C   UNL     1      13.456  -9.404  -0.612  1.00  0.00     0.173 A 
ATOM     79  C   UNL     1      14.346 -11.398   0.385  1.00  0.00     0.173 A 
ATOM     80  F   UNL     1      13.035  -8.134  -0.524  1.00  0.00    -0.203 F 
ATOM     81  C   UNL     1      13.395 -10.050  -1.845  1.00  0.00     0.198 A 
ATOM     82  C   UNL     1      14.308 -12.034  -0.854  1.00  0.00     0.198 A 
ATOM     83  F   UNL     1      14.819 -12.069   1.445  1.00  0.00    -0.203 F 
ATOM     84  F   UNL     1      12.911  -9.402  -2.914  1.00  0.00    -0.200 F 
ATOM     85  C   UNL     1      13.824 -11.363  -1.966  1.00  0.00     0.200 A 
ATOM     86  F   UNL     1      14.744 -13.296  -0.970  1.00  0.00    -0.200 F 
ATOM     87  F   UNL     1      13.772 -11.980  -3.154  1.00  0.00    -0.200 F 
ENDBRANCH  53  77
BRANCH  65  88
ATOM     88  C   UNL     1      19.010  -7.986   4.843  1.00  0.00     0.064 A 
ATOM     89  C   UNL     1      19.736  -8.843   5.684  1.00  0.00     0.173 A 
ATOM     90  C   UNL     1      19.728  -7.119   4.007  1.00  0.00     0.173 A 
ATOM     91  F   UNL     1      19.095  -9.684   6.509  1.00  0.00    -0.203 F 
ATOM     92  C   UNL     1      21.127  -8.815   5.706  1.00  0.00     0.198 A 
ATOM     93  C   UNL     1      21.120  -7.114   4.011  1.00  0.00     0.198 A 
ATOM     94  F   UNL     1      19.079  -6.289   3.177  1.00  0.00    -0.203 F 
ATOM     95  F   UNL     1      21.799  -9.612   6.548  1.00  0.00    -0.200 F 
ATOM     96  C   UNL     1      21.818  -7.953   4.868  1.00  0.00     0.200 A 
ATOM     97  F   UNL     1      21.788  -6.296   3.185  1.00  0.00    -0.200 F 
ATOM     98  F   UNL     1      23.158  -7.929   4.887  1.00  0.00    -0.200 F 
ENDBRANCH  65  88
ENDBRANCH  39  40
ENDBRANCH  31  34
ENDBRANCH  29  30
ENDBRANCH  28  29
ENDBRANCH  27  28
ENDBRANCH   1  27
TORSDOF 17
