REMARK SMILES C=CCN(CC(=O)NCCCCNC(=O)c1ccc(-c2c3nc(c(-c4c(F)c(F)c(F)c(F)c4F)c4ccc([nH]4)c(-c4c(F)c(F)c(F)c(F)c4F)c4nc(c(-c5c(F)c(F)c(F)c(F)c5F)c5ccc2[nH]5)C=C4)C=C3)cc1)C(=O)NC1CC[NH+](CCC)CC1
REMARK SMILES IDX 9 1 8 2 6 3 7 4 5 6 4 7 3 8 2 9 1 10 79 11 80 12 81 13 82 15
REMARK SMILES IDX 83 16 90 17 84 18 89 19 85 20 86 22 87 23 88 24 10 25 11 26
REMARK SMILES IDX 12 27 13 28 14 29 15 31 16 32 17 33 78 34 18 35 77 36 19 37
REMARK SMILES IDX 20 38 21 39 71 40 22 41 76 42 70 43 72 44 23 45 75 46 69 47
REMARK SMILES IDX 68 48 24 50 56 51 36 52 55 53 37 54 40 55 54 56 73 57 38 58
REMARK SMILES IDX 39 59 53 61 74 62 41 63 25 64 26 65 34 66 27 67 28 68 32 69
REMARK SMILES IDX 35 70 29 71 30 72 33 73 31 74 57 75 58 76 66 77 59 78 60 79
REMARK SMILES IDX 64 80 67 81 61 82 62 83 65 84 63 85 42 86 43 87 51 88 44 89
REMARK SMILES IDX 45 90 49 91 52 92 46 93 47 94 50 95 48 96
REMARK H PARENT 8 5 81 14 85 21 13 30 72 49 40 60
REMARK Flexibility Score: inf
ROOT
ATOM      1  C   UNL     1      -6.088   0.138   1.555  1.00  0.00     0.116 C 
ENDROOT
BRANCH   1   2
ATOM      2  N   UNL     1      -5.429   0.184   2.893  1.00  0.00    -0.355 N 
ATOM      3  C   UNL     1      -4.240   0.495   3.584  1.00  0.00     0.239 C 
ATOM      4  O   UNL     1      -4.781   0.375   4.742  1.00  0.00    -0.273 OA
ATOM      5  H   UNL     1      -6.086  -0.126   3.558  1.00  0.00     0.163 HD
BRANCH   3   6
ATOM      6  C   UNL     1      -2.221   0.925   3.198  1.00  0.00     0.221 C 
BRANCH   6   7
ATOM      7  N   UNL     1      -0.831   0.274   3.261  1.00  0.00    -0.312 N 
BRANCH   7   8
ATOM      8  C   UNL     1      -0.021   0.464   2.032  1.00  0.00     0.149 C 
BRANCH   8   9
ATOM      9  C   UNL     1       1.435   0.197   1.996  1.00  0.00    -0.013 C 
ATOM     10  C   UNL     1       2.030  -0.258   0.881  1.00  0.00     0.006 C 
ENDBRANCH   8   9
ENDBRANCH   7   8
BRANCH   7  11
ATOM     11  C   UNL     1      -0.306   0.111   4.529  1.00  0.00     0.318 C 
ATOM     12  O   UNL     1       0.821  -0.279   4.802  1.00  0.00    -0.249 OA
ATOM     13  N   UNL     1      -1.215   0.407   5.524  1.00  0.00    -0.335 N 
ATOM     14  H   UNL     1      -0.894   0.587   6.437  1.00  0.00     0.165 HD
BRANCH  13  15
ATOM     15  C   UNL     1      -2.655   0.456   5.237  1.00  0.00     0.095 C 
ATOM     16  C   UNL     1      -2.871  -1.064   4.093  1.00  0.00     0.086 C 
ATOM     17  C   UNL     1      -3.344   2.185   4.588  1.00  0.00     0.086 C 
ATOM     18  C   UNL     1      -3.043  -0.755   2.227  1.00  0.00     0.264 C 
ATOM     19  C   UNL     1      -3.738   2.338   2.663  1.00  0.00     0.264 C 
ATOM     20  N   UNL     1      -3.578   0.851   1.522  1.00  0.00    -0.335 N 
ATOM     21  H   UNL     1      -4.549   0.597   1.344  1.00  0.00     0.348 HD
BRANCH  20  22
ATOM     22  C   UNL     1      -2.971   1.215   0.219  1.00  0.00     0.261 C 
BRANCH  22  23
ATOM     23  C   UNL     1      -2.774   0.213  -0.947  1.00  0.00     0.058 C 
ATOM     24  C   UNL     1      -2.391  -1.244  -0.722  1.00  0.00     0.010 C 
ENDBRANCH  22  23
ENDBRANCH  20  22
ENDBRANCH  13  15
ENDBRANCH   7  11
ENDBRANCH   6   7
ENDBRANCH   3   6
ENDBRANCH   1   2
BRANCH   1  25
ATOM     25  C   UNL     1      -5.764  -1.119   0.745  1.00  0.00     0.023 C 
BRANCH  25  26
ATOM     26  C   UNL     1      -6.891  -1.916   0.149  1.00  0.00     0.023 C 
BRANCH  26  27
ATOM     27  C   UNL     1      -7.696  -1.190  -0.883  1.00  0.00     0.116 C 
BRANCH  27  28
ATOM     28  N   UNL     1      -7.004  -0.905  -2.137  1.00  0.00    -0.352 N 
ATOM     29  C   UNL     1      -7.552  -1.003  -3.405  1.00  0.00     0.251 C 
ATOM     30  H   UNL     1      -6.064  -0.618  -2.075  1.00  0.00     0.163 HD
ATOM     31  O   UNL     1      -6.912  -0.776  -4.422  1.00  0.00    -0.269 OA
BRANCH  29  32
ATOM     32  C   UNL     1      -8.956  -1.458  -3.468  1.00  0.00     0.039 A 
ATOM     33  C   UNL     1      -9.229  -2.725  -3.988  1.00  0.00     0.014 A 
ATOM     34  C   UNL     1      -9.886  -0.782  -2.678  1.00  0.00     0.014 A 
ATOM     35  C   UNL     1     -10.414  -3.364  -3.619  1.00  0.00     0.010 A 
ATOM     36  C   UNL     1     -10.963  -1.495  -2.176  1.00  0.00     0.010 A 
ATOM     37  C   UNL     1     -11.259  -2.781  -2.660  1.00  0.00    -0.014 A 
BRANCH  37  38
ATOM     38  C   UNL     1     -12.503  -3.446  -2.194  1.00  0.00     0.031 A 
ATOM     39  C   UNL     1     -13.807  -2.705  -2.346  1.00  0.00     0.074 A 
ATOM     40  C   UNL     1     -12.470  -4.652  -1.590  1.00  0.00     0.049 A 
ATOM     41  N   UNL     1     -15.001  -3.022  -1.917  1.00  0.00    -0.248 NA
ATOM     42  C   UNL     1     -13.748  -1.393  -3.017  1.00  0.00     0.031 C 
ATOM     43  C   UNL     1     -11.266  -5.442  -1.316  1.00  0.00     0.029 A 
ATOM     44  N   UNL     1     -13.489  -5.431  -1.096  1.00  0.00    -0.354 N 
ATOM     45  C   UNL     1     -15.808  -1.939  -2.240  1.00  0.00     0.074 A 
ATOM     46  C   UNL     1     -14.955  -0.911  -2.784  1.00  0.00     0.031 C 
ATOM     47  C   UNL     1     -11.621  -6.611  -0.755  1.00  0.00     0.029 A 
ATOM     48  C   UNL     1     -13.071  -6.641  -0.593  1.00  0.00     0.049 A 
ATOM     49  H   UNL     1     -14.432  -5.148  -1.102  1.00  0.00     0.167 HD
ATOM     50  C   UNL     1     -17.153  -1.829  -2.159  1.00  0.00     0.037 A 
ATOM     51  C   UNL     1     -13.788  -7.657  -0.072  1.00  0.00     0.037 A 
ATOM     52  C   UNL     1     -18.004  -2.881  -1.684  1.00  0.00     0.049 A 
ATOM     53  C   UNL     1     -15.289  -7.518   0.000  1.00  0.00     0.074 A 
ATOM     54  C   UNL     1     -19.383  -2.908  -1.605  1.00  0.00     0.029 A 
ATOM     55  N   UNL     1     -17.546  -4.106  -1.220  1.00  0.00    -0.354 N 
ATOM     56  N   UNL     1     -16.049  -6.517  -0.375  1.00  0.00    -0.248 NA
ATOM     57  C   UNL     1     -16.033  -8.656   0.559  1.00  0.00     0.031 C 
ATOM     58  C   UNL     1     -19.759  -4.137  -1.056  1.00  0.00     0.029 A 
ATOM     59  C   UNL     1     -18.617  -4.895  -0.844  1.00  0.00     0.049 A 
ATOM     60  H   UNL     1     -16.600  -4.373  -1.167  1.00  0.00     0.167 HD
ATOM     61  C   UNL     1     -17.357  -6.917  -0.134  1.00  0.00     0.074 A 
ATOM     62  C   UNL     1     -17.288  -8.259   0.405  1.00  0.00     0.031 C 
ATOM     63  C   UNL     1     -18.514  -6.238  -0.336  1.00  0.00     0.037 A 
BRANCH  50  64
ATOM     64  C   UNL     1     -17.768  -0.543  -2.630  1.00  0.00     0.064 A 
ATOM     65  C   UNL     1     -17.728  -0.161  -3.982  1.00  0.00     0.173 A 
ATOM     66  C   UNL     1     -18.394   0.324  -1.724  1.00  0.00     0.173 A 
ATOM     67  F   UNL     1     -17.120  -0.942  -4.888  1.00  0.00    -0.203 F 
ATOM     68  C   UNL     1     -18.252   1.060  -4.399  1.00  0.00     0.198 A 
ATOM     69  C   UNL     1     -18.952   1.526  -2.151  1.00  0.00     0.198 A 
ATOM     70  F   UNL     1     -18.459   0.010  -0.421  1.00  0.00    -0.203 F 
ATOM     71  F   UNL     1     -18.132   1.434  -5.680  1.00  0.00    -0.200 F 
ATOM     72  C   UNL     1     -18.870   1.898  -3.485  1.00  0.00     0.200 A 
ATOM     73  F   UNL     1     -19.559   2.332  -1.269  1.00  0.00    -0.200 F 
ATOM     74  F   UNL     1     -19.377   3.071  -3.888  1.00  0.00    -0.200 F 
ENDBRANCH  50  64
BRANCH  51  75
ATOM     75  C   UNL     1     -13.120  -8.911   0.376  1.00  0.00     0.064 A 
ATOM     76  C   UNL     1     -13.335 -10.122  -0.300  1.00  0.00     0.173 A 
ATOM     77  C   UNL     1     -12.286  -8.940   1.503  1.00  0.00     0.173 A 
ATOM     78  F   UNL     1     -14.140 -10.155  -1.373  1.00  0.00    -0.203 F 
ATOM     79  C   UNL     1     -12.770 -11.314   0.150  1.00  0.00     0.198 A 
ATOM     80  C   UNL     1     -11.696 -10.128   1.935  1.00  0.00     0.198 A 
ATOM     81  F   UNL     1     -12.040  -7.812   2.187  1.00  0.00    -0.203 F 
ATOM     82  F   UNL     1     -13.043 -12.464  -0.482  1.00  0.00    -0.200 F 
ATOM     83  C   UNL     1     -11.948 -11.316   1.266  1.00  0.00     0.200 A 
ATOM     84  F   UNL     1     -10.891 -10.123   3.007  1.00  0.00    -0.200 F 
ATOM     85  F   UNL     1     -11.408 -12.462   1.703  1.00  0.00    -0.200 F 
ENDBRANCH  51  75
BRANCH  63  86
ATOM     86  C   UNL     1     -19.796  -6.952  -0.025  1.00  0.00     0.064 A 
ATOM     87  C   UNL     1     -20.192  -7.216   1.294  1.00  0.00     0.173 A 
ATOM     88  C   UNL     1     -20.666  -7.322  -1.062  1.00  0.00     0.173 A 
ATOM     89  F   UNL     1     -19.389  -6.890   2.318  1.00  0.00    -0.203 F 
ATOM     90  C   UNL     1     -21.402  -7.849   1.562  1.00  0.00     0.198 A 
ATOM     91  C   UNL     1     -21.890  -7.923  -0.788  1.00  0.00     0.198 A 
ATOM     92  F   UNL     1     -20.338  -7.079  -2.340  1.00  0.00    -0.203 F 
ATOM     93  F   UNL     1     -21.739  -8.135   2.826  1.00  0.00    -0.200 F 
ATOM     94  C   UNL     1     -22.253  -8.193   0.522  1.00  0.00     0.200 A 
ATOM     95  F   UNL     1     -22.720  -8.236  -1.793  1.00  0.00    -0.200 F 
ATOM     96  F   UNL     1     -23.424  -8.791   0.783  1.00  0.00    -0.200 F 
ENDBRANCH  63  86
ENDBRANCH  37  38
ENDBRANCH  29  32
ENDBRANCH  27  28
ENDBRANCH  26  27
ENDBRANCH  25  26
ENDBRANCH   1  25
TORSDOF 18
