REMARK SMILES O=C(NCCCCNC(=O)[C@@H](Cc1ccccc1)Nc1ccc(Cl)c(Br)c1)c1ccc(-c2c3nc(c(-c4c(F)c(F)c(F)c(F)c4F)c4ccc([nH]4)c(-c4c(F)c(F)c(F)c(F)c4F)c4nc(c(-c5c(F)c(F)c(F)c(F)c5F)c5ccc2[nH]5)C=C4)C=C3)cc1
REMARK SMILES IDX 5 1 4 2 3 3 1 4 2 5 28 7 29 8 90 9 30 10 89 11 31 12 32 13
REMARK SMILES IDX 33 14 83 15 34 16 88 17 82 18 84 19 35 20 87 21 81 22 80 23
REMARK SMILES IDX 36 25 68 26 48 27 67 28 49 29 52 30 66 31 85 32 50 33 51 34
REMARK SMILES IDX 65 36 86 37 53 38 37 39 38 40 46 41 39 42 40 43 44 44 47 45
REMARK SMILES IDX 41 46 42 47 45 48 43 49 69 50 70 51 78 52 71 53 72 54 76 55
REMARK SMILES IDX 79 56 73 57 74 58 77 59 75 60 54 61 55 62 63 63 56 64 57 65
REMARK SMILES IDX 61 66 64 67 58 68 59 69 62 70 60 71 6 72 7 73 8 74 9 75
REMARK SMILES IDX 10 77 11 78 12 79 13 80 14 81 18 82 15 83 17 84 16 85 19 86
REMARK SMILES IDX 20 88 21 89 27 90 22 91 25 92 23 93 26 94 24 95
REMARK H PARENT 3 6 84 24 52 35 8 76 19 87
REMARK Flexibility Score: inf
ROOT
ATOM      1  C   UNL     1       5.567  -0.125   1.945  1.00  0.00     0.023 C 
ENDROOT
BRANCH   1   2
ATOM      2  C   UNL     1       4.907  -0.430   0.610  1.00  0.00     0.116 C 
BRANCH   2   3
ATOM      3  N   UNL     1       3.454  -0.547   0.681  1.00  0.00    -0.352 N 
ATOM      4  O   UNL     1       1.305  -0.095   0.127  1.00  0.00    -0.269 OA
ATOM      5  C   UNL     1       2.500   0.031  -0.121  1.00  0.00     0.251 C 
ATOM      6  H   UNL     1       3.110  -1.120   1.403  1.00  0.00     0.163 HD
BRANCH   5   7
ATOM      7  C   UNL     1       2.941   0.851  -1.264  1.00  0.00     0.039 A 
ATOM      8  C   UNL     1       3.938   0.377  -2.119  1.00  0.00     0.014 A 
ATOM      9  C   UNL     1       2.414   2.134  -1.423  1.00  0.00     0.014 A 
ATOM     10  C   UNL     1       4.545   1.251  -3.006  1.00  0.00     0.010 A 
ATOM     11  C   UNL     1       2.954   2.977  -2.393  1.00  0.00     0.010 A 
ATOM     12  C   UNL     1       4.053   2.557  -3.159  1.00  0.00    -0.014 A 
BRANCH  12  13
ATOM     13  C   UNL     1       4.672   3.456  -4.159  1.00  0.00     0.031 A 
ATOM     14  C   UNL     1       5.343   4.731  -3.739  1.00  0.00     0.074 A 
ATOM     15  C   UNL     1       4.620   3.105  -5.456  1.00  0.00     0.049 A 
ATOM     16  N   UNL     1       5.850   5.679  -4.486  1.00  0.00    -0.248 NA
ATOM     17  C   UNL     1       5.449   4.983  -2.294  1.00  0.00     0.031 C 
ATOM     18  C   UNL     1       3.997   1.883  -5.971  1.00  0.00     0.029 A 
ATOM     19  N   UNL     1       5.095   3.735  -6.576  1.00  0.00    -0.354 N 
ATOM     20  C   UNL     1       6.297   6.657  -3.607  1.00  0.00     0.074 A 
ATOM     21  C   UNL     1       5.997   6.191  -2.269  1.00  0.00     0.031 C 
ATOM     22  C   UNL     1       4.149   1.839  -7.300  1.00  0.00     0.029 A 
ATOM     23  C   UNL     1       4.806   3.064  -7.738  1.00  0.00     0.049 A 
ATOM     24  H   UNL     1       5.593   4.583  -6.550  1.00  0.00     0.167 HD
ATOM     25  C   UNL     1       6.898   7.835  -3.898  1.00  0.00     0.037 A 
ATOM     26  C   UNL     1       5.006   3.415  -9.020  1.00  0.00     0.037 A 
ATOM     27  C   UNL     1       7.218   8.268  -5.234  1.00  0.00     0.049 A 
ATOM     28  C   UNL     1       5.664   4.727  -9.318  1.00  0.00     0.074 A 
ATOM     29  C   UNL     1       7.872   9.419  -5.637  1.00  0.00     0.029 A 
ATOM     30  N   UNL     1       6.904   7.562  -6.388  1.00  0.00    -0.354 N 
ATOM     31  N   UNL     1       6.089   5.641  -8.480  1.00  0.00    -0.248 NA
ATOM     32  C   UNL     1       5.862   5.063 -10.732  1.00  0.00     0.031 C 
ATOM     33  C   UNL     1       7.917   9.430  -7.035  1.00  0.00     0.029 A 
ATOM     34  C   UNL     1       7.330   8.265  -7.504  1.00  0.00     0.049 A 
ATOM     35  H   UNL     1       6.446   6.691  -6.411  1.00  0.00     0.167 HD
ATOM     36  C   UNL     1       6.613   6.658  -9.261  1.00  0.00     0.074 A 
ATOM     37  C   UNL     1       6.463   6.242 -10.642  1.00  0.00     0.031 C 
ATOM     38  C   UNL     1       7.167   7.831  -8.869  1.00  0.00     0.037 A 
BRANCH  25  39
ATOM     39  C   UNL     1       7.217   8.756  -2.757  1.00  0.00     0.064 A 
ATOM     40  C   UNL     1       8.252   8.486  -1.849  1.00  0.00     0.173 A 
ATOM     41  C   UNL     1       6.490   9.945  -2.586  1.00  0.00     0.173 A 
ATOM     42  F   UNL     1       8.969   7.357  -1.960  1.00  0.00    -0.203 F 
ATOM     43  C   UNL     1       8.529   9.357  -0.798  1.00  0.00     0.198 A 
ATOM     44  C   UNL     1       6.786  10.826  -1.549  1.00  0.00     0.198 A 
ATOM     45  F   UNL     1       5.493  10.255  -3.429  1.00  0.00    -0.203 F 
ATOM     46  F   UNL     1       9.492   9.056   0.084  1.00  0.00    -0.200 F 
ATOM     47  C   UNL     1       7.800  10.528  -0.652  1.00  0.00     0.200 A 
ATOM     48  F   UNL     1       6.087  11.962  -1.416  1.00  0.00    -0.200 F 
ATOM     49  F   UNL     1       8.069  11.365   0.360  1.00  0.00    -0.200 F 
ENDBRANCH  25  39
BRANCH  26  50
ATOM     50  C   UNL     1       4.542   2.501 -10.091  1.00  0.00     0.064 A 
ATOM     51  C   UNL     1       5.451   1.737 -10.832  1.00  0.00     0.173 A 
ATOM     52  C   UNL     1       3.172   2.303 -10.325  1.00  0.00     0.173 A 
ATOM     53  F   UNL     1       6.769   1.901 -10.648  1.00  0.00    -0.203 F 
ATOM     54  C   UNL     1       5.007   0.802 -11.764  1.00  0.00     0.198 A 
ATOM     55  C   UNL     1       2.730   1.349 -11.237  1.00  0.00     0.198 A 
ATOM     56  F   UNL     1       2.264   3.001  -9.627  1.00  0.00    -0.203 F 
ATOM     57  F   UNL     1       5.896   0.087 -12.467  1.00  0.00    -0.200 F 
ATOM     58  C   UNL     1       3.648   0.600 -11.956  1.00  0.00     0.200 A 
ATOM     59  F   UNL     1       1.416   1.140 -11.401  1.00  0.00    -0.200 F 
ATOM     60  F   UNL     1       3.223  -0.322 -12.831  1.00  0.00    -0.200 F 
ENDBRANCH  26  50
BRANCH  38  61
ATOM     61  C   UNL     1       7.671   8.739  -9.947  1.00  0.00     0.064 A 
ATOM     62  C   UNL     1       6.794   9.510 -10.722  1.00  0.00     0.173 A 
ATOM     63  C   UNL     1       9.049   8.878 -10.170  1.00  0.00     0.173 A 
ATOM     64  F   UNL     1       5.468   9.396 -10.555  1.00  0.00    -0.203 F 
ATOM     65  C   UNL     1       7.280  10.383 -11.691  1.00  0.00     0.198 A 
ATOM     66  C   UNL     1       9.531   9.767 -11.124  1.00  0.00     0.198 A 
ATOM     67  F   UNL     1       9.925   8.161  -9.450  1.00  0.00    -0.203 F 
ATOM     68  F   UNL     1       6.424  11.090 -12.442  1.00  0.00    -0.200 F 
ATOM     69  C   UNL     1       8.647  10.517 -11.886  1.00  0.00     0.200 A 
ATOM     70  F   UNL     1      10.852   9.902 -11.306  1.00  0.00    -0.200 F 
ATOM     71  F   UNL     1       9.113  11.366 -12.812  1.00  0.00    -0.200 F 
ENDBRANCH  38  61
ENDBRANCH  12  13
ENDBRANCH   5   7
ENDBRANCH   2   3
ENDBRANCH   1   2
BRANCH   1  72
ATOM     72  C   UNL     1       5.212  -1.104   3.050  1.00  0.00     0.023 C 
BRANCH  72  73
ATOM     73  C   UNL     1       5.674  -2.536   2.810  1.00  0.00     0.116 C 
BRANCH  73  74
ATOM     74  N   UNL     1       6.983  -2.740   3.390  1.00  0.00    -0.354 N 
ATOM     75  C   UNL     1       7.336  -3.261   4.599  1.00  0.00     0.242 C 
ATOM     76  H   UNL     1       7.737  -2.458   2.824  1.00  0.00     0.163 HD
ATOM     77  O   UNL     1       8.483  -3.013   4.991  1.00  0.00    -0.273 OA
BRANCH  75  78
ATOM     78  C   UNL     1       6.398  -4.158   5.444  1.00  0.00     0.173 C 
BRANCH  78  79
ATOM     79  C   UNL     1       5.460  -3.400   6.405  1.00  0.00     0.070 C 
BRANCH  79  80
ATOM     80  C   UNL     1       4.234  -2.665   5.907  1.00  0.00    -0.045 A 
ATOM     81  C   UNL     1       4.087  -1.290   6.160  1.00  0.00     0.004 A 
ATOM     82  C   UNL     1       3.183  -3.338   5.269  1.00  0.00     0.004 A 
ATOM     83  C   UNL     1       2.952  -0.597   5.728  1.00  0.00     0.000 A 
ATOM     84  C   UNL     1       2.050  -2.643   4.831  1.00  0.00     0.000 A 
ATOM     85  C   UNL     1       1.938  -1.272   5.053  1.00  0.00     0.000 A 
ENDBRANCH  79  80
ENDBRANCH  78  79
BRANCH  78  86
ATOM     86  N   UNL     1       5.757  -5.204   4.620  1.00  0.00    -0.373 N 
ATOM     87  H   UNL     1       5.302  -4.929   3.792  1.00  0.00     0.161 HD
BRANCH  86  88
ATOM     88  C   UNL     1       5.762  -6.550   4.951  1.00  0.00     0.036 A 
ATOM     89  C   UNL     1       5.586  -7.492   3.929  1.00  0.00     0.027 A 
ATOM     90  C   UNL     1       5.905  -7.028   6.258  1.00  0.00     0.043 A 
ATOM     91  C   UNL     1       5.618  -8.866   4.190  1.00  0.00     0.024 A 
ATOM     92  C   UNL     1       5.938  -8.404   6.531  1.00  0.00     0.038 A 
ATOM     93  C   UNL     1       5.804  -9.326   5.492  1.00  0.00     0.055 A 
ATOM     94  Br  UNL     1       6.175  -8.928   8.342  1.00  0.00    -0.049 Br
ATOM     95  Cl  UNL     1       5.858 -11.034   5.738  1.00  0.00    -0.083 Cl
ENDBRANCH  86  88
ENDBRANCH  78  86
ENDBRANCH  75  78
ENDBRANCH  73  74
ENDBRANCH  72  73
ENDBRANCH   1  72
TORSDOF 15
