REMARK SMILES O=C(NCCCCNC(=O)[C@H]1CC[C@@H](CNC(=O)[C@@H]2CSc3ccccc32)O1)c1ccc(-c2c3nc(c(-c4c(F)c(F)c(F)c(F)c4F)c4ccc([nH]4)c(-c4c(F)c(F)c(F)c(F)c4F)c4nc(c(-c5c(F)c(F)c(F)c(F)c5F)c5ccc2[nH]5)C=C4)C=C3)cc1
REMARK SMILES IDX 6 1 5 2 4 3 3 4 1 5 2 6 29 8 30 9 91 10 31 11 90 12 32 13
REMARK SMILES IDX 33 14 34 15 84 16 35 17 89 18 83 19 85 20 36 21 88 22 82 23
REMARK SMILES IDX 81 24 37 26 69 27 49 28 68 29 50 30 53 31 67 32 86 33 51 34
REMARK SMILES IDX 52 35 66 37 87 38 54 39 38 40 39 41 47 42 40 43 41 44 45 45
REMARK SMILES IDX 48 46 42 47 43 48 46 49 44 50 70 51 71 52 79 53 72 54 73 55
REMARK SMILES IDX 77 56 80 57 74 58 75 59 78 60 76 61 55 62 56 63 64 64 57 65
REMARK SMILES IDX 58 66 62 67 65 68 59 69 60 70 63 71 61 72 7 73 8 74 9 75
REMARK SMILES IDX 10 77 11 78 12 79 28 80 13 81 14 82 15 83 16 84 17 85 18 87
REMARK SMILES IDX 19 88 20 89 27 90 21 91 22 92 26 93 23 94 25 95 24 96
REMARK H PARENT 3 7 85 25 53 36 8 76 16 86
REMARK Flexibility Score: inf
ROOT
ATOM      1  C   UNL     1      -0.999   9.628  13.889  1.00  0.00     0.023 C 
ENDROOT
BRANCH   1   2
ATOM      2  C   UNL     1      -0.662   9.709  15.379  1.00  0.00     0.023 C 
BRANCH   2   3
ATOM      3  C   UNL     1      -1.384  10.796  16.169  1.00  0.00     0.116 C 
BRANCH   3   4
ATOM      4  N   UNL     1      -2.829  10.650  16.148  1.00  0.00    -0.352 N 
ATOM      5  O   UNL     1      -4.908  10.415  16.976  1.00  0.00    -0.269 OA
ATOM      6  C   UNL     1      -3.728  10.682  17.185  1.00  0.00     0.251 C 
ATOM      7  H   UNL     1      -3.222  10.507  15.257  1.00  0.00     0.163 HD
BRANCH   6   8
ATOM      8  C   UNL     1      -3.290  11.017  18.560  1.00  0.00     0.039 A 
ATOM      9  C   UNL     1      -3.805  10.272  19.626  1.00  0.00     0.014 A 
ATOM     10  C   UNL     1      -2.424  12.084  18.811  1.00  0.00     0.014 A 
ATOM     11  C   UNL     1      -3.423  10.570  20.937  1.00  0.00     0.010 A 
ATOM     12  C   UNL     1      -1.996  12.343  20.113  1.00  0.00     0.010 A 
ATOM     13  C   UNL     1      -2.503  11.598  21.190  1.00  0.00    -0.014 A 
BRANCH  13  14
ATOM     14  C   UNL     1      -2.106  11.960  22.574  1.00  0.00     0.031 A 
ATOM     15  C   UNL     1      -2.513  13.294  23.136  1.00  0.00     0.074 A 
ATOM     16  C   UNL     1      -1.358  11.118  23.312  1.00  0.00     0.049 A 
ATOM     17  N   UNL     1      -2.166  13.862  24.264  1.00  0.00    -0.248 NA
ATOM     18  C   UNL     1      -3.419  14.107  22.309  1.00  0.00     0.031 C 
ATOM     19  C   UNL     1      -0.908   9.792  22.890  1.00  0.00     0.029 A 
ATOM     20  N   UNL     1      -0.841  11.258  24.576  1.00  0.00    -0.354 N 
ATOM     21  C   UNL     1      -2.798  15.098  24.274  1.00  0.00     0.074 A 
ATOM     22  C   UNL     1      -3.514  15.220  23.022  1.00  0.00     0.031 C 
ATOM     23  C   UNL     1      -0.204   9.230  23.886  1.00  0.00     0.029 A 
ATOM     24  C   UNL     1      -0.114  10.172  24.998  1.00  0.00     0.049 A 
ATOM     25  H   UNL     1      -0.978  12.062  25.128  1.00  0.00     0.167 HD
ATOM     26  C   UNL     1      -2.800  16.038  25.248  1.00  0.00     0.037 A 
ATOM     27  C   UNL     1       0.556   9.966  26.149  1.00  0.00     0.037 A 
ATOM     28  C   UNL     1      -2.110  15.908  26.503  1.00  0.00     0.049 A 
ATOM     29  C   UNL     1       0.574  11.047  27.197  1.00  0.00     0.074 A 
ATOM     30  C   UNL     1      -2.046  16.810  27.551  1.00  0.00     0.029 A 
ATOM     31  N   UNL     1      -1.375  14.797  26.887  1.00  0.00    -0.354 N 
ATOM     32  N   UNL     1      -0.011  12.219  27.188  1.00  0.00    -0.248 NA
ATOM     33  C   UNL     1       1.351  10.774  28.415  1.00  0.00     0.031 C 
ATOM     34  C   UNL     1      -1.253  16.254  28.560  1.00  0.00     0.029 A 
ATOM     35  C   UNL     1      -0.855  14.990  28.156  1.00  0.00     0.049 A 
ATOM     36  H   UNL     1      -1.242  13.990  26.338  1.00  0.00     0.167 HD
ATOM     37  C   UNL     1       0.300  12.811  28.404  1.00  0.00     0.074 A 
ATOM     38  C   UNL     1       1.119  11.865  29.133  1.00  0.00     0.031 C 
ATOM     39  C   UNL     1      -0.059  14.030  28.875  1.00  0.00     0.037 A 
BRANCH  26  40
ATOM     40  C   UNL     1      -3.587  17.291  25.002  1.00  0.00     0.064 A 
ATOM     41  C   UNL     1      -4.990  17.287  25.030  1.00  0.00     0.173 A 
ATOM     42  C   UNL     1      -2.937  18.515  24.791  1.00  0.00     0.173 A 
ATOM     43  F   UNL     1      -5.658  16.137  25.213  1.00  0.00    -0.203 F 
ATOM     44  C   UNL     1      -5.713  18.461  24.841  1.00  0.00     0.198 A 
ATOM     45  C   UNL     1      -3.663  19.692  24.628  1.00  0.00     0.198 A 
ATOM     46  F   UNL     1      -1.597  18.573  24.758  1.00  0.00    -0.203 F 
ATOM     47  F   UNL     1      -7.053  18.427  24.836  1.00  0.00    -0.200 F 
ATOM     48  C   UNL     1      -5.050  19.663  24.649  1.00  0.00     0.200 A 
ATOM     49  F   UNL     1      -3.021  20.856  24.454  1.00  0.00    -0.200 F 
ATOM     50  F   UNL     1      -5.747  20.795  24.480  1.00  0.00    -0.200 F 
ENDBRANCH  26  40
BRANCH  27  51
ATOM     51  C   UNL     1       1.246   8.672  26.386  1.00  0.00     0.064 A 
ATOM     52  C   UNL     1       0.755   7.768  27.339  1.00  0.00     0.173 A 
ATOM     53  C   UNL     1       2.402   8.314  25.680  1.00  0.00     0.173 A 
ATOM     54  F   UNL     1      -0.334   8.079  28.057  1.00  0.00    -0.203 F 
ATOM     55  C   UNL     1       1.404   6.560  27.587  1.00  0.00     0.198 A 
ATOM     56  C   UNL     1       3.036   7.094  25.911  1.00  0.00     0.198 A 
ATOM     57  F   UNL     1       2.912   9.145  24.760  1.00  0.00    -0.203 F 
ATOM     58  F   UNL     1       0.937   5.733  28.532  1.00  0.00    -0.200 F 
ATOM     59  C   UNL     1       2.540   6.222  26.868  1.00  0.00     0.200 A 
ATOM     60  F   UNL     1       4.129   6.766  25.208  1.00  0.00    -0.200 F 
ATOM     61  F   UNL     1       3.162   5.058  27.104  1.00  0.00    -0.200 F 
ENDBRANCH  27  51
BRANCH  39  62
ATOM     62  C   UNL     1       0.391  14.399  30.257  1.00  0.00     0.064 A 
ATOM     63  C   UNL     1       1.722  14.743  30.529  1.00  0.00     0.173 A 
ATOM     64  C   UNL     1      -0.535  14.465  31.309  1.00  0.00     0.173 A 
ATOM     65  F   UNL     1       2.647  14.683  29.558  1.00  0.00    -0.203 F 
ATOM     66  C   UNL     1       2.115  15.123  31.809  1.00  0.00     0.198 A 
ATOM     67  C   UNL     1      -0.145  14.869  32.582  1.00  0.00     0.198 A 
ATOM     68  F   UNL     1      -1.823  14.152  31.097  1.00  0.00    -0.203 F 
ATOM     69  F   UNL     1       3.400  15.412  32.056  1.00  0.00    -0.200 F 
ATOM     70  C   UNL     1       1.180  15.193  32.832  1.00  0.00     0.200 A 
ATOM     71  F   UNL     1      -1.051  14.949  33.566  1.00  0.00    -0.200 F 
ATOM     72  F   UNL     1       1.558  15.569  34.062  1.00  0.00    -0.200 F 
ENDBRANCH  39  62
ENDBRANCH  13  14
ENDBRANCH   6   8
ENDBRANCH   3   4
ENDBRANCH   2   3
ENDBRANCH   1   2
BRANCH   1  73
ATOM     73  C   UNL     1      -0.884  10.936  13.110  1.00  0.00     0.116 C 
BRANCH  73  74
ATOM     74  N   UNL     1       0.439  11.529  13.186  1.00  0.00    -0.354 N 
ATOM     75  C   UNL     1       1.267  11.913  12.166  1.00  0.00     0.249 C 
ATOM     76  H   UNL     1       0.788  11.674  14.095  1.00  0.00     0.163 HD
ATOM     77  O   UNL     1       2.323  12.480  12.456  1.00  0.00    -0.272 OA
BRANCH  75  78
ATOM     78  C   UNL     1       0.871  11.592  10.718  1.00  0.00     0.207 C 
ATOM     79  C   UNL     1       1.598  12.441   9.686  1.00  0.00     0.045 C 
ATOM     80  O   UNL     1       1.227  10.220  10.464  1.00  0.00    -0.363 OA
ATOM     81  C   UNL     1       2.796  11.597   9.334  1.00  0.00     0.037 C 
ATOM     82  C   UNL     1       2.234  10.190   9.433  1.00  0.00     0.138 C 
BRANCH  82  83
ATOM     83  C   UNL     1       3.320   9.149   9.744  1.00  0.00     0.147 C 
BRANCH  83  84
ATOM     84  N   UNL     1       2.778   7.807   9.903  1.00  0.00    -0.353 N 
ATOM     85  C   UNL     1       2.756   6.731   9.065  1.00  0.00     0.228 C 
ATOM     86  H   UNL     1       2.348   7.648  10.774  1.00  0.00     0.163 HD
ATOM     87  O   UNL     1       2.275   5.691   9.520  1.00  0.00    -0.274 OA
BRANCH  85  88
ATOM     88  C   UNL     1       3.335   6.840   7.649  1.00  0.00     0.120 C 
ATOM     89  C   UNL     1       2.553   7.909   6.863  1.00  0.00     0.093 C 
ATOM     90  C   UNL     1       3.243   5.559   6.838  1.00  0.00    -0.021 A 
ATOM     91  S   UNL     1       2.313   7.373   5.152  1.00  0.00    -0.125 SA
ATOM     92  C   UNL     1       2.704   5.705   5.557  1.00  0.00     0.011 A 
ATOM     93  C   UNL     1       3.682   4.301   7.251  1.00  0.00     0.006 A 
ATOM     94  C   UNL     1       2.532   4.618   4.710  1.00  0.00     0.015 A 
ATOM     95  C   UNL     1       3.519   3.201   6.404  1.00  0.00     0.000 A 
ATOM     96  C   UNL     1       2.934   3.356   5.143  1.00  0.00     0.001 A 
ENDBRANCH  85  88
ENDBRANCH  83  84
ENDBRANCH  82  83
ENDBRANCH  75  78
ENDBRANCH  73  74
ENDBRANCH   1  73
TORSDOF 14
