REMARK SMILES Cc1cc(C)cc(N2C(=O)NC(=O)/C(=C\c3ccc(OCC(=O)NCCCCNC(=O)c4ccc(-c5c6nc(c(-c7c(F)c(F)c(F)c(F)c7F)c7ccc([nH]7)c(-c7c(F)c(F)c(F)c(F)c7F)c7nc(c(-c8c(F)c(F)c(F)c(F)c8F)c8ccc5[nH]8)C=C7)C=C6)cc4)c(Br)c3)C2=O)c1
REMARK SMILES IDX 25 1 24 2 22 3 23 4 21 6 20 7 19 8 16 9 17 10 97 11 18 12
REMARK SMILES IDX 95 13 96 14 15 15 8 16 9 17 98 18 10 19 11 20 14 21 99 22
REMARK SMILES IDX 12 23 13 25 7 26 1 27 2 28 3 29 100 30 4 31 5 32 6 33 26 34
REMARK SMILES IDX 27 35 28 36 29 37 30 38 31 40 32 41 33 42 94 43 34 44 93 45
REMARK SMILES IDX 35 46 36 47 37 48 87 49 38 50 92 51 86 52 88 53 39 54 91 55
REMARK SMILES IDX 85 56 84 57 40 59 72 60 52 61 71 62 53 63 56 64 70 65 89 66
REMARK SMILES IDX 54 67 55 68 69 70 90 71 57 72 41 73 42 74 50 75 43 76 44 77
REMARK SMILES IDX 48 78 51 79 45 80 46 81 49 82 47 83 73 84 74 85 82 86 75 87
REMARK SMILES IDX 76 88 80 89 83 90 77 91 78 92 81 93 79 94 58 95 59 96 67 97
REMARK SMILES IDX 60 98 61 99 65 100 68 101 62 102 63 103 66 104 64 105
REMARK H PARENT 24 5 11 24 29 39 88 58 56 69
REMARK Flexibility Score: inf
ROOT
ATOM      1  C   UNL     1      -4.050 -12.679  -3.538  1.00  0.00     0.116 C 
ENDROOT
BRANCH   1   2
ATOM      2  N   UNL     1      -3.233 -12.313  -4.678  1.00  0.00    -0.353 N 
ATOM      3  C   UNL     1      -1.876 -12.196  -4.755  1.00  0.00     0.257 C 
ATOM      4  O   UNL     1      -1.375 -12.002  -5.863  1.00  0.00    -0.271 OA
ATOM      5  H   UNL     1      -3.724 -12.123  -5.510  1.00  0.00     0.163 HD
BRANCH   3   6
ATOM      6  C   UNL     1      -1.026 -12.382  -3.493  1.00  0.00     0.329 C 
BRANCH   6   7
ATOM      7  O   UNL     1      -1.292 -11.570  -2.368  1.00  0.00    -0.483 OA
BRANCH   7   8
ATOM      8  C   UNL     1      -1.271 -10.208  -2.444  1.00  0.00     0.134 A 
ATOM      9  C   UNL     1      -1.447  -7.407  -2.111  1.00  0.00    -0.023 A 
ATOM     10  C   UNL     1      -2.207  -8.249  -1.307  1.00  0.00     0.012 A 
ATOM     11  C   UNL     1      -0.626  -7.960  -3.097  1.00  0.00     0.027 A 
ATOM     12  C   UNL     1      -2.109  -9.632  -1.472  1.00  0.00     0.048 A 
ATOM     13  C   UNL     1      -0.512  -9.354  -3.253  1.00  0.00     0.060 A 
ATOM     14  Br  UNL     1       0.828  -9.885  -4.488  1.00  0.00    -0.047 Br
BRANCH   9  15
ATOM     15  C   UNL     1      -1.423  -5.960  -1.889  1.00  0.00     0.027 C 
ATOM     16  N   UNL     1      -0.022  -3.162   0.021  1.00  0.00    -0.228 N 
ATOM     17  C   UNL     1       0.742  -3.814   0.983  1.00  0.00     0.335 C 
ATOM     18  C   UNL     1      -0.795  -3.821  -0.940  1.00  0.00     0.272 C 
ATOM     19  O   UNL     1       1.383  -3.273   1.885  1.00  0.00    -0.247 OA
ATOM     20  N   UNL     1       0.739  -5.177   0.955  1.00  0.00    -0.273 N 
ATOM     21  C   UNL     1      -0.738  -5.313  -0.920  1.00  0.00     0.106 C 
ATOM     22  O   UNL     1      -1.459  -3.255  -1.811  1.00  0.00    -0.268 OA
ATOM     23  C   UNL     1       0.078  -6.003   0.102  1.00  0.00     0.264 C 
ATOM     24  H   UNL     1       1.288  -5.620   1.642  1.00  0.00     0.175 HD
ATOM     25  O   UNL     1       0.183  -7.214   0.227  1.00  0.00    -0.269 OA
BRANCH  16  26
ATOM     26  C   UNL     1      -0.017  -1.726   0.020  1.00  0.00     0.054 A 
ATOM     27  C   UNL     1       2.506   1.137   0.091  1.00  0.00     0.044 C 
ATOM     28  C   UNL     1       1.209   0.384   0.068  1.00  0.00    -0.049 A 
ATOM     29  C   UNL     1      -0.003   1.080   0.008  1.00  0.00     0.007 A 
ATOM     30  C   UNL     1       1.191  -1.016   0.102  1.00  0.00     0.030 A 
ATOM     31  C   UNL     1      -1.222   0.394  -0.045  1.00  0.00    -0.049 A 
ATOM     32  C   UNL     1      -2.513   1.158  -0.080  1.00  0.00     0.044 C 
ATOM     33  C   UNL     1      -1.218  -1.006  -0.065  1.00  0.00     0.030 A 
ENDBRANCH  16  26
ENDBRANCH   9  15
ENDBRANCH   7   8
ENDBRANCH   6   7
ENDBRANCH   3   6
ENDBRANCH   1   2
BRANCH   1  34
ATOM     34  C   UNL     1      -5.050 -11.588  -3.165  1.00  0.00     0.023 C 
BRANCH  34  35
ATOM     35  C   UNL     1      -6.004 -11.164  -4.284  1.00  0.00     0.023 C 
BRANCH  35  36
ATOM     36  C   UNL     1      -6.760 -12.296  -4.970  1.00  0.00     0.116 C 
BRANCH  36  37
ATOM     37  N   UNL     1      -7.621 -13.038  -4.062  1.00  0.00    -0.352 N 
ATOM     38  C   UNL     1      -8.958 -13.338  -4.176  1.00  0.00     0.251 C 
ATOM     39  H   UNL     1      -7.182 -13.375  -3.248  1.00  0.00     0.163 HD
ATOM     40  O   UNL     1      -9.554 -13.863  -3.241  1.00  0.00    -0.269 OA
BRANCH  38  41
ATOM     41  C   UNL     1      -9.690 -12.989  -5.413  1.00  0.00     0.039 A 
ATOM     42  C   UNL     1     -10.921 -12.337  -5.305  1.00  0.00     0.014 A 
ATOM     43  C   UNL     1      -9.158 -13.280  -6.672  1.00  0.00     0.014 A 
ATOM     44  C   UNL     1     -11.574 -11.894  -6.458  1.00  0.00     0.010 A 
ATOM     45  C   UNL     1      -9.774 -12.774  -7.815  1.00  0.00     0.010 A 
ATOM     46  C   UNL     1     -10.980 -12.063  -7.719  1.00  0.00    -0.014 A 
BRANCH  46  47
ATOM     47  C   UNL     1     -11.578 -11.466  -8.943  1.00  0.00     0.031 A 
ATOM     48  C   UNL     1     -12.043 -12.347 -10.068  1.00  0.00     0.074 A 
ATOM     49  C   UNL     1     -11.619 -10.125  -9.075  1.00  0.00     0.049 A 
ATOM     50  N   UNL     1     -12.493 -12.010 -11.251  1.00  0.00    -0.248 NA
ATOM     51  C   UNL     1     -11.972 -13.800  -9.846  1.00  0.00     0.031 C 
ATOM     52  C   UNL     1     -11.163  -9.162  -8.070  1.00  0.00     0.029 A 
ATOM     53  N   UNL     1     -12.048  -9.337 -10.116  1.00  0.00    -0.354 N 
ATOM     54  C   UNL     1     -12.737 -13.204 -11.918  1.00  0.00     0.074 A 
ATOM     55  C   UNL     1     -12.352 -14.274 -11.024  1.00  0.00     0.031 C 
ATOM     56  C   UNL     1     -11.349  -7.917  -8.536  1.00  0.00     0.029 A 
ATOM     57  C   UNL     1     -11.887  -7.990  -9.891  1.00  0.00     0.049 A 
ATOM     58  H   UNL     1     -12.433  -9.702 -10.944  1.00  0.00     0.167 HD
ATOM     59  C   UNL     1     -13.248 -13.386 -13.159  1.00  0.00     0.037 A 
ATOM     60  C   UNL     1     -12.123  -6.934 -10.694  1.00  0.00     0.037 A 
ATOM     61  C   UNL     1     -13.659 -12.317 -14.031  1.00  0.00     0.049 A 
ATOM     62  C   UNL     1     -12.661  -7.173 -12.081  1.00  0.00     0.074 A 
ATOM     63  C   UNL     1     -14.274 -12.405 -15.268  1.00  0.00     0.029 A 
ATOM     64  N   UNL     1     -13.483 -10.967 -13.767  1.00  0.00    -0.354 N 
ATOM     65  N   UNL     1     -12.979  -8.304 -12.663  1.00  0.00    -0.248 NA
ATOM     66  C   UNL     1     -12.871  -5.988 -12.926  1.00  0.00     0.031 C 
ATOM     67  C   UNL     1     -14.407 -11.113 -15.783  1.00  0.00     0.029 A 
ATOM     68  C   UNL     1     -13.935 -10.215 -14.840  1.00  0.00     0.049 A 
ATOM     69  H   UNL     1     -13.095 -10.598 -12.941  1.00  0.00     0.167 HD
ATOM     70  C   UNL     1     -13.452  -7.965 -13.924  1.00  0.00     0.074 A 
ATOM     71  C   UNL     1     -13.398  -6.522 -14.018  1.00  0.00     0.031 C 
ATOM     72  C   UNL     1     -13.888  -8.778 -14.916  1.00  0.00     0.037 A 
BRANCH  59  73
ATOM     73  C   UNL     1     -13.390 -14.792 -13.665  1.00  0.00     0.064 A 
ATOM     74  C   UNL     1     -14.349 -15.674 -13.145  1.00  0.00     0.173 A 
ATOM     75  C   UNL     1     -12.607 -15.236 -14.743  1.00  0.00     0.173 A 
ATOM     76  F   UNL     1     -15.118 -15.302 -12.111  1.00  0.00    -0.203 F 
ATOM     77  C   UNL     1     -14.506 -16.953 -13.672  1.00  0.00     0.198 A 
ATOM     78  C   UNL     1     -12.789 -16.504 -15.288  1.00  0.00     0.198 A 
ATOM     79  F   UNL     1     -11.681 -14.430 -15.284  1.00  0.00    -0.203 F 
ATOM     80  F   UNL     1     -15.405 -17.791 -13.136  1.00  0.00    -0.200 F 
ATOM     81  C   UNL     1     -13.734 -17.363 -14.749  1.00  0.00     0.200 A 
ATOM     82  F   UNL     1     -12.054 -16.892 -16.339  1.00  0.00    -0.200 F 
ATOM     83  F   UNL     1     -13.901 -18.588 -15.267  1.00  0.00    -0.200 F 
ENDBRANCH  59  73
BRANCH  60  84
ATOM     84  C   UNL     1     -11.846  -5.550 -10.222  1.00  0.00     0.064 A 
ATOM     85  C   UNL     1     -12.886  -4.626 -10.046  1.00  0.00     0.173 A 
ATOM     86  C   UNL     1     -10.537  -5.107  -9.980  1.00  0.00     0.173 A 
ATOM     87  F   UNL     1     -14.154  -4.992 -10.287  1.00  0.00    -0.203 F 
ATOM     88  C   UNL     1     -12.626  -3.307  -9.681  1.00  0.00     0.198 A 
ATOM     89  C   UNL     1     -10.280  -3.797  -9.580  1.00  0.00     0.198 A 
ATOM     90  F   UNL     1      -9.503  -5.949 -10.130  1.00  0.00    -0.203 F 
ATOM     91  F   UNL     1     -13.634  -2.429  -9.586  1.00  0.00    -0.200 F 
ATOM     92  C   UNL     1     -11.324  -2.894  -9.444  1.00  0.00     0.200 A 
ATOM     93  F   UNL     1      -9.022  -3.407  -9.337  1.00  0.00    -0.200 F 
ATOM     94  F   UNL     1     -11.073  -1.624  -9.099  1.00  0.00    -0.200 F 
ENDBRANCH  60  84
BRANCH  72  95
ATOM     95  C   UNL     1     -14.376  -8.131 -16.181  1.00  0.00     0.064 A 
ATOM     96  C   UNL     1     -13.493  -7.516 -17.081  1.00  0.00     0.173 A 
ATOM     97  C   UNL     1     -15.735  -8.180 -16.525  1.00  0.00     0.173 A 
ATOM     98  F   UNL     1     -12.186  -7.427 -16.791  1.00  0.00    -0.203 F 
ATOM     99  C   UNL     1     -13.956  -6.959 -18.270  1.00  0.00     0.198 A 
ATOM    100  C   UNL     1     -16.190  -7.653 -17.730  1.00  0.00     0.198 A 
ATOM    101  F   UNL     1     -16.621  -8.762 -15.702  1.00  0.00    -0.203 F 
ATOM    102  F   UNL     1     -13.101  -6.339 -19.095  1.00  0.00    -0.200 F 
ATOM    103  C   UNL     1     -15.302  -7.038 -18.599  1.00  0.00     0.200 A 
ATOM    104  F   UNL     1     -17.487  -7.746 -18.054  1.00  0.00    -0.200 F 
ATOM    105  F   UNL     1     -15.742  -6.516 -19.752  1.00  0.00    -0.200 F 
ENDBRANCH  72  95
ENDBRANCH  46  47
ENDBRANCH  38  41
ENDBRANCH  36  37
ENDBRANCH  35  36
ENDBRANCH  34  35
ENDBRANCH   1  34
TORSDOF 15
