REMARK SMILES C[C@@H](C(=O)NCCCCNC(=O)c1ccc(-c2c3nc(c(-c4c(F)c(F)c(F)c(F)c4F)c4ccc([nH]4)c(-c4c(F)c(F)c(F)c(F)c4F)c4nc(c(-c5c(F)c(F)c(F)c(F)c5F)c5ccc2[nH]5)C=C4)C=C3)cc1)N1C(=O)c2nccnc2C1=O
REMARK SMILES IDX 8 1 7 2 6 3 5 4 3 5 4 6 2 8 1 9 76 10 77 11 85 12 78 13
REMARK SMILES IDX 79 14 84 15 86 16 80 17 83 18 81 19 82 20 9 21 10 22 11 23
REMARK SMILES IDX 12 25 13 26 14 27 75 28 15 29 74 30 16 31 17 32 18 33 68 34
REMARK SMILES IDX 19 35 73 36 67 37 69 38 20 39 72 40 66 41 65 42 21 44 53 45
REMARK SMILES IDX 33 46 52 47 34 48 37 49 51 50 70 51 35 52 36 53 50 55 71 56
REMARK SMILES IDX 38 57 22 58 23 59 31 60 24 61 25 62 29 63 32 64 26 65 27 66
REMARK SMILES IDX 30 67 28 68 54 69 55 70 63 71 56 72 57 73 61 74 64 75 58 76
REMARK SMILES IDX 59 77 62 78 60 79 39 80 40 81 48 82 41 83 42 84 46 85 49 86
REMARK SMILES IDX 43 87 44 88 47 89 45 90
REMARK H PARENT 5 7 10 24 69 43 37 54
REMARK Flexibility Score: inf
ROOT
ATOM      1  C   UNL     1       5.016   0.173   2.536  1.00  0.00     0.023 C 
ENDROOT
BRANCH   1   2
ATOM      2  C   UNL     1       4.196  -0.073   1.267  1.00  0.00     0.023 C 
BRANCH   2   3
ATOM      3  C   UNL     1       3.334  -1.335   1.299  1.00  0.00     0.116 C 
BRANCH   3   4
ATOM      4  N   UNL     1       2.253  -1.223   2.260  1.00  0.00    -0.354 N 
ATOM      5  C   UNL     1       0.908  -1.098   2.047  1.00  0.00     0.243 C 
ATOM      6  O   UNL     1       0.174  -1.072   3.038  1.00  0.00    -0.273 OA
ATOM      7  H   UNL     1       2.528  -1.239   3.205  1.00  0.00     0.163 HD
BRANCH   5   8
ATOM      8  C   UNL     1       0.359  -1.017   0.608  1.00  0.00     0.180 C 
ATOM      9  C   UNL     1       0.749   0.273  -0.107  1.00  0.00     0.042 C 
BRANCH   8  10
ATOM     10  N   UNL     1      -1.090  -1.217   0.652  1.00  0.00    -0.259 N 
ATOM     11  C   UNL     1      -2.023  -0.248   0.931  1.00  0.00     0.282 C 
ATOM     12  C   UNL     1      -1.672  -2.452   0.522  1.00  0.00     0.282 C 
ATOM     13  O   UNL     1      -1.851   0.938   1.129  1.00  0.00    -0.267 OA
ATOM     14  C   UNL     1      -3.325  -0.915   0.905  1.00  0.00     0.160 A 
ATOM     15  C   UNL     1      -3.114  -2.246   0.657  1.00  0.00     0.160 A 
ATOM     16  O   UNL     1      -1.118  -3.517   0.312  1.00  0.00    -0.267 OA
ATOM     17  N   UNL     1      -4.543  -0.345   0.995  1.00  0.00    -0.247 NA
ATOM     18  N   UNL     1      -4.097  -3.150   0.476  1.00  0.00    -0.247 NA
ATOM     19  C   UNL     1      -5.554  -1.238   0.826  1.00  0.00     0.132 A 
ATOM     20  C   UNL     1      -5.337  -2.600   0.575  1.00  0.00     0.132 A 
ENDBRANCH   8  10
ENDBRANCH   5   8
ENDBRANCH   3   4
ENDBRANCH   2   3
ENDBRANCH   1   2
BRANCH   1  21
ATOM     21  C   UNL     1       6.007  -0.928   2.897  1.00  0.00     0.116 C 
BRANCH  21  22
ATOM     22  N   UNL     1       7.022  -1.139   1.877  1.00  0.00    -0.352 N 
ATOM     23  C   UNL     1       8.382  -1.280   2.017  1.00  0.00     0.251 C 
ATOM     24  H   UNL     1       6.686  -1.188   0.952  1.00  0.00     0.163 HD
ATOM     25  O   UNL     1       9.101  -1.319   1.023  1.00  0.00    -0.269 OA
BRANCH  23  26
ATOM     26  C   UNL     1       8.986  -1.349   3.366  1.00  0.00     0.039 A 
ATOM     27  C   UNL     1      10.137  -0.599   3.625  1.00  0.00     0.014 A 
ATOM     28  C   UNL     1       8.424  -2.138   4.372  1.00  0.00     0.014 A 
ATOM     29  C   UNL     1      10.680  -0.585   4.912  1.00  0.00     0.010 A 
ATOM     30  C   UNL     1       8.919  -2.061   5.672  1.00  0.00     0.010 A 
ATOM     31  C   UNL     1      10.051  -1.282   5.957  1.00  0.00    -0.014 A 
BRANCH  31  32
ATOM     32  C   UNL     1      10.555  -1.197   7.353  1.00  0.00     0.031 A 
ATOM     33  C   UNL     1      11.058  -2.426   8.057  1.00  0.00     0.074 A 
ATOM     34  C   UNL     1      10.497  -0.022   8.010  1.00  0.00     0.049 A 
ATOM     35  N   UNL     1      11.473  -2.562   9.292  1.00  0.00    -0.248 NA
ATOM     36  C   UNL     1      11.071  -3.675   7.280  1.00  0.00     0.031 C 
ATOM     37  C   UNL     1       9.985   1.232   7.456  1.00  0.00     0.029 A 
ATOM     38  N   UNL     1      10.861   0.308   9.293  1.00  0.00    -0.354 N 
ATOM     39  C   UNL     1      11.781  -3.908   9.441  1.00  0.00     0.074 A 
ATOM     40  C   UNL     1      11.456  -4.557   8.190  1.00  0.00     0.031 C 
ATOM     41  C   UNL     1      10.087   2.198   8.383  1.00  0.00     0.029 A 
ATOM     42  C   UNL     1      10.629   1.624   9.611  1.00  0.00     0.049 A 
ATOM     43  H   UNL     1      11.251  -0.339   9.925  1.00  0.00     0.167 HD
ATOM     44  C   UNL     1      12.308  -4.540  10.518  1.00  0.00     0.037 A 
ATOM     45  C   UNL     1      10.819   2.292  10.765  1.00  0.00     0.037 A 
ATOM     46  C   UNL     1      12.650  -3.886  11.755  1.00  0.00     0.049 A 
ATOM     47  C   UNL     1      11.396   1.563  11.950  1.00  0.00     0.074 A 
ATOM     48  C   UNL     1      13.249  -4.428  12.878  1.00  0.00     0.029 A 
ATOM     49  N   UNL     1      12.413  -2.548  12.034  1.00  0.00    -0.354 N 
ATOM     50  N   UNL     1      11.755   0.307  12.054  1.00  0.00    -0.248 NA
ATOM     51  C   UNL     1      11.601   2.348  13.175  1.00  0.00     0.031 C 
ATOM     52  C   UNL     1      13.321  -3.433  13.859  1.00  0.00     0.029 A 
ATOM     53  C   UNL     1      12.828  -2.254  13.324  1.00  0.00     0.049 A 
ATOM     54  H   UNL     1      12.011  -1.903  11.409  1.00  0.00     0.167 HD
ATOM     55  C   UNL     1      12.254   0.157  13.342  1.00  0.00     0.074 A 
ATOM     56  C   UNL     1      12.166   1.456  13.975  1.00  0.00     0.031 C 
ATOM     57  C   UNL     1      12.741  -0.956  13.943  1.00  0.00     0.037 A 
BRANCH  44  58
ATOM     58  C   UNL     1      12.547  -6.020  10.410  1.00  0.00     0.064 A 
ATOM     59  C   UNL     1      13.537  -6.549   9.568  1.00  0.00     0.173 A 
ATOM     60  C   UNL     1      11.807  -6.918  11.194  1.00  0.00     0.173 A 
ATOM     61  F   UNL     1      14.268  -5.736   8.790  1.00  0.00    -0.203 F 
ATOM     62  C   UNL     1      13.756  -7.922   9.492  1.00  0.00     0.198 A 
ATOM     63  C   UNL     1      12.052  -8.288  11.141  1.00  0.00     0.198 A 
ATOM     64  F   UNL     1      10.852  -6.467  12.022  1.00  0.00    -0.203 F 
ATOM     65  F   UNL     1      14.673  -8.407   8.643  1.00  0.00    -0.200 F 
ATOM     66  C   UNL     1      13.020  -8.790  10.285  1.00  0.00     0.200 A 
ATOM     67  F   UNL     1      11.350  -9.123  11.920  1.00  0.00    -0.200 F 
ATOM     68  F   UNL     1      13.239 -10.110  10.219  1.00  0.00    -0.200 F 
ENDBRANCH  44  58
BRANCH  45  69
ATOM     69  C   UNL     1      10.475   3.736  10.853  1.00  0.00     0.064 A 
ATOM     70  C   UNL     1      11.474   4.709  10.994  1.00  0.00     0.173 A 
ATOM     71  C   UNL     1       9.143   4.172  10.803  1.00  0.00     0.173 A 
ATOM     72  F   UNL     1      12.761   4.341  11.067  1.00  0.00    -0.203 F 
ATOM     73  C   UNL     1      11.153   6.061  11.104  1.00  0.00     0.198 A 
ATOM     74  C   UNL     1       8.825   5.527  10.881  1.00  0.00     0.198 A 
ATOM     75  F   UNL     1       8.149   3.283  10.665  1.00  0.00    -0.203 F 
ATOM     76  F   UNL     1      12.125   6.965  11.288  1.00  0.00    -0.200 F 
ATOM     77  C   UNL     1       9.829   6.469  11.041  1.00  0.00     0.200 A 
ATOM     78  F   UNL     1       7.546   5.918  10.803  1.00  0.00    -0.200 F 
ATOM     79  F   UNL     1       9.521   7.769  11.142  1.00  0.00    -0.200 F 
ENDBRANCH  45  69
BRANCH  57  80
ATOM     80  C   UNL     1      13.255  -0.814  15.348  1.00  0.00     0.064 A 
ATOM     81  C   UNL     1      12.394  -0.590  16.433  1.00  0.00     0.173 A 
ATOM     82  C   UNL     1      14.627  -0.945  15.617  1.00  0.00     0.173 A 
ATOM     83  F   UNL     1      11.076  -0.443  16.230  1.00  0.00    -0.203 F 
ATOM     84  C   UNL     1      12.890  -0.475  17.729  1.00  0.00     0.198 A 
ATOM     85  C   UNL     1      15.115  -0.865  16.918  1.00  0.00     0.198 A 
ATOM     86  F   UNL     1      15.493  -1.168  14.617  1.00  0.00    -0.203 F 
ATOM     87  F   UNL     1      12.055  -0.209  18.743  1.00  0.00    -0.200 F 
ATOM     88  C   UNL     1      14.248  -0.621  17.971  1.00  0.00     0.200 A 
ATOM     89  F   UNL     1      16.425  -1.023  17.151  1.00  0.00    -0.200 F 
ATOM     90  F   UNL     1      14.722  -0.519  19.221  1.00  0.00    -0.200 F 
ENDBRANCH  57  80
ENDBRANCH  31  32
ENDBRANCH  23  26
ENDBRANCH  21  22
ENDBRANCH   1  21
TORSDOF 12
