REMARK SMILES CC(=O)N/C(=C\c1ccccc1)C(=O)N[C@H](C(=O)NCCCCNC(=O)c1ccc(-c2c3nc(c(-c4c(F)c(F)c(F)c(F)c4F)c4ccc([nH]4)c(-c4c(F)c(F)c(F)c(F)c4F)c4nc(c(-c5c(F)c(F)c(F)c(F)c5F)c5ccc2[nH]5)C=C4)C=C3)cc1)C(C)C
REMARK SMILES IDX 21 1 20 2 19 3 17 4 18 5 16 7 15 8 13 9 14 10 5 12 6 13 4 14
REMARK SMILES IDX 1 15 2 16 3 17 7 19 8 20 12 21 9 22 11 23 10 24 90 25 91 26
REMARK SMILES IDX 92 27 22 28 23 29 24 30 25 31 26 33 27 34 28 35 89 36 29 37
REMARK SMILES IDX 88 38 30 39 31 40 32 41 82 42 33 43 87 44 81 45 83 46 34 47
REMARK SMILES IDX 86 48 80 49 79 50 35 52 67 53 47 54 66 55 48 56 51 57 65 58
REMARK SMILES IDX 84 59 49 60 50 61 64 63 85 64 52 65 36 66 37 67 45 68 38 69
REMARK SMILES IDX 39 70 43 71 46 72 40 73 41 74 44 75 42 76 68 77 69 78 77 79
REMARK SMILES IDX 70 80 71 81 75 82 78 83 72 84 73 85 76 86 74 87 53 88 54 89
REMARK SMILES IDX 62 90 55 91 56 92 60 93 63 94 57 95 58 96 61 97 59 98
REMARK H PARENT 19 6 15 11 4 18 24 32 83 51 51 62
REMARK Flexibility Score: inf
ROOT
ATOM      1  C   UNL     1       2.604   0.001  -6.023  1.00  0.00     0.023 C 
ENDROOT
BRANCH   1   2
ATOM      2  C   UNL     1       3.756  -0.112  -5.027  1.00  0.00     0.116 C 
BRANCH   2   3
ATOM      3  N   UNL     1       3.310  -0.335  -3.663  1.00  0.00    -0.354 N 
ATOM      4  C   UNL     1       3.254  -1.469  -2.902  1.00  0.00     0.242 C 
ATOM      5  O   UNL     1       2.901  -1.338  -1.725  1.00  0.00    -0.273 OA
ATOM      6  H   UNL     1       2.991   0.475  -3.204  1.00  0.00     0.163 HD
BRANCH   4   7
ATOM      7  C   UNL     1       3.707  -2.859  -3.431  1.00  0.00     0.174 C 
BRANCH   7   8
ATOM      8  N   UNL     1       3.006  -3.111  -4.696  1.00  0.00    -0.339 N 
ATOM      9  C   UNL     1       1.737  -3.506  -5.015  1.00  0.00     0.268 C 
ATOM     10  O   UNL     1       1.403  -3.206  -6.162  1.00  0.00    -0.268 OA
ATOM     11  H   UNL     1       3.573  -2.964  -5.486  1.00  0.00     0.164 HD
BRANCH   9  12
ATOM     12  C   UNL     1       0.817  -4.310  -4.115  1.00  0.00     0.107 C 
ATOM     13  C   UNL     1       0.926  -4.192  -2.774  1.00  0.00     0.040 C 
BRANCH  12  14
ATOM     14  N   UNL     1      -0.195  -5.124  -4.609  1.00  0.00    -0.322 N 
ATOM     15  C   UNL     1      -0.255  -4.987  -7.135  1.00  0.00     0.114 C 
ATOM     16  C   UNL     1      -0.724  -5.486  -5.806  1.00  0.00     0.221 C 
ATOM     17  O   UNL     1      -1.676  -6.277  -5.764  1.00  0.00    -0.275 OA
ATOM     18  H   UNL     1      -0.670  -5.571  -3.872  1.00  0.00     0.170 HD
ENDBRANCH  12  14
BRANCH  13  19
ATOM     19  C   UNL     1       0.359  -5.024  -1.691  1.00  0.00    -0.023 A 
ATOM     20  C   UNL     1       0.098  -4.426  -0.450  1.00  0.00     0.008 A 
ATOM     21  C   UNL     1       0.247  -6.419  -1.796  1.00  0.00     0.008 A 
ATOM     22  C   UNL     1      -0.302  -5.197   0.645  1.00  0.00     0.001 A 
ATOM     23  C   UNL     1      -0.174  -7.187  -0.707  1.00  0.00     0.001 A 
ATOM     24  C   UNL     1      -0.446  -6.576   0.513  1.00  0.00     0.000 A 
ENDBRANCH  13  19
ENDBRANCH   9  12
ENDBRANCH   7   8
BRANCH   7  25
ATOM     25  C   UNL     1       5.250  -2.940  -3.534  1.00  0.00     0.015 C 
ATOM     26  C   UNL     1       5.894  -2.770  -2.149  1.00  0.00     0.010 C 
ATOM     27  C   UNL     1       5.700  -4.276  -4.132  1.00  0.00     0.010 C 
ENDBRANCH   7  25
ENDBRANCH   4   7
ENDBRANCH   2   3
ENDBRANCH   1   2
BRANCH   1  28
ATOM     28  C   UNL     1       1.713   1.231  -5.869  1.00  0.00     0.023 C 
BRANCH  28  29
ATOM     29  C   UNL     1       2.427   2.572  -5.958  1.00  0.00     0.116 C 
BRANCH  29  30
ATOM     30  N   UNL     1       3.156   2.760  -7.202  1.00  0.00    -0.352 N 
ATOM     31  C   UNL     1       3.269   3.889  -7.979  1.00  0.00     0.251 C 
ATOM     32  H   UNL     1       3.636   1.968  -7.535  1.00  0.00     0.163 HD
ATOM     33  O   UNL     1       3.856   3.843  -9.052  1.00  0.00    -0.269 OA
BRANCH  31  34
ATOM     34  C   UNL     1       2.642   5.153  -7.534  1.00  0.00     0.039 A 
ATOM     35  C   UNL     1       1.885   5.885  -8.454  1.00  0.00     0.014 A 
ATOM     36  C   UNL     1       2.780   5.605  -6.219  1.00  0.00     0.014 A 
ATOM     37  C   UNL     1       1.205   7.031  -8.035  1.00  0.00     0.010 A 
ATOM     38  C   UNL     1       2.046   6.706  -5.787  1.00  0.00     0.010 A 
ATOM     39  C   UNL     1       1.249   7.427  -6.689  1.00  0.00    -0.014 A 
BRANCH  39  40
ATOM     40  C   UNL     1       0.463   8.587  -6.201  1.00  0.00     0.031 A 
ATOM     41  C   UNL     1       1.165   9.804  -5.669  1.00  0.00     0.074 A 
ATOM     42  C   UNL     1      -0.881   8.511  -6.162  1.00  0.00     0.049 A 
ATOM     43  N   UNL     1       0.658  10.877  -5.115  1.00  0.00    -0.248 NA
ATOM     44  C   UNL     1       2.634   9.803  -5.743  1.00  0.00     0.031 C 
ATOM     45  C   UNL     1      -1.677   7.364  -6.601  1.00  0.00     0.029 A 
ATOM     46  N   UNL     1      -1.816   9.413  -5.717  1.00  0.00    -0.354 N 
ATOM     47  C   UNL     1       1.743  11.665  -4.758  1.00  0.00     0.074 A 
ATOM     48  C   UNL     1       2.937  10.930  -5.115  1.00  0.00     0.031 C 
ATOM     49  C   UNL     1      -2.979   7.636  -6.418  1.00  0.00     0.029 A 
ATOM     50  C   UNL     1      -3.108   8.961  -5.818  1.00  0.00     0.049 A 
ATOM     51  H   UNL     1      -1.581  10.300  -5.360  1.00  0.00     0.167 HD
ATOM     52  C   UNL     1       1.743  12.900  -4.202  1.00  0.00     0.037 A 
ATOM     53  C   UNL     1      -4.267   9.546  -5.460  1.00  0.00     0.037 A 
ATOM     54  C   UNL     1       0.554  13.644  -3.879  1.00  0.00     0.049 A 
ATOM     55  C   UNL     1      -4.240  10.924  -4.856  1.00  0.00     0.074 A 
ATOM     56  C   UNL     1       0.450  14.930  -3.378  1.00  0.00     0.029 A 
ATOM     57  N   UNL     1      -0.739  13.166  -4.026  1.00  0.00    -0.354 N 
ATOM     58  N   UNL     1      -3.210  11.689  -4.586  1.00  0.00    -0.248 NA
ATOM     59  C   UNL     1      -5.538  11.522  -4.513  1.00  0.00     0.031 C 
ATOM     60  C   UNL     1      -0.906  15.216  -3.187  1.00  0.00     0.029 A 
ATOM     61  C   UNL     1      -1.648  14.125  -3.608  1.00  0.00     0.049 A 
ATOM     62  H   UNL     1      -0.977  12.277  -4.375  1.00  0.00     0.167 HD
ATOM     63  C   UNL     1      -3.734  12.865  -4.068  1.00  0.00     0.074 A 
ATOM     64  C   UNL     1      -5.175  12.719  -4.072  1.00  0.00     0.031 C 
ATOM     65  C   UNL     1      -3.079  13.966  -3.627  1.00  0.00     0.037 A 
BRANCH  52  66
ATOM     66  C   UNL     1       3.074  13.528  -3.911  1.00  0.00     0.064 A 
ATOM     67  C   UNL     1       3.912  13.985  -4.939  1.00  0.00     0.173 A 
ATOM     68  C   UNL     1       3.503  13.707  -2.587  1.00  0.00     0.173 A 
ATOM     69  F   UNL     1       3.553  13.826  -6.222  1.00  0.00    -0.203 F 
ATOM     70  C   UNL     1       5.142  14.571  -4.655  1.00  0.00     0.198 A 
ATOM     71  C   UNL     1       4.721  14.320  -2.305  1.00  0.00     0.198 A 
ATOM     72  F   UNL     1       2.737  13.293  -1.566  1.00  0.00    -0.203 F 
ATOM     73  F   UNL     1       5.947  14.956  -5.655  1.00  0.00    -0.200 F 
ATOM     74  C   UNL     1       5.542  14.744  -3.338  1.00  0.00     0.200 A 
ATOM     75  F   UNL     1       5.102  14.496  -1.032  1.00  0.00    -0.200 F 
ATOM     76  F   UNL     1       6.725  15.313  -3.066  1.00  0.00    -0.200 F 
ENDBRANCH  52  66
BRANCH  53  77
ATOM     77  C   UNL     1      -5.554   8.841  -5.686  1.00  0.00     0.064 A 
ATOM     78  C   UNL     1      -6.445   9.275  -6.677  1.00  0.00     0.173 A 
ATOM     79  C   UNL     1      -5.919   7.723  -4.922  1.00  0.00     0.173 A 
ATOM     80  F   UNL     1      -6.148  10.352  -7.418  1.00  0.00    -0.203 F 
ATOM     81  C   UNL     1      -7.662   8.628  -6.883  1.00  0.00     0.198 A 
ATOM     82  C   UNL     1      -7.125   7.062  -5.146  1.00  0.00     0.198 A 
ATOM     83  F   UNL     1      -5.098   7.267  -3.965  1.00  0.00    -0.203 F 
ATOM     84  F   UNL     1      -8.514   9.089  -7.809  1.00  0.00    -0.200 F 
ATOM     85  C   UNL     1      -7.998   7.519  -6.122  1.00  0.00     0.200 A 
ATOM     86  F   UNL     1      -7.441   5.984  -4.416  1.00  0.00    -0.200 F 
ATOM     87  F   UNL     1      -9.167   6.896  -6.322  1.00  0.00    -0.200 F 
ENDBRANCH  53  77
BRANCH  65  88
ATOM     88  C   UNL     1      -3.915  15.114  -3.142  1.00  0.00     0.064 A 
ATOM     89  C   UNL     1      -4.585  15.065  -1.912  1.00  0.00     0.173 A 
ATOM     90  C   UNL     1      -4.011  16.291  -3.899  1.00  0.00     0.173 A 
ATOM     91  F   UNL     1      -4.537  13.956  -1.159  1.00  0.00    -0.203 F 
ATOM     92  C   UNL     1      -5.340  16.148  -1.466  1.00  0.00     0.198 A 
ATOM     93  C   UNL     1      -4.744  17.381  -3.438  1.00  0.00     0.198 A 
ATOM     94  F   UNL     1      -3.383  16.388  -5.081  1.00  0.00    -0.203 F 
ATOM     95  F   UNL     1      -6.006  16.065  -0.306  1.00  0.00    -0.200 F 
ATOM     96  C   UNL     1      -5.412  17.306  -2.226  1.00  0.00     0.200 A 
ATOM     97  F   UNL     1      -4.804  18.503  -4.168  1.00  0.00    -0.200 F 
ATOM     98  F   UNL     1      -6.133  18.349  -1.792  1.00  0.00    -0.200 F 
ENDBRANCH  65  88
ENDBRANCH  39  40
ENDBRANCH  31  34
ENDBRANCH  29  30
ENDBRANCH  28  29
ENDBRANCH   1  28
TORSDOF 16
