REMARK SMILES Cc1ccc([C@H](Nc2ccc(Cl)c(Br)c2)C(=O)NCCCCNC(=O)c2ccc(-c3c4nc(c(-c5c(F)c(F)c(F)c(F)c5F)c5ccc([nH]5)c(-c5c(F)c(F)c(F)c(F)c5F)c5nc(c(-c6c(F)c(F)c(F)c(F)c6F)c6ccc3[nH]6)C=C5)C=C4)cc2)s1
REMARK SMILES IDX 20 1 19 2 18 3 16 4 17 5 6 7 5 8 1 9 2 10 3 11 89 12 4 13
REMARK SMILES IDX 7 14 8 16 9 17 15 18 10 19 13 20 11 21 14 22 12 23 21 24
REMARK SMILES IDX 22 25 23 26 24 27 25 29 26 30 27 31 88 32 28 33 87 34 29 35
REMARK SMILES IDX 30 36 31 37 81 38 32 39 86 40 80 41 82 42 33 43 85 44 79 45
REMARK SMILES IDX 78 46 34 48 66 49 46 50 65 51 47 52 50 53 64 54 83 55 48 56
REMARK SMILES IDX 49 57 63 59 84 60 51 61 35 62 36 63 44 64 37 65 38 66 42 67
REMARK SMILES IDX 45 68 39 69 40 70 43 71 41 72 67 73 68 74 76 75 69 76 70 77
REMARK SMILES IDX 74 78 77 79 71 80 72 81 75 82 73 83 52 84 53 85 61 86 54 87
REMARK SMILES IDX 55 88 59 89 62 90 56 91 57 92 60 93 58 94
REMARK H PARENT 18 6 7 15 23 28 82 47 50 58
REMARK Flexibility Score: inf
ROOT
ATOM      1  C   UNL     1       0.401   2.895  -1.163  1.00  0.00     0.023 C 
ENDROOT
BRANCH   1   2
ATOM      2  C   UNL     1      -0.905   3.051  -0.392  1.00  0.00     0.116 C 
BRANCH   2   3
ATOM      3  N   UNL     1      -2.072   2.894  -1.239  1.00  0.00    -0.354 N 
ATOM      4  C   UNL     1      -3.107   2.009  -1.107  1.00  0.00     0.247 C 
ATOM      5  O   UNL     1      -4.056   2.130  -1.891  1.00  0.00    -0.272 OA
ATOM      6  H   UNL     1      -2.126   3.504  -2.010  1.00  0.00     0.163 HD
BRANCH   4   7
ATOM      7  C   UNL     1      -3.103   0.921  -0.000  1.00  0.00     0.210 C 
BRANCH   7   8
ATOM      8  C   UNL     1      -3.328   1.633   1.341  1.00  0.00     0.037 A 
ATOM      9  C   UNL     1      -3.119   2.266   5.223  1.00  0.00     0.056 C 
ATOM     10  C   UNL     1      -3.307   2.256   3.744  1.00  0.00     0.002 A 
ATOM     11  C   UNL     1      -3.817   3.260   2.953  1.00  0.00     0.015 A 
ATOM     12  S   UNL     1      -2.895   0.875   2.824  1.00  0.00    -0.143 S 
ATOM     13  C   UNL     1      -3.859   2.891   1.581  1.00  0.00     0.018 A 
ENDBRANCH   7   8
BRANCH   7  14
ATOM     14  N   UNL     1      -1.903   0.057  -0.043  1.00  0.00    -0.369 N 
ATOM     15  H   UNL     1      -1.423  -0.044   0.811  1.00  0.00     0.161 HD
BRANCH  14  16
ATOM     16  C   UNL     1      -1.363  -0.625  -1.113  1.00  0.00     0.036 A 
ATOM     17  C   UNL     1      -1.675  -0.386  -2.454  1.00  0.00     0.027 A 
ATOM     18  C   UNL     1      -0.373  -1.590  -0.858  1.00  0.00     0.043 A 
ATOM     19  C   UNL     1      -1.008  -1.046  -3.497  1.00  0.00     0.024 A 
ATOM     20  C   UNL     1       0.279  -2.281  -1.891  1.00  0.00     0.038 A 
ATOM     21  C   UNL     1      -0.030  -1.996  -3.220  1.00  0.00     0.055 A 
ATOM     22  Br  UNL     1       1.569  -3.587  -1.399  1.00  0.00    -0.049 Br
ATOM     23  Cl  UNL     1       0.748  -2.762  -4.556  1.00  0.00    -0.083 Cl
ENDBRANCH  14  16
ENDBRANCH   7  14
ENDBRANCH   4   7
ENDBRANCH   2   3
ENDBRANCH   1   2
BRANCH   1  24
ATOM     24  C   UNL     1       0.556   3.830  -2.360  1.00  0.00     0.023 C 
BRANCH  24  25
ATOM     25  C   UNL     1       0.248   5.296  -2.088  1.00  0.00     0.116 C 
BRANCH  25  26
ATOM     26  N   UNL     1       1.098   5.894  -1.069  1.00  0.00    -0.352 N 
ATOM     27  C   UNL     1       1.717   7.124  -1.097  1.00  0.00     0.251 C 
ATOM     28  H   UNL     1       1.249   5.353  -0.260  1.00  0.00     0.163 HD
ATOM     29  O   UNL     1       2.466   7.481  -0.195  1.00  0.00    -0.269 OA
BRANCH  27  30
ATOM     30  C   UNL     1       1.501   7.984  -2.276  1.00  0.00     0.039 A 
ATOM     31  C   UNL     1       0.201   8.283  -2.689  1.00  0.00     0.014 A 
ATOM     32  C   UNL     1       2.603   8.366  -3.042  1.00  0.00     0.014 A 
ATOM     33  C   UNL     1      -0.002   8.803  -3.961  1.00  0.00     0.010 A 
ATOM     34  C   UNL     1       2.396   8.962  -4.287  1.00  0.00     0.010 A 
ATOM     35  C   UNL     1       1.092   9.128  -4.781  1.00  0.00    -0.014 A 
BRANCH  35  36
ATOM     36  C   UNL     1       0.854   9.609  -6.164  1.00  0.00     0.031 A 
ATOM     37  C   UNL     1       1.282   8.786  -7.349  1.00  0.00     0.074 A 
ATOM     38  C   UNL     1       0.205  10.773  -6.351  1.00  0.00     0.049 A 
ATOM     39  N   UNL     1       1.181   9.062  -8.626  1.00  0.00    -0.248 NA
ATOM     40  C   UNL     1       1.909   7.485  -7.068  1.00  0.00     0.031 C 
ATOM     41  C   UNL     1      -0.273  11.648  -5.280  1.00  0.00     0.029 A 
ATOM     42  N   UNL     1      -0.179  11.409  -7.502  1.00  0.00    -0.354 N 
ATOM     43  C   UNL     1       1.759   7.991  -9.295  1.00  0.00     0.074 A 
ATOM     44  C   UNL     1       2.220   7.062  -8.285  1.00  0.00     0.031 C 
ATOM     45  C   UNL     1      -0.925  12.686  -5.823  1.00  0.00     0.029 A 
ATOM     46  C   UNL     1      -0.856  12.582  -7.277  1.00  0.00     0.049 A 
ATOM     47  H   UNL     1       0.012  11.060  -8.403  1.00  0.00     0.167 HD
ATOM     48  C   UNL     1       1.888   7.801 -10.630  1.00  0.00     0.037 A 
ATOM     49  C   UNL     1      -1.350  13.484  -8.144  1.00  0.00     0.037 A 
ATOM     50  C   UNL     1       1.393   8.709 -11.632  1.00  0.00     0.049 A 
ATOM     51  C   UNL     1      -1.186  13.254  -9.617  1.00  0.00     0.074 A 
ATOM     52  C   UNL     1       1.444   8.585 -13.010  1.00  0.00     0.029 A 
ATOM     53  N   UNL     1       0.748   9.907 -11.363  1.00  0.00    -0.354 N 
ATOM     54  N   UNL     1      -0.624  12.246 -10.236  1.00  0.00    -0.248 NA
ATOM     55  C   UNL     1      -1.714  14.293 -10.511  1.00  0.00     0.031 C 
ATOM     56  C   UNL     1       0.862   9.725 -13.575  1.00  0.00     0.029 A 
ATOM     57  C   UNL     1       0.412  10.541 -12.549  1.00  0.00     0.049 A 
ATOM     58  H   UNL     1       0.557  10.256 -10.462  1.00  0.00     0.167 HD
ATOM     59  C   UNL     1      -0.726  12.526 -11.590  1.00  0.00     0.074 A 
ATOM     60  C   UNL     1      -1.428  13.788 -11.704  1.00  0.00     0.031 C 
ATOM     61  C   UNL     1      -0.271  11.805 -12.643  1.00  0.00     0.037 A 
BRANCH  48  62
ATOM     62  C   UNL     1       2.610   6.571 -11.095  1.00  0.00     0.064 A 
ATOM     63  C   UNL     1       2.016   5.302 -11.040  1.00  0.00     0.173 A 
ATOM     64  C   UNL     1       3.890   6.673 -11.661  1.00  0.00     0.173 A 
ATOM     65  F   UNL     1       0.799   5.149 -10.496  1.00  0.00    -0.203 F 
ATOM     66  C   UNL     1       2.684   4.178 -11.522  1.00  0.00     0.198 A 
ATOM     67  C   UNL     1       4.545   5.551 -12.162  1.00  0.00     0.198 A 
ATOM     68  F   UNL     1       4.499   7.866 -11.742  1.00  0.00    -0.203 F 
ATOM     69  F   UNL     1       2.110   2.970 -11.431  1.00  0.00    -0.200 F 
ATOM     70  C   UNL     1       3.943   4.305 -12.089  1.00  0.00     0.200 A 
ATOM     71  F   UNL     1       5.757   5.678 -12.719  1.00  0.00    -0.200 F 
ATOM     72  F   UNL     1       4.579   3.224 -12.562  1.00  0.00    -0.200 F 
ENDBRANCH  48  62
BRANCH  49  73
ATOM     73  C   UNL     1      -2.039  14.686  -7.616  1.00  0.00     0.064 A 
ATOM     74  C   UNL     1      -3.431  14.814  -7.707  1.00  0.00     0.173 A 
ATOM     75  C   UNL     1      -1.328  15.697  -6.953  1.00  0.00     0.173 A 
ATOM     76  F   UNL     1      -4.149  13.880  -8.348  1.00  0.00    -0.203 F 
ATOM     77  C   UNL     1      -4.087  15.908  -7.148  1.00  0.00     0.198 A 
ATOM     78  C   UNL     1      -1.988  16.777  -6.373  1.00  0.00     0.198 A 
ATOM     79  F   UNL     1       0.005  15.613  -6.836  1.00  0.00    -0.203 F 
ATOM     80  F   UNL     1      -5.418  16.016  -7.260  1.00  0.00    -0.200 F 
ATOM     81  C   UNL     1      -3.367  16.882  -6.472  1.00  0.00     0.200 A 
ATOM     82  F   UNL     1      -1.290  17.706  -5.706  1.00  0.00    -0.200 F 
ATOM     83  F   UNL     1      -4.002  17.921  -5.914  1.00  0.00    -0.200 F 
ENDBRANCH  49  73
BRANCH  61  84
ATOM     84  C   UNL     1      -0.514  12.367 -14.011  1.00  0.00     0.064 A 
ATOM     85  C   UNL     1       0.235  13.447 -14.497  1.00  0.00     0.173 A 
ATOM     86  C   UNL     1      -1.474  11.794 -14.858  1.00  0.00     0.173 A 
ATOM     87  F   UNL     1       1.154  14.037 -13.716  1.00  0.00    -0.203 F 
ATOM     88  C   UNL     1       0.020  13.947 -15.778  1.00  0.00     0.198 A 
ATOM     89  C   UNL     1      -1.671  12.282 -16.147  1.00  0.00     0.198 A 
ATOM     90  F   UNL     1      -2.212  10.755 -14.440  1.00  0.00    -0.203 F 
ATOM     91  F   UNL     1       0.722  15.004 -16.210  1.00  0.00    -0.200 F 
ATOM     92  C   UNL     1      -0.927  13.360 -16.604  1.00  0.00     0.200 A 
ATOM     93  F   UNL     1      -2.580  11.709 -16.947  1.00  0.00    -0.200 F 
ATOM     94  F   UNL     1      -1.130  13.839 -17.839  1.00  0.00    -0.200 F 
ENDBRANCH  61  84
ENDBRANCH  35  36
ENDBRANCH  27  30
ENDBRANCH  25  26
ENDBRANCH  24  25
ENDBRANCH   1  24
TORSDOF 14
