REMARK SMILES Cc1cccc(C(=O)Nc2ccc(C(=O)NNC(=O)c3ccccc3C(=O)NCCCCNC(=O)c3ccc(-c4c5nc(c(-c6c(F)c(F)c(F)c(F)c6F)c6ccc([nH]6)c(-c6c(F)c(F)c(F)c(F)c6F)c6nc(c(-c7c(F)c(F)c(F)c(F)c7F)c7ccc4[nH]7)C=C6)C=C5)cc3)cc2)c1
REMARK SMILES IDX 29 1 28 2 26 3 27 4 25 6 20 7 21 8 22 9 24 10 23 11 18 12
REMARK SMILES IDX 17 13 19 15 16 16 14 17 15 18 13 20 10 21 11 22 100 23 12 24
REMARK SMILES IDX 99 25 9 26 7 27 8 28 6 30 1 31 2 32 3 33 101 34 4 35 5 36
REMARK SMILES IDX 30 37 31 38 32 39 33 40 34 41 35 43 36 44 37 45 98 46 38 47
REMARK SMILES IDX 97 48 39 49 40 50 41 51 91 52 42 53 96 54 90 55 92 56 43 57
REMARK SMILES IDX 95 58 89 59 88 60 44 62 76 63 56 64 75 65 57 66 60 67 74 68
REMARK SMILES IDX 93 69 58 70 59 71 73 73 94 74 61 75 45 76 46 77 54 78 47 79
REMARK SMILES IDX 48 80 52 81 55 82 49 83 50 84 53 85 51 86 77 87 78 88 86 89
REMARK SMILES IDX 79 90 80 91 84 92 87 93 81 94 82 95 85 96 83 97 62 98 63 99
REMARK SMILES IDX 71 100 64 101 65 102 69 103 72 104 66 105 67 106 70 107
REMARK SMILES IDX 68 108
REMARK H PARENT 28 5 17 14 16 19 9 29 33 42 92 61 60 72
REMARK Flexibility Score: inf
ROOT
ATOM      1  C   UNL     1       4.177   0.864  -2.518  1.00  0.00     0.116 C 
ENDROOT
BRANCH   1   2
ATOM      2  N   UNL     1       4.178   0.728  -1.064  1.00  0.00    -0.352 N 
ATOM      3  C   UNL     1       5.241   0.539  -0.198  1.00  0.00     0.252 C 
ATOM      4  O   UNL     1       5.069   0.578   1.016  1.00  0.00    -0.269 OA
ATOM      5  H   UNL     1       3.293   0.777  -0.637  1.00  0.00     0.163 HD
BRANCH   3   6
ATOM      6  C   UNL     1       6.586   0.200  -0.713  1.00  0.00     0.052 A 
ATOM      7  C   UNL     1       7.263   0.987  -1.650  1.00  0.00     0.054 A 
ATOM      8  C   UNL     1       8.311   0.416  -2.381  1.00  0.00     0.015 A 
ATOM      9  C   UNL     1       8.780  -0.861  -2.047  1.00  0.00     0.001 A 
ATOM     10  C   UNL     1       7.125  -1.028  -0.303  1.00  0.00     0.014 A 
ATOM     11  C   UNL     1       8.232  -1.553  -0.966  1.00  0.00     0.001 A 
BRANCH   7  12
ATOM     12  C   UNL     1       6.828   2.381  -1.917  1.00  0.00     0.270 C 
ATOM     13  N   UNL     1       6.617   3.161  -0.791  1.00  0.00    -0.263 N 
ATOM     14  H   UNL     1       7.166   3.040   0.017  1.00  0.00     0.191 HD
ATOM     15  O   UNL     1       6.585   2.746  -3.063  1.00  0.00    -0.267 OA
BRANCH  13  16
ATOM     16  N   UNL     1       5.594   4.136  -0.835  1.00  0.00    -0.263 N 
ATOM     17  C   UNL     1       5.040   4.498   0.387  1.00  0.00     0.269 C 
ATOM     18  O   UNL     1       5.706   4.640   1.407  1.00  0.00    -0.267 OA
ATOM     19  H   UNL     1       5.292   4.535  -1.683  1.00  0.00     0.191 HD
BRANCH  17  20
ATOM     20  C   UNL     1       3.551   4.541   0.470  1.00  0.00     0.041 A 
ATOM     21  C   UNL     1       0.796   4.127   0.976  1.00  0.00     0.041 A 
ATOM     22  C   UNL     1       1.441   3.442  -0.041  1.00  0.00     0.027 A 
ATOM     23  C   UNL     1       1.514   5.109   1.670  1.00  0.00     0.027 A 
ATOM     24  C   UNL     1       2.802   3.647  -0.289  1.00  0.00     0.016 A 
ATOM     25  C   UNL     1       2.893   5.295   1.442  1.00  0.00     0.016 A 
BRANCH  21  26
ATOM     26  N   UNL     1      -0.547   3.895   1.317  1.00  0.00    -0.322 N 
ATOM     27  C   UNL     1      -1.414   2.841   1.081  1.00  0.00     0.255 C 
ATOM     28  O   UNL     1      -2.623   3.050   1.212  1.00  0.00    -0.269 OA
ATOM     29  H   UNL     1      -0.955   4.631   1.827  1.00  0.00     0.170 HD
BRANCH  27  30
ATOM     30  C   UNL     1      -0.975   1.448   0.761  1.00  0.00     0.040 A 
ATOM     31  C   UNL     1       2.007  -0.896   1.154  1.00  0.00     0.044 C 
ATOM     32  C   UNL     1       0.643  -0.378   0.809  1.00  0.00    -0.050 A 
ATOM     33  C   UNL     1      -0.251  -1.187   0.102  1.00  0.00     0.003 A 
ATOM     34  C   UNL     1       0.249   0.916   1.186  1.00  0.00     0.017 A 
ATOM     35  C   UNL     1      -1.511  -0.704  -0.244  1.00  0.00     0.001 A 
ATOM     36  C   UNL     1      -1.866   0.611   0.072  1.00  0.00     0.014 A 
ENDBRANCH  27  30
ENDBRANCH  21  26
ENDBRANCH  17  20
ENDBRANCH  13  16
ENDBRANCH   7  12
ENDBRANCH   3   6
ENDBRANCH   1   2
BRANCH   1  37
ATOM     37  C   UNL     1       2.932   0.352  -3.240  1.00  0.00     0.023 C 
BRANCH  37  38
ATOM     38  C   UNL     1       1.644   1.190  -3.189  1.00  0.00     0.023 C 
BRANCH  38  39
ATOM     39  C   UNL     1       1.755   2.652  -3.653  1.00  0.00     0.116 C 
BRANCH  39  40
ATOM     40  N   UNL     1       0.566   3.112  -4.374  1.00  0.00    -0.352 N 
ATOM     41  C   UNL     1       0.118   4.383  -4.686  1.00  0.00     0.251 C 
ATOM     42  H   UNL     1      -0.018   2.388  -4.694  1.00  0.00     0.163 HD
ATOM     43  O   UNL     1      -0.858   4.520  -5.423  1.00  0.00    -0.269 OA
BRANCH  41  44
ATOM     44  C   UNL     1       0.870   5.579  -4.251  1.00  0.00     0.039 A 
ATOM     45  C   UNL     1       1.158   6.575  -5.191  1.00  0.00     0.014 A 
ATOM     46  C   UNL     1       1.401   5.667  -2.972  1.00  0.00     0.014 A 
ATOM     47  C   UNL     1       2.187   7.481  -4.939  1.00  0.00     0.010 A 
ATOM     48  C   UNL     1       2.473   6.509  -2.742  1.00  0.00     0.010 A 
ATOM     49  C   UNL     1       2.921   7.352  -3.761  1.00  0.00    -0.014 A 
BRANCH  49  50
ATOM     50  C   UNL     1       4.230   7.964  -3.568  1.00  0.00     0.031 A 
ATOM     51  C   UNL     1       4.377   9.223  -2.813  1.00  0.00     0.074 A 
ATOM     52  C   UNL     1       5.324   7.330  -4.049  1.00  0.00     0.049 A 
ATOM     53  N   UNL     1       5.358  10.046  -2.967  1.00  0.00    -0.248 NA
ATOM     54  C   UNL     1       3.395   9.678  -1.838  1.00  0.00     0.031 C 
ATOM     55  C   UNL     1       6.723   7.638  -3.764  1.00  0.00     0.029 A 
ATOM     56  N   UNL     1       5.383   6.384  -5.089  1.00  0.00    -0.354 N 
ATOM     57  C   UNL     1       5.292  10.982  -1.960  1.00  0.00     0.074 A 
ATOM     58  C   UNL     1       4.014  10.748  -1.325  1.00  0.00     0.031 C 
ATOM     59  C   UNL     1       7.481   7.177  -4.771  1.00  0.00     0.029 A 
ATOM     60  C   UNL     1       6.576   6.681  -5.791  1.00  0.00     0.049 A 
ATOM     61  H   UNL     1       4.734   5.670  -5.286  1.00  0.00     0.167 HD
ATOM     62  C   UNL     1       6.387  11.758  -1.706  1.00  0.00     0.037 A 
ATOM     63  C   UNL     1       6.574   7.074  -7.096  1.00  0.00     0.037 A 
ATOM     64  C   UNL     1       7.457  11.481  -2.660  1.00  0.00     0.049 A 
ATOM     65  C   UNL     1       7.267   8.390  -7.336  1.00  0.00     0.074 A 
ATOM     66  C   UNL     1       8.579  10.670  -2.595  1.00  0.00     0.029 A 
ATOM     67  N   UNL     1       7.298  11.832  -3.995  1.00  0.00    -0.354 N 
ATOM     68  N   UNL     1       7.419   9.304  -6.419  1.00  0.00    -0.248 NA
ATOM     69  C   UNL     1       7.829   8.786  -8.622  1.00  0.00     0.031 C 
ATOM     70  C   UNL     1       9.089  10.520  -3.906  1.00  0.00     0.029 A 
ATOM     71  C   UNL     1       8.286  11.250  -4.765  1.00  0.00     0.049 A 
ATOM     72  H   UNL     1       6.584  12.413  -4.343  1.00  0.00     0.167 HD
ATOM     73  C   UNL     1       8.080  10.382  -6.953  1.00  0.00     0.074 A 
ATOM     74  C   UNL     1       8.324  10.002  -8.332  1.00  0.00     0.031 C 
ATOM     75  C   UNL     1       8.364  11.486  -6.198  1.00  0.00     0.037 A 
BRANCH  62  76
ATOM     76  C   UNL     1       6.610  12.560  -0.439  1.00  0.00     0.064 A 
ATOM     77  C   UNL     1       7.918  12.797   0.047  1.00  0.00     0.173 A 
ATOM     78  C   UNL     1       5.585  13.085   0.368  1.00  0.00     0.173 A 
ATOM     79  F   UNL     1       9.004  12.462  -0.661  1.00  0.00    -0.203 F 
ATOM     80  C   UNL     1       8.167  13.392   1.288  1.00  0.00     0.198 A 
ATOM     81  C   UNL     1       5.831  13.636   1.632  1.00  0.00     0.198 A 
ATOM     82  F   UNL     1       4.320  13.138  -0.063  1.00  0.00    -0.203 F 
ATOM     83  F   UNL     1       9.431  13.576   1.695  1.00  0.00    -0.200 F 
ATOM     84  C   UNL     1       7.122  13.777   2.098  1.00  0.00     0.200 A 
ATOM     85  F   UNL     1       4.802  14.035   2.393  1.00  0.00    -0.200 F 
ATOM     86  F   UNL     1       7.356  14.308   3.305  1.00  0.00    -0.200 F 
ENDBRANCH  62  76
BRANCH  63  87
ATOM     87  C   UNL     1       5.403   6.569  -7.858  1.00  0.00     0.064 A 
ATOM     88  C   UNL     1       5.270   5.177  -8.023  1.00  0.00     0.173 A 
ATOM     89  C   UNL     1       4.262   7.357  -8.046  1.00  0.00     0.173 A 
ATOM     90  F   UNL     1       6.338   4.379  -7.863  1.00  0.00    -0.203 F 
ATOM     91  C   UNL     1       4.024   4.589  -8.224  1.00  0.00     0.198 A 
ATOM     92  C   UNL     1       3.018   6.764  -8.273  1.00  0.00     0.198 A 
ATOM     93  F   UNL     1       4.322   8.688  -7.891  1.00  0.00    -0.203 F 
ATOM     94  F   UNL     1       3.910   3.253  -8.245  1.00  0.00    -0.200 F 
ATOM     95  C   UNL     1       2.894   5.382  -8.318  1.00  0.00     0.200 A 
ATOM     96  F   UNL     1       1.919   7.530  -8.346  1.00  0.00    -0.200 F 
ATOM     97  F   UNL     1       1.683   4.816  -8.407  1.00  0.00    -0.200 F 
ENDBRANCH  63  87
BRANCH  75  98
ATOM     98  C   UNL     1       8.846  12.840  -6.682  1.00  0.00     0.064 A 
ATOM     99  C   UNL     1       8.714  13.310  -7.998  1.00  0.00     0.173 A 
ATOM    100  C   UNL     1       9.349  13.794  -5.756  1.00  0.00     0.173 A 
ATOM    101  F   UNL     1       8.140  12.571  -8.954  1.00  0.00    -0.203 F 
ATOM    102  C   UNL     1       9.113  14.599  -8.373  1.00  0.00     0.198 A 
ATOM    103  C   UNL     1       9.685  15.098  -6.121  1.00  0.00     0.198 A 
ATOM    104  F   UNL     1       9.501  13.507  -4.456  1.00  0.00    -0.203 F 
ATOM    105  F   UNL     1       9.004  14.978  -9.655  1.00  0.00    -0.200 F 
ATOM    106  C   UNL     1       9.584  15.496  -7.435  1.00  0.00     0.200 A 
ATOM    107  F   UNL     1      10.086  15.969  -5.184  1.00  0.00    -0.200 F 
ATOM    108  F   UNL     1       9.915  16.744  -7.791  1.00  0.00    -0.200 F 
ENDBRANCH  75  98
ENDBRANCH  49  50
ENDBRANCH  41  44
ENDBRANCH  39  40
ENDBRANCH  38  39
ENDBRANCH  37  38
ENDBRANCH   1  37
TORSDOF 16
