REMARK SMILES CC[C@@H](Nc1ccc([N+](=O)[O-])c(N)n1)C(=O)NCCCCNC(=O)c1ccc(-c2c3nc(c(-c4c(F)c(F)c(F)c(F)c4F)c4ccc([nH]4)c(-c4c(F)c(F)c(F)c(F)c4F)c4nc(c(-c5c(F)c(F)c(F)c(F)c5F)c5ccc2[nH]5)C=C4)C=C3)cc1
REMARK SMILES IDX 19 1 18 2 17 3 15 4 16 5 3 7 2 8 1 9 4 10 5 12 6 13 14 14
REMARK SMILES IDX 7 15 12 16 8 17 13 18 9 21 10 22 11 23 20 24 21 25 22 26
REMARK SMILES IDX 23 27 24 29 25 30 26 31 87 32 27 33 86 34 28 35 29 36 30 37
REMARK SMILES IDX 80 38 31 39 85 40 79 41 81 42 32 43 84 44 78 45 77 46 33 48
REMARK SMILES IDX 65 49 45 50 64 51 46 52 49 53 63 54 82 55 47 56 48 57 62 59
REMARK SMILES IDX 83 60 50 61 34 62 35 63 43 64 36 65 37 66 41 67 44 68 38 69
REMARK SMILES IDX 39 70 42 71 40 72 66 73 67 74 75 75 68 76 69 77 73 78 76 79
REMARK SMILES IDX 70 80 71 81 74 82 72 83 51 84 52 85 60 86 53 87 54 88 58 89
REMARK SMILES IDX 61 90 55 91 56 92 59 93 57 94
REMARK H PARENT 17 6 4 11 13 19 13 20 22 28 81 47 49 58
REMARK Flexibility Score: inf
ROOT
ATOM      1  C   UNL     1      -2.754   1.073   2.748  1.00  0.00     0.023 C 
ENDROOT
BRANCH   1   2
ATOM      2  C   UNL     1      -1.972   2.187   2.065  1.00  0.00     0.116 C 
BRANCH   2   3
ATOM      3  N   UNL     1      -0.854   2.656   2.854  1.00  0.00    -0.354 N 
ATOM      4  C   UNL     1       0.479   2.654   2.545  1.00  0.00     0.242 C 
ATOM      5  O   UNL     1       1.250   3.187   3.349  1.00  0.00    -0.273 OA
ATOM      6  H   UNL     1      -1.083   3.027   3.736  1.00  0.00     0.163 HD
BRANCH   4   7
ATOM      7  C   UNL     1       1.017   1.950   1.272  1.00  0.00     0.169 C 
BRANCH   7   8
ATOM      8  C   UNL     1       0.996   0.438   1.495  1.00  0.00     0.031 C 
ATOM      9  C   UNL     1       1.861  -0.344   0.511  1.00  0.00     0.006 C 
ENDBRANCH   7   8
BRANCH   7  10
ATOM     10  N   UNL     1       0.383   2.504   0.066  1.00  0.00    -0.358 N 
ATOM     11  H   UNL     1       0.391   3.489   0.065  1.00  0.00     0.162 HD
BRANCH  10  12
ATOM     12  C   UNL     1      -0.211   1.998  -1.046  1.00  0.00     0.129 A 
ATOM     13  C   UNL     1      -0.735   0.723  -1.182  1.00  0.00     0.054 A 
ATOM     14  N   UNL     1      -0.299   2.881  -2.063  1.00  0.00    -0.208 NA
ATOM     15  C   UNL     1      -1.267   0.312  -2.399  1.00  0.00     0.093 A 
ATOM     16  C   UNL     1      -0.830   2.507  -3.254  1.00  0.00     0.204 A 
ATOM     17  C   UNL     1      -1.286   1.212  -3.461  1.00  0.00     0.311 A 
BRANCH  16  18
ATOM     18  N   UNL     1      -0.782   3.488  -4.222  1.00  0.00    -0.378 N 
ATOM     19  H   UNL     1      -1.143   3.311  -5.120  1.00  0.00     0.158 HD
ATOM     20  H   UNL     1      -0.387   4.365  -4.014  1.00  0.00     0.158 HD
ENDBRANCH  16  18
BRANCH  17  21
ATOM     21  N   UNL     1      -1.791   0.765  -4.749  1.00  0.00     0.066 N 
ATOM     22  O   UNL     1      -2.233   1.613  -5.538  1.00  0.00    -0.258 OA
ATOM     23  O   UNL     1      -1.780  -0.456  -4.970  1.00  0.00    -0.258 OA
ENDBRANCH  17  21
ENDBRANCH  10  12
ENDBRANCH   7  10
ENDBRANCH   4   7
ENDBRANCH   2   3
ENDBRANCH   1   2
BRANCH   1  24
ATOM     24  C   UNL     1      -3.581   1.519   3.949  1.00  0.00     0.023 C 
BRANCH  24  25
ATOM     25  C   UNL     1      -4.539   2.674   3.680  1.00  0.00     0.116 C 
BRANCH  25  26
ATOM     26  N   UNL     1      -5.468   2.410   2.592  1.00  0.00    -0.352 N 
ATOM     27  C   UNL     1      -6.821   2.644   2.526  1.00  0.00     0.251 C 
ATOM     28  H   UNL     1      -5.070   2.005   1.788  1.00  0.00     0.163 HD
ATOM     29  O   UNL     1      -7.469   2.234   1.572  1.00  0.00    -0.269 OA
BRANCH  27  30
ATOM     30  C   UNL     1      -7.498   3.359   3.630  1.00  0.00     0.039 A 
ATOM     31  C   UNL     1      -8.718   2.867   4.095  1.00  0.00     0.014 A 
ATOM     32  C   UNL     1      -6.932   4.497   4.212  1.00  0.00     0.014 A 
ATOM     33  C   UNL     1      -9.337   3.479   5.185  1.00  0.00     0.010 A 
ATOM     34  C   UNL     1      -7.503   5.049   5.355  1.00  0.00     0.010 A 
ATOM     35  C   UNL     1      -8.716   4.551   5.851  1.00  0.00    -0.014 A 
BRANCH  35  36
ATOM     36  C   UNL     1      -9.333   5.143   7.065  1.00  0.00     0.031 A 
ATOM     37  C   UNL     1      -9.782   6.579   7.074  1.00  0.00     0.074 A 
ATOM     38  C   UNL     1      -9.470   4.387   8.172  1.00  0.00     0.049 A 
ATOM     39  N   UNL     1     -10.365   7.256   8.032  1.00  0.00    -0.248 NA
ATOM     40  C   UNL     1      -9.522   7.366   5.859  1.00  0.00     0.031 C 
ATOM     41  C   UNL     1      -9.009   3.004   8.312  1.00  0.00     0.029 A 
ATOM     42  N   UNL     1     -10.039   4.670   9.388  1.00  0.00    -0.354 N 
ATOM     43  C   UNL     1     -10.547   8.539   7.531  1.00  0.00     0.074 A 
ATOM     44  C   UNL     1      -9.944   8.569   6.218  1.00  0.00     0.031 C 
ATOM     45  C   UNL     1      -9.345   2.549   9.529  1.00  0.00     0.029 A 
ATOM     46  C   UNL     1     -10.013   3.615  10.268  1.00  0.00     0.049 A 
ATOM     47  H   UNL     1     -10.428   5.547   9.610  1.00  0.00     0.167 HD
ATOM     48  C   UNL     1     -11.193   9.586   8.099  1.00  0.00     0.037 A 
ATOM     49  C   UNL     1     -10.477   3.518  11.528  1.00  0.00     0.037 A 
ATOM     50  C   UNL     1     -11.794   9.552   9.407  1.00  0.00     0.049 A 
ATOM     51  C   UNL     1     -11.184   4.699  12.137  1.00  0.00     0.074 A 
ATOM     52  C   UNL     1     -12.496  10.550  10.062  1.00  0.00     0.029 A 
ATOM     53  N   UNL     1     -11.761   8.461  10.264  1.00  0.00    -0.354 N 
ATOM     54  N   UNL     1     -11.419   5.881  11.623  1.00  0.00    -0.248 NA
ATOM     55  C   UNL     1     -11.707   4.524  13.499  1.00  0.00     0.031 C 
ATOM     56  C   UNL     1     -12.845  10.079  11.332  1.00  0.00     0.029 A 
ATOM     57  C   UNL     1     -12.415   8.767  11.447  1.00  0.00     0.049 A 
ATOM     58  H   UNL     1     -11.335   7.597  10.061  1.00  0.00     0.167 HD
ATOM     59  C   UNL     1     -12.136   6.581  12.584  1.00  0.00     0.074 A 
ATOM     60  C   UNL     1     -12.324   5.678  13.701  1.00  0.00     0.031 C 
ATOM     61  C   UNL     1     -12.592   7.858  12.550  1.00  0.00     0.037 A 
BRANCH  48  62
ATOM     62  C   UNL     1     -11.297  10.853   7.298  1.00  0.00     0.064 A 
ATOM     63  C   UNL     1     -12.087  10.924   6.140  1.00  0.00     0.173 A 
ATOM     64  C   UNL     1     -10.637  12.020   7.711  1.00  0.00     0.173 A 
ATOM     65  F   UNL     1     -12.730   9.834   5.693  1.00  0.00    -0.203 F 
ATOM     66  C   UNL     1     -12.190  12.106   5.411  1.00  0.00     0.198 A 
ATOM     67  C   UNL     1     -10.770  13.210   6.999  1.00  0.00     0.198 A 
ATOM     68  F   UNL     1      -9.872  12.012   8.813  1.00  0.00    -0.203 F 
ATOM     69  F   UNL     1     -12.910  12.133   4.281  1.00  0.00    -0.200 F 
ATOM     70  C   UNL     1     -11.539  13.250   5.846  1.00  0.00     0.200 A 
ATOM     71  F   UNL     1     -10.152  14.319   7.428  1.00  0.00    -0.200 F 
ATOM     72  F   UNL     1     -11.648  14.390   5.150  1.00  0.00    -0.200 F 
ENDBRANCH  48  62
BRANCH  49  73
ATOM     73  C   UNL     1     -10.305   2.253  12.292  1.00  0.00     0.064 A 
ATOM     74  C   UNL     1     -11.407   1.466  12.654  1.00  0.00     0.173 A 
ATOM     75  C   UNL     1      -9.034   1.818  12.697  1.00  0.00     0.173 A 
ATOM     76  F   UNL     1     -12.645   1.846  12.306  1.00  0.00    -0.203 F 
ATOM     77  C   UNL     1     -11.249   0.311  13.419  1.00  0.00     0.198 A 
ATOM     78  C   UNL     1      -8.873   0.644  13.431  1.00  0.00     0.198 A 
ATOM     79  F   UNL     1      -7.945   2.528  12.370  1.00  0.00    -0.203 F 
ATOM     80  F   UNL     1     -12.325  -0.388  13.803  1.00  0.00    -0.200 F 
ATOM     81  C   UNL     1      -9.982  -0.101  13.803  1.00  0.00     0.200 A 
ATOM     82  F   UNL     1      -7.645   0.240  13.782  1.00  0.00    -0.200 F 
ATOM     83  F   UNL     1      -9.829  -1.210  14.538  1.00  0.00    -0.200 F 
ENDBRANCH  49  73
BRANCH  61  84
ATOM     84  C   UNL     1     -13.367   8.338  13.746  1.00  0.00     0.064 A 
ATOM     85  C   UNL     1     -12.754   8.538  14.992  1.00  0.00     0.173 A 
ATOM     86  C   UNL     1     -14.740   8.609  13.641  1.00  0.00     0.173 A 
ATOM     87  F   UNL     1     -11.446   8.282  15.151  1.00  0.00    -0.203 F 
ATOM     88  C   UNL     1     -13.495   8.946  16.099  1.00  0.00     0.198 A 
ATOM     89  C   UNL     1     -15.470   9.054  14.740  1.00  0.00     0.198 A 
ATOM     90  F   UNL     1     -15.375   8.445  12.471  1.00  0.00    -0.203 F 
ATOM     91  F   UNL     1     -12.901   9.061  17.294  1.00  0.00    -0.200 F 
ATOM     92  C   UNL     1     -14.850   9.208  15.970  1.00  0.00     0.200 A 
ATOM     93  F   UNL     1     -16.776   9.323  14.610  1.00  0.00    -0.200 F 
ATOM     94  F   UNL     1     -15.562   9.599  17.036  1.00  0.00    -0.200 F 
ENDBRANCH  61  84
ENDBRANCH  35  36
ENDBRANCH  27  30
ENDBRANCH  25  26
ENDBRANCH  24  25
ENDBRANCH   1  24
TORSDOF 16
