REMARK SMILES CC[C@H](NC(=O)NC[C@@]1(C)CCCO1)C(=O)NCCCCNC(=O)c1ccc(-c2c3nc(c(-c4c(F)c(F)c(F)c(F)c4F)c4ccc([nH]4)c(-c4c(F)c(F)c(F)c(F)c4F)c4nc(c(-c5c(F)c(F)c(F)c(F)c5F)c5ccc2[nH]5)C=C4)C=C3)cc1
REMARK SMILES IDX 19 1 18 2 17 3 15 4 16 5 3 7 2 8 1 9 4 10 5 11 6 13 7 14
REMARK SMILES IDX 8 16 9 17 10 18 11 19 14 20 12 21 13 22 20 23 21 24 22 25
REMARK SMILES IDX 23 26 24 28 25 29 26 30 87 31 27 32 86 33 28 34 29 35 30 36
REMARK SMILES IDX 80 37 31 38 85 39 79 40 81 41 32 42 84 43 78 44 77 45 33 47
REMARK SMILES IDX 65 48 45 49 64 50 46 51 49 52 63 53 82 54 47 55 48 56 62 58
REMARK SMILES IDX 83 59 50 60 34 61 35 62 43 63 36 64 37 65 41 66 44 67 38 68
REMARK SMILES IDX 39 69 42 70 40 71 66 72 67 73 75 74 68 75 69 76 73 77 76 78
REMARK SMILES IDX 70 79 71 80 74 81 72 82 51 83 52 84 60 85 53 86 54 87 58 88
REMARK SMILES IDX 61 89 55 90 56 91 59 92 57 93
REMARK H PARENT 17 6 4 12 7 15 22 27 81 46 49 57
REMARK Flexibility Score: inf
ROOT
ATOM      1  C   UNL     1      -2.997  -0.842   1.460  1.00  0.00     0.023 C 
ENDROOT
BRANCH   1   2
ATOM      2  C   UNL     1      -2.553   0.575   1.810  1.00  0.00     0.116 C 
BRANCH   2   3
ATOM      3  N   UNL     1      -1.659   0.846   2.922  1.00  0.00    -0.354 N 
ATOM      4  C   UNL     1      -0.308   0.942   3.058  1.00  0.00     0.242 C 
ATOM      5  O   UNL     1       0.089   1.741   3.919  1.00  0.00    -0.273 OA
ATOM      6  H   UNL     1      -2.138   0.992   3.769  1.00  0.00     0.163 HD
BRANCH   4   7
ATOM      7  C   UNL     1       0.738   0.248   2.190  1.00  0.00     0.172 C 
BRANCH   7   8
ATOM      8  C   UNL     1       1.208   1.222   1.076  1.00  0.00     0.032 C 
ATOM      9  C   UNL     1       0.236   1.482  -0.067  1.00  0.00     0.006 C 
ENDBRANCH   7   8
BRANCH   7  10
ATOM     10  N   UNL     1       0.395  -1.072   1.708  1.00  0.00    -0.326 N 
ATOM     11  C   UNL     1       0.024  -2.202   2.318  1.00  0.00     0.315 C 
ATOM     12  H   UNL     1       0.445  -1.155   0.729  1.00  0.00     0.166 HD
ATOM     13  O   UNL     1      -0.068  -3.208   1.608  1.00  0.00    -0.249 OA
ATOM     14  N   UNL     1      -0.379  -2.320   3.590  1.00  0.00    -0.335 N 
ATOM     15  H   UNL     1      -1.073  -3.012   3.681  1.00  0.00     0.165 HD
BRANCH  14  16
ATOM     16  C   UNL     1      -0.072  -1.698   4.892  1.00  0.00     0.152 C 
BRANCH  16  17
ATOM     17  C   UNL     1      -1.291  -1.413   5.846  1.00  0.00     0.083 C 
ATOM     18  C   UNL     1      -1.596   0.089   5.987  1.00  0.00     0.044 C 
ATOM     19  C   UNL     1      -2.537  -2.221   5.509  1.00  0.00     0.039 C 
ATOM     20  O   UNL     1      -1.036  -1.879   7.199  1.00  0.00    -0.373 OA
ATOM     21  C   UNL     1      -3.379  -2.094   6.753  1.00  0.00     0.031 C 
ATOM     22  C   UNL     1      -2.322  -2.069   7.845  1.00  0.00     0.161 C 
ENDBRANCH  16  17
ENDBRANCH  14  16
ENDBRANCH   7  10
ENDBRANCH   4   7
ENDBRANCH   2   3
ENDBRANCH   1   2
BRANCH   1  23
ATOM     23  C   UNL     1      -4.085  -1.587   2.250  1.00  0.00     0.023 C 
BRANCH  23  24
ATOM     24  C   UNL     1      -4.909  -0.847   3.301  1.00  0.00     0.116 C 
BRANCH  24  25
ATOM     25  N   UNL     1      -6.048  -0.146   2.749  1.00  0.00    -0.352 N 
ATOM     26  C   UNL     1      -7.326  -0.049   3.250  1.00  0.00     0.251 C 
ATOM     27  H   UNL     1      -5.886   0.326   1.900  1.00  0.00     0.163 HD
ATOM     28  O   UNL     1      -8.199   0.480   2.571  1.00  0.00    -0.269 OA
BRANCH  26  29
ATOM     29  C   UNL     1      -7.683  -0.595   4.588  1.00  0.00     0.039 A 
ATOM     30  C   UNL     1      -8.881  -1.308   4.708  1.00  0.00     0.014 A 
ATOM     31  C   UNL     1      -6.921  -0.344   5.734  1.00  0.00     0.014 A 
ATOM     32  C   UNL     1      -9.311  -1.768   5.959  1.00  0.00     0.010 A 
ATOM     33  C   UNL     1      -7.330  -0.847   6.980  1.00  0.00     0.010 A 
ATOM     34  C   UNL     1      -8.541  -1.547   7.113  1.00  0.00    -0.014 A 
BRANCH  34  35
ATOM     35  C   UNL     1      -9.041  -2.017   8.441  1.00  0.00     0.031 A 
ATOM     36  C   UNL     1      -9.455  -1.034   9.508  1.00  0.00     0.074 A 
ATOM     37  C   UNL     1      -9.164  -3.337   8.690  1.00  0.00     0.049 A 
ATOM     38  N   UNL     1     -10.008  -1.259  10.677  1.00  0.00    -0.248 NA
ATOM     39  C   UNL     1      -9.202   0.388   9.234  1.00  0.00     0.031 C 
ATOM     40  C   UNL     1      -8.776  -4.406   7.771  1.00  0.00     0.029 A 
ATOM     41  N   UNL     1      -9.665  -4.004   9.784  1.00  0.00    -0.354 N 
ATOM     42  C   UNL     1     -10.166  -0.014  11.273  1.00  0.00     0.074 A 
ATOM     43  C   UNL     1      -9.599   0.958  10.363  1.00  0.00     0.031 C 
ATOM     44  C   UNL     1      -9.093  -5.591   8.318  1.00  0.00     0.029 A 
ATOM     45  C   UNL     1      -9.681  -5.371   9.637  1.00  0.00     0.049 A 
ATOM     46  H   UNL     1      -9.982  -3.546  10.595  1.00  0.00     0.167 HD
ATOM     47  C   UNL     1     -10.752   0.299  12.457  1.00  0.00     0.037 A 
ATOM     48  C   UNL     1     -10.128  -6.339  10.463  1.00  0.00     0.037 A 
ATOM     49  C   UNL     1     -11.333  -0.659  13.363  1.00  0.00     0.049 A 
ATOM     50  C   UNL     1     -10.752  -5.966  11.783  1.00  0.00     0.074 A 
ATOM     51  C   UNL     1     -12.003  -0.426  14.553  1.00  0.00     0.029 A 
ATOM     52  N   UNL     1     -11.303  -2.035  13.190  1.00  0.00    -0.354 N 
ATOM     53  N   UNL     1     -10.979  -4.780  12.290  1.00  0.00    -0.248 NA
ATOM     54  C   UNL     1     -11.195  -7.076  12.641  1.00  0.00     0.031 C 
ATOM     55  C   UNL     1     -12.320  -1.660  15.130  1.00  0.00     0.029 A 
ATOM     56  C   UNL     1     -11.911  -2.663  14.267  1.00  0.00     0.049 A 
ATOM     57  H   UNL     1     -10.908  -2.498  12.415  1.00  0.00     0.167 HD
ATOM     58  C   UNL     1     -11.623  -4.998  13.502  1.00  0.00     0.074 A 
ATOM     59  C   UNL     1     -11.764  -6.431  13.649  1.00  0.00     0.031 C 
ATOM     60  C   UNL     1     -12.059  -4.089  14.410  1.00  0.00     0.037 A 
BRANCH  47  61
ATOM     61  C   UNL     1     -10.788   1.750  12.852  1.00  0.00     0.064 A 
ATOM     62  C   UNL     1     -11.581   2.685  12.168  1.00  0.00     0.173 A 
ATOM     63  C   UNL     1     -10.049   2.205  13.956  1.00  0.00     0.173 A 
ATOM     64  F   UNL     1     -12.304   2.306  11.103  1.00  0.00    -0.203 F 
ATOM     65  C   UNL     1     -11.603   4.025  12.549  1.00  0.00     0.198 A 
ATOM     66  C   UNL     1     -10.101   3.539  14.356  1.00  0.00     0.198 A 
ATOM     67  F   UNL     1      -9.284   1.354  14.656  1.00  0.00    -0.203 F 
ATOM     68  F   UNL     1     -12.323   4.908  11.844  1.00  0.00    -0.200 F 
ATOM     69  C   UNL     1     -10.868   4.449  13.646  1.00  0.00     0.200 A 
ATOM     70  F   UNL     1      -9.405   3.943  15.427  1.00  0.00    -0.200 F 
ATOM     71  F   UNL     1     -10.895   5.737  14.014  1.00  0.00    -0.200 F 
ENDBRANCH  47  61
BRANCH  48  72
ATOM     72  C   UNL     1     -10.039  -7.767  10.054  1.00  0.00     0.064 A 
ATOM     73  C   UNL     1     -11.196  -8.514   9.787  1.00  0.00     0.173 A 
ATOM     74  C   UNL     1      -8.803  -8.421   9.948  1.00  0.00     0.173 A 
ATOM     75  F   UNL     1     -12.404  -7.942   9.900  1.00  0.00    -0.203 F 
ATOM     76  C   UNL     1     -11.121  -9.866   9.455  1.00  0.00     0.198 A 
ATOM     77  C   UNL     1      -8.728  -9.764   9.584  1.00  0.00     0.198 A 
ATOM     78  F   UNL     1      -7.667  -7.752  10.193  1.00  0.00    -0.203 F 
ATOM     79  F   UNL     1     -12.245 -10.569   9.260  1.00  0.00    -0.200 F 
ATOM     80  C   UNL     1      -9.886 -10.488   9.348  1.00  0.00     0.200 A 
ATOM     81  F   UNL     1      -7.532 -10.357   9.469  1.00  0.00    -0.200 F 
ATOM     82  F   UNL     1      -9.814 -11.787   9.027  1.00  0.00    -0.200 F 
ENDBRANCH  48  72
BRANCH  60  83
ATOM     83  C   UNL     1     -12.777  -4.611  15.625  1.00  0.00     0.064 A 
ATOM     84  C   UNL     1     -12.114  -5.337  16.626  1.00  0.00     0.173 A 
ATOM     85  C   UNL     1     -14.147  -4.359  15.802  1.00  0.00     0.173 A 
ATOM     86  F   UNL     1     -10.808  -5.618  16.504  1.00  0.00    -0.203 F 
ATOM     87  C   UNL     1     -12.802  -5.823  17.736  1.00  0.00     0.198 A 
ATOM     88  C   UNL     1     -14.824  -4.815  16.930  1.00  0.00     0.198 A 
ATOM     89  F   UNL     1     -14.831  -3.662  14.881  1.00  0.00    -0.203 F 
ATOM     90  F   UNL     1     -12.159  -6.566  18.648  1.00  0.00    -0.200 F 
ATOM     91  C   UNL     1     -14.154  -5.556  17.891  1.00  0.00     0.200 A 
ATOM     92  F   UNL     1     -16.127  -4.541  17.085  1.00  0.00    -0.200 F 
ATOM     93  F   UNL     1     -14.813  -6.020  18.961  1.00  0.00    -0.200 F 
ENDBRANCH  60  83
ENDBRANCH  34  35
ENDBRANCH  26  29
ENDBRANCH  24  25
ENDBRANCH  23  24
ENDBRANCH   1  23
TORSDOF 15
