REMARK SMILES C[C@@H](C(=O)NCCCCNC(=O)c1ccc(-c2c3nc(c(-c4c(F)c(F)c(F)c(F)c4F)c4ccc([nH]4)c(-c4c(F)c(F)c(F)c(F)c4F)c4nc(c(-c5c(F)c(F)c(F)c(F)c5F)c5ccc2[nH]5)C=C4)C=C3)cc1)[C@H](C)[N@@H+]1C[C@H]2C[NH2+]C[C@@H]2[C@@H]1C
REMARK SMILES IDX 7 1 6 2 5 3 3 4 4 5 2 7 1 8 76 9 77 10 78 11 79 12 85 13
REMARK SMILES IDX 80 15 84 16 86 17 81 18 83 19 82 20 8 23 9 24 10 25 11 26
REMARK SMILES IDX 12 28 13 29 14 30 75 31 15 32 74 33 16 34 17 35 18 36 68 37
REMARK SMILES IDX 19 38 73 39 67 40 69 41 20 42 72 43 66 44 65 45 21 47 53 48
REMARK SMILES IDX 33 49 52 50 34 51 37 52 51 53 70 54 35 55 36 56 50 58 71 59
REMARK SMILES IDX 38 60 22 61 23 62 31 63 24 64 25 65 29 66 32 67 26 68 27 69
REMARK SMILES IDX 30 70 28 71 54 72 55 73 63 74 56 75 57 76 61 77 64 78 58 79
REMARK SMILES IDX 59 80 62 81 60 82 39 83 40 84 48 85 41 86 42 87 46 88 49 89
REMARK SMILES IDX 43 90 44 91 47 92 45 93
REMARK H PARENT 5 6 78 14 82 21 82 22 10 27 69 46 37 57
REMARK Flexibility Score: inf
ROOT
ATOM      1  C   UNL     1      -3.556  -3.248   2.734  1.00  0.00     0.023 C 
ENDROOT
BRANCH   1   2
ATOM      2  C   UNL     1      -2.127  -2.717   2.602  1.00  0.00     0.116 C 
BRANCH   2   3
ATOM      3  N   UNL     1      -1.816  -2.384   1.228  1.00  0.00    -0.356 N 
ATOM      4  C   UNL     1      -1.660  -1.174   0.625  1.00  0.00     0.228 C 
ATOM      5  O   UNL     1      -1.531  -1.184  -0.601  1.00  0.00    -0.275 OA
ATOM      6  H   UNL     1      -1.698  -3.160   0.632  1.00  0.00     0.163 HD
BRANCH   4   7
ATOM      7  C   UNL     1      -1.662   0.118   1.452  1.00  0.00     0.133 C 
ATOM      8  C   UNL     1      -3.115   0.484   1.771  1.00  0.00     0.024 C 
BRANCH   7   9
ATOM      9  C   UNL     1      -0.898   1.234   0.664  1.00  0.00     0.193 C 
ATOM     10  C   UNL     1       0.593   0.877   0.602  1.00  0.00     0.076 C 
BRANCH   9  11
ATOM     11  N   UNL     1      -1.238   2.584   1.125  1.00  0.00    -0.329 N 
ATOM     12  C   UNL     1      -2.182   3.317   0.247  1.00  0.00     0.272 C 
ATOM     13  C   UNL     1      -0.432   3.532   1.934  1.00  0.00     0.190 C 
ATOM     14  H   UNL     1      -1.559   2.092   1.959  1.00  0.00     0.348 HD
ATOM     15  C   UNL     1      -1.431   4.600   0.072  1.00  0.00     0.114 C 
ATOM     16  C   UNL     1      -1.014   4.879   1.493  1.00  0.00     0.116 C 
ATOM     17  C   UNL     1       1.090   3.539   1.876  1.00  0.00     0.076 C 
ATOM     18  C   UNL     1      -2.053   5.908  -0.319  1.00  0.00     0.270 C 
ATOM     19  C   UNL     1      -0.286   6.187   1.292  1.00  0.00     0.271 C 
ATOM     20  N   UNL     1      -1.115   6.897   0.277  1.00  0.00    -0.345 N 
ATOM     21  H   UNL     1      -1.640   7.648   0.723  1.00  0.00     0.346 HD
ATOM     22  H   UNL     1      -0.521   7.303  -0.446  1.00  0.00     0.346 HD
ENDBRANCH   9  11
ENDBRANCH   7   9
ENDBRANCH   4   7
ENDBRANCH   2   3
ENDBRANCH   1   2
BRANCH   1  23
ATOM     23  C   UNL     1      -3.855  -4.515   1.927  1.00  0.00     0.023 C 
BRANCH  23  24
ATOM     24  C   UNL     1      -2.963  -5.710   2.239  1.00  0.00     0.116 C 
BRANCH  24  25
ATOM     25  N   UNL     1      -3.077  -6.158   3.618  1.00  0.00    -0.352 N 
ATOM     26  C   UNL     1      -3.163  -7.442   4.099  1.00  0.00     0.251 C 
ATOM     27  H   UNL     1      -3.095  -5.446   4.298  1.00  0.00     0.163 HD
ATOM     28  O   UNL     1      -3.380  -7.651   5.288  1.00  0.00    -0.269 OA
BRANCH  26  29
ATOM     29  C   UNL     1      -3.025  -8.577   3.163  1.00  0.00     0.039 A 
ATOM     30  C   UNL     1      -3.986  -9.591   3.178  1.00  0.00     0.014 A 
ATOM     31  C   UNL     1      -1.966  -8.618   2.253  1.00  0.00     0.014 A 
ATOM     32  C   UNL     1      -3.927 -10.614   2.228  1.00  0.00     0.010 A 
ATOM     33  C   UNL     1      -1.945  -9.600   1.269  1.00  0.00     0.010 A 
ATOM     34  C   UNL     1      -2.927 -10.604   1.244  1.00  0.00    -0.014 A 
BRANCH  34  35
ATOM     35  C   UNL     1      -2.867 -11.628   0.172  1.00  0.00     0.031 A 
ATOM     36  C   UNL     1      -1.685 -12.550   0.094  1.00  0.00     0.074 A 
ATOM     37  C   UNL     1      -3.806 -11.649  -0.791  1.00  0.00     0.049 A 
ATOM     38  N   UNL     1      -1.337 -13.377  -0.858  1.00  0.00    -0.248 NA
ATOM     39  C   UNL     1      -0.747 -12.504   1.226  1.00  0.00     0.031 C 
ATOM     40  C   UNL     1      -4.983 -10.782  -0.846  1.00  0.00     0.029 A 
ATOM     41  N   UNL     1      -3.900 -12.410  -1.930  1.00  0.00    -0.354 N 
ATOM     42  C   UNL     1      -0.124 -13.921  -0.458  1.00  0.00     0.074 A 
ATOM     43  C   UNL     1       0.221 -13.304   0.805  1.00  0.00     0.031 C 
ATOM     44  C   UNL     1      -5.679 -11.057  -1.960  1.00  0.00     0.029 A 
ATOM     45  C   UNL     1      -4.976 -12.088  -2.719  1.00  0.00     0.049 A 
ATOM     46  H   UNL     1      -3.256 -13.119  -2.159  1.00  0.00     0.167 HD
ATOM     47  C   UNL     1       0.626 -14.860  -1.083  1.00  0.00     0.037 A 
ATOM     48  C   UNL     1      -5.342 -12.554  -3.928  1.00  0.00     0.037 A 
ATOM     49  C   UNL     1       0.258 -15.495  -2.320  1.00  0.00     0.049 A 
ATOM     50  C   UNL     1      -4.503 -13.607  -4.597  1.00  0.00     0.074 A 
ATOM     51  C   UNL     1       0.914 -16.506  -3.000  1.00  0.00     0.029 A 
ATOM     52  N   UNL     1      -0.870 -15.179  -3.063  1.00  0.00    -0.354 N 
ATOM     53  N   UNL     1      -3.383 -14.153  -4.189  1.00  0.00    -0.248 NA
ATOM     54  C   UNL     1      -4.979 -14.113  -5.893  1.00  0.00     0.031 C 
ATOM     55  C   UNL     1       0.204 -16.775  -4.175  1.00  0.00     0.029 A 
ATOM     56  C   UNL     1      -0.921 -15.965  -4.203  1.00  0.00     0.049 A 
ATOM     57  H   UNL     1      -1.536 -14.497  -2.817  1.00  0.00     0.167 HD
ATOM     58  C   UNL     1      -3.036 -15.085  -5.158  1.00  0.00     0.074 A 
ATOM     59  C   UNL     1      -4.066 -15.032  -6.175  1.00  0.00     0.031 C 
ATOM     60  C   UNL     1      -1.963 -15.911  -5.197  1.00  0.00     0.037 A 
BRANCH  47  61
ATOM     61  C   UNL     1       1.926 -15.242  -0.438  1.00  0.00     0.064 A 
ATOM     62  C   UNL     1       1.970 -15.963   0.765  1.00  0.00     0.173 A 
ATOM     63  C   UNL     1       3.146 -14.888  -1.035  1.00  0.00     0.173 A 
ATOM     64  F   UNL     1       0.833 -16.315   1.383  1.00  0.00    -0.203 F 
ATOM     65  C   UNL     1       3.186 -16.278   1.367  1.00  0.00     0.198 A 
ATOM     66  C   UNL     1       4.359 -15.233  -0.447  1.00  0.00     0.198 A 
ATOM     67  F   UNL     1       3.161 -14.204  -2.189  1.00  0.00    -0.203 F 
ATOM     68  F   UNL     1       3.201 -16.912   2.548  1.00  0.00    -0.200 F 
ATOM     69  C   UNL     1       4.378 -15.918   0.759  1.00  0.00     0.200 A 
ATOM     70  F   UNL     1       5.511 -14.894  -1.042  1.00  0.00    -0.200 F 
ATOM     71  F   UNL     1       5.547 -16.220   1.341  1.00  0.00    -0.200 F 
ENDBRANCH  47  61
BRANCH  48  72
ATOM     72  C   UNL     1      -6.576 -12.034  -4.570  1.00  0.00     0.064 A 
ATOM     73  C   UNL     1      -7.730 -12.826  -4.650  1.00  0.00     0.173 A 
ATOM     74  C   UNL     1      -6.638 -10.733  -5.088  1.00  0.00     0.173 A 
ATOM     75  F   UNL     1      -7.711 -14.084  -4.186  1.00  0.00    -0.203 F 
ATOM     76  C   UNL     1      -8.898 -12.337  -5.231  1.00  0.00     0.198 A 
ATOM     77  C   UNL     1      -7.814 -10.237  -5.648  1.00  0.00     0.198 A 
ATOM     78  F   UNL     1      -5.562  -9.935  -5.030  1.00  0.00    -0.203 F 
ATOM     79  F   UNL     1      -9.978 -13.125  -5.321  1.00  0.00    -0.200 F 
ATOM     80  C   UNL     1      -8.942 -11.041  -5.722  1.00  0.00     0.200 A 
ATOM     81  F   UNL     1      -7.857  -8.980  -6.108  1.00  0.00    -0.200 F 
ATOM     82  F   UNL     1     -10.069 -10.568  -6.270  1.00  0.00    -0.200 F 
ENDBRANCH  48  72
BRANCH  60  83
ATOM     83  C   UNL     1      -1.865 -16.865  -6.351  1.00  0.00     0.064 A 
ATOM     84  C   UNL     1      -1.497 -16.435  -7.633  1.00  0.00     0.173 A 
ATOM     85  C   UNL     1      -2.078 -18.238  -6.151  1.00  0.00     0.173 A 
ATOM     86  F   UNL     1      -1.297 -15.131  -7.877  1.00  0.00    -0.203 F 
ATOM     87  C   UNL     1      -1.357 -17.346  -8.678  1.00  0.00     0.198 A 
ATOM     88  C   UNL     1      -1.912 -19.147  -7.191  1.00  0.00     0.198 A 
ATOM     89  F   UNL     1      -2.427 -18.698  -4.940  1.00  0.00    -0.203 F 
ATOM     90  F   UNL     1      -1.034 -16.911  -9.904  1.00  0.00    -0.200 F 
ATOM     91  C   UNL     1      -1.555 -18.700  -8.454  1.00  0.00     0.200 A 
ATOM     92  F   UNL     1      -2.093 -20.456  -6.969  1.00  0.00    -0.200 F 
ATOM     93  F   UNL     1      -1.406 -19.576  -9.457  1.00  0.00    -0.200 F 
ENDBRANCH  60  83
ENDBRANCH  34  35
ENDBRANCH  26  29
ENDBRANCH  24  25
ENDBRANCH  23  24
ENDBRANCH   1  23
TORSDOF 13
