REMARK SMILES CC(=O)NS(=O)(=O)c1ccc(-c2ccn(C(F)F)c(=O)c2)cc1C(=O)NCCCCNC(=O)c1ccc(-c2c3nc(c(-c4c(F)c(F)c(F)c(F)c4F)c4ccc([nH]4)c(-c4c(F)c(F)c(F)c(F)c4F)c4nc(c(-c5c(F)c(F)c(F)c(F)c5F)c5ccc2[nH]5)C=C4)C=C3)cc1
REMARK SMILES IDX 28 1 27 2 26 3 24 4 25 5 23 7 8 8 9 9 10 10 22 11 11 12 5 13
REMARK SMILES IDX 6 14 7 15 4 16 1 17 2 18 3 19 12 21 13 22 21 23 14 24 19 25
REMARK SMILES IDX 15 26 20 27 16 28 17 29 18 30 29 31 30 32 31 33 32 34 33 36
REMARK SMILES IDX 34 37 35 38 96 39 36 40 95 41 37 42 38 43 39 44 89 45 40 46
REMARK SMILES IDX 94 47 88 48 90 49 41 50 93 51 87 52 86 53 42 55 74 56 54 57
REMARK SMILES IDX 73 58 55 59 58 60 72 61 91 62 56 63 57 64 71 66 92 67 59 68
REMARK SMILES IDX 43 69 44 70 52 71 45 72 46 73 50 74 53 75 47 76 48 77 51 78
REMARK SMILES IDX 49 79 75 80 76 81 84 82 77 83 78 84 82 85 85 86 79 87 80 88
REMARK SMILES IDX 83 89 81 90 60 91 61 92 69 93 62 94 63 95 67 96 70 97 64 98
REMARK SMILES IDX 65 99 68 100 66 101
REMARK H PARENT 26 6 4 20 31 35 90 54 58 65
REMARK Flexibility Score: inf
ROOT
ATOM      1  C   UNL     1       3.300   3.546   2.910  1.00  0.00     0.023 C 
ENDROOT
BRANCH   1   2
ATOM      2  C   UNL     1       3.418   2.838   1.560  1.00  0.00     0.116 C 
BRANCH   2   3
ATOM      3  N   UNL     1       4.320   1.726   1.673  1.00  0.00    -0.352 N 
ATOM      4  C   UNL     1       4.259   0.407   1.988  1.00  0.00     0.252 C 
ATOM      5  O   UNL     1       5.387  -0.076   2.173  1.00  0.00    -0.269 OA
ATOM      6  H   UNL     1       5.242   1.997   1.462  1.00  0.00     0.163 HD
BRANCH   4   7
ATOM      7  C   UNL     1       3.109  -0.564   2.029  1.00  0.00     0.060 A 
ATOM      8  C   UNL     1       1.785  -0.536   2.503  1.00  0.00     0.100 A 
ATOM      9  C   UNL     1       1.057  -1.751   2.641  1.00  0.00     0.024 A 
ATOM     10  C   UNL     1       1.566  -2.974   2.249  1.00  0.00     0.010 A 
ATOM     11  C   UNL     1       3.568  -1.841   1.577  1.00  0.00     0.024 A 
ATOM     12  C   UNL     1       2.821  -3.021   1.674  1.00  0.00    -0.017 A 
BRANCH   8  13
ATOM     13  S   UNL     1       0.844   0.840   3.073  1.00  0.00     0.264 S 
ATOM     14  O   UNL     1       1.687   1.573   3.981  1.00  0.00    -0.201 OA
ATOM     15  O   UNL     1      -0.441   0.365   3.548  1.00  0.00    -0.201 OA
BRANCH  13  16
ATOM     16  N   UNL     1       0.469   1.795   1.779  1.00  0.00    -0.249 N 
ATOM     17  C   UNL     1       0.392   0.196  -0.170  1.00  0.00     0.115 C 
ATOM     18  C   UNL     1       0.129   1.536   0.443  1.00  0.00     0.230 C 
ATOM     19  O   UNL     1      -0.263   2.476  -0.237  1.00  0.00    -0.274 OA
ATOM     20  H   UNL     1       0.487   2.756   1.992  1.00  0.00     0.183 HD
ENDBRANCH  13  16
ENDBRANCH   8  13
BRANCH  12  21
ATOM     21  C   UNL     1       3.342  -4.307   1.204  1.00  0.00    -0.011 A 
ATOM     22  C   UNL     1       4.416  -5.020   1.860  1.00  0.00     0.027 A 
ATOM     23  C   UNL     1       2.733  -4.854   0.139  1.00  0.00     0.080 A 
ATOM     24  C   UNL     1       4.786  -6.228   1.419  1.00  0.00     0.095 A 
ATOM     25  C   UNL     1       3.135  -6.190  -0.363  1.00  0.00     0.255 A 
ATOM     26  N   UNL     1       4.161  -6.810   0.330  1.00  0.00    -0.258 N 
ATOM     27  O   UNL     1       2.537  -6.649  -1.331  1.00  0.00    -0.269 OA
BRANCH  26  28
ATOM     28  C   UNL     1       4.568  -8.105  -0.146  1.00  0.00     0.451 C 
ATOM     29  F   UNL     1       3.532  -8.979  -0.124  1.00  0.00    -0.185 F 
ATOM     30  F   UNL     1       5.026  -8.027  -1.419  1.00  0.00    -0.185 F 
ENDBRANCH  26  28
ENDBRANCH  12  21
ENDBRANCH   4   7
ENDBRANCH   2   3
ENDBRANCH   1   2
BRANCH   1  31
ATOM     31  C   UNL     1       3.962   4.911   2.968  1.00  0.00     0.023 C 
BRANCH  31  32
ATOM     32  C   UNL     1       3.265   5.940   2.099  1.00  0.00     0.116 C 
BRANCH  32  33
ATOM     33  N   UNL     1       1.876   6.192   2.472  1.00  0.00    -0.352 N 
ATOM     34  C   UNL     1       1.206   7.393   2.470  1.00  0.00     0.251 C 
ATOM     35  H   UNL     1       1.356   5.407   2.760  1.00  0.00     0.163 HD
ATOM     36  O   UNL     1       0.053   7.484   2.869  1.00  0.00    -0.269 OA
BRANCH  34  37
ATOM     37  C   UNL     1       1.953   8.585   2.032  1.00  0.00     0.039 A 
ATOM     38  C   UNL     1       2.077   9.661   2.910  1.00  0.00     0.014 A 
ATOM     39  C   UNL     1       2.672   8.541   0.837  1.00  0.00     0.014 A 
ATOM     40  C   UNL     1       3.001  10.664   2.624  1.00  0.00     0.010 A 
ATOM     41  C   UNL     1       3.676   9.470   0.622  1.00  0.00     0.010 A 
ATOM     42  C   UNL     1       3.843  10.549   1.506  1.00  0.00    -0.014 A 
BRANCH  42  43
ATOM     43  C   UNL     1       4.885  11.562   1.211  1.00  0.00     0.031 A 
ATOM     44  C   UNL     1       4.827  12.312  -0.092  1.00  0.00     0.074 A 
ATOM     45  C   UNL     1       5.904  11.759   2.069  1.00  0.00     0.049 A 
ATOM     46  N   UNL     1       5.678  13.170  -0.593  1.00  0.00    -0.248 NA
ATOM     47  C   UNL     1       3.679  12.028  -0.970  1.00  0.00     0.031 C 
ATOM     48  C   UNL     1       6.098  11.053   3.338  1.00  0.00     0.029 A 
ATOM     49  N   UNL     1       6.979  12.610   1.999  1.00  0.00    -0.354 N 
ATOM     50  C   UNL     1       5.177  13.506  -1.843  1.00  0.00     0.074 A 
ATOM     51  C   UNL     1       3.996  12.704  -2.061  1.00  0.00     0.031 C 
ATOM     52  C   UNL     1       7.201  11.525   3.941  1.00  0.00     0.029 A 
ATOM     53  C   UNL     1       7.819  12.532   3.084  1.00  0.00     0.049 A 
ATOM     54  H   UNL     1       7.134  13.221   1.242  1.00  0.00     0.167 HD
ATOM     55  C   UNL     1       5.637  14.431  -2.716  1.00  0.00     0.037 A 
ATOM     56  C   UNL     1       8.961  13.195   3.350  1.00  0.00     0.037 A 
ATOM     57  C   UNL     1       6.792  15.252  -2.475  1.00  0.00     0.049 A 
ATOM     58  C   UNL     1       9.458  14.213   2.356  1.00  0.00     0.074 A 
ATOM     59  C   UNL     1       7.314  16.258  -3.267  1.00  0.00     0.029 A 
ATOM     60  N   UNL     1       7.604  15.159  -1.354  1.00  0.00    -0.354 N 
ATOM     61  N   UNL     1       8.937  14.574   1.208  1.00  0.00    -0.248 NA
ATOM     62  C   UNL     1      10.700  14.920   2.697  1.00  0.00     0.031 C 
ATOM     63  C   UNL     1       8.474  16.736  -2.653  1.00  0.00     0.029 A 
ATOM     64  C   UNL     1       8.638  16.075  -1.445  1.00  0.00     0.049 A 
ATOM     65  H   UNL     1       7.466  14.534  -0.606  1.00  0.00     0.167 HD
ATOM     66  C   UNL     1       9.762  15.574   0.711  1.00  0.00     0.074 A 
ATOM     67  C   UNL     1      10.812  15.771   1.688  1.00  0.00     0.031 C 
ATOM     68  C   UNL     1       9.661  16.269  -0.450  1.00  0.00     0.037 A 
BRANCH  55  69
ATOM     69  C   UNL     1       4.884  14.608  -4.002  1.00  0.00     0.064 A 
ATOM     70  C   UNL     1       3.585  15.141  -4.029  1.00  0.00     0.173 A 
ATOM     71  C   UNL     1       5.477  14.267  -5.226  1.00  0.00     0.173 A 
ATOM     72  F   UNL     1       2.964  15.468  -2.886  1.00  0.00    -0.203 F 
ATOM     73  C   UNL     1       2.897  15.294  -5.230  1.00  0.00     0.198 A 
ATOM     74  C   UNL     1       4.800  14.456  -6.428  1.00  0.00     0.198 A 
ATOM     75  F   UNL     1       6.716  13.755  -5.258  1.00  0.00    -0.203 F 
ATOM     76  F   UNL     1       1.636  15.748  -5.225  1.00  0.00    -0.200 F 
ATOM     77  C   UNL     1       3.509  14.961  -6.429  1.00  0.00     0.200 A 
ATOM     78  F   UNL     1       5.398  14.147  -7.587  1.00  0.00    -0.200 F 
ATOM     79  F   UNL     1       2.850  15.118  -7.585  1.00  0.00    -0.200 F 
ENDBRANCH  55  69
BRANCH  56  80
ATOM     80  C   UNL     1       9.703  12.941   4.615  1.00  0.00     0.064 A 
ATOM     81  C   UNL     1       9.809  13.934   5.601  1.00  0.00     0.173 A 
ATOM     82  C   UNL     1      10.342  11.716   4.856  1.00  0.00     0.173 A 
ATOM     83  F   UNL     1       9.232  15.130   5.412  1.00  0.00    -0.203 F 
ATOM     84  C   UNL     1      10.552  13.723   6.761  1.00  0.00     0.198 A 
ATOM     85  C   UNL     1      11.056  11.494   6.032  1.00  0.00     0.198 A 
ATOM     86  F   UNL     1      10.268  10.730   3.951  1.00  0.00    -0.203 F 
ATOM     87  F   UNL     1      10.687  14.710   7.657  1.00  0.00    -0.200 F 
ATOM     88  C   UNL     1      11.172  12.502   6.978  1.00  0.00     0.200 A 
ATOM     89  F   UNL     1      11.640  10.307   6.245  1.00  0.00    -0.200 F 
ATOM     90  F   UNL     1      11.887  12.299   8.092  1.00  0.00    -0.200 F 
ENDBRANCH  56  80
BRANCH  68  91
ATOM     91  C   UNL     1      10.677  17.345  -0.704  1.00  0.00     0.064 A 
ATOM     92  C   UNL     1      12.015  17.048  -0.996  1.00  0.00     0.173 A 
ATOM     93  C   UNL     1      10.286  18.694  -0.710  1.00  0.00     0.173 A 
ATOM     94  F   UNL     1      12.441  15.776  -0.991  1.00  0.00    -0.203 F 
ATOM     95  C   UNL     1      12.932  18.063  -1.257  1.00  0.00     0.198 A 
ATOM     96  C   UNL     1      11.197  19.703  -1.007  1.00  0.00     0.198 A 
ATOM     97  F   UNL     1       9.015  19.032  -0.447  1.00  0.00    -0.203 F 
ATOM     98  F   UNL     1      14.217  17.759  -1.484  1.00  0.00    -0.200 F 
ATOM     99  C   UNL     1      12.521  19.387  -1.272  1.00  0.00     0.200 A 
ATOM    100  F   UNL     1      10.792  20.980  -1.041  1.00  0.00    -0.200 F 
ATOM    101  F   UNL     1      13.402  20.361  -1.538  1.00  0.00    -0.200 F 
ENDBRANCH  68  91
ENDBRANCH  42  43
ENDBRANCH  34  37
ENDBRANCH  32  33
ENDBRANCH  31  32
ENDBRANCH   1  31
TORSDOF 15
