REMARK SMILES CCOc1cnc(C(=O)c2[nH]c3cc(Cl)ccc3c2CC(=O)NCCCCNC(=O)c2ccc(-c3c4nc(c(-c5c(F)c(F)c(F)c(F)c5F)c5ccc([nH]5)c(-c5c(F)c(F)c(F)c(F)c5F)c5nc(c(-c6c(F)c(F)c(F)c(F)c6F)c6ccc3[nH]6)C=C5)C=C4)cc2)cc1CC
REMARK SMILES IDX 24 1 23 2 21 3 22 4 20 6 19 7 10 8 11 9 12 10 18 12 13 13
REMARK SMILES IDX 17 14 14 15 16 16 15 17 8 18 9 19 7 20 4 21 5 22 95 23 6 24
REMARK SMILES IDX 94 25 3 26 2 27 1 28 96 29 97 30 25 31 26 32 27 33 28 34
REMARK SMILES IDX 29 35 30 37 31 38 32 39 93 40 33 41 92 42 34 43 35 44 36 45
REMARK SMILES IDX 86 46 37 47 91 48 85 49 87 50 38 51 90 52 84 53 83 54 39 56
REMARK SMILES IDX 71 57 51 58 70 59 52 60 55 61 69 62 88 63 53 64 54 65 68 67
REMARK SMILES IDX 89 68 56 69 40 70 41 71 49 72 42 73 43 74 47 75 50 76 44 77
REMARK SMILES IDX 45 78 48 79 46 80 72 81 73 82 81 83 74 84 75 85 79 86 82 87
REMARK SMILES IDX 76 88 77 89 80 90 78 91 57 92 58 93 66 94 59 95 60 96 64 97
REMARK SMILES IDX 67 98 61 99 62 100 65 101 63 102
REMARK H PARENT 23 5 11 11 28 36 87 55 55 66
REMARK Flexibility Score: inf
ROOT
ATOM      1  C   UNL     1      11.219  -1.060   2.913  1.00  0.00     0.116 C 
ENDROOT
BRANCH   1   2
ATOM      2  N   UNL     1      10.499  -2.289   3.168  1.00  0.00    -0.356 N 
ATOM      3  C   UNL     1       9.440  -2.824   2.489  1.00  0.00     0.224 C 
ATOM      4  O   UNL     1       9.082  -3.965   2.793  1.00  0.00    -0.275 OA
ATOM      5  H   UNL     1      10.816  -2.813   3.939  1.00  0.00     0.163 HD
BRANCH   3   6
ATOM      6  C   UNL     1       8.810  -2.089   1.313  1.00  0.00     0.138 C 
BRANCH   6   7
ATOM      7  C   UNL     1       8.289  -0.720   1.646  1.00  0.00    -0.002 A 
ATOM      8  C   UNL     1       7.240  -0.411   2.503  1.00  0.00     0.093 A 
ATOM      9  N   UNL     1       7.226   0.958   2.652  1.00  0.00    -0.351 N 
ATOM     10  C   UNL     1       8.054   1.549   1.730  1.00  0.00     0.048 A 
ATOM     11  H   UNL     1       6.697   1.445   3.325  1.00  0.00     0.167 HD
ATOM     12  C   UNL     1       8.732   0.522   1.075  1.00  0.00     0.004 A 
ATOM     13  C   UNL     1       8.259   2.904   1.438  1.00  0.00     0.047 A 
ATOM     14  C   UNL     1       9.666   0.868   0.074  1.00  0.00     0.012 A 
ATOM     15  C   UNL     1       9.189   3.212   0.442  1.00  0.00     0.043 A 
ATOM     16  C   UNL     1       9.887   2.215  -0.233  1.00  0.00     0.021 A 
ATOM     17  Cl  UNL     1       9.476   4.863   0.042  1.00  0.00    -0.084 Cl
BRANCH   8  18
ATOM     18  C   UNL     1       6.297  -1.305   3.163  1.00  0.00     0.227 C 
ATOM     19  O   UNL     1       6.651  -2.072   4.048  1.00  0.00    -0.285 OA
BRANCH  18  20
ATOM     20  C   UNL     1       4.850  -1.220   2.720  1.00  0.00     0.113 A 
ATOM     21  C   UNL     1       2.184  -0.938   2.100  1.00  0.00     0.140 A 
ATOM     22  C   UNL     1       2.657  -1.893   2.997  1.00  0.00     0.158 A 
ATOM     23  C   UNL     1       3.095  -0.059   1.520  1.00  0.00    -0.002 A 
ATOM     24  N   UNL     1       3.963  -2.039   3.337  1.00  0.00    -0.249 NA
ATOM     25  C   UNL     1       4.452  -0.276   1.773  1.00  0.00     0.040 A 
BRANCH  21  26
ATOM     26  O   UNL     1       0.842  -0.797   1.895  1.00  0.00    -0.492 OA
BRANCH  26  27
ATOM     27  C   UNL     1       0.367  -1.612   0.812  1.00  0.00     0.226 C 
ATOM     28  C   UNL     1       0.111  -0.756  -0.420  1.00  0.00     0.049 C 
ENDBRANCH  26  27
ENDBRANCH  21  26
BRANCH  23  29
ATOM     29  C   UNL     1       2.687   1.115   0.666  1.00  0.00     0.036 C 
ATOM     30  C   UNL     1       3.287   2.438   1.138  1.00  0.00     0.009 C 
ENDBRANCH  23  29
ENDBRANCH  18  20
ENDBRANCH   8  18
ENDBRANCH   6   7
ENDBRANCH   3   6
ENDBRANCH   1   2
BRANCH   1  31
ATOM     31  C   UNL     1      10.849   0.050   3.895  1.00  0.00     0.023 C 
BRANCH  31  32
ATOM     32  C   UNL     1      11.355  -0.164   5.322  1.00  0.00     0.023 C 
BRANCH  32  33
ATOM     33  C   UNL     1      12.857  -0.378   5.450  1.00  0.00     0.116 C 
BRANCH  33  34
ATOM     34  N   UNL     1      13.639   0.717   4.901  1.00  0.00    -0.352 N 
ATOM     35  C   UNL     1      14.791   1.287   5.383  1.00  0.00     0.251 C 
ATOM     36  H   UNL     1      13.294   1.106   4.065  1.00  0.00     0.163 HD
ATOM     37  O   UNL     1      15.246   2.295   4.851  1.00  0.00    -0.269 OA
BRANCH  35  38
ATOM     38  C   UNL     1      15.466   0.710   6.566  1.00  0.00     0.039 A 
ATOM     39  C   UNL     1      15.950   1.579   7.547  1.00  0.00     0.014 A 
ATOM     40  C   UNL     1      15.624  -0.671   6.716  1.00  0.00     0.014 A 
ATOM     41  C   UNL     1      16.543   1.060   8.699  1.00  0.00     0.010 A 
ATOM     42  C   UNL     1      16.138  -1.188   7.903  1.00  0.00     0.010 A 
ATOM     43  C   UNL     1      16.611  -0.328   8.904  1.00  0.00    -0.014 A 
BRANCH  43  44
ATOM     44  C   UNL     1      17.172  -0.878  10.165  1.00  0.00     0.031 A 
ATOM     45  C   UNL     1      18.421  -1.717  10.146  1.00  0.00     0.074 A 
ATOM     46  C   UNL     1      16.541  -0.635  11.330  1.00  0.00     0.049 A 
ATOM     47  N   UNL     1      19.070  -2.256  11.148  1.00  0.00    -0.248 NA
ATOM     48  C   UNL     1      19.007  -2.009   8.829  1.00  0.00     0.031 C 
ATOM     49  C   UNL     1      15.291   0.114  11.473  1.00  0.00     0.029 A 
ATOM     50  N   UNL     1      16.865  -0.986  12.617  1.00  0.00    -0.354 N 
ATOM     51  C   UNL     1      20.136  -2.945  10.583  1.00  0.00     0.074 A 
ATOM     52  C   UNL     1      20.009  -2.814   9.148  1.00  0.00     0.031 C 
ATOM     53  C   UNL     1      14.978   0.204  12.775  1.00  0.00     0.029 A 
ATOM     54  C   UNL     1      15.982  -0.511  13.556  1.00  0.00     0.049 A 
ATOM     55  H   UNL     1      17.655  -1.527  12.845  1.00  0.00     0.167 HD
ATOM     56  C   UNL     1      21.146  -3.599  11.205  1.00  0.00     0.037 A 
ATOM     57  C   UNL     1      15.984  -0.636  14.897  1.00  0.00     0.037 A 
ATOM     58  C   UNL     1      21.274  -3.720  12.634  1.00  0.00     0.049 A 
ATOM     59  C   UNL     1      17.111  -1.384  15.559  1.00  0.00     0.074 A 
ATOM     60  C   UNL     1      22.282  -4.326  13.363  1.00  0.00     0.029 A 
ATOM     61  N   UNL     1      20.359  -3.228  13.554  1.00  0.00    -0.354 N 
ATOM     62  N   UNL     1      18.157  -1.960  15.018  1.00  0.00    -0.248 NA
ATOM     63  C   UNL     1      17.061  -1.487  17.024  1.00  0.00     0.031 C 
ATOM     64  C   UNL     1      21.951  -4.249  14.720  1.00  0.00     0.029 A 
ATOM     65  C   UNL     1      20.768  -3.538  14.842  1.00  0.00     0.049 A 
ATOM     66  H   UNL     1      19.539  -2.732  13.325  1.00  0.00     0.167 HD
ATOM     67  C   UNL     1      18.904  -2.464  16.074  1.00  0.00     0.074 A 
ATOM     68  C   UNL     1      18.204  -2.102  17.289  1.00  0.00     0.031 C 
ATOM     69  C   UNL     1      20.064  -3.165  16.043  1.00  0.00     0.037 A 
BRANCH  56  70
ATOM     70  C   UNL     1      22.203  -4.229  10.342  1.00  0.00     0.064 A 
ATOM     71  C   UNL     1      23.105  -3.450   9.600  1.00  0.00     0.173 A 
ATOM     72  C   UNL     1      22.349  -5.623  10.291  1.00  0.00     0.173 A 
ATOM     73  F   UNL     1      23.005  -2.112   9.603  1.00  0.00    -0.203 F 
ATOM     74  C   UNL     1      24.094  -4.044   8.819  1.00  0.00     0.198 A 
ATOM     75  C   UNL     1      23.360  -6.213   9.537  1.00  0.00     0.198 A 
ATOM     76  F   UNL     1      21.519  -6.416  10.985  1.00  0.00    -0.203 F 
ATOM     77  F   UNL     1      24.912  -3.280   8.082  1.00  0.00    -0.200 F 
ATOM     78  C   UNL     1      24.227  -5.423   8.796  1.00  0.00     0.200 A 
ATOM     79  F   UNL     1      23.497  -7.546   9.527  1.00  0.00    -0.200 F 
ATOM     80  F   UNL     1      25.187  -5.993   8.054  1.00  0.00    -0.200 F 
ENDBRANCH  56  70
BRANCH  57  81
ATOM     81  C   UNL     1      14.903  -0.017  15.710  1.00  0.00     0.064 A 
ATOM     82  C   UNL     1      15.177   1.044  16.586  1.00  0.00     0.173 A 
ATOM     83  C   UNL     1      13.584  -0.488  15.652  1.00  0.00     0.173 A 
ATOM     84  F   UNL     1      16.427   1.518  16.693  1.00  0.00    -0.203 F 
ATOM     85  C   UNL     1      14.182   1.585  17.397  1.00  0.00     0.198 A 
ATOM     86  C   UNL     1      12.581   0.078  16.437  1.00  0.00     0.198 A 
ATOM     87  F   UNL     1      13.265  -1.496  14.827  1.00  0.00    -0.203 F 
ATOM     88  F   UNL     1      14.486   2.555  18.270  1.00  0.00    -0.200 F 
ATOM     89  C   UNL     1      12.884   1.105  17.319  1.00  0.00     0.200 A 
ATOM     90  F   UNL     1      11.325  -0.378  16.346  1.00  0.00    -0.200 F 
ATOM     91  F   UNL     1      11.927   1.624  18.100  1.00  0.00    -0.200 F 
ENDBRANCH  57  81
BRANCH  69  92
ATOM     92  C   UNL     1      20.669  -3.549  17.364  1.00  0.00     0.064 A 
ATOM     93  C   UNL     1      20.069  -4.497  18.206  1.00  0.00     0.173 A 
ATOM     94  C   UNL     1      21.874  -2.967  17.788  1.00  0.00     0.173 A 
ATOM     95  F   UNL     1      18.910  -5.075  17.855  1.00  0.00    -0.203 F 
ATOM     96  C   UNL     1      20.628  -4.815  19.441  1.00  0.00     0.198 A 
ATOM     97  C   UNL     1      22.451  -3.316  19.006  1.00  0.00     0.198 A 
ATOM     98  F   UNL     1      22.497  -2.062  17.018  1.00  0.00    -0.203 F 
ATOM     99  F   UNL     1      20.000  -5.672  20.258  1.00  0.00    -0.200 F 
ATOM    100  C   UNL     1      21.821  -4.229  19.837  1.00  0.00     0.200 A 
ATOM    101  F   UNL     1      23.613  -2.761  19.378  1.00  0.00    -0.200 F 
ATOM    102  F   UNL     1      22.358  -4.536  21.026  1.00  0.00    -0.200 F 
ENDBRANCH  69  92
ENDBRANCH  43  44
ENDBRANCH  35  38
ENDBRANCH  33  34
ENDBRANCH  32  33
ENDBRANCH  31  32
ENDBRANCH   1  31
TORSDOF 17
