REMARK SMILES C[C@H](c1ccccc1)N1C(=O)c2ccc(C(=O)NCCCCNC(=O)c3ccc(-c4c5nc(c(-c6c(F)c(F)c(F)c(F)c6F)c6ccc([nH]6)c(-c6c(F)c(F)c(F)c(F)c6F)c6nc(c(-c7c(F)c(F)c(F)c(F)c7F)c7ccc4[nH]7)C=C6)C=C5)cc3)cc2C1=O
REMARK SMILES IDX 20 1 19 2 18 3 16 4 17 5 15 7 9 8 10 9 91 10 11 11 12 12
REMARK SMILES IDX 90 13 92 14 13 15 89 16 14 17 2 18 1 19 3 20 4 21 8 22 5 23
REMARK SMILES IDX 7 24 6 25 21 26 22 27 23 28 24 29 25 31 26 32 27 33 88 34
REMARK SMILES IDX 28 35 87 36 29 37 30 38 31 39 81 40 32 41 86 42 80 43 82 44
REMARK SMILES IDX 33 45 85 46 79 47 78 48 34 50 66 51 46 52 65 53 47 54 50 55
REMARK SMILES IDX 64 56 83 57 48 58 49 59 63 61 84 62 51 63 35 64 36 65 44 66
REMARK SMILES IDX 37 67 38 68 42 69 45 70 39 71 40 72 43 73 41 74 67 75 68 76
REMARK SMILES IDX 76 77 69 78 70 79 74 80 77 81 71 82 72 83 75 84 73 85 52 86
REMARK SMILES IDX 53 87 61 88 54 89 55 90 59 91 62 92 56 93 57 94 60 95 58 96
REMARK H PARENT 18 6 23 30 82 49 50 60
REMARK Flexibility Score: inf
ROOT
ATOM      1  C   UNL     1      -7.611   3.752  -3.062  1.00  0.00     0.023 C 
ENDROOT
BRANCH   1   2
ATOM      2  C   UNL     1      -7.117   3.324  -1.681  1.00  0.00     0.116 C 
BRANCH   2   3
ATOM      3  N   UNL     1      -7.741   2.104  -1.200  1.00  0.00    -0.352 N 
ATOM      4  C   UNL     1      -7.226   0.859  -0.956  1.00  0.00     0.251 C 
ATOM      5  O   UNL     1      -7.980  -0.048  -0.614  1.00  0.00    -0.269 OA
ATOM      6  H   UNL     1      -8.704   2.188  -1.016  1.00  0.00     0.163 HD
BRANCH   4   7
ATOM      7  C   UNL     1      -5.790   0.559  -1.152  1.00  0.00     0.040 A 
ATOM      8  N   UNL     1      -1.201   0.794  -1.044  1.00  0.00    -0.267 N 
ATOM      9  C   UNL     1      -1.738  -0.170  -1.855  1.00  0.00     0.262 C 
ATOM     10  C   UNL     1      -2.186   1.573  -0.495  1.00  0.00     0.262 C 
ATOM     11  O   UNL     1      -1.224  -0.907  -2.672  1.00  0.00    -0.269 OA
ATOM     12  C   UNL     1      -3.180  -0.120  -1.669  1.00  0.00     0.053 A 
ATOM     13  C   UNL     1      -3.467   0.975  -0.879  1.00  0.00     0.054 A 
ATOM     14  O   UNL     1      -2.092   2.595   0.159  1.00  0.00    -0.269 OA
ATOM     15  C   UNL     1      -4.160  -0.951  -2.173  1.00  0.00     0.015 A 
ATOM     16  C   UNL     1      -4.770   1.343  -0.592  1.00  0.00     0.028 A 
ATOM     17  C   UNL     1      -5.483  -0.607  -1.896  1.00  0.00     0.015 A 
BRANCH   8  18
ATOM     18  C   UNL     1       0.231   1.068  -0.886  1.00  0.00     0.121 C 
ATOM     19  C   UNL     1       0.823   1.729  -2.134  1.00  0.00     0.037 C 
BRANCH  18  20
ATOM     20  C   UNL     1       0.993  -0.169  -0.422  1.00  0.00    -0.025 A 
ATOM     21  C   UNL     1       1.368  -1.190  -1.311  1.00  0.00     0.006 A 
ATOM     22  C   UNL     1       1.275  -0.347   0.943  1.00  0.00     0.006 A 
ATOM     23  C   UNL     1       1.949  -2.372  -0.851  1.00  0.00     0.000 A 
ATOM     24  C   UNL     1       1.883  -1.520   1.400  1.00  0.00     0.000 A 
ATOM     25  C   UNL     1       2.204  -2.538   0.506  1.00  0.00     0.000 A 
ENDBRANCH  18  20
ENDBRANCH   8  18
ENDBRANCH   4   7
ENDBRANCH   2   3
ENDBRANCH   1   2
BRANCH   1  26
ATOM     26  C   UNL     1      -9.114   4.002  -3.201  1.00  0.00     0.023 C 
BRANCH  26  27
ATOM     27  C   UNL     1      -9.765   4.873  -2.131  1.00  0.00     0.116 C 
BRANCH  27  28
ATOM     28  N   UNL     1      -9.144   6.178  -1.975  1.00  0.00    -0.352 N 
ATOM     29  C   UNL     1      -9.726   7.404  -1.757  1.00  0.00     0.251 C 
ATOM     30  H   UNL     1      -8.161   6.184  -2.035  1.00  0.00     0.163 HD
ATOM     31  O   UNL     1      -9.025   8.410  -1.702  1.00  0.00    -0.269 OA
BRANCH  29  32
ATOM     32  C   UNL     1     -11.196   7.529  -1.636  1.00  0.00     0.039 A 
ATOM     33  C   UNL     1     -11.835   8.551  -2.346  1.00  0.00     0.014 A 
ATOM     34  C   UNL     1     -11.945   6.658  -0.841  1.00  0.00     0.014 A 
ATOM     35  C   UNL     1     -13.229   8.651  -2.323  1.00  0.00     0.010 A 
ATOM     36  C   UNL     1     -13.338   6.722  -0.864  1.00  0.00     0.010 A 
ATOM     37  C   UNL     1     -13.993   7.712  -1.613  1.00  0.00    -0.014 A 
BRANCH  37  38
ATOM     38  C   UNL     1     -15.476   7.737  -1.659  1.00  0.00     0.031 A 
ATOM     39  C   UNL     1     -16.270   8.047  -0.422  1.00  0.00     0.074 A 
ATOM     40  C   UNL     1     -16.110   7.406  -2.801  1.00  0.00     0.049 A 
ATOM     41  N   UNL     1     -17.567   8.034  -0.246  1.00  0.00    -0.248 NA
ATOM     42  C   UNL     1     -15.502   8.392   0.783  1.00  0.00     0.031 C 
ATOM     43  C   UNL     1     -15.454   7.041  -4.057  1.00  0.00     0.029 A 
ATOM     44  N   UNL     1     -17.450   7.310  -3.086  1.00  0.00    -0.354 N 
ATOM     45  C   UNL     1     -17.770   8.346   1.091  1.00  0.00     0.074 A 
ATOM     46  C   UNL     1     -16.462   8.509   1.690  1.00  0.00     0.031 C 
ATOM     47  C   UNL     1     -16.391   6.776  -4.982  1.00  0.00     0.029 A 
ATOM     48  C   UNL     1     -17.712   6.922  -4.377  1.00  0.00     0.049 A 
ATOM     49  H   UNL     1     -18.156   7.502  -2.427  1.00  0.00     0.167 HD
ATOM     50  C   UNL     1     -18.940   8.500   1.755  1.00  0.00     0.037 A 
ATOM     51  C   UNL     1     -18.884   6.703  -5.001  1.00  0.00     0.037 A 
ATOM     52  C   UNL     1     -20.241   8.374   1.151  1.00  0.00     0.049 A 
ATOM     53  C   UNL     1     -20.170   6.899  -4.246  1.00  0.00     0.074 A 
ATOM     54  C   UNL     1     -21.483   8.582   1.724  1.00  0.00     0.029 A 
ATOM     55  N   UNL     1     -20.465   8.009  -0.168  1.00  0.00    -0.354 N 
ATOM     56  N   UNL     1     -20.349   7.257  -2.998  1.00  0.00    -0.248 NA
ATOM     57  C   UNL     1     -21.416   6.666  -4.989  1.00  0.00     0.031 C 
ATOM     58  C   UNL     1     -22.461   8.312   0.761  1.00  0.00     0.029 A 
ATOM     59  C   UNL     1     -21.827   7.970  -0.423  1.00  0.00     0.049 A 
ATOM     60  H   UNL     1     -19.761   7.807  -0.826  1.00  0.00     0.167 HD
ATOM     61  C   UNL     1     -21.723   7.316  -2.812  1.00  0.00     0.074 A 
ATOM     62  C   UNL     1     -22.332   6.967  -4.079  1.00  0.00     0.031 C 
ATOM     63  C   UNL     1     -22.416   7.631  -1.691  1.00  0.00     0.037 A 
BRANCH  50  64
ATOM     64  C   UNL     1     -18.868   8.826   3.217  1.00  0.00     0.064 A 
ATOM     65  C   UNL     1     -18.466  10.093   3.666  1.00  0.00     0.173 A 
ATOM     66  C   UNL     1     -19.236   7.873   4.178  1.00  0.00     0.173 A 
ATOM     67  F   UNL     1     -18.093  11.034   2.786  1.00  0.00    -0.203 F 
ATOM     68  C   UNL     1     -18.410  10.385   5.027  1.00  0.00     0.198 A 
ATOM     69  C   UNL     1     -19.203   8.177   5.536  1.00  0.00     0.198 A 
ATOM     70  F   UNL     1     -19.633   6.649   3.799  1.00  0.00    -0.203 F 
ATOM     71  F   UNL     1     -17.981  11.587   5.435  1.00  0.00    -0.200 F 
ATOM     72  C   UNL     1     -18.784   9.429   5.960  1.00  0.00     0.200 A 
ATOM     73  F   UNL     1     -19.573   7.256   6.436  1.00  0.00    -0.200 F 
ATOM     74  F   UNL     1     -18.733   9.713   7.268  1.00  0.00    -0.200 F 
ENDBRANCH  50  64
BRANCH  51  75
ATOM     75  C   UNL     1     -18.898   6.303  -6.430  1.00  0.00     0.064 A 
ATOM     76  C   UNL     1     -19.305   7.206  -7.421  1.00  0.00     0.173 A 
ATOM     77  C   UNL     1     -18.505   5.020  -6.835  1.00  0.00     0.173 A 
ATOM     78  F   UNL     1     -19.710   8.438  -7.078  1.00  0.00    -0.203 F 
ATOM     79  C   UNL     1     -19.333   6.836  -8.764  1.00  0.00     0.198 A 
ATOM     80  C   UNL     1     -18.512   4.658  -8.180  1.00  0.00     0.198 A 
ATOM     81  F   UNL     1     -18.103   4.122  -5.923  1.00  0.00    -0.203 F 
ATOM     82  F   UNL     1     -19.762   7.706  -9.688  1.00  0.00    -0.200 F 
ATOM     83  C   UNL     1     -18.931   5.564  -9.143  1.00  0.00     0.200 A 
ATOM     84  F   UNL     1     -18.113   3.431  -8.544  1.00  0.00    -0.200 F 
ATOM     85  F   UNL     1     -18.955   5.209 -10.434  1.00  0.00    -0.200 F 
ENDBRANCH  51  75
BRANCH  63  86
ATOM     86  C   UNL     1     -23.912   7.644  -1.792  1.00  0.00     0.064 A 
ATOM     87  C   UNL     1     -24.653   6.455  -1.845  1.00  0.00     0.173 A 
ATOM     88  C   UNL     1     -24.612   8.859  -1.796  1.00  0.00     0.173 A 
ATOM     89  F   UNL     1     -24.026   5.269  -1.860  1.00  0.00    -0.203 F 
ATOM     90  C   UNL     1     -26.043   6.483  -1.917  1.00  0.00     0.198 A 
ATOM     91  C   UNL     1     -26.003   8.883  -1.845  1.00  0.00     0.198 A 
ATOM     92  F   UNL     1     -23.947  10.023  -1.744  1.00  0.00    -0.203 F 
ATOM     93  F   UNL     1     -26.731   5.337  -2.005  1.00  0.00    -0.200 F 
ATOM     94  C   UNL     1     -26.717   7.696  -1.910  1.00  0.00     0.200 A 
ATOM     95  F   UNL     1     -26.652  10.055  -1.830  1.00  0.00    -0.200 F 
ATOM     96  F   UNL     1     -28.055   7.721  -1.974  1.00  0.00    -0.200 F 
ENDBRANCH  63  86
ENDBRANCH  37  38
ENDBRANCH  29  32
ENDBRANCH  27  28
ENDBRANCH  26  27
ENDBRANCH   1  26
TORSDOF 13
