REMARK SMILES Cc1c(C(=O)Nc2ccc(C(=O)Nc3ccccc3C(=O)NCCCCNC(=O)c3ccc(-c4c5nc(c(-c6c(F)c(F)c(F)c(F)c6F)c6ccc([nH]6)c(-c6c(F)c(F)c(F)c(F)c6F)c6nc(c(-c7c(F)c(F)c(F)c(F)c7F)c7ccc4[nH]7)C=C6)C=C5)cc3)cc2)cccc1[N+](=O)[O-]
REMARK SMILES IDX 23 1 22 2 20 3 21 4 19 6 14 7 15 8 16 9 18 10 17 11 13 12
REMARK SMILES IDX 11 13 12 14 10 16 7 17 8 18 94 19 9 20 93 21 6 22 4 23 5 24
REMARK SMILES IDX 3 26 1 27 2 28 98 29 95 30 97 31 96 32 99 33 100 34 101 35
REMARK SMILES IDX 24 36 25 37 26 38 27 39 28 40 29 42 30 43 31 44 92 45 32 46
REMARK SMILES IDX 91 47 33 48 34 49 35 50 85 51 36 52 90 53 84 54 86 55 37 56
REMARK SMILES IDX 89 57 83 58 82 59 38 61 70 62 50 63 69 64 51 65 54 66 68 67
REMARK SMILES IDX 87 68 52 69 53 70 67 72 88 73 55 74 39 75 40 76 48 77 41 78
REMARK SMILES IDX 42 79 46 80 49 81 43 82 44 83 47 84 45 85 71 86 72 87 80 88
REMARK SMILES IDX 73 89 74 90 78 91 81 92 75 93 76 94 79 95 77 96 56 97 57 98
REMARK SMILES IDX 65 99 58 100 59 101 63 102 66 103 60 104 61 105 64 106
REMARK SMILES IDX 62 107
REMARK H PARENT 22 5 13 15 6 25 27 41 86 60 54 71
REMARK Flexibility Score: inf
ROOT
ATOM      1  C   UNL     1       3.088  -0.321   4.432  1.00  0.00     0.116 C 
ENDROOT
BRANCH   1   2
ATOM      2  N   UNL     1       4.372   0.101   3.882  1.00  0.00    -0.352 N 
ATOM      3  C   UNL     1       4.888   1.325   3.493  1.00  0.00     0.253 C 
ATOM      4  O   UNL     1       6.096   1.383   3.264  1.00  0.00    -0.269 OA
ATOM      5  H   UNL     1       5.006  -0.642   3.761  1.00  0.00     0.163 HD
BRANCH   3   6
ATOM      6  C   UNL     1       4.047   2.541   3.298  1.00  0.00     0.063 A 
ATOM      7  C   UNL     1       4.226   3.425   2.204  1.00  0.00     0.054 A 
ATOM      8  C   UNL     1       3.388   4.551   2.087  1.00  0.00     0.027 A 
ATOM      9  C   UNL     1       2.358   4.778   2.997  1.00  0.00     0.002 A 
ATOM     10  C   UNL     1       3.093   2.871   4.274  1.00  0.00     0.016 A 
ATOM     11  C   UNL     1       2.221   3.948   4.101  1.00  0.00     0.001 A 
BRANCH   7  12
ATOM     12  N   UNL     1       5.144   3.293   1.138  1.00  0.00    -0.321 N 
ATOM     13  C   UNL     1       5.573   2.208   0.402  1.00  0.00     0.255 C 
ATOM     14  O   UNL     1       6.545   2.343  -0.344  1.00  0.00    -0.269 OA
ATOM     15  H   UNL     1       5.559   4.143   0.866  1.00  0.00     0.170 HD
BRANCH  13  16
ATOM     16  C   UNL     1       4.784   0.949   0.317  1.00  0.00     0.040 A 
ATOM     17  C   UNL     1       3.209  -1.332  -0.183  1.00  0.00     0.041 A 
ATOM     18  C   UNL     1       2.705  -0.263   0.538  1.00  0.00     0.027 A 
ATOM     19  C   UNL     1       4.564  -1.326  -0.527  1.00  0.00     0.027 A 
ATOM     20  C   UNL     1       3.445   0.898   0.687  1.00  0.00     0.016 A 
ATOM     21  C   UNL     1       5.350  -0.189  -0.272  1.00  0.00     0.016 A 
BRANCH  17  22
ATOM     22  N   UNL     1       2.385  -2.366  -0.657  1.00  0.00    -0.322 N 
ATOM     23  C   UNL     1       1.014  -2.423  -0.851  1.00  0.00     0.256 C 
ATOM     24  O   UNL     1       0.495  -3.500  -1.144  1.00  0.00    -0.269 OA
ATOM     25  H   UNL     1       2.865  -3.193  -0.892  1.00  0.00     0.170 HD
BRANCH  23  26
ATOM     26  C   UNL     1       0.120  -1.233  -0.702  1.00  0.00     0.049 A 
ATOM     27  C   UNL     1       1.360   0.203  -2.404  1.00  0.00     0.053 C 
ATOM     28  C   UNL     1       0.359   0.033  -1.290  1.00  0.00     0.039 A 
ATOM     29  C   UNL     1      -0.376   1.127  -0.776  1.00  0.00     0.273 A 
ATOM     30  C   UNL     1      -0.990  -1.418   0.145  1.00  0.00     0.014 A 
ATOM     31  C   UNL     1      -1.465   0.939   0.092  1.00  0.00     0.086 A 
ATOM     32  C   UNL     1      -1.802  -0.345   0.508  1.00  0.00     0.008 A 
BRANCH  29  33
ATOM     33  N   UNL     1       0.049   2.515  -1.009  1.00  0.00     0.063 N 
ATOM     34  O   UNL     1      -0.833   3.384  -1.052  1.00  0.00    -0.258 OA
ATOM     35  O   UNL     1       1.265   2.743  -1.067  1.00  0.00    -0.258 OA
ENDBRANCH  29  33
ENDBRANCH  23  26
ENDBRANCH  17  22
ENDBRANCH  13  16
ENDBRANCH   7  12
ENDBRANCH   3   6
ENDBRANCH   1   2
BRANCH   1  36
ATOM     36  C   UNL     1       2.382  -1.511   3.762  1.00  0.00     0.023 C 
BRANCH  36  37
ATOM     37  C   UNL     1       3.243  -2.642   3.212  1.00  0.00     0.023 C 
BRANCH  37  38
ATOM     38  C   UNL     1       3.814  -3.560   4.278  1.00  0.00     0.116 C 
BRANCH  38  39
ATOM     39  N   UNL     1       2.928  -4.652   4.676  1.00  0.00    -0.352 N 
ATOM     40  C   UNL     1       3.095  -5.601   5.677  1.00  0.00     0.251 C 
ATOM     41  H   UNL     1       2.093  -4.726   4.161  1.00  0.00     0.163 HD
ATOM     42  O   UNL     1       2.270  -6.481   5.843  1.00  0.00    -0.269 OA
BRANCH  40  43
ATOM     43  C   UNL     1       4.216  -5.438   6.636  1.00  0.00     0.039 A 
ATOM     44  C   UNL     1       3.916  -5.485   8.003  1.00  0.00     0.014 A 
ATOM     45  C   UNL     1       5.454  -4.982   6.201  1.00  0.00     0.014 A 
ATOM     46  C   UNL     1       4.736  -4.804   8.896  1.00  0.00     0.010 A 
ATOM     47  C   UNL     1       6.195  -4.199   7.056  1.00  0.00     0.010 A 
ATOM     48  C   UNL     1       5.789  -4.050   8.386  1.00  0.00    -0.014 A 
BRANCH  48  49
ATOM     49  C   UNL     1       6.473  -3.009   9.138  1.00  0.00     0.031 A 
ATOM     50  C   UNL     1       7.847  -3.242   9.617  1.00  0.00     0.074 A 
ATOM     51  C   UNL     1       5.881  -1.803   9.280  1.00  0.00     0.049 A 
ATOM     52  N   UNL     1       8.430  -2.547  10.532  1.00  0.00    -0.248 NA
ATOM     53  C   UNL     1       8.661  -4.349   9.134  1.00  0.00     0.031 C 
ATOM     54  C   UNL     1       6.492  -0.555   9.731  1.00  0.00     0.029 A 
ATOM     55  N   UNL     1       4.505  -1.516   9.227  1.00  0.00    -0.354 N 
ATOM     56  C   UNL     1       9.755  -2.921  10.570  1.00  0.00     0.074 A 
ATOM     57  C   UNL     1       9.819  -4.107   9.753  1.00  0.00     0.031 C 
ATOM     58  C   UNL     1       5.528   0.248  10.210  1.00  0.00     0.029 A 
ATOM     59  C   UNL     1       4.298  -0.524  10.215  1.00  0.00     0.049 A 
ATOM     60  H   UNL     1       3.831  -1.919   8.633  1.00  0.00     0.167 HD
ATOM     61  C   UNL     1      10.643  -2.091  11.193  1.00  0.00     0.037 A 
ATOM     62  C   UNL     1       3.543  -0.778  11.323  1.00  0.00     0.037 A 
ATOM     63  C   UNL     1       9.925  -1.055  11.943  1.00  0.00     0.049 A 
ATOM     64  C   UNL     1       4.300  -0.623  12.622  1.00  0.00     0.074 A 
ATOM     65  C   UNL     1       9.641   0.278  11.689  1.00  0.00     0.029 A 
ATOM     66  N   UNL     1       9.100  -1.435  13.000  1.00  0.00    -0.354 N 
ATOM     67  N   UNL     1       5.601  -0.657  12.717  1.00  0.00    -0.248 NA
ATOM     68  C   UNL     1       3.649  -0.439  13.915  1.00  0.00     0.031 C 
ATOM     69  C   UNL     1       8.585   0.674  12.553  1.00  0.00     0.029 A 
ATOM     70  C   UNL     1       8.249  -0.406  13.352  1.00  0.00     0.049 A 
ATOM     71  H   UNL     1       9.122  -2.317  13.436  1.00  0.00     0.167 HD
ATOM     72  C   UNL     1       5.968  -0.526  14.032  1.00  0.00     0.074 A 
ATOM     73  C   UNL     1       4.710  -0.370  14.739  1.00  0.00     0.031 C 
ATOM     74  C   UNL     1       7.277  -0.573  14.425  1.00  0.00     0.037 A 
BRANCH  61  75
ATOM     75  C   UNL     1      12.142  -2.041  10.925  1.00  0.00     0.064 A 
ATOM     76  C   UNL     1      12.889  -0.887  11.266  1.00  0.00     0.173 A 
ATOM     77  C   UNL     1      12.897  -3.028  10.260  1.00  0.00     0.173 A 
ATOM     78  F   UNL     1      12.348   0.111  11.976  1.00  0.00    -0.203 F 
ATOM     79  C   UNL     1      14.226  -0.707  10.888  1.00  0.00     0.198 A 
ATOM     80  C   UNL     1      14.224  -2.839   9.858  1.00  0.00     0.198 A 
ATOM     81  F   UNL     1      12.414  -4.243  10.003  1.00  0.00    -0.203 F 
ATOM     82  F   UNL     1      14.867   0.421  11.226  1.00  0.00    -0.200 F 
ATOM     83  C   UNL     1      14.887  -1.673  10.161  1.00  0.00     0.200 A 
ATOM     84  F   UNL     1      14.851  -3.808   9.175  1.00  0.00    -0.200 F 
ATOM     85  F   UNL     1      16.157  -1.494   9.775  1.00  0.00    -0.200 F 
ENDBRANCH  61  75
BRANCH  62  86
ATOM     86  C   UNL     1       2.452  -1.760  11.073  1.00  0.00     0.064 A 
ATOM     87  C   UNL     1       1.473  -1.435  10.112  1.00  0.00     0.173 A 
ATOM     88  C   UNL     1       2.566  -3.103  11.448  1.00  0.00     0.173 A 
ATOM     89  F   UNL     1       1.321  -0.161   9.715  1.00  0.00    -0.203 F 
ATOM     90  C   UNL     1       0.736  -2.422   9.463  1.00  0.00     0.198 A 
ATOM     91  C   UNL     1       1.809  -4.089  10.808  1.00  0.00     0.198 A 
ATOM     92  F   UNL     1       3.489  -3.483  12.342  1.00  0.00    -0.203 F 
ATOM     93  F   UNL     1      -0.094  -2.087   8.464  1.00  0.00    -0.200 F 
ATOM     94  C   UNL     1       0.925  -3.753   9.793  1.00  0.00     0.200 A 
ATOM     95  F   UNL     1       2.012  -5.381  11.105  1.00  0.00    -0.200 F 
ATOM     96  F   UNL     1       0.290  -4.712   9.104  1.00  0.00    -0.200 F 
ENDBRANCH  62  86
BRANCH  74  97
ATOM     97  C   UNL     1       7.779  -0.697  15.848  1.00  0.00     0.064 A 
ATOM     98  C   UNL     1       7.047  -1.277  16.897  1.00  0.00     0.173 A 
ATOM     99  C   UNL     1       9.118  -0.355  16.165  1.00  0.00     0.173 A 
ATOM    100  F   UNL     1       5.815  -1.765  16.705  1.00  0.00    -0.203 F 
ATOM    101  C   UNL     1       7.585  -1.438  18.178  1.00  0.00     0.198 A 
ATOM    102  C   UNL     1       9.672  -0.578  17.425  1.00  0.00     0.198 A 
ATOM    103  F   UNL     1       9.942   0.179  15.252  1.00  0.00    -0.203 F 
ATOM    104  F   UNL     1       6.826  -1.954  19.155  1.00  0.00    -0.200 F 
ATOM    105  C   UNL     1       8.900  -1.102  18.439  1.00  0.00     0.200 A 
ATOM    106  F   UNL     1      10.966  -0.300  17.642  1.00  0.00    -0.200 F 
ATOM    107  F   UNL     1       9.426  -1.306  19.654  1.00  0.00    -0.200 F 
ENDBRANCH  74  97
ENDBRANCH  48  49
ENDBRANCH  40  43
ENDBRANCH  38  39
ENDBRANCH  37  38
ENDBRANCH  36  37
ENDBRANCH   1  36
TORSDOF 16
