REMARK SMILES [NH3+][C@@](C(=O)NCCCCNC(=O)c1ccc(-c2c3nc(c(-c4c(F)c(F)c(F)c(F)c4F)c4ccc([nH]4)c(-c4c(F)c(F)c(F)c(F)c4F)c4nc(c(-c5c(F)c(F)c(F)c(F)c5F)c5ccc2[nH]5)C=C4)C=C3)cc1)(c1ccc([P@TB4](=O)([O-])[O-])cc1)C1CC1
REMARK SMILES IDX 7 1 6 2 5 3 3 4 4 5 2 7 1 8 76 12 77 13 85 14 78 15 84 16
REMARK SMILES IDX 79 17 80 18 81 19 82 20 83 21 86 22 87 23 88 24 8 25 9 26
REMARK SMILES IDX 10 27 11 28 12 30 13 31 14 32 75 33 15 34 74 35 16 36 17 37
REMARK SMILES IDX 18 38 68 39 19 40 73 41 67 42 69 43 20 44 72 45 66 46 65 47
REMARK SMILES IDX 21 49 53 50 33 51 52 52 34 53 37 54 51 55 70 56 35 57 36 58
REMARK SMILES IDX 50 60 71 61 38 62 22 63 23 64 31 65 24 66 25 67 29 68 32 69
REMARK SMILES IDX 26 70 27 71 30 72 28 73 54 74 55 75 63 76 56 77 57 78 61 79
REMARK SMILES IDX 64 80 58 81 59 82 62 83 60 84 39 85 40 86 48 87 41 88 42 89
REMARK SMILES IDX 46 90 49 91 43 92 44 93 47 94 45 95
REMARK H PARENT 5 6 1 9 1 10 1 11 10 29 69 48 37 59
REMARK Flexibility Score: inf
ROOT
ATOM      1  C   UNL     1       4.497  -0.948   0.840  1.00  0.00       nan C 
ENDROOT
BRANCH   1   2
ATOM      2  C   UNL     1       3.807  -1.694  -0.301  1.00  0.00       nan C 
BRANCH   2   3
ATOM      3  N   UNL     1       2.725  -2.501   0.213  1.00  0.00       nan N 
ATOM      4  C   UNL     1       1.376  -2.301   0.247  1.00  0.00       nan C 
ATOM      5  O   UNL     1       0.786  -3.022   1.061  1.00  0.00       nan OA
ATOM      6  H   UNL     1       3.015  -3.353   0.613  1.00  0.00       nan HD
BRANCH   4   7
ATOM      7  C   UNL     1       0.651  -1.198  -0.653  1.00  0.00       nan C 
BRANCH   7   8
ATOM      8  N   UNL     1       1.122   0.133  -0.179  1.00  0.00       nan N 
ATOM      9  H   UNL     1       0.878   0.249   0.805  1.00  0.00       nan HD
ATOM     10  H   UNL     1       0.675   0.867  -0.729  1.00  0.00       nan HD
ATOM     11  H   UNL     1       2.134   0.195  -0.288  1.00  0.00       nan HD
ENDBRANCH   7   8
BRANCH   7  12
ATOM     12  C   UNL     1      -0.882  -1.248  -0.497  1.00  0.00       nan A 
ATOM     13  C   UNL     1      -1.650  -0.064  -0.501  1.00  0.00       nan A 
ATOM     14  C   UNL     1      -1.563  -2.476  -0.429  1.00  0.00       nan A 
ATOM     15  C   UNL     1      -3.036  -0.103  -0.422  1.00  0.00       nan A 
ATOM     16  C   UNL     1      -2.946  -2.522  -0.349  1.00  0.00       nan A 
ATOM     17  C   UNL     1      -3.685  -1.336  -0.357  1.00  0.00       nan A 
BRANCH  17  18
ATOM     18  P   UNL     1      -5.515  -1.350  -0.366  1.00  0.00       nan P 
ATOM     19  O   UNL     1      -5.604  -2.608  -1.242  1.00  0.00       nan OA
ATOM     20  O   UNL     1      -5.578  -1.915   1.169  1.00  0.00       nan OA
ATOM     21  O   UNL     1      -7.245  -1.363  -0.376  1.00  0.00       nan OA
ENDBRANCH  17  18
ENDBRANCH   7  12
BRANCH   7  22
ATOM     22  C   UNL     1       1.044  -1.319  -2.139  1.00  0.00       nan C 
ATOM     23  C   UNL     1       0.636  -2.504  -2.995  1.00  0.00       nan C 
ATOM     24  C   UNL     1       0.102  -1.137  -3.316  1.00  0.00       nan C 
ENDBRANCH   7  22
ENDBRANCH   4   7
ENDBRANCH   2   3
ENDBRANCH   1   2
BRANCH   1  25
ATOM     25  C   UNL     1       5.256  -1.858   1.807  1.00  0.00       nan C 
BRANCH  25  26
ATOM     26  C   UNL     1       6.212  -2.838   1.138  1.00  0.00       nan C 
BRANCH  26  27
ATOM     27  N   UNL     1       7.126  -2.183   0.214  1.00  0.00       inf N 
ATOM     28  C   UNL     1       8.463  -2.402   0.015  1.00  0.00     0.251 C 
ATOM     29  H   UNL     1       6.726  -1.482  -0.349  1.00  0.00     0.163 HD
ATOM     30  O   UNL     1       9.106  -1.650  -0.713  1.00  0.00    -0.269 OA
BRANCH  28  31
ATOM     31  C   UNL     1       9.133  -3.519   0.706  1.00  0.00     0.039 A 
ATOM     32  C   UNL     1      10.369  -3.280   1.306  1.00  0.00     0.014 A 
ATOM     33  C   UNL     1       8.546  -4.787   0.773  1.00  0.00     0.014 A 
ATOM     34  C   UNL     1      10.992  -4.299   2.023  1.00  0.00     0.010 A 
ATOM     35  C   UNL     1       9.128  -5.777   1.558  1.00  0.00     0.010 A 
ATOM     36  C   UNL     1      10.359  -5.544   2.186  1.00  0.00    -0.014 A 
BRANCH  36  37
ATOM     37  C   UNL     1      10.983  -6.592   3.031  1.00  0.00     0.031 A 
ATOM     38  C   UNL     1      11.439  -7.891   2.429  1.00  0.00     0.074 A 
ATOM     39  C   UNL     1      11.123  -6.369   4.352  1.00  0.00     0.049 A 
ATOM     40  N   UNL     1      12.039  -8.902   3.007  1.00  0.00    -0.248 NA
ATOM     41  C   UNL     1      11.167  -8.095   0.998  1.00  0.00     0.031 C 
ATOM     42  C   UNL     1      10.652  -5.177   5.061  1.00  0.00     0.029 A 
ATOM     43  N   UNL     1      11.704  -7.130   5.333  1.00  0.00    -0.354 N 
ATOM     44  C   UNL     1      12.223  -9.851   2.011  1.00  0.00     0.074 A 
ATOM     45  C   UNL     1      11.608  -9.331   0.810  1.00  0.00     0.031 C 
ATOM     46  C   UNL     1      10.996  -5.270   6.355  1.00  0.00     0.029 A 
ATOM     47  C   UNL     1      11.680  -6.540   6.573  1.00  0.00     0.049 A 
ATOM     48  H   UNL     1      12.100  -8.016   5.165  1.00  0.00     0.167 HD
ATOM     49  C   UNL     1      12.877 -11.035   2.084  1.00  0.00     0.037 A 
ATOM     50  C   UNL     1      12.161  -6.974   7.753  1.00  0.00     0.037 A 
ATOM     51  C   UNL     1      13.492 -11.548   3.281  1.00  0.00     0.049 A 
ATOM     52  C   UNL     1      12.885  -8.291   7.803  1.00  0.00     0.074 A 
ATOM     53  C   UNL     1      14.206 -12.720   3.452  1.00  0.00     0.029 A 
ATOM     54  N   UNL     1      13.461 -10.916   4.517  1.00  0.00    -0.354 N 
ATOM     55  N   UNL     1      13.121  -9.145   6.836  1.00  0.00    -0.248 NA
ATOM     56  C   UNL     1      13.426  -8.697   9.107  1.00  0.00     0.031 C 
ATOM     57  C   UNL     1      14.568 -12.821   4.800  1.00  0.00     0.029 A 
ATOM     58  C   UNL     1      14.129 -11.684   5.458  1.00  0.00     0.049 A 
ATOM     59  H   UNL     1      13.028 -10.051   4.698  1.00  0.00     0.167 HD
ATOM     60  C   UNL     1      13.851 -10.178   7.409  1.00  0.00     0.074 A 
ATOM     61  C   UNL     1      14.050  -9.824   8.799  1.00  0.00     0.031 C 
ATOM     62  C   UNL     1      14.310 -11.320   6.840  1.00  0.00     0.037 A 
BRANCH  49  63
ATOM     63  C   UNL     1      12.978 -11.852   0.827  1.00  0.00     0.064 A 
ATOM     64  C   UNL     1      13.773 -11.437  -0.253  1.00  0.00     0.173 A 
ATOM     65  C   UNL     1      12.317 -13.084   0.717  1.00  0.00     0.173 A 
ATOM     66  F   UNL     1      14.416 -10.260  -0.204  1.00  0.00    -0.203 F 
ATOM     67  C   UNL     1      13.885 -12.213  -1.403  1.00  0.00     0.198 A 
ATOM     68  C   UNL     1      12.456 -13.873  -0.422  1.00  0.00     0.198 A 
ATOM     69  F   UNL     1      11.546 -13.531   1.720  1.00  0.00    -0.203 F 
ATOM     70  F   UNL     1      14.615 -11.774  -2.438  1.00  0.00    -0.200 F 
ATOM     71  C   UNL     1      13.234 -13.435  -1.483  1.00  0.00     0.200 A 
ATOM     72  F   UNL     1      11.837 -15.060  -0.493  1.00  0.00    -0.200 F 
ATOM     73  F   UNL     1      13.353 -14.188  -2.585  1.00  0.00    -0.200 F 
ENDBRANCH  49  63
BRANCH  50  74
ATOM     74  C   UNL     1      11.990  -6.148   8.978  1.00  0.00     0.064 A 
ATOM     75  C   UNL     1      13.092  -5.565   9.621  1.00  0.00     0.173 A 
ATOM     76  C   UNL     1      10.723  -5.942   9.543  1.00  0.00     0.173 A 
ATOM     77  F   UNL     1      14.327  -5.746   9.129  1.00  0.00    -0.203 F 
ATOM     78  C   UNL     1      12.936  -4.838  10.799  1.00  0.00     0.198 A 
ATOM     79  C   UNL     1      10.565  -5.185  10.702  1.00  0.00     0.198 A 
ATOM     80  F   UNL     1       9.635  -6.469   8.963  1.00  0.00    -0.203 F 
ATOM     81  F   UNL     1      14.013  -4.344  11.425  1.00  0.00    -0.200 F 
ATOM     82  C   UNL     1      11.673  -4.645  11.336  1.00  0.00     0.200 A 
ATOM     83  F   UNL     1       9.340  -4.986  11.207  1.00  0.00    -0.200 F 
ATOM     84  F   UNL     1      11.524  -3.946  12.470  1.00  0.00    -0.200 F 
ENDBRANCH  50  74
BRANCH  62  85
ATOM     85  C   UNL     1      15.085 -12.255   7.725  1.00  0.00     0.064 A 
ATOM     86  C   UNL     1      14.469 -12.961   8.770  1.00  0.00     0.173 A 
ATOM     87  C   UNL     1      16.461 -12.447   7.526  1.00  0.00     0.173 A 
ATOM     88  F   UNL     1      13.158 -12.803   9.010  1.00  0.00    -0.203 F 
ATOM     89  C   UNL     1      15.209 -13.786   9.611  1.00  0.00     0.198 A 
ATOM     90  C   UNL     1      17.191 -13.302   8.347  1.00  0.00     0.198 A 
ATOM     91  F   UNL     1      17.098 -11.805   6.536  1.00  0.00    -0.203 F 
ATOM     92  F   UNL     1      14.612 -14.393  10.647  1.00  0.00    -0.200 F 
ATOM     93  C   UNL     1      16.568 -13.959   9.397  1.00  0.00     0.200 A 
ATOM     94  F   UNL     1      18.501 -13.480   8.129  1.00  0.00    -0.200 F 
ATOM     95  F   UNL     1      17.281 -14.750  10.211  1.00  0.00    -0.200 F 
ENDBRANCH  62  85
ENDBRANCH  36  37
ENDBRANCH  28  31
ENDBRANCH  26  27
ENDBRANCH  25  26
ENDBRANCH   1  25
TORSDOF 15
