REMARK SMILES CS(=O)(=O)c1ccc(C2=NN(c3ccc(C(=O)NCCCCNC(=O)c4ccc(-c5c6nc(c(-c7c(F)c(F)c(F)c(F)c7F)c7ccc([nH]7)c(-c7c(F)c(F)c(F)c(F)c7F)c7nc(c(-c8c(F)c(F)c(F)c(F)c8F)c8ccc5[nH]8)C=C7)C=C6)cc4)cc3)[C@H](c3ccc(Cl)cc3)C2)cc1
REMARK SMILES IDX 20 1 19 2 18 3 16 4 17 5 15 7 12 8 13 9 90 10 14 11 89 12
REMARK SMILES IDX 11 13 9 14 10 15 99 16 91 17 8 18 5 19 6 20 101 21 7 22
REMARK SMILES IDX 100 23 2 24 1 25 3 26 4 27 92 28 93 29 98 30 94 31 97 32
REMARK SMILES IDX 95 33 96 34 21 35 22 36 23 37 24 38 25 40 26 41 27 42 88 43
REMARK SMILES IDX 28 44 87 45 29 46 30 47 31 48 81 49 32 50 86 51 80 52 82 53
REMARK SMILES IDX 33 54 85 55 79 56 78 57 34 59 66 60 46 61 65 62 47 63 50 64
REMARK SMILES IDX 64 65 83 66 48 67 49 68 63 70 84 71 51 72 35 73 36 74 44 75
REMARK SMILES IDX 37 76 38 77 42 78 45 79 39 80 40 81 43 82 41 83 67 84 68 85
REMARK SMILES IDX 76 86 69 87 70 88 74 89 77 90 71 91 72 92 75 93 73 94 52 95
REMARK SMILES IDX 53 96 61 97 54 98 55 99 59 100 62 101 56 102 57 103 60 104
REMARK SMILES IDX 58 105
REMARK H PARENT 18 6 23 39 82 58 50 69
REMARK Flexibility Score: inf
ROOT
ATOM      1  C   UNL     1       0.034 -13.035  -7.819  1.00  0.00     0.023 C 
ENDROOT
BRANCH   1   2
ATOM      2  C   UNL     1       0.601 -12.122  -8.908  1.00  0.00     0.116 C 
BRANCH   2   3
ATOM      3  N   UNL     1      -0.453 -11.407  -9.604  1.00  0.00    -0.352 N 
ATOM      4  C   UNL     1      -0.840 -10.092  -9.505  1.00  0.00     0.251 C 
ATOM      5  O   UNL     1      -1.679  -9.652 -10.287  1.00  0.00    -0.269 OA
ATOM      6  H   UNL     1      -0.971 -11.946 -10.245  1.00  0.00     0.163 HD
BRANCH   4   7
ATOM      7  C   UNL     1      -0.208  -9.182  -8.520  1.00  0.00     0.039 A 
ATOM      8  C   UNL     1       1.120  -7.437  -6.764  1.00  0.00     0.060 A 
ATOM      9  C   UNL     1       0.848  -7.050  -8.081  1.00  0.00     0.029 A 
ATOM     10  C   UNL     1       0.653  -8.675  -6.319  1.00  0.00     0.029 A 
ATOM     11  C   UNL     1       0.176  -7.910  -8.954  1.00  0.00     0.016 A 
ATOM     12  C   UNL     1      -0.012  -9.540  -7.186  1.00  0.00     0.016 A 
BRANCH   8  13
ATOM     13  N   UNL     1       1.845  -6.627  -5.914  1.00  0.00    -0.257 N 
ATOM     14  C   UNL     1       2.085  -5.161  -4.408  1.00  0.00     0.071 C 
ATOM     15  N   UNL     1       1.248  -6.049  -4.849  1.00  0.00    -0.176 NA
ATOM     16  C   UNL     1       3.377  -5.058  -5.181  1.00  0.00     0.091 C 
ATOM     17  C   UNL     1       3.264  -6.317  -6.058  1.00  0.00     0.144 C 
BRANCH  14  18
ATOM     18  C   UNL     1       1.760  -4.277  -3.274  1.00  0.00    -0.002 A 
ATOM     19  C   UNL     1       0.973  -2.611  -1.181  1.00  0.00     0.067 A 
ATOM     20  C   UNL     1       0.461  -3.910  -1.266  1.00  0.00     0.021 A 
ATOM     21  C   UNL     1       1.878  -2.140  -2.137  1.00  0.00     0.021 A 
ATOM     22  C   UNL     1       0.850  -4.738  -2.316  1.00  0.00     0.011 A 
ATOM     23  C   UNL     1       2.277  -2.980  -3.184  1.00  0.00     0.011 A 
BRANCH  19  24
ATOM     24  S   UNL     1       0.398  -1.610   0.171  1.00  0.00     0.175 S 
ATOM     25  C   UNL     1       0.962   0.042  -0.108  1.00  0.00     0.163 C 
ATOM     26  O   UNL     1       1.068  -2.110   1.355  1.00  0.00    -0.224 OA
ATOM     27  O   UNL     1      -1.050  -1.589   0.077  1.00  0.00    -0.224 OA
ENDBRANCH  19  24
ENDBRANCH  14  18
BRANCH  17  28
ATOM     28  C   UNL     1       4.101  -7.537  -5.665  1.00  0.00    -0.023 A 
ATOM     29  C   UNL     1       4.673  -7.717  -4.395  1.00  0.00     0.007 A 
ATOM     30  C   UNL     1       4.251  -8.578  -6.606  1.00  0.00     0.007 A 
ATOM     31  C   UNL     1       5.384  -8.885  -4.086  1.00  0.00     0.021 A 
ATOM     32  C   UNL     1       4.940  -9.752  -6.291  1.00  0.00     0.021 A 
ATOM     33  C   UNL     1       5.509  -9.899  -5.031  1.00  0.00     0.041 A 
ATOM     34  Cl  UNL     1       6.356 -11.343  -4.637  1.00  0.00    -0.084 Cl
ENDBRANCH  17  28
ENDBRANCH   8  13
ENDBRANCH   4   7
ENDBRANCH   2   3
ENDBRANCH   1   2
BRANCH   1  35
ATOM     35  C   UNL     1      -0.658 -14.293  -8.343  1.00  0.00     0.023 C 
BRANCH  35  36
ATOM     36  C   UNL     1       0.264 -15.280  -9.044  1.00  0.00     0.116 C 
BRANCH  36  37
ATOM     37  N   UNL     1       1.307 -15.809  -8.179  1.00  0.00    -0.352 N 
ATOM     38  C   UNL     1       1.878 -17.064  -8.211  1.00  0.00     0.251 C 
ATOM     39  H   UNL     1       1.647 -15.197  -7.487  1.00  0.00     0.163 HD
ATOM     40  O   UNL     1       2.683 -17.416  -7.371  1.00  0.00    -0.269 OA
BRANCH  38  41
ATOM     41  C   UNL     1       1.449 -17.994  -9.277  1.00  0.00     0.039 A 
ATOM     42  C   UNL     1       0.937 -19.243  -8.916  1.00  0.00     0.014 A 
ATOM     43  C   UNL     1       1.481 -17.592 -10.613  1.00  0.00     0.014 A 
ATOM     44  C   UNL     1       0.378 -20.064  -9.897  1.00  0.00     0.010 A 
ATOM     45  C   UNL     1       0.868 -18.382 -11.577  1.00  0.00     0.010 A 
ATOM     46  C   UNL     1       0.304 -19.619 -11.226  1.00  0.00    -0.014 A 
BRANCH  46  47
ATOM     47  C   UNL     1      -0.353 -20.421 -12.287  1.00  0.00     0.031 A 
ATOM     48  C   UNL     1       0.467 -20.936 -13.433  1.00  0.00     0.074 A 
ATOM     49  C   UNL     1      -1.690 -20.584 -12.276  1.00  0.00     0.049 A 
ATOM     50  N   UNL     1       0.074 -21.482 -14.555  1.00  0.00    -0.248 NA
ATOM     51  C   UNL     1       1.925 -20.783 -13.314  1.00  0.00     0.031 C 
ATOM     52  C   UNL     1      -2.595 -20.103 -11.232  1.00  0.00     0.029 A 
ATOM     53  N   UNL     1      -2.523 -21.178 -13.192  1.00  0.00    -0.354 N 
ATOM     54  C   UNL     1       1.231 -21.703 -15.288  1.00  0.00     0.074 A 
ATOM     55  C   UNL     1       2.337 -21.205 -14.500  1.00  0.00     0.031 C 
ATOM     56  C   UNL     1      -3.857 -20.424 -11.564  1.00  0.00     0.029 A 
ATOM     57  C   UNL     1      -3.853 -21.092 -12.862  1.00  0.00     0.049 A 
ATOM     58  H   UNL     1      -2.197 -21.622 -14.008  1.00  0.00     0.167 HD
ATOM     59  C   UNL     1       1.357 -22.283 -16.505  1.00  0.00     0.037 A 
ATOM     60  C   UNL     1      -4.946 -21.489 -13.542  1.00  0.00     0.037 A 
ATOM     61  C   UNL     1       0.257 -22.815 -17.263  1.00  0.00     0.049 A 
ATOM     62  C   UNL     1      -4.777 -22.140 -14.888  1.00  0.00     0.074 A 
ATOM     63  C   UNL     1       0.287 -23.476 -18.478  1.00  0.00     0.029 A 
ATOM     64  N   UNL     1      -1.072 -22.752 -16.872  1.00  0.00    -0.354 N 
ATOM     65  N   UNL     1      -3.676 -22.383 -15.556  1.00  0.00    -0.248 NA
ATOM     66  C   UNL     1      -6.003 -22.572 -15.575  1.00  0.00     0.031 C 
ATOM     67  C   UNL     1      -1.028 -23.788 -18.837  1.00  0.00     0.029 A 
ATOM     68  C   UNL     1      -1.873 -23.354 -17.827  1.00  0.00     0.049 A 
ATOM     69  H   UNL     1      -1.397 -22.341 -16.039  1.00  0.00     0.167 HD
ATOM     70  C   UNL     1      -4.070 -23.022 -16.723  1.00  0.00     0.074 A 
ATOM     71  C   UNL     1      -5.513 -23.132 -16.673  1.00  0.00     0.031 C 
ATOM     72  C   UNL     1      -3.305 -23.477 -17.744  1.00  0.00     0.037 A 
BRANCH  59  73
ATOM     73  C   UNL     1       2.735 -22.372 -17.089  1.00  0.00     0.064 A 
ATOM     74  C   UNL     1       3.696 -23.253 -16.572  1.00  0.00     0.173 A 
ATOM     75  C   UNL     1       3.089 -21.587 -18.196  1.00  0.00     0.173 A 
ATOM     76  F   UNL     1       3.410 -24.014 -15.505  1.00  0.00    -0.203 F 
ATOM     77  C   UNL     1       4.972 -23.324 -17.125  1.00  0.00     0.198 A 
ATOM     78  C   UNL     1       4.356 -21.682 -18.764  1.00  0.00     0.198 A 
ATOM     79  F   UNL     1       2.204 -20.732 -18.730  1.00  0.00    -0.203 F 
ATOM     80  F   UNL     1       5.889 -24.138 -16.585  1.00  0.00    -0.200 F 
ATOM     81  C   UNL     1       5.298 -22.544 -18.224  1.00  0.00     0.200 A 
ATOM     82  F   UNL     1       4.668 -20.935 -19.832  1.00  0.00    -0.200 F 
ATOM     83  F   UNL     1       6.525 -22.618 -18.758  1.00  0.00    -0.200 F 
ENDBRANCH  59  73
BRANCH  60  84
ATOM     84  C   UNL     1      -6.296 -21.295 -12.955  1.00  0.00     0.064 A 
ATOM     85  C   UNL     1      -7.038 -22.389 -12.490  1.00  0.00     0.173 A 
ATOM     86  C   UNL     1      -6.873 -20.021 -12.848  1.00  0.00     0.173 A 
ATOM     87  F   UNL     1      -6.536 -23.629 -12.591  1.00  0.00    -0.203 F 
ATOM     88  C   UNL     1      -8.313 -22.219 -11.954  1.00  0.00     0.198 A 
ATOM     89  C   UNL     1      -8.138 -19.850 -12.291  1.00  0.00     0.198 A 
ATOM     90  F   UNL     1      -6.202 -18.942 -13.276  1.00  0.00    -0.203 F 
ATOM     91  F   UNL     1      -9.016 -23.287 -11.554  1.00  0.00    -0.200 F 
ATOM     92  C   UNL     1      -8.860 -20.949 -11.851  1.00  0.00     0.200 A 
ATOM     93  F   UNL     1      -8.660 -18.620 -12.182  1.00  0.00    -0.200 F 
ATOM     94  F   UNL     1     -10.085 -20.786 -11.333  1.00  0.00    -0.200 F 
ENDBRANCH  60  84
BRANCH  72  95
ATOM     95  C   UNL     1      -4.000 -24.183 -18.868  1.00  0.00     0.064 A 
ATOM     96  C   UNL     1      -4.721 -23.481 -19.843  1.00  0.00     0.173 A 
ATOM     97  C   UNL     1      -3.877 -25.574 -19.010  1.00  0.00     0.173 A 
ATOM     98  F   UNL     1      -4.876 -22.152 -19.741  1.00  0.00    -0.203 F 
ATOM     99  C   UNL     1      -5.302 -24.148 -20.918  1.00  0.00     0.198 A 
ATOM    100  C   UNL     1      -4.441 -26.234 -20.097  1.00  0.00     0.198 A 
ATOM    101  F   UNL     1      -3.192 -26.288 -18.104  1.00  0.00    -0.203 F 
ATOM    102  F   UNL     1      -6.010 -23.462 -21.826  1.00  0.00    -0.200 F 
ATOM    103  C   UNL     1      -5.154 -25.521 -21.049  1.00  0.00     0.200 A 
ATOM    104  F   UNL     1      -4.287 -27.559 -20.229  1.00  0.00    -0.200 F 
ATOM    105  F   UNL     1      -5.702 -26.159 -22.093  1.00  0.00    -0.200 F 
ENDBRANCH  72  95
ENDBRANCH  46  47
ENDBRANCH  38  41
ENDBRANCH  36  37
ENDBRANCH  35  36
ENDBRANCH   1  35
TORSDOF 15
