REMARK SMILES NS(=O)(=O)c1ccc(-n2ccnc2-c2ccc(O)c(C(=O)NCCCCNC(=O)c3ccc(-c4c5nc(c(-c6c(F)c(F)c(F)c(F)c6F)c6ccc([nH]6)c(-c6c(F)c(F)c(F)c(F)c6F)c6nc(c(-c7c(F)c(F)c(F)c(F)c7F)c7ccc4[nH]7)C=C6)C=C5)cc3)c2)cc1
REMARK SMILES IDX 23 1 22 2 20 3 21 4 19 6 14 7 15 8 93 9 16 10 17 11 13 12
REMARK SMILES IDX 9 13 10 14 11 15 12 16 8 17 5 18 6 19 95 20 7 21 94 22 2 23
REMARK SMILES IDX 3 24 4 25 1 26 18 29 24 31 25 32 26 33 27 34 28 35 29 37
REMARK SMILES IDX 30 38 31 39 92 40 32 41 91 42 33 43 34 44 35 45 85 46 36 47
REMARK SMILES IDX 90 48 84 49 86 50 37 51 89 52 83 53 82 54 38 56 70 57 50 58
REMARK SMILES IDX 69 59 51 60 54 61 68 62 87 63 52 64 53 65 67 67 88 68 55 69
REMARK SMILES IDX 39 70 40 71 48 72 41 73 42 74 46 75 49 76 43 77 44 78 47 79
REMARK SMILES IDX 45 80 71 81 72 82 80 83 73 84 74 85 78 86 81 87 75 88 76 89
REMARK SMILES IDX 79 90 77 91 56 92 57 93 65 94 58 95 59 96 63 97 66 98 60 99
REMARK SMILES IDX 61 100 64 101 62 102
REMARK H PARENT 22 5 1 27 1 28 18 30 27 36 86 55 54 66
REMARK Flexibility Score: inf
ROOT
ATOM      1  C   UNL     1       5.755  -1.816   5.157  1.00  0.00     0.116 C 
ENDROOT
BRANCH   1   2
ATOM      2  N   UNL     1       6.320  -2.212   3.869  1.00  0.00    -0.352 N 
ATOM      3  C   UNL     1       6.029  -3.212   2.958  1.00  0.00     0.255 C 
ATOM      4  O   UNL     1       6.713  -3.276   1.932  1.00  0.00    -0.269 OA
ATOM      5  H   UNL     1       7.073  -1.644   3.588  1.00  0.00     0.163 HD
BRANCH   3   6
ATOM      6  C   UNL     1       4.986  -4.259   3.151  1.00  0.00     0.082 A 
ATOM      7  C   UNL     1       3.026  -5.091   4.357  1.00  0.00     0.019 A 
ATOM      8  C   UNL     1       3.211  -6.354   3.793  1.00  0.00     0.016 A 
ATOM      9  C   UNL     1       3.873  -4.046   3.954  1.00  0.00     0.029 A 
ATOM     10  C   UNL     1       4.214  -6.548   2.838  1.00  0.00     0.048 A 
ATOM     11  C   UNL     1       5.103  -5.512   2.532  1.00  0.00     0.128 A 
BRANCH   7  12
ATOM     12  C   UNL     1       2.092  -4.869   5.475  1.00  0.00     0.144 A 
ATOM     13  N   UNL     1       1.397  -3.682   5.725  1.00  0.00    -0.300 N 
ATOM     14  C   UNL     1       1.111  -3.677   7.071  1.00  0.00     0.113 A 
ATOM     15  C   UNL     1       1.445  -4.929   7.524  1.00  0.00     0.132 A 
ATOM     16  N   UNL     1       2.019  -5.669   6.527  1.00  0.00    -0.236 NA
BRANCH  13  17
ATOM     17  C   UNL     1       1.110  -2.641   4.803  1.00  0.00     0.047 A 
ATOM     18  C   UNL     1       0.733  -0.622   2.928  1.00  0.00     0.082 A 
ATOM     19  C   UNL     1       0.620  -1.956   2.533  1.00  0.00     0.024 A 
ATOM     20  C   UNL     1       1.020  -0.288   4.256  1.00  0.00     0.024 A 
ATOM     21  C   UNL     1       0.814  -2.967   3.471  1.00  0.00     0.028 A 
ATOM     22  C   UNL     1       1.188  -1.300   5.205  1.00  0.00     0.028 A 
BRANCH  18  23
ATOM     23  S   UNL     1       0.537   0.660   1.726  1.00  0.00     0.238 S 
ATOM     24  O   UNL     1       1.361   1.788   2.123  1.00  0.00    -0.207 OA
ATOM     25  O   UNL     1      -0.854   0.777   1.401  1.00  0.00    -0.207 OA
BRANCH  23  26
ATOM     26  N   UNL     1       1.298   0.035   0.364  1.00  0.00    -0.225 NA
ATOM     27  H   UNL     1       1.239   0.711  -0.398  1.00  0.00     0.137 HD
ATOM     28  H   UNL     1       0.838  -0.832   0.086  1.00  0.00     0.137 HD
ENDBRANCH  23  26
ENDBRANCH  18  23
ENDBRANCH  13  17
ENDBRANCH   7  12
BRANCH  11  29
ATOM     29  O   UNL     1       6.072  -5.801   1.609  1.00  0.00    -0.507 OA
ATOM     30  H   UNL     1       6.111  -6.653   1.221  1.00  0.00     0.293 HD
ENDBRANCH  11  29
ENDBRANCH   3   6
ENDBRANCH   1   2
BRANCH   1  31
ATOM     31  C   UNL     1       6.717  -1.855   6.344  1.00  0.00     0.023 C 
BRANCH  31  32
ATOM     32  C   UNL     1       7.813  -0.792   6.411  1.00  0.00     0.023 C 
BRANCH  32  33
ATOM     33  C   UNL     1       7.339   0.655   6.348  1.00  0.00     0.116 C 
BRANCH  33  34
ATOM     34  N   UNL     1       6.412   1.036   7.415  1.00  0.00    -0.352 N 
ATOM     35  C   UNL     1       5.740   2.241   7.545  1.00  0.00     0.251 C 
ATOM     36  H   UNL     1       6.248   0.364   8.115  1.00  0.00     0.163 HD
ATOM     37  O   UNL     1       5.281   2.607   8.619  1.00  0.00    -0.269 OA
BRANCH  35  38
ATOM     38  C   UNL     1       5.587   3.081   6.345  1.00  0.00     0.039 A 
ATOM     39  C   UNL     1       5.899   4.442   6.357  1.00  0.00     0.014 A 
ATOM     40  C   UNL     1       5.203   2.447   5.168  1.00  0.00     0.014 A 
ATOM     41  C   UNL     1       5.927   5.133   5.146  1.00  0.00     0.010 A 
ATOM     42  C   UNL     1       5.376   3.089   3.966  1.00  0.00     0.010 A 
ATOM     43  C   UNL     1       5.699   4.443   3.943  1.00  0.00    -0.014 A 
BRANCH  43  44
ATOM     44  C   UNL     1       5.899   5.105   2.654  1.00  0.00     0.031 A 
ATOM     45  C   UNL     1       7.203   5.812   2.479  1.00  0.00     0.074 A 
ATOM     46  C   UNL     1       5.077   4.935   1.595  1.00  0.00     0.049 A 
ATOM     47  N   UNL     1       7.402   7.074   2.281  1.00  0.00    -0.248 NA
ATOM     48  C   UNL     1       8.444   5.032   2.616  1.00  0.00     0.031 C 
ATOM     49  C   UNL     1       3.919   4.045   1.458  1.00  0.00     0.029 A 
ATOM     50  N   UNL     1       5.176   5.482   0.352  1.00  0.00    -0.354 N 
ATOM     51  C   UNL     1       8.776   7.237   2.109  1.00  0.00     0.074 A 
ATOM     52  C   UNL     1       9.376   5.974   2.455  1.00  0.00     0.031 C 
ATOM     53  C   UNL     1       3.572   3.943   0.157  1.00  0.00     0.029 A 
ATOM     54  C   UNL     1       4.356   4.896  -0.603  1.00  0.00     0.049 A 
ATOM     55  H   UNL     1       5.780   6.232   0.147  1.00  0.00     0.167 HD
ATOM     56  C   UNL     1       9.289   8.345   1.501  1.00  0.00     0.037 A 
ATOM     57  C   UNL     1       4.331   5.172  -1.928  1.00  0.00     0.037 A 
ATOM     58  C   UNL     1       8.329   9.419   1.480  1.00  0.00     0.049 A 
ATOM     59  C   UNL     1       4.945   6.509  -2.106  1.00  0.00     0.074 A 
ATOM     60  C   UNL     1       7.643  10.128   2.449  1.00  0.00     0.029 A 
ATOM     61  N   UNL     1       7.665   9.681   0.307  1.00  0.00    -0.354 N 
ATOM     62  N   UNL     1       4.397   7.620  -1.699  1.00  0.00    -0.248 NA
ATOM     63  C   UNL     1       6.376   6.568  -2.355  1.00  0.00     0.031 C 
ATOM     64  C   UNL     1       6.338  10.323   1.905  1.00  0.00     0.029 A 
ATOM     65  C   UNL     1       6.335   9.780   0.620  1.00  0.00     0.049 A 
ATOM     66  H   UNL     1       8.068   9.779  -0.586  1.00  0.00     0.167 HD
ATOM     67  C   UNL     1       5.457   8.378  -1.228  1.00  0.00     0.074 A 
ATOM     68  C   UNL     1       6.656   7.722  -1.745  1.00  0.00     0.031 C 
ATOM     69  C   UNL     1       5.279   9.297  -0.235  1.00  0.00     0.037 A 
BRANCH  56  70
ATOM     70  C   UNL     1      10.518   8.358   0.618  1.00  0.00     0.064 A 
ATOM     71  C   UNL     1      10.996   9.591   0.122  1.00  0.00     0.173 A 
ATOM     72  C   UNL     1      11.047   7.210  -0.010  1.00  0.00     0.173 A 
ATOM     73  F   UNL     1      10.560  10.751   0.636  1.00  0.00    -0.203 F 
ATOM     74  C   UNL     1      11.855   9.665  -0.979  1.00  0.00     0.198 A 
ATOM     75  C   UNL     1      11.945   7.288  -1.074  1.00  0.00     0.198 A 
ATOM     76  F   UNL     1      10.635   5.976   0.299  1.00  0.00    -0.203 F 
ATOM     77  F   UNL     1      12.169  10.859  -1.499  1.00  0.00    -0.200 F 
ATOM     78  C   UNL     1      12.320   8.513  -1.583  1.00  0.00     0.200 A 
ATOM     79  F   UNL     1      12.374   6.158  -1.655  1.00  0.00    -0.200 F 
ATOM     80  F   UNL     1      13.085   8.579  -2.680  1.00  0.00    -0.200 F 
ENDBRANCH  56  70
BRANCH  57  81
ATOM     81  C   UNL     1       4.066   4.268  -3.070  1.00  0.00     0.064 A 
ATOM     82  C   UNL     1       3.807   4.790  -4.348  1.00  0.00     0.173 A 
ATOM     83  C   UNL     1       4.363   2.894  -3.001  1.00  0.00     0.173 A 
ATOM     84  F   UNL     1       3.538   6.095  -4.502  1.00  0.00    -0.203 F 
ATOM     85  C   UNL     1       3.895   3.997  -5.495  1.00  0.00     0.198 A 
ATOM     86  C   UNL     1       4.447   2.102  -4.147  1.00  0.00     0.198 A 
ATOM     87  F   UNL     1       4.669   2.313  -1.831  1.00  0.00    -0.203 F 
ATOM     88  F   UNL     1       3.715   4.548  -6.704  1.00  0.00    -0.200 F 
ATOM     89  C   UNL     1       4.233   2.658  -5.395  1.00  0.00     0.200 A 
ATOM     90  F   UNL     1       4.799   0.813  -4.039  1.00  0.00    -0.200 F 
ATOM     91  F   UNL     1       4.391   1.914  -6.499  1.00  0.00    -0.200 F 
ENDBRANCH  57  81
BRANCH  69  92
ATOM     92  C   UNL     1       3.870   9.646   0.156  1.00  0.00     0.064 A 
ATOM     93  C   UNL     1       2.951   8.728   0.696  1.00  0.00     0.173 A 
ATOM     94  C   UNL     1       3.480  10.990   0.108  1.00  0.00     0.173 A 
ATOM     95  F   UNL     1       3.281   7.443   0.871  1.00  0.00    -0.203 F 
ATOM     96  C   UNL     1       1.686   9.133   1.120  1.00  0.00     0.198 A 
ATOM     97  C   UNL     1       2.231  11.398   0.567  1.00  0.00     0.198 A 
ATOM     98  F   UNL     1       4.335  11.921  -0.345  1.00  0.00    -0.203 F 
ATOM     99  F   UNL     1       0.823   8.234   1.617  1.00  0.00    -0.200 F 
ATOM    100  C   UNL     1       1.330  10.469   1.062  1.00  0.00     0.200 A 
ATOM    101  F   UNL     1       1.909  12.699   0.554  1.00  0.00    -0.200 F 
ATOM    102  F   UNL     1       0.129  10.866   1.506  1.00  0.00    -0.200 F 
ENDBRANCH  69  92
ENDBRANCH  43  44
ENDBRANCH  35  38
ENDBRANCH  33  34
ENDBRANCH  32  33
ENDBRANCH  31  32
ENDBRANCH   1  31
TORSDOF 16
