REMARK SMILES COc1cc2c(CC(=O)NCCCCNC(=O)c3ccc(-c4c5nc(c(-c6c(F)c(F)c(F)c(F)c6F)c6ccc([nH]6)c(-c6c(F)c(F)c(F)c(F)c6F)c6nc(c(-c7c(F)c(F)c(F)c(F)c7F)c7ccc4[nH]7)C=C6)C=C5)cc3)c(C)n(C(=O)c3ccc(Cl)cc3)c2cc1Cl
REMARK SMILES IDX 12 1 11 2 10 3 8 4 9 5 7 7 6 8 3 9 4 10 95 11 5 12 94 13
REMARK SMILES IDX 96 14 93 15 81 16 83 17 82 18 2 19 1 20 84 21 85 22 86 23
REMARK SMILES IDX 87 24 92 25 88 26 91 27 89 28 90 29 13 30 14 31 15 32 16 33
REMARK SMILES IDX 17 35 18 36 19 37 80 38 20 39 79 40 21 41 22 42 23 43 73 44
REMARK SMILES IDX 24 45 78 46 72 47 74 48 25 49 77 50 71 51 70 52 26 54 58 55
REMARK SMILES IDX 38 56 57 57 39 58 42 59 56 60 75 61 40 62 41 63 55 65 76 66
REMARK SMILES IDX 43 67 27 68 28 69 36 70 29 71 30 72 34 73 37 74 31 75 32 76
REMARK SMILES IDX 35 77 33 78 59 79 60 80 68 81 61 82 62 83 66 84 69 85 63 86
REMARK SMILES IDX 64 87 67 88 65 89 44 90 45 91 53 92 46 93 47 94 51 95 54 96
REMARK SMILES IDX 48 97 49 98 52 99 50 100
REMARK H PARENT 10 6 15 34 74 53 42 64
REMARK Flexibility Score: inf
ROOT
ATOM      1  C   UNL     1       0.717  -2.845   7.218  1.00  0.00     0.023 C 
ENDROOT
BRANCH   1   2
ATOM      2  C   UNL     1      -0.683  -3.441   7.083  1.00  0.00     0.116 C 
BRANCH   2   3
ATOM      3  N   UNL     1      -1.565  -2.584   6.319  1.00  0.00    -0.356 N 
ATOM      4  C   UNL     1      -2.103  -2.805   5.083  1.00  0.00     0.224 C 
ATOM      5  O   UNL     1      -2.843  -1.942   4.606  1.00  0.00    -0.275 OA
ATOM      6  H   UNL     1      -1.809  -1.731   6.746  1.00  0.00     0.163 HD
BRANCH   4   7
ATOM      7  C   UNL     1      -1.831  -4.111   4.352  1.00  0.00     0.138 C 
BRANCH   7   8
ATOM      8  C   UNL     1      -0.401  -4.273   3.915  1.00  0.00    -0.009 A 
ATOM      9  C   UNL     1       0.984  -1.436   1.737  1.00  0.00     0.138 A 
ATOM     10  C   UNL     1       0.045  -2.106   2.536  1.00  0.00     0.058 A 
ATOM     11  C   UNL     1       2.215  -2.033   1.489  1.00  0.00     0.085 A 
ATOM     12  C   UNL     1       0.344  -3.361   3.115  1.00  0.00     0.008 A 
ATOM     13  C   UNL     1       2.512  -3.296   2.019  1.00  0.00     0.051 A 
ATOM     14  Cl  UNL     1       3.495  -1.261   0.620  1.00  0.00    -0.080 Cl
ATOM     15  C   UNL     1       1.603  -3.926   2.894  1.00  0.00     0.058 A 
ATOM     16  C   UNL     1       0.422  -5.367   4.163  1.00  0.00     0.028 A 
ATOM     17  N   UNL     1       1.711  -5.065   3.707  1.00  0.00    -0.280 N 
ATOM     18  C   UNL     1       0.057  -6.646   4.853  1.00  0.00     0.065 C 
BRANCH   9  19
ATOM     19  O   UNL     1       0.601  -0.181   1.343  1.00  0.00    -0.495 OA
ATOM     20  C   UNL     1       0.740   0.081  -0.051  1.00  0.00     0.278 C 
ENDBRANCH   9  19
BRANCH  17  21
ATOM     21  C   UNL     1       2.909  -5.767   4.042  1.00  0.00     0.262 C 
ATOM     22  O   UNL     1       2.850  -6.720   4.807  1.00  0.00    -0.268 OA
BRANCH  21  23
ATOM     23  C   UNL     1       4.252  -5.418   3.542  1.00  0.00     0.040 A 
ATOM     24  C   UNL     1       4.886  -4.240   3.955  1.00  0.00     0.015 A 
ATOM     25  C   UNL     1       4.847  -6.263   2.599  1.00  0.00     0.015 A 
ATOM     26  C   UNL     1       6.090  -3.867   3.353  1.00  0.00     0.021 A 
ATOM     27  C   UNL     1       6.055  -5.888   2.009  1.00  0.00     0.021 A 
ATOM     28  C   UNL     1       6.661  -4.684   2.374  1.00  0.00     0.041 A 
ATOM     29  Cl  UNL     1       8.112  -4.193   1.591  1.00  0.00    -0.084 Cl
ENDBRANCH  21  23
ENDBRANCH  17  21
ENDBRANCH   7   8
ENDBRANCH   4   7
ENDBRANCH   2   3
ENDBRANCH   1   2
BRANCH   1  30
ATOM     30  C   UNL     1       0.805  -1.628   8.151  1.00  0.00     0.023 C 
BRANCH  30  31
ATOM     31  C   UNL     1       0.197  -1.837   9.541  1.00  0.00     0.116 C 
BRANCH  31  32
ATOM     32  N   UNL     1       0.686  -3.030  10.206  1.00  0.00    -0.352 N 
ATOM     33  C   UNL     1       1.726  -3.316  11.044  1.00  0.00     0.251 C 
ATOM     34  H   UNL     1       0.137  -3.822  10.005  1.00  0.00     0.163 HD
ATOM     35  O   UNL     1       1.763  -4.470  11.480  1.00  0.00    -0.269 OA
BRANCH  33  36
ATOM     36  C   UNL     1       2.806  -2.371  11.438  1.00  0.00     0.039 A 
ATOM     37  C   UNL     1       2.950  -1.065  10.975  1.00  0.00     0.014 A 
ATOM     38  C   UNL     1       3.783  -2.879  12.319  1.00  0.00     0.014 A 
ATOM     39  C   UNL     1       4.058  -0.304  11.336  1.00  0.00     0.010 A 
ATOM     40  C   UNL     1       4.891  -2.121  12.689  1.00  0.00     0.010 A 
ATOM     41  C   UNL     1       5.045  -0.841  12.167  1.00  0.00    -0.014 A 
BRANCH  41  42
ATOM     42  C   UNL     1       6.190   0.011  12.482  1.00  0.00     0.031 A 
ATOM     43  C   UNL     1       5.889   1.257  13.236  1.00  0.00     0.074 A 
ATOM     44  C   UNL     1       7.465  -0.306  12.181  1.00  0.00     0.049 A 
ATOM     45  N   UNL     1       6.106   2.479  12.871  1.00  0.00    -0.248 NA
ATOM     46  C   UNL     1       5.223   1.128  14.541  1.00  0.00     0.031 C 
ATOM     47  C   UNL     1       7.972  -1.601  11.724  1.00  0.00     0.029 A 
ATOM     48  N   UNL     1       8.600   0.449  12.316  1.00  0.00    -0.354 N 
ATOM     49  C   UNL     1       5.744   3.274  13.956  1.00  0.00     0.074 A 
ATOM     50  C   UNL     1       5.120   2.404  14.919  1.00  0.00     0.031 C 
ATOM     51  C   UNL     1       9.319  -1.611  11.832  1.00  0.00     0.029 A 
ATOM     52  C   UNL     1       9.771  -0.284  12.217  1.00  0.00     0.049 A 
ATOM     53  H   UNL     1       8.585   1.421  12.470  1.00  0.00     0.167 HD
ATOM     54  C   UNL     1       6.174   4.560  14.073  1.00  0.00     0.037 A 
ATOM     55  C   UNL     1      11.025   0.146  12.485  1.00  0.00     0.037 A 
ATOM     56  C   UNL     1       6.728   5.067  12.851  1.00  0.00     0.049 A 
ATOM     57  C   UNL     1      11.071   1.618  12.325  1.00  0.00     0.074 A 
ATOM     58  C   UNL     1       6.265   5.678  11.709  1.00  0.00     0.029 A 
ATOM     59  N   UNL     1       8.016   4.682  12.617  1.00  0.00    -0.354 N 
ATOM     60  N   UNL     1      10.914   2.233  11.186  1.00  0.00    -0.248 NA
ATOM     61  C   UNL     1      11.061   2.478  13.505  1.00  0.00     0.031 C 
ATOM     62  C   UNL     1       7.286   5.518  10.723  1.00  0.00     0.029 A 
ATOM     63  C   UNL     1       8.343   4.816  11.293  1.00  0.00     0.049 A 
ATOM     64  H   UNL     1       8.632   4.351  13.310  1.00  0.00     0.167 HD
ATOM     65  C   UNL     1      10.380   3.456  11.533  1.00  0.00     0.074 A 
ATOM     66  C   UNL     1      10.673   3.626  12.947  1.00  0.00     0.031 C 
ATOM     67  C   UNL     1       9.445   4.059  10.749  1.00  0.00     0.037 A 
BRANCH  54  68
ATOM     68  C   UNL     1       6.483   5.238  15.383  1.00  0.00     0.064 A 
ATOM     69  C   UNL     1       6.637   6.638  15.434  1.00  0.00     0.173 A 
ATOM     70  C   UNL     1       6.944   4.528  16.511  1.00  0.00     0.173 A 
ATOM     71  F   UNL     1       6.271   7.402  14.394  1.00  0.00    -0.203 F 
ATOM     72  C   UNL     1       7.240   7.273  16.524  1.00  0.00     0.198 A 
ATOM     73  C   UNL     1       7.500   5.169  17.618  1.00  0.00     0.198 A 
ATOM     74  F   UNL     1       6.976   3.188  16.530  1.00  0.00    -0.203 F 
ATOM     75  F   UNL     1       7.457   8.595  16.490  1.00  0.00    -0.200 F 
ATOM     76  C   UNL     1       7.669   6.538  17.615  1.00  0.00     0.200 A 
ATOM     77  F   UNL     1       7.938   4.438  18.653  1.00  0.00    -0.200 F 
ATOM     78  F   UNL     1       8.286   7.140  18.641  1.00  0.00    -0.200 F 
ENDBRANCH  54  68
BRANCH  55  79
ATOM     79  C   UNL     1      12.130  -0.614  13.116  1.00  0.00     0.064 A 
ATOM     80  C   UNL     1      13.446  -0.124  13.085  1.00  0.00     0.173 A 
ATOM     81  C   UNL     1      11.875  -1.675  14.006  1.00  0.00     0.173 A 
ATOM     82  F   UNL     1      13.765   0.906  12.289  1.00  0.00    -0.203 F 
ATOM     83  C   UNL     1      14.434  -0.628  13.935  1.00  0.00     0.198 A 
ATOM     84  C   UNL     1      12.867  -2.188  14.842  1.00  0.00     0.198 A 
ATOM     85  F   UNL     1      10.639  -2.170  14.158  1.00  0.00    -0.203 F 
ATOM     86  F   UNL     1      15.655  -0.077  13.938  1.00  0.00    -0.200 F 
ATOM     87  C   UNL     1      14.140  -1.650  14.822  1.00  0.00     0.200 A 
ATOM     88  F   UNL     1      12.561  -3.157  15.716  1.00  0.00    -0.200 F 
ATOM     89  F   UNL     1      15.067  -2.085  15.686  1.00  0.00    -0.200 F 
ENDBRANCH  55  79
BRANCH  67  90
ATOM     90  C   UNL     1       9.446   3.730   9.293  1.00  0.00     0.064 A 
ATOM     91  C   UNL     1       9.124   2.469   8.769  1.00  0.00     0.173 A 
ATOM     92  C   UNL     1       9.732   4.760   8.386  1.00  0.00     0.173 A 
ATOM     93  F   UNL     1       8.762   1.461   9.573  1.00  0.00    -0.203 F 
ATOM     94  C   UNL     1       9.135   2.241   7.394  1.00  0.00     0.198 A 
ATOM     95  C   UNL     1       9.708   4.539   7.013  1.00  0.00     0.198 A 
ATOM     96  F   UNL     1      10.007   5.995   8.835  1.00  0.00    -0.203 F 
ATOM     97  F   UNL     1       8.846   1.023   6.912  1.00  0.00    -0.200 F 
ATOM     98  C   UNL     1       9.421   3.277   6.518  1.00  0.00     0.200 A 
ATOM     99  F   UNL     1       9.945   5.553   6.170  1.00  0.00    -0.200 F 
ATOM    100  F   UNL     1       9.401   3.065   5.194  1.00  0.00    -0.200 F 
ENDBRANCH  67  90
ENDBRANCH  41  42
ENDBRANCH  33  36
ENDBRANCH  31  32
ENDBRANCH  30  31
ENDBRANCH   1  30
TORSDOF 15
