REMARK SMILES CC[C@@H](NC(=O)N1C[C@H]2CCCC[N@@H+]2C[C@@H]1C)C(=O)NCCCCNC(=O)c1ccc(-c2c3nc(c(-c4c(F)c(F)c(F)c(F)c4F)c4ccc([nH]4)c(-c4c(F)c(F)c(F)c(F)c4F)c4nc(c(-c5c(F)c(F)c(F)c(F)c5F)c5ccc2[nH]5)C=C4)C=C3)cc1
REMARK SMILES IDX 22 1 21 2 20 3 18 4 19 5 3 7 2 8 1 9 4 10 5 11 6 13 7 14
REMARK SMILES IDX 8 15 16 16 9 17 15 18 17 19 10 20 14 21 11 22 13 23 12 25
REMARK SMILES IDX 23 26 24 27 25 28 26 29 27 31 28 32 29 33 90 34 30 35 89 36
REMARK SMILES IDX 31 37 32 38 33 39 83 40 34 41 88 42 82 43 84 44 35 45 87 46
REMARK SMILES IDX 81 47 80 48 36 50 68 51 48 52 67 53 49 54 52 55 66 56 85 57
REMARK SMILES IDX 50 58 51 59 65 61 86 62 53 63 37 64 38 65 46 66 39 67 40 68
REMARK SMILES IDX 44 69 47 70 41 71 42 72 45 73 43 74 69 75 70 76 78 77 71 78
REMARK SMILES IDX 72 79 76 80 79 81 73 82 74 83 77 84 75 85 54 86 55 87 63 88
REMARK SMILES IDX 56 89 57 90 61 91 64 92 58 93 59 94 62 95 60 96
REMARK H PARENT 20 6 4 12 14 24 25 30 84 49 52 60
REMARK Flexibility Score: inf
ROOT
ATOM      1  C   UNL     1      -3.193  -2.629  -0.082  1.00  0.00     0.023 C 
ENDROOT
BRANCH   1   2
ATOM      2  C   UNL     1      -2.058  -2.366   0.898  1.00  0.00     0.116 C 
BRANCH   2   3
ATOM      3  N   UNL     1      -0.977  -3.307   0.693  1.00  0.00    -0.354 N 
ATOM      4  C   UNL     1       0.344  -3.167   0.983  1.00  0.00     0.242 C 
ATOM      5  O   UNL     1       1.091  -4.114   0.717  1.00  0.00    -0.273 OA
ATOM      6  H   UNL     1      -1.234  -4.166   0.288  1.00  0.00     0.163 HD
BRANCH   4   7
ATOM      7  C   UNL     1       0.919  -1.825   1.458  1.00  0.00     0.172 C 
BRANCH   7   8
ATOM      8  C   UNL     1       0.979  -0.965   0.163  1.00  0.00     0.032 C 
ATOM      9  C   UNL     1       1.531   0.442   0.291  1.00  0.00     0.006 C 
ENDBRANCH   7   8
BRANCH   7  10
ATOM     10  N   UNL     1       0.198  -1.161   2.552  1.00  0.00    -0.326 N 
ATOM     11  C   UNL     1      -0.250  -1.529   3.778  1.00  0.00     0.318 C 
ATOM     12  H   UNL     1      -0.011  -0.222   2.345  1.00  0.00     0.166 HD
ATOM     13  O   UNL     1      -0.520  -0.599   4.540  1.00  0.00    -0.249 OA
BRANCH  11  14
ATOM     14  N   UNL     1      -0.564  -2.833   4.062  1.00  0.00    -0.310 N 
ATOM     15  C   UNL     1       0.434  -3.906   3.992  1.00  0.00     0.186 C 
ATOM     16  C   UNL     1      -1.626  -3.140   5.054  1.00  0.00     0.139 C 
ATOM     17  C   UNL     1      -0.231  -5.220   3.545  1.00  0.00     0.203 C 
ATOM     18  C   UNL     1      -2.195  -4.592   4.889  1.00  0.00     0.287 C 
ATOM     19  C   UNL     1      -2.846  -2.197   5.020  1.00  0.00     0.037 C 
ATOM     20  C   UNL     1       0.783  -6.361   3.398  1.00  0.00     0.067 C 
ATOM     21  N   UNL     1      -1.293  -5.676   4.468  1.00  0.00    -0.329 N 
ATOM     22  C   UNL     1       0.108  -7.580   2.767  1.00  0.00     0.012 C 
ATOM     23  C   UNL     1      -2.057  -6.762   3.821  1.00  0.00     0.262 C 
ATOM     24  H   UNL     1      -0.843  -6.016   5.317  1.00  0.00     0.348 HD
ATOM     25  C   UNL     1      -1.164  -7.967   3.519  1.00  0.00     0.062 C 
ENDBRANCH  11  14
ENDBRANCH   7  10
ENDBRANCH   4   7
ENDBRANCH   2   3
ENDBRANCH   1   2
BRANCH   1  26
ATOM     26  C   UNL     1      -3.955  -3.926   0.198  1.00  0.00     0.023 C 
BRANCH  26  27
ATOM     27  C   UNL     1      -4.622  -3.975   1.566  1.00  0.00     0.116 C 
BRANCH  27  28
ATOM     28  N   UNL     1      -5.584  -2.902   1.750  1.00  0.00    -0.352 N 
ATOM     29  C   UNL     1      -6.919  -2.989   2.053  1.00  0.00     0.251 C 
ATOM     30  H   UNL     1      -5.231  -1.990   1.642  1.00  0.00     0.163 HD
ATOM     31  O   UNL     1      -7.648  -2.010   1.956  1.00  0.00    -0.269 OA
BRANCH  29  32
ATOM     32  C   UNL     1      -7.471  -4.285   2.492  1.00  0.00     0.039 A 
ATOM     33  C   UNL     1      -8.651  -4.750   1.912  1.00  0.00     0.014 A 
ATOM     34  C   UNL     1      -6.819  -5.031   3.480  1.00  0.00     0.014 A 
ATOM     35  C   UNL     1      -9.163  -5.988   2.298  1.00  0.00     0.010 A 
ATOM     36  C   UNL     1      -7.290  -6.296   3.808  1.00  0.00     0.010 A 
ATOM     37  C   UNL     1      -8.476  -6.779   3.235  1.00  0.00    -0.014 A 
BRANCH  37  38
ATOM     38  C   UNL     1      -9.009  -8.098   3.653  1.00  0.00     0.031 A 
ATOM     39  C   UNL     1      -9.457  -8.310   5.072  1.00  0.00     0.074 A 
ATOM     40  C   UNL     1      -9.046  -9.115   2.772  1.00  0.00     0.049 A 
ATOM     41  N   UNL     1      -9.925  -9.392   5.642  1.00  0.00    -0.248 NA
ATOM     42  C   UNL     1      -9.339  -7.158   5.979  1.00  0.00     0.031 C 
ATOM     43  C   UNL     1      -8.602  -9.043   1.380  1.00  0.00     0.029 A 
ATOM     44  N   UNL     1      -9.477 -10.409   2.919  1.00  0.00    -0.354 N 
ATOM     45  C   UNL     1     -10.139  -9.054   6.971  1.00  0.00     0.074 A 
ATOM     46  C   UNL     1      -9.693  -7.689   7.138  1.00  0.00     0.031 C 
ATOM     47  C   UNL     1      -8.814 -10.231   0.791  1.00  0.00     0.029 A 
ATOM     48  C   UNL     1      -9.374 -11.156   1.773  1.00  0.00     0.049 A 
ATOM     49  H   UNL     1      -9.827 -10.767   3.767  1.00  0.00     0.167 HD
ATOM     50  C   UNL     1     -10.682  -9.807   7.959  1.00  0.00     0.037 A 
ATOM     51  C   UNL     1      -9.697 -12.442   1.541  1.00  0.00     0.037 A 
ATOM     52  C   UNL     1     -11.140 -11.160   7.781  1.00  0.00     0.049 A 
ATOM     53  C   UNL     1     -10.287 -13.263   2.656  1.00  0.00     0.074 A 
ATOM     54  C   UNL     1     -11.756 -11.991   8.699  1.00  0.00     0.029 A 
ATOM     55  N   UNL     1     -11.022 -11.885   6.603  1.00  0.00    -0.354 N 
ATOM     56  N   UNL     1     -10.554 -12.914   3.891  1.00  0.00    -0.248 NA
ATOM     57  C   UNL     1     -10.630 -14.656   2.339  1.00  0.00     0.031 C 
ATOM     58  C   UNL     1     -11.959 -13.237   8.095  1.00  0.00     0.029 A 
ATOM     59  C   UNL     1     -11.530 -13.162   6.779  1.00  0.00     0.049 A 
ATOM     60  H   UNL     1     -10.634 -11.542   5.765  1.00  0.00     0.167 HD
ATOM     61  C   UNL     1     -11.132 -14.028   4.487  1.00  0.00     0.074 A 
ATOM     62  C   UNL     1     -11.182 -15.061   3.473  1.00  0.00     0.031 C 
ATOM     63  C   UNL     1     -11.584 -14.178   5.757  1.00  0.00     0.037 A 
BRANCH  50  64
ATOM     64  C   UNL     1     -10.793  -9.181   9.320  1.00  0.00     0.064 A 
ATOM     65  C   UNL     1     -11.657  -8.102   9.572  1.00  0.00     0.173 A 
ATOM     66  C   UNL     1     -10.027  -9.666  10.391  1.00  0.00     0.173 A 
ATOM     67  F   UNL     1     -12.405  -7.591   8.583  1.00  0.00    -0.203 F 
ATOM     68  C   UNL     1     -11.713  -7.505  10.829  1.00  0.00     0.198 A 
ATOM     69  C   UNL     1     -10.114  -9.090  11.656  1.00  0.00     0.198 A 
ATOM     70  F   UNL     1      -9.190 -10.699  10.211  1.00  0.00    -0.203 F 
ATOM     71  F   UNL     1     -12.492  -6.432  11.024  1.00  0.00    -0.200 F 
ATOM     72  C   UNL     1     -10.946  -8.002  11.871  1.00  0.00     0.200 A 
ATOM     73  F   UNL     1      -9.383  -9.582  12.666  1.00  0.00    -0.200 F 
ATOM     74  F   UNL     1     -11.000  -7.426  13.079  1.00  0.00    -0.200 F 
ENDBRANCH  50  64
BRANCH  51  75
ATOM     75  C   UNL     1      -9.515 -13.017   0.183  1.00  0.00     0.064 A 
ATOM     76  C   UNL     1     -10.624 -13.336  -0.614  1.00  0.00     0.173 A 
ATOM     77  C   UNL     1      -8.239 -13.249  -0.350  1.00  0.00     0.173 A 
ATOM     78  F   UNL     1     -11.864 -13.149  -0.141  1.00  0.00    -0.203 F 
ATOM     79  C   UNL     1     -10.463 -13.882  -1.886  1.00  0.00     0.198 A 
ATOM     80  C   UNL     1      -8.080 -13.768  -1.633  1.00  0.00     0.198 A 
ATOM     81  F   UNL     1      -7.147 -12.953   0.369  1.00  0.00    -0.203 F 
ATOM     82  F   UNL     1     -11.540 -14.216  -2.610  1.00  0.00    -0.200 F 
ATOM     83  C   UNL     1      -9.191 -14.091  -2.397  1.00  0.00     0.200 A 
ATOM     84  F   UNL     1      -6.849 -13.953  -2.130  1.00  0.00    -0.200 F 
ATOM     85  F   UNL     1      -9.037 -14.608  -3.623  1.00  0.00    -0.200 F 
ENDBRANCH  51  75
BRANCH  63  86
ATOM     86  C   UNL     1     -12.226 -15.491   6.109  1.00  0.00     0.064 A 
ATOM     87  C   UNL     1     -11.483 -16.676   6.220  1.00  0.00     0.173 A 
ATOM     88  C   UNL     1     -13.604 -15.554   6.373  1.00  0.00     0.173 A 
ATOM     89  F   UNL     1     -10.166 -16.674   5.965  1.00  0.00    -0.203 F 
ATOM     90  C   UNL     1     -12.102 -17.880   6.547  1.00  0.00     0.198 A 
ATOM     91  C   UNL     1     -14.212 -16.752   6.735  1.00  0.00     0.198 A 
ATOM     92  F   UNL     1     -14.360 -14.448   6.290  1.00  0.00    -0.203 F 
ATOM     93  F   UNL     1     -11.382 -19.010   6.591  1.00  0.00    -0.200 F 
ATOM     94  C   UNL     1     -13.463 -17.916   6.812  1.00  0.00     0.200 A 
ATOM     95  F   UNL     1     -15.524 -16.780   7.006  1.00  0.00    -0.200 F 
ATOM     96  F   UNL     1     -14.054 -19.074   7.134  1.00  0.00    -0.200 F 
ENDBRANCH  63  86
ENDBRANCH  37  38
ENDBRANCH  29  32
ENDBRANCH  27  28
ENDBRANCH  26  27
ENDBRANCH   1  26
TORSDOF 14
