REMARK SMILES Cc1cccc(C[C@H](C(=O)NCCCCNC(=O)c2ccc(-c3c4nc(c(-c5c(F)c(F)c(F)c(F)c5F)c5ccc([nH]5)c(-c5c(F)c(F)c(F)c(F)c5F)c5nc(c(-c6c(F)c(F)c(F)c(F)c6F)c6ccc3[nH]6)C=C5)C=C4)cc2)[C@@H]2CCCC[C@@H]2O)c1
REMARK SMILES IDX 13 1 12 2 11 3 9 4 10 5 8 7 7 8 6 9 1 10 2 11 3 12 89 13
REMARK SMILES IDX 4 14 5 15 82 16 83 17 87 18 84 19 86 20 85 21 88 22 14 24
REMARK SMILES IDX 15 25 16 26 17 27 18 29 19 30 20 31 81 32 21 33 80 34 22 35
REMARK SMILES IDX 23 36 24 37 74 38 25 39 79 40 73 41 75 42 26 43 78 44 72 45
REMARK SMILES IDX 71 46 27 48 59 49 39 50 58 51 40 52 43 53 57 54 76 55 41 56
REMARK SMILES IDX 42 57 56 59 77 60 44 61 28 62 29 63 37 64 30 65 31 66 35 67
REMARK SMILES IDX 38 68 32 69 33 70 36 71 34 72 60 73 61 74 69 75 62 76 63 77
REMARK SMILES IDX 67 78 70 79 64 80 65 81 68 82 66 83 45 84 46 85 54 86 47 87
REMARK SMILES IDX 48 88 52 89 55 90 49 91 50 92 53 93 51 94
REMARK H PARENT 11 6 88 23 16 28 75 47 43 58
REMARK Flexibility Score: inf
ROOT
ATOM      1  C   UNL     1      -6.395   4.531   3.758  1.00  0.00     0.023 C 
ENDROOT
BRANCH   1   2
ATOM      2  C   UNL     1      -6.673   3.650   2.520  1.00  0.00     0.116 C 
BRANCH   2   3
ATOM      3  N   UNL     1      -5.519   2.882   2.050  1.00  0.00    -0.356 N 
ATOM      4  C   UNL     1      -4.751   2.938   0.917  1.00  0.00     0.223 C 
ATOM      5  O   UNL     1      -4.000   1.972   0.735  1.00  0.00    -0.275 OA
ATOM      6  H   UNL     1      -5.237   2.179   2.678  1.00  0.00     0.163 HD
BRANCH   4   7
ATOM      7  C   UNL     1      -4.802   4.108  -0.102  1.00  0.00     0.088 C 
BRANCH   7   8
ATOM      8  C   UNL     1      -4.786   5.492   0.522  1.00  0.00     0.049 C 
BRANCH   8   9
ATOM      9  C   UNL     1      -3.810   5.813   1.618  1.00  0.00    -0.047 A 
ATOM     10  C   UNL     1      -4.218   8.343   4.352  1.00  0.00     0.044 C 
ATOM     11  C   UNL     1      -3.660   7.194   3.579  1.00  0.00    -0.051 A 
ATOM     12  C   UNL     1      -2.856   6.217   4.163  1.00  0.00     0.003 A 
ATOM     13  C   UNL     1      -4.074   7.018   2.274  1.00  0.00     0.007 A 
ATOM     14  C   UNL     1      -2.424   5.103   3.456  1.00  0.00     0.001 A 
ATOM     15  C   UNL     1      -2.893   4.908   2.168  1.00  0.00     0.004 A 
ENDBRANCH   8   9
ENDBRANCH   7   8
BRANCH   7  16
ATOM     16  C   UNL     1      -3.766   3.960  -1.302  1.00  0.00     0.030 C 
ATOM     17  C   UNL     1      -2.606   4.981  -1.444  1.00  0.00     0.007 C 
ATOM     18  C   UNL     1      -4.494   3.904  -2.660  1.00  0.00     0.118 C 
ATOM     19  C   UNL     1      -2.946   6.350  -2.050  1.00  0.00     0.001 C 
ATOM     20  C   UNL     1      -5.057   5.271  -3.045  1.00  0.00     0.032 C 
ATOM     21  C   UNL     1      -3.958   6.318  -3.192  1.00  0.00     0.003 C 
BRANCH  18  22
ATOM     22  O   UNL     1      -5.551   2.951  -2.622  1.00  0.00    -0.393 OA
ATOM     23  H   UNL     1      -6.202   3.217  -1.955  1.00  0.00     0.210 HD
ENDBRANCH  18  22
ENDBRANCH   7  16
ENDBRANCH   4   7
ENDBRANCH   2   3
ENDBRANCH   1   2
BRANCH   1  24
ATOM     24  C   UNL     1      -6.393   3.785   5.102  1.00  0.00     0.023 C 
BRANCH  24  25
ATOM     25  C   UNL     1      -5.530   4.448   6.195  1.00  0.00     0.116 C 
BRANCH  25  26
ATOM     26  N   UNL     1      -6.099   5.619   6.847  1.00  0.00    -0.352 N 
ATOM     27  C   UNL     1      -5.539   6.565   7.696  1.00  0.00     0.251 C 
ATOM     28  H   UNL     1      -7.053   5.766   6.652  1.00  0.00     0.163 HD
ATOM     29  O   UNL     1      -6.282   7.373   8.233  1.00  0.00    -0.269 OA
BRANCH  27  30
ATOM     30  C   UNL     1      -4.061   6.718   7.877  1.00  0.00     0.039 A 
ATOM     31  C   UNL     1      -3.560   8.022   8.055  1.00  0.00     0.014 A 
ATOM     32  C   UNL     1      -3.157   5.671   7.747  1.00  0.00     0.014 A 
ATOM     33  C   UNL     1      -2.204   8.301   7.835  1.00  0.00     0.010 A 
ATOM     34  C   UNL     1      -1.816   5.952   7.486  1.00  0.00     0.010 A 
ATOM     35  C   UNL     1      -1.356   7.277   7.424  1.00  0.00    -0.014 A 
BRANCH  35  36
ATOM     36  C   UNL     1      -0.080   7.523   6.735  1.00  0.00     0.031 A 
ATOM     37  C   UNL     1       1.215   7.104   7.318  1.00  0.00     0.074 A 
ATOM     38  C   UNL     1      -0.047   8.060   5.489  1.00  0.00     0.049 A 
ATOM     39  N   UNL     1       2.343   7.667   7.023  1.00  0.00    -0.248 NA
ATOM     40  C   UNL     1       1.347   6.030   8.296  1.00  0.00     0.031 C 
ATOM     41  C   UNL     1       1.070   8.025   4.539  1.00  0.00     0.029 A 
ATOM     42  N   UNL     1      -0.997   8.878   4.851  1.00  0.00    -0.354 N 
ATOM     43  C   UNL     1       3.341   6.874   7.526  1.00  0.00     0.074 A 
ATOM     44  C   UNL     1       2.676   5.912   8.376  1.00  0.00     0.031 C 
ATOM     45  C   UNL     1       0.891   8.980   3.615  1.00  0.00     0.029 A 
ATOM     46  C   UNL     1      -0.265   9.754   4.024  1.00  0.00     0.049 A 
ATOM     47  H   UNL     1      -1.975   8.846   4.960  1.00  0.00     0.167 HD
ATOM     48  C   UNL     1       4.619   6.998   7.072  1.00  0.00     0.037 A 
ATOM     49  C   UNL     1      -0.306  11.106   4.147  1.00  0.00     0.037 A 
ATOM     50  C   UNL     1       4.753   7.997   6.020  1.00  0.00     0.049 A 
ATOM     51  C   UNL     1       1.048  11.740   4.269  1.00  0.00     0.074 A 
ATOM     52  C   UNL     1       4.841   7.898   4.641  1.00  0.00     0.029 A 
ATOM     53  N   UNL     1       4.520   9.341   6.297  1.00  0.00    -0.354 N 
ATOM     54  N   UNL     1       2.107  11.107   4.686  1.00  0.00    -0.248 NA
ATOM     55  C   UNL     1       1.310  13.138   3.960  1.00  0.00     0.031 C 
ATOM     56  C   UNL     1       4.707   9.193   4.088  1.00  0.00     0.029 A 
ATOM     57  C   UNL     1       4.532  10.085   5.131  1.00  0.00     0.049 A 
ATOM     58  H   UNL     1       4.368   9.710   7.197  1.00  0.00     0.167 HD
ATOM     59  C   UNL     1       3.174  11.968   4.713  1.00  0.00     0.074 A 
ATOM     60  C   UNL     1       2.623  13.221   4.233  1.00  0.00     0.031 C 
ATOM     61  C   UNL     1       4.399  11.538   5.144  1.00  0.00     0.037 A 
BRANCH  48  62
ATOM     62  C   UNL     1       5.663   5.967   7.412  1.00  0.00     0.064 A 
ATOM     63  C   UNL     1       6.537   5.438   6.442  1.00  0.00     0.173 A 
ATOM     64  C   UNL     1       5.795   5.425   8.704  1.00  0.00     0.173 A 
ATOM     65  F   UNL     1       6.567   5.910   5.191  1.00  0.00    -0.203 F 
ATOM     66  C   UNL     1       7.397   4.373   6.718  1.00  0.00     0.198 A 
ATOM     67  C   UNL     1       6.619   4.327   8.968  1.00  0.00     0.198 A 
ATOM     68  F   UNL     1       5.112   5.944   9.737  1.00  0.00    -0.203 F 
ATOM     69  F   UNL     1       8.192   3.893   5.751  1.00  0.00    -0.200 F 
ATOM     70  C   UNL     1       7.411   3.794   7.971  1.00  0.00     0.200 A 
ATOM     71  F   UNL     1       6.621   3.774  10.190  1.00  0.00    -0.200 F 
ATOM     72  F   UNL     1       8.188   2.730   8.216  1.00  0.00    -0.200 F 
ENDBRANCH  48  62
BRANCH  49  73
ATOM     73  C   UNL     1      -1.539  11.646   4.762  1.00  0.00     0.064 A 
ATOM     74  C   UNL     1      -2.717  11.707   4.003  1.00  0.00     0.173 A 
ATOM     75  C   UNL     1      -1.653  11.769   6.152  1.00  0.00     0.173 A 
ATOM     76  F   UNL     1      -2.666  11.563   2.669  1.00  0.00    -0.203 F 
ATOM     77  C   UNL     1      -3.966  11.810   4.616  1.00  0.00     0.198 A 
ATOM     78  C   UNL     1      -2.905  11.852   6.763  1.00  0.00     0.198 A 
ATOM     79  F   UNL     1      -0.562  11.697   6.928  1.00  0.00    -0.203 F 
ATOM     80  F   UNL     1      -5.081  11.766   3.872  1.00  0.00    -0.200 F 
ATOM     81  C   UNL     1      -4.060  11.845   5.997  1.00  0.00     0.200 A 
ATOM     82  F   UNL     1      -2.994  11.854   8.101  1.00  0.00    -0.200 F 
ATOM     83  F   UNL     1      -5.262  11.823   6.590  1.00  0.00    -0.200 F 
ENDBRANCH  49  73
BRANCH  61  84
ATOM     84  C   UNL     1       5.623  12.366   5.507  1.00  0.00     0.064 A 
ATOM     85  C   UNL     1       5.651  13.764   5.640  1.00  0.00     0.173 A 
ATOM     86  C   UNL     1       6.841  11.720   5.859  1.00  0.00     0.173 A 
ATOM     87  F   UNL     1       4.564  14.516   5.450  1.00  0.00    -0.203 F 
ATOM     88  C   UNL     1       6.800  14.457   6.041  1.00  0.00     0.198 A 
ATOM     89  C   UNL     1       7.967  12.409   6.309  1.00  0.00     0.198 A 
ATOM     90  F   UNL     1       6.981  10.387   5.813  1.00  0.00    -0.203 F 
ATOM     91  F   UNL     1       6.769  15.796   6.116  1.00  0.00    -0.200 F 
ATOM     92  C   UNL     1       7.951  13.782   6.389  1.00  0.00     0.200 A 
ATOM     93  F   UNL     1       9.057  11.726   6.686  1.00  0.00    -0.200 F 
ATOM     94  F   UNL     1       9.029  14.448   6.821  1.00  0.00    -0.200 F 
ENDBRANCH  61  84
ENDBRANCH  35  36
ENDBRANCH  27  30
ENDBRANCH  25  26
ENDBRANCH  24  25
ENDBRANCH   1  24
TORSDOF 15
