REMARK SMILES CCCNC(=O)[C@H](C)[NH2+][C@H](C)[C@@H](C)C(=O)NCCCCNC(=O)c1ccc(-c2c3nc(c(-c4c(F)c(F)c(F)c(F)c4F)c4ccc([nH]4)c(-c4c(F)c(F)c(F)c(F)c4F)c4nc(c(-c5c(F)c(F)c(F)c(F)c5F)c5ccc2[nH]5)C=C4)C=C3)cc1
REMARK SMILES IDX 14 1 15 2 16 3 12 5 13 6 10 7 11 8 9 9 7 12 8 13 5 14 4 15
REMARK SMILES IDX 6 17 3 18 2 19 1 20 17 21 18 22 19 23 20 24 21 25 22 26
REMARK SMILES IDX 23 28 24 29 25 30 86 31 26 32 85 33 27 34 28 35 29 36 79 37
REMARK SMILES IDX 30 38 84 39 78 40 80 41 31 42 83 43 77 44 76 45 32 47 64 48
REMARK SMILES IDX 44 49 63 50 45 51 48 52 62 53 81 54 46 55 47 56 61 58 82 59
REMARK SMILES IDX 49 60 33 61 34 62 42 63 35 64 36 65 40 66 43 67 37 68 38 69
REMARK SMILES IDX 41 70 39 71 65 72 66 73 74 74 67 75 68 76 72 77 75 78 69 79
REMARK SMILES IDX 70 80 73 81 71 82 50 83 51 84 59 85 52 86 53 87 57 88 60 89
REMARK SMILES IDX 54 90 55 91 58 92 56 93
REMARK H PARENT 16 4 9 10 9 11 4 16 21 27 80 46 48 57
REMARK Flexibility Score: inf
ROOT
ATOM      1  C   UNL     1       1.042  -2.123  -8.389  1.00  0.00     0.228 C 
ATOM      2  O   UNL     1       1.114  -1.005  -8.914  1.00  0.00    -0.275 OA
ATOM      3  N   UNL     1       0.347  -3.058  -9.092  1.00  0.00    -0.356 N 
ATOM      4  H   UNL     1      -0.126  -2.692  -9.874  1.00  0.00     0.163 HD
ENDROOT
BRANCH   1   5
ATOM      5  C   UNL     1       1.736  -2.365  -7.042  1.00  0.00     0.133 C 
ATOM      6  C   UNL     1       2.972  -3.262  -7.186  1.00  0.00     0.024 C 
BRANCH   5   7
ATOM      7  C   UNL     1       0.879  -2.792  -5.815  1.00  0.00     0.192 C 
ATOM      8  C   UNL     1       1.315  -1.995  -4.571  1.00  0.00     0.076 C 
BRANCH   7   9
ATOM      9  N   UNL     1      -0.550  -2.674  -5.989  1.00  0.00    -0.333 N 
ATOM     10  H   UNL     1      -0.760  -1.676  -6.015  1.00  0.00     0.347 HD
ATOM     11  H   UNL     1      -0.725  -3.217  -6.834  1.00  0.00     0.347 HD
BRANCH   9  12
ATOM     12  C   UNL     1      -1.469  -3.272  -5.014  1.00  0.00     0.269 C 
ATOM     13  C   UNL     1      -2.758  -2.435  -5.166  1.00  0.00     0.086 C 
BRANCH  12  14
ATOM     14  C   UNL     1      -1.863  -4.766  -5.212  1.00  0.00     0.277 C 
ATOM     15  N   UNL     1      -1.052  -5.824  -4.928  1.00  0.00    -0.351 N 
ATOM     16  H   UNL     1      -1.430  -6.468  -4.286  1.00  0.00     0.163 HD
ATOM     17  O   UNL     1      -3.029  -5.088  -5.484  1.00  0.00    -0.268 OA
BRANCH  15  18
ATOM     18  C   UNL     1       0.273  -6.165  -5.409  1.00  0.00     0.116 C 
BRANCH  18  19
ATOM     19  C   UNL     1       1.343  -6.200  -4.325  1.00  0.00     0.018 C 
ATOM     20  C   UNL     1       2.578  -6.953  -4.806  1.00  0.00     0.006 C 
ENDBRANCH  18  19
ENDBRANCH  15  18
ENDBRANCH  12  14
ENDBRANCH   9  12
ENDBRANCH   7   9
ENDBRANCH   5   7
ENDBRANCH   1   5
BRANCH   3  21
ATOM     21  C   UNL     1       0.164  -4.486  -8.918  1.00  0.00     0.116 C 
BRANCH  21  22
ATOM     22  C   UNL     1      -1.263  -4.866  -8.514  1.00  0.00     0.023 C 
BRANCH  22  23
ATOM     23  C   UNL     1      -2.266  -4.997  -9.653  1.00  0.00     0.023 C 
BRANCH  23  24
ATOM     24  C   UNL     1      -2.135  -6.292 -10.434  1.00  0.00     0.116 C 
BRANCH  24  25
ATOM     25  N   UNL     1      -2.469  -7.484  -9.660  1.00  0.00    -0.352 N 
ATOM     26  C   UNL     1      -3.030  -8.657 -10.113  1.00  0.00     0.251 C 
ATOM     27  H   UNL     1      -2.269  -7.443  -8.697  1.00  0.00     0.163 HD
ATOM     28  O   UNL     1      -3.306  -9.568  -9.340  1.00  0.00    -0.269 OA
BRANCH  26  29
ATOM     29  C   UNL     1      -3.357  -8.773 -11.549  1.00  0.00     0.039 A 
ATOM     30  C   UNL     1      -4.664  -9.099 -11.918  1.00  0.00     0.014 A 
ATOM     31  C   UNL     1      -2.408  -8.436 -12.516  1.00  0.00     0.014 A 
ATOM     32  C   UNL     1      -5.046  -8.988 -13.256  1.00  0.00     0.010 A 
ATOM     33  C   UNL     1      -2.813  -8.240 -13.830  1.00  0.00     0.010 A 
ATOM     34  C   UNL     1      -4.139  -8.501 -14.211  1.00  0.00    -0.014 A 
BRANCH  34  35
ATOM     35  C   UNL     1      -4.550  -8.238 -15.614  1.00  0.00     0.031 A 
ATOM     36  C   UNL     1      -3.894  -8.988 -16.738  1.00  0.00     0.074 A 
ATOM     37  C   UNL     1      -5.441  -7.262 -15.880  1.00  0.00     0.049 A 
ATOM     38  N   UNL     1      -4.019  -8.822 -18.030  1.00  0.00    -0.248 NA
ATOM     39  C   UNL     1      -2.940 -10.042 -16.357  1.00  0.00     0.031 C 
ATOM     40  C   UNL     1      -6.109  -6.426 -14.882  1.00  0.00     0.029 A 
ATOM     41  N   UNL     1      -5.928  -6.799 -17.078  1.00  0.00    -0.354 N 
ATOM     42  C   UNL     1      -3.150  -9.734 -18.611  1.00  0.00     0.074 A 
ATOM     43  C   UNL     1      -2.459 -10.410 -17.535  1.00  0.00     0.031 C 
ATOM     44  C   UNL     1      -6.936  -5.571 -15.505  1.00  0.00     0.029 A 
ATOM     45  C   UNL     1      -6.828  -5.769 -16.947  1.00  0.00     0.049 A 
ATOM     46  H   UNL     1      -5.657  -7.170 -17.949  1.00  0.00     0.167 HD
ATOM     47  C   UNL     1      -2.963 -10.004 -19.925  1.00  0.00     0.037 A 
ATOM     48  C   UNL     1      -7.486  -5.062 -17.886  1.00  0.00     0.037 A 
ATOM     49  C   UNL     1      -3.677  -9.358 -20.993  1.00  0.00     0.049 A 
ATOM     50  C   UNL     1      -7.261  -5.383 -19.339  1.00  0.00     0.074 A 
ATOM     51  C   UNL     1      -3.603  -9.602 -22.353  1.00  0.00     0.029 A 
ATOM     52  N   UNL     1      -4.602  -8.339 -20.818  1.00  0.00    -0.354 N 
ATOM     53  N   UNL     1      -6.481  -6.290 -19.875  1.00  0.00    -0.248 NA
ATOM     54  C   UNL     1      -8.009  -4.582 -20.318  1.00  0.00     0.031 C 
ATOM     55  C   UNL     1      -4.459  -8.708 -23.004  1.00  0.00     0.029 A 
ATOM     56  C   UNL     1      -5.096  -7.935 -22.048  1.00  0.00     0.049 A 
ATOM     57  H   UNL     1      -4.869  -7.960 -19.950  1.00  0.00     0.167 HD
ATOM     58  C   UNL     1      -6.666  -6.189 -21.247  1.00  0.00     0.074 A 
ATOM     59  C   UNL     1      -7.641  -5.141 -21.462  1.00  0.00     0.031 C 
ATOM     60  C   UNL     1      -6.080  -6.901 -22.240  1.00  0.00     0.037 A 
BRANCH  47  61
ATOM     61  C   UNL     1      -1.955 -11.058 -20.276  1.00  0.00     0.064 A 
ATOM     62  C   UNL     1      -2.190 -12.415 -20.006  1.00  0.00     0.173 A 
ATOM     63  C   UNL     1      -0.753 -10.713 -20.912  1.00  0.00     0.173 A 
ATOM     64  F   UNL     1      -3.317 -12.794 -19.386  1.00  0.00    -0.203 F 
ATOM     65  C   UNL     1      -1.245 -13.384 -20.332  1.00  0.00     0.198 A 
ATOM     66  C   UNL     1       0.176 -11.689 -21.264  1.00  0.00     0.198 A 
ATOM     67  F   UNL     1      -0.481  -9.431 -21.196  1.00  0.00    -0.203 F 
ATOM     68  F   UNL     1      -1.469 -14.667 -20.017  1.00  0.00    -0.200 F 
ATOM     69  C   UNL     1      -0.067 -13.021 -20.967  1.00  0.00     0.200 A 
ATOM     70  F   UNL     1       1.310 -11.338 -21.887  1.00  0.00    -0.200 F 
ATOM     71  F   UNL     1       0.839 -13.956 -21.284  1.00  0.00    -0.200 F 
ENDBRANCH  47  61
BRANCH  48  72
ATOM     72  C   UNL     1      -8.443  -3.999 -17.485  1.00  0.00     0.064 A 
ATOM     73  C   UNL     1      -9.822  -4.171 -17.673  1.00  0.00     0.173 A 
ATOM     74  C   UNL     1      -8.007  -2.789 -16.927  1.00  0.00     0.173 A 
ATOM     75  F   UNL     1     -10.286  -5.302 -18.225  1.00  0.00    -0.203 F 
ATOM     76  C   UNL     1     -10.726  -3.165 -17.338  1.00  0.00     0.198 A 
ATOM     77  C   UNL     1      -8.914  -1.794 -16.568  1.00  0.00     0.198 A 
ATOM     78  F   UNL     1      -6.699  -2.576 -16.725  1.00  0.00    -0.203 F 
ATOM     79  F   UNL     1     -12.034  -3.338 -17.572  1.00  0.00    -0.200 F 
ATOM     80  C   UNL     1     -10.272  -1.979 -16.781  1.00  0.00     0.200 A 
ATOM     81  F   UNL     1      -8.473  -0.653 -16.021  1.00  0.00    -0.200 F 
ATOM     82  F   UNL     1     -11.142  -1.012 -16.460  1.00  0.00    -0.200 F 
ENDBRANCH  48  72
BRANCH  60  83
ATOM     83  C   UNL     1      -6.503  -6.599 -23.647  1.00  0.00     0.064 A 
ATOM     84  C   UNL     1      -6.093  -5.429 -24.302  1.00  0.00     0.173 A 
ATOM     85  C   UNL     1      -7.286  -7.517 -24.363  1.00  0.00     0.173 A 
ATOM     86  F   UNL     1      -5.357  -4.514 -23.653  1.00  0.00    -0.203 F 
ATOM     87  C   UNL     1      -6.467  -5.181 -25.620  1.00  0.00     0.198 A 
ATOM     88  C   UNL     1      -7.635  -7.278 -25.689  1.00  0.00     0.198 A 
ATOM     89  F   UNL     1      -7.698  -8.653 -23.782  1.00  0.00    -0.203 F 
ATOM     90  F   UNL     1      -6.097  -4.039 -26.215  1.00  0.00    -0.200 F 
ATOM     91  C   UNL     1      -7.230  -6.108 -26.314  1.00  0.00     0.200 A 
ATOM     92  F   UNL     1      -8.361  -8.180 -26.363  1.00  0.00    -0.200 F 
ATOM     93  F   UNL     1      -7.579  -5.872 -27.586  1.00  0.00    -0.200 F 
ENDBRANCH  60  83
ENDBRANCH  34  35
ENDBRANCH  26  29
ENDBRANCH  24  25
ENDBRANCH  23  24
ENDBRANCH  22  23
ENDBRANCH  21  22
ENDBRANCH   3  21
TORSDOF 17
