REMARK SMILES Cc1cc(C[N@@H+]2CCCn3nc(CCC(=O)NCCCCNC(=O)c4ccc(-c5c6nc(c(-c7c(F)c(F)c(F)c(F)c7F)c7ccc([nH]7)c(-c7c(F)c(F)c(F)c(F)c7F)c7nc(c(-c8c(F)c(F)c(F)c(F)c8F)c8ccc5[nH]8)C=C7)C=C6)cc4)cc3C2)ccc1F
REMARK SMILES IDX 15 1 16 2 17 3 14 5 13 6 12 7 89 8 10 9 88 10 11 11 90 12
REMARK SMILES IDX 6 13 5 15 4 16 1 17 2 18 3 19 93 20 92 21 94 22 91 23 7 24
REMARK SMILES IDX 9 26 8 27 18 29 19 30 20 31 21 32 22 33 23 34 24 36 25 37
REMARK SMILES IDX 26 38 87 39 27 40 86 41 28 42 29 43 30 44 80 45 31 46 85 47
REMARK SMILES IDX 79 48 81 49 32 50 84 51 78 52 77 53 33 55 65 56 45 57 64 58
REMARK SMILES IDX 46 59 49 60 63 61 82 62 47 63 48 64 62 66 83 67 50 68 34 69
REMARK SMILES IDX 35 70 43 71 36 72 37 73 41 74 44 75 38 76 39 77 42 78 40 79
REMARK SMILES IDX 66 80 67 81 75 82 68 83 69 84 73 85 76 86 70 87 71 88 74 89
REMARK SMILES IDX 72 90 51 91 52 92 60 93 53 94 54 95 58 96 61 97 55 98 56 99
REMARK SMILES IDX 59 100 57 101
REMARK H PARENT 17 4 6 14 22 35 81 54 49 65
REMARK Flexibility Score: 90.00
ROOT
ATOM      1  C   UNL     1      -0.102   1.870  -6.369  1.00  0.00     0.220 C 
ATOM      2  O   UNL     1       1.124   1.984  -6.385  1.00  0.00    -0.275 OA
ATOM      3  N   UNL     1      -0.837   2.932  -5.911  1.00  0.00    -0.356 N 
ATOM      4  H   UNL     1      -0.377   3.802  -5.884  1.00  0.00     0.163 HD
ENDROOT
BRANCH   1   5
ATOM      5  C   UNL     1      -0.791   0.622  -6.912  1.00  0.00     0.106 C 
BRANCH   5   6
ATOM      6  C   UNL     1      -0.372  -0.694  -6.237  1.00  0.00     0.068 C 
BRANCH   6   7
ATOM      7  C   UNL     1      -1.239  -1.123  -5.087  1.00  0.00     0.063 A 
ATOM      8  C   UNL     1      -2.137  -1.113  -3.094  1.00  0.00     0.093 A 
ATOM      9  N   UNL     1      -3.003  -1.648  -4.003  1.00  0.00    -0.263 N 
ATOM     10  C   UNL     1      -0.908  -1.046  -3.713  1.00  0.00     0.055 A 
ATOM     11  N   UNL     1      -2.505  -1.542  -5.265  1.00  0.00    -0.178 NA
BRANCH   8  12
ATOM     12  C   UNL     1      -2.623  -0.260  -2.009  1.00  0.00     0.319 C 
BRANCH  12  13
ATOM     13  N   UNL     1      -3.441  -0.776  -0.959  1.00  0.00    -0.326 N 
ATOM     14  H   UNL     1      -4.315  -0.269  -1.100  1.00  0.00     0.348 HD
BRANCH  13  15
ATOM     15  C   UNL     1      -3.130  -0.296   0.389  1.00  0.00     0.299 C 
BRANCH  15  16
ATOM     16  C   UNL     1      -1.645  -0.406   0.679  1.00  0.00     0.007 A 
ATOM     17  C   UNL     1       1.473   1.738   0.155  1.00  0.00     0.047 C 
ATOM     18  C   UNL     1       0.573   0.572   0.430  1.00  0.00    -0.015 A 
ATOM     19  C   UNL     1      -0.809   0.728   0.577  1.00  0.00     0.016 A 
ATOM     20  C   UNL     1       1.101  -0.722   0.458  1.00  0.00     0.126 A 
ATOM     21  C   UNL     1       0.293  -1.838   0.648  1.00  0.00     0.040 A 
ATOM     22  F   UNL     1       2.413  -0.905   0.252  1.00  0.00    -0.207 F 
ATOM     23  C   UNL     1      -1.081  -1.682   0.768  1.00  0.00     0.012 A 
ENDBRANCH  15  16
ENDBRANCH  13  15
BRANCH  13  24
ATOM     24  C   UNL     1      -4.144  -2.015  -1.156  1.00  0.00     0.264 CG0
ATOM     25  G   UNL     1      -5.040  -1.994  -2.405  1.00  0.00     0.000 G0
ENDBRANCH  13  24
ENDBRANCH  12  13
ENDBRANCH   8  12
BRANCH   9  26
ATOM     26  C   UNL     1      -4.422  -1.892  -3.819  1.00  0.00     0.150 C 
BRANCH  26  27
ATOM     27  C   UNL     1      -5.040  -1.994  -2.405  1.00  0.00     0.085 CG0
ATOM     28  G   UNL     1      -4.144  -2.015  -1.156  1.00  0.00     0.000 G0
ENDBRANCH  26  27
ENDBRANCH   9  26
ENDBRANCH   6   7
ENDBRANCH   5   6
ENDBRANCH   1   5
BRANCH   3  29
ATOM     29  C   UNL     1      -2.214   2.920  -5.464  1.00  0.00     0.116 C 
BRANCH  29  30
ATOM     30  C   UNL     1      -2.312   2.184  -4.134  1.00  0.00     0.023 C 
BRANCH  30  31
ATOM     31  C   UNL     1      -2.130   3.018  -2.858  1.00  0.00     0.023 C 
BRANCH  31  32
ATOM     32  C   UNL     1      -3.462   3.395  -2.221  1.00  0.00     0.116 C 
BRANCH  32  33
ATOM     33  N   UNL     1      -4.302   2.295  -1.677  1.00  0.00    -0.352 N 
ATOM     34  C   UNL     1      -5.410   2.305  -0.816  1.00  0.00     0.251 C 
ATOM     35  H   UNL     1      -4.032   1.397  -1.976  1.00  0.00     0.163 HD
ATOM     36  O   UNL     1      -5.870   1.341  -0.289  1.00  0.00    -0.269 OA
BRANCH  34  37
ATOM     37  C   UNL     1      -6.131   3.576  -0.812  1.00  0.00     0.039 A 
ATOM     38  C   UNL     1      -6.552   4.283   0.308  1.00  0.00     0.014 A 
ATOM     39  C   UNL     1      -6.142   4.131  -2.064  1.00  0.00     0.014 A 
ATOM     40  C   UNL     1      -6.821   5.637   0.121  1.00  0.00     0.010 A 
ATOM     41  C   UNL     1      -5.809   5.430  -2.058  1.00  0.00     0.010 A 
ATOM     42  C   UNL     1      -6.399   6.205  -1.083  1.00  0.00    -0.014 A 
BRANCH  42  43
ATOM     43  C   UNL     1      -6.563   7.558  -1.568  1.00  0.00     0.031 A 
ATOM     44  C   UNL     1      -6.087   8.668  -0.763  1.00  0.00     0.074 A 
ATOM     45  C   UNL     1      -7.048   7.676  -2.833  1.00  0.00     0.049 A 
ATOM     46  N   UNL     1      -6.780   9.725  -0.541  1.00  0.00    -0.248 NA
ATOM     47  C   UNL     1      -4.777   8.660  -0.115  1.00  0.00     0.031 C 
ATOM     48  C   UNL     1      -7.124   8.809  -3.729  1.00  0.00     0.029 A 
ATOM     49  N   UNL     1      -7.648   6.638  -3.580  1.00  0.00    -0.354 N 
ATOM     50  C   UNL     1      -5.875  10.657  -0.099  1.00  0.00     0.074 A 
ATOM     51  C   UNL     1      -4.717   9.915   0.350  1.00  0.00     0.031 C 
ATOM     52  C   UNL     1      -7.997   8.511  -4.718  1.00  0.00     0.029 A 
ATOM     53  C   UNL     1      -8.582   7.204  -4.435  1.00  0.00     0.049 A 
ATOM     54  H   UNL     1      -7.439   5.679  -3.507  1.00  0.00     0.167 HD
ATOM     55  C   UNL     1      -6.045  11.962  -0.449  1.00  0.00     0.037 A 
ATOM     56  C   UNL     1      -9.890   6.886  -4.215  1.00  0.00     0.037 A 
ATOM     57  C   UNL     1      -7.129  12.089  -1.426  1.00  0.00     0.049 A 
ATOM     58  C   UNL     1     -10.624   8.085  -3.695  1.00  0.00     0.074 A 
ATOM     59  C   UNL     1      -7.102  12.191  -2.809  1.00  0.00     0.029 A 
ATOM     60  N   UNL     1      -8.425  11.701  -1.096  1.00  0.00    -0.354 N 
ATOM     61  N   UNL     1     -10.037   9.079  -3.091  1.00  0.00    -0.248 NA
ATOM     62  C   UNL     1     -12.058   8.273  -3.844  1.00  0.00     0.031 C 
ATOM     63  C   UNL     1      -8.385  11.859  -3.308  1.00  0.00     0.029 A 
ATOM     64  C   UNL     1      -9.196  11.542  -2.234  1.00  0.00     0.049 A 
ATOM     65  H   UNL     1      -8.749  11.558  -0.177  1.00  0.00     0.167 HD
ATOM     66  C   UNL     1     -10.962  10.034  -2.788  1.00  0.00     0.074 A 
ATOM     67  C   UNL     1     -12.212   9.487  -3.287  1.00  0.00     0.031 C 
ATOM     68  C   UNL     1     -10.608  11.188  -2.150  1.00  0.00     0.037 A 
BRANCH  55  69
ATOM     69  C   UNL     1      -4.988  13.004  -0.202  1.00  0.00     0.064 A 
ATOM     70  C   UNL     1      -4.716  14.027  -1.132  1.00  0.00     0.173 A 
ATOM     71  C   UNL     1      -4.215  13.039   0.976  1.00  0.00     0.173 A 
ATOM     72  F   UNL     1      -5.412  14.150  -2.268  1.00  0.00    -0.203 F 
ATOM     73  C   UNL     1      -3.706  14.969  -0.933  1.00  0.00     0.198 A 
ATOM     74  C   UNL     1      -3.180  13.962   1.159  1.00  0.00     0.198 A 
ATOM     75  F   UNL     1      -4.456  12.184   1.981  1.00  0.00    -0.203 F 
ATOM     76  F   UNL     1      -3.492  15.915  -1.859  1.00  0.00    -0.200 F 
ATOM     77  C   UNL     1      -2.925  14.926   0.203  1.00  0.00     0.200 A 
ATOM     78  F   UNL     1      -2.429  13.910   2.269  1.00  0.00    -0.200 F 
ATOM     79  F   UNL     1      -1.941  15.817   0.380  1.00  0.00    -0.200 F 
ENDBRANCH  55  69
BRANCH  56  80
ATOM     80  C   UNL     1     -10.065   5.474  -3.721  1.00  0.00     0.064 A 
ATOM     81  C   UNL     1      -9.714   4.426  -4.599  1.00  0.00     0.173 A 
ATOM     82  C   UNL     1     -10.132   5.160  -2.353  1.00  0.00     0.173 A 
ATOM     83  F   UNL     1      -9.622   4.663  -5.918  1.00  0.00    -0.203 F 
ATOM     84  C   UNL     1      -9.322   3.173  -4.126  1.00  0.00     0.198 A 
ATOM     85  C   UNL     1      -9.753   3.896  -1.883  1.00  0.00     0.198 A 
ATOM     86  F   UNL     1     -10.453   6.104  -1.457  1.00  0.00    -0.203 F 
ATOM     87  F   UNL     1      -8.857   2.250  -4.981  1.00  0.00    -0.200 F 
ATOM     88  C   UNL     1      -9.315   2.918  -2.766  1.00  0.00     0.200 A 
ATOM     89  F   UNL     1      -9.727   3.650  -0.565  1.00  0.00    -0.200 F 
ATOM     90  F   UNL     1      -8.827   1.756  -2.308  1.00  0.00    -0.200 F 
ENDBRANCH  56  80
BRANCH  68  91
ATOM     91  C   UNL     1     -11.555  12.152  -1.484  1.00  0.00     0.064 A 
ATOM     92  C   UNL     1     -12.841  11.806  -1.043  1.00  0.00     0.173 A 
ATOM     93  C   UNL     1     -11.117  13.451  -1.121  1.00  0.00     0.173 A 
ATOM     94  F   UNL     1     -13.331  10.570  -1.196  1.00  0.00    -0.203 F 
ATOM     95  C   UNL     1     -13.656  12.712  -0.362  1.00  0.00     0.198 A 
ATOM     96  C   UNL     1     -11.900  14.320  -0.369  1.00  0.00     0.198 A 
ATOM     97  F   UNL     1      -9.904  13.912  -1.457  1.00  0.00    -0.203 F 
ATOM     98  F   UNL     1     -14.900  12.351  -0.021  1.00  0.00    -0.200 F 
ATOM     99  C   UNL     1     -13.180  13.960  -0.010  1.00  0.00     0.200 A 
ATOM    100  F   UNL     1     -11.395  15.498   0.021  1.00  0.00    -0.200 F 
ATOM    101  F   UNL     1     -13.945  14.804   0.692  1.00  0.00    -0.200 F 
ENDBRANCH  68  91
ENDBRANCH  42  43
ENDBRANCH  34  37
ENDBRANCH  32  33
ENDBRANCH  31  32
ENDBRANCH  30  31
ENDBRANCH  29  30
ENDBRANCH   3  29
TORSDOF 15
