REMARK SMILES COc1ccc(-n2ncc(C(=O)NCCCCNC(=O)c3ccc(-c4c5nc(c(-c6c(F)c(F)c(F)c(F)c6F)c6ccc([nH]6)c(-c6c(F)c(F)c(F)c(F)c6F)c6nc(c(-c7c(F)c(F)c(F)c(F)c7F)c7ccc4[nH]7)C=C6)C=C5)cc3)n2)nn1
REMARK SMILES IDX 15 1 14 2 13 3 11 4 12 5 10 7 7 8 8 9 84 10 9 11 6 12 3 13
REMARK SMILES IDX 4 14 86 15 5 16 85 17 2 18 1 19 16 20 17 21 18 22 19 23
REMARK SMILES IDX 20 25 21 26 22 27 83 28 23 29 82 30 24 31 25 32 26 33 76 34
REMARK SMILES IDX 27 35 81 36 75 37 77 38 28 39 80 40 74 41 73 42 29 44 61 45
REMARK SMILES IDX 41 46 60 47 42 48 45 49 59 50 78 51 43 52 44 53 58 55 79 56
REMARK SMILES IDX 46 57 30 58 31 59 39 60 32 61 33 62 37 63 40 64 34 65 35 66
REMARK SMILES IDX 38 67 36 68 62 69 63 70 71 71 64 72 65 73 69 74 72 75 66 76
REMARK SMILES IDX 67 77 70 78 68 79 47 80 48 81 56 82 49 83 50 84 54 85 57 86
REMARK SMILES IDX 51 87 52 88 55 89 53 90
REMARK H PARENT 13 6 18 24 77 43 45 54
REMARK Flexibility Score: inf
ROOT
ATOM      1  C   UNL     1       3.504 -10.098  -6.116  1.00  0.00     0.023 C 
ENDROOT
BRANCH   1   2
ATOM      2  C   UNL     1       3.964  -8.674  -6.432  1.00  0.00     0.116 C 
BRANCH   2   3
ATOM      3  N   UNL     1       2.874  -7.833  -6.881  1.00  0.00    -0.351 N 
ATOM      4  C   UNL     1       2.068  -6.893  -6.278  1.00  0.00     0.273 C 
ATOM      5  O   UNL     1       1.177  -6.443  -7.004  1.00  0.00    -0.267 OA
ATOM      6  H   UNL     1       2.660  -7.963  -7.833  1.00  0.00     0.163 HD
BRANCH   4   7
ATOM      7  C   UNL     1       2.276  -6.397  -4.907  1.00  0.00     0.170 A 
ATOM      8  N   UNL     1       2.074  -5.100  -3.232  1.00  0.00    -0.130 N 
ATOM      9  N   UNL     1       3.212  -5.787  -2.941  1.00  0.00    -0.154 NA
ATOM     10  N   UNL     1       1.432  -5.490  -4.361  1.00  0.00    -0.141 NA
ATOM     11  C   UNL     1       3.289  -6.638  -3.962  1.00  0.00     0.172 A 
BRANCH   8  12
ATOM     12  C   UNL     1       1.660  -4.013  -2.413  1.00  0.00     0.196 A 
ATOM     13  C   UNL     1       0.893  -2.051  -0.696  1.00  0.00     0.233 A 
ATOM     14  C   UNL     1       2.242  -2.325  -0.813  1.00  0.00     0.074 A 
ATOM     15  N   UNL     1      -0.035  -2.708  -1.425  1.00  0.00    -0.110 NA
ATOM     16  C   UNL     1       2.633  -3.338  -1.679  1.00  0.00     0.058 A 
ATOM     17  N   UNL     1       0.354  -3.675  -2.328  1.00  0.00    -0.125 NA
BRANCH  13  18
ATOM     18  O   UNL     1       0.416  -1.188   0.255  1.00  0.00    -0.480 OA
ATOM     19  C   UNL     1       0.905   0.135   0.063  1.00  0.00     0.280 C 
ENDBRANCH  13  18
ENDBRANCH   8  12
ENDBRANCH   4   7
ENDBRANCH   2   3
ENDBRANCH   1   2
BRANCH   1  20
ATOM     20  C   UNL     1       3.198 -10.969  -7.345  1.00  0.00     0.023 C 
BRANCH  20  21
ATOM     21  C   UNL     1       4.387 -11.226  -8.268  1.00  0.00     0.116 C 
BRANCH  21  22
ATOM     22  N   UNL     1       5.495 -11.912  -7.606  1.00  0.00    -0.352 N 
ATOM     23  C   UNL     1       6.781 -12.101  -8.083  1.00  0.00     0.251 C 
ATOM     24  H   UNL     1       5.304 -12.283  -6.715  1.00  0.00     0.163 HD
ATOM     25  O   UNL     1       7.495 -12.989  -7.652  1.00  0.00    -0.269 OA
BRANCH  23  26
ATOM     26  C   UNL     1       7.276 -11.189  -9.129  1.00  0.00     0.039 A 
ATOM     27  C   UNL     1       7.930 -11.671 -10.263  1.00  0.00     0.014 A 
ATOM     28  C   UNL     1       7.018  -9.829  -8.975  1.00  0.00     0.014 A 
ATOM     29  C   UNL     1       8.234 -10.779 -11.289  1.00  0.00     0.010 A 
ATOM     30  C   UNL     1       7.192  -8.978 -10.039  1.00  0.00     0.010 A 
ATOM     31  C   UNL     1       7.834  -9.435 -11.185  1.00  0.00    -0.014 A 
BRANCH  31  32
ATOM     32  C   UNL     1       7.997  -8.527 -12.318  1.00  0.00     0.031 A 
ATOM     33  C   UNL     1       7.435  -9.012 -13.611  1.00  0.00     0.074 A 
ATOM     34  C   UNL     1       8.449  -7.261 -12.204  1.00  0.00     0.049 A 
ATOM     35  N   UNL     1       8.085  -9.323 -14.684  1.00  0.00    -0.248 NA
ATOM     36  C   UNL     1       5.990  -9.276 -13.696  1.00  0.00     0.031 C 
ATOM     37  C   UNL     1       8.755  -6.498 -10.988  1.00  0.00     0.029 A 
ATOM     38  N   UNL     1       8.648  -6.342 -13.188  1.00  0.00    -0.354 N 
ATOM     39  C   UNL     1       7.130  -9.667 -15.638  1.00  0.00     0.074 A 
ATOM     40  C   UNL     1       5.874  -9.752 -14.938  1.00  0.00     0.031 C 
ATOM     41  C   UNL     1       8.877  -5.187 -11.291  1.00  0.00     0.029 A 
ATOM     42  C   UNL     1       8.845  -5.045 -12.734  1.00  0.00     0.049 A 
ATOM     43  H   UNL     1       8.652  -6.577 -14.144  1.00  0.00     0.167 HD
ATOM     44  C   UNL     1       7.427  -9.656 -16.968  1.00  0.00     0.037 A 
ATOM     45  C   UNL     1       8.964  -3.929 -13.492  1.00  0.00     0.037 A 
ATOM     46  C   UNL     1       8.850  -9.620 -17.184  1.00  0.00     0.049 A 
ATOM     47  C   UNL     1       9.358  -4.364 -14.854  1.00  0.00     0.074 A 
ATOM     48  C   UNL     1       9.903 -10.459 -16.877  1.00  0.00     0.029 A 
ATOM     49  N   UNL     1       9.420  -8.408 -17.484  1.00  0.00    -0.354 N 
ATOM     50  N   UNL     1      10.511  -4.901 -15.139  1.00  0.00    -0.248 NA
ATOM     51  C   UNL     1       8.300  -4.602 -15.822  1.00  0.00     0.031 C 
ATOM     52  C   UNL     1      10.976  -9.588 -16.524  1.00  0.00     0.029 A 
ATOM     53  C   UNL     1      10.536  -8.275 -16.700  1.00  0.00     0.049 A 
ATOM     54  H   UNL     1       9.088  -7.754 -18.142  1.00  0.00     0.167 HD
ATOM     55  C   UNL     1      10.216  -5.892 -16.062  1.00  0.00     0.074 A 
ATOM     56  C   UNL     1       8.862  -5.592 -16.520  1.00  0.00     0.031 C 
ATOM     57  C   UNL     1      10.986  -7.015 -16.156  1.00  0.00     0.037 A 
BRANCH  44  58
ATOM     58  C   UNL     1       6.454  -9.322 -18.072  1.00  0.00     0.064 A 
ATOM     59  C   UNL     1       6.847  -9.498 -19.416  1.00  0.00     0.173 A 
ATOM     60  C   UNL     1       5.288  -8.552 -17.877  1.00  0.00     0.173 A 
ATOM     61  F   UNL     1       7.950 -10.200 -19.719  1.00  0.00    -0.203 F 
ATOM     62  C   UNL     1       6.173  -8.878 -20.472  1.00  0.00     0.198 A 
ATOM     63  C   UNL     1       4.588  -7.978 -18.938  1.00  0.00     0.198 A 
ATOM     64  F   UNL     1       4.850  -8.226 -16.655  1.00  0.00    -0.203 F 
ATOM     65  F   UNL     1       6.661  -8.966 -21.717  1.00  0.00    -0.200 F 
ATOM     66  C   UNL     1       5.048  -8.112 -20.230  1.00  0.00     0.200 A 
ATOM     67  F   UNL     1       3.510  -7.222 -18.682  1.00  0.00    -0.200 F 
ATOM     68  F   UNL     1       4.439  -7.463 -21.231  1.00  0.00    -0.200 F 
ENDBRANCH  44  58
BRANCH  45  69
ATOM     69  C   UNL     1       8.479  -2.562 -13.201  1.00  0.00     0.064 A 
ATOM     70  C   UNL     1       8.947  -1.458 -13.930  1.00  0.00     0.173 A 
ATOM     71  C   UNL     1       7.334  -2.353 -12.407  1.00  0.00     0.173 A 
ATOM     72  F   UNL     1      10.008  -1.586 -14.739  1.00  0.00    -0.203 F 
ATOM     73  C   UNL     1       8.286  -0.226 -13.897  1.00  0.00     0.198 A 
ATOM     74  C   UNL     1       6.678  -1.122 -12.371  1.00  0.00     0.198 A 
ATOM     75  F   UNL     1       6.774  -3.365 -11.729  1.00  0.00    -0.203 F 
ATOM     76  F   UNL     1       8.721   0.787 -14.660  1.00  0.00    -0.200 F 
ATOM     77  C   UNL     1       7.145  -0.063 -13.129  1.00  0.00     0.200 A 
ATOM     78  F   UNL     1       5.555  -0.988 -11.652  1.00  0.00    -0.200 F 
ATOM     79  F   UNL     1       6.472   1.096 -13.151  1.00  0.00    -0.200 F 
ENDBRANCH  45  69
BRANCH  57  80
ATOM     80  C   UNL     1      12.312  -7.018 -15.445  1.00  0.00     0.064 A 
ATOM     81  C   UNL     1      12.465  -6.913 -14.051  1.00  0.00     0.173 A 
ATOM     82  C   UNL     1      13.465  -7.273 -16.200  1.00  0.00     0.173 A 
ATOM     83  F   UNL     1      11.405  -6.769 -13.247  1.00  0.00    -0.203 F 
ATOM     84  C   UNL     1      13.720  -7.013 -13.451  1.00  0.00     0.198 A 
ATOM     85  C   UNL     1      14.711  -7.410 -15.594  1.00  0.00     0.198 A 
ATOM     86  F   UNL     1      13.375  -7.436 -17.529  1.00  0.00    -0.203 F 
ATOM     87  F   UNL     1      13.840  -6.895 -12.120  1.00  0.00    -0.200 F 
ATOM     88  C   UNL     1      14.840  -7.269 -14.223  1.00  0.00     0.200 A 
ATOM     89  F   UNL     1      15.784  -7.707 -16.341  1.00  0.00    -0.200 F 
ATOM     90  F   UNL     1      16.041  -7.406 -13.643  1.00  0.00    -0.200 F 
ENDBRANCH  57  80
ENDBRANCH  31  32
ENDBRANCH  23  26
ENDBRANCH  21  22
ENDBRANCH  20  21
ENDBRANCH   1  20
TORSDOF 13
