REMARK SMILES Cc1c(C(=O)NCCCCNC(=O)c2ccc(-c3c4nc(c(-c5c(F)c(F)c(F)c(F)c5F)c5ccc([nH]5)c(-c5c(F)c(F)c(F)c(F)c5F)c5nc(c(-c6c(F)c(F)c(F)c(F)c6F)c6ccc3[nH]6)C=C5)C=C4)cc2)cccc1-n1c(C)cc(/C=C2/C(=O)NC(=S)N=C2O)c1C
REMARK SMILES IDX 8 1 7 2 6 3 4 4 5 5 3 7 1 8 2 9 80 10 77 11 79 12 78 13
REMARK SMILES IDX 81 14 82 15 96 16 83 17 84 18 85 19 97 20 86 21 87 22 88 23
REMARK SMILES IDX 94 24 89 25 90 26 93 27 91 28 92 30 95 31 9 33 10 34 11 35
REMARK SMILES IDX 12 36 13 38 14 39 15 40 76 41 16 42 75 43 17 44 18 45 19 46
REMARK SMILES IDX 69 47 20 48 74 49 68 50 70 51 21 52 73 53 67 54 66 55 22 57
REMARK SMILES IDX 54 58 34 59 53 60 35 61 38 62 52 63 71 64 36 65 37 66 51 68
REMARK SMILES IDX 72 69 39 70 23 71 24 72 32 73 25 74 26 75 30 76 33 77 27 78
REMARK SMILES IDX 28 79 31 80 29 81 55 82 56 83 64 84 57 85 58 86 62 87 65 88
REMARK SMILES IDX 59 89 60 90 63 91 61 92 40 93 41 94 49 95 42 96 43 97 47 98
REMARK SMILES IDX 50 99 44 100 45 101 48 102 46 103
REMARK H PARENT 6 6 90 29 95 32 11 37 70 56 38 67
REMARK Flexibility Score: inf
ROOT
ATOM      1  C   UNL     1       4.111  -1.762   1.484  1.00  0.00     0.023 C 
ENDROOT
BRANCH   1   2
ATOM      2  C   UNL     1       3.490  -2.325   0.188  1.00  0.00     0.116 C 
BRANCH   2   3
ATOM      3  N   UNL     1       2.159  -2.847   0.415  1.00  0.00    -0.352 N 
ATOM      4  C   UNL     1       0.865  -2.419   0.308  1.00  0.00     0.251 C 
ATOM      5  O   UNL     1       0.050  -3.314   0.578  1.00  0.00    -0.269 OA
ATOM      6  H   UNL     1       2.196  -3.777   0.738  1.00  0.00     0.163 HD
BRANCH   4   7
ATOM      7  C   UNL     1       0.308  -1.069  -0.092  1.00  0.00     0.044 A 
ATOM      8  C   UNL     1       2.292   0.497   0.373  1.00  0.00     0.047 C 
ATOM      9  C   UNL     1       0.890   0.219  -0.062  1.00  0.00    -0.014 A 
ATOM     10  C   UNL     1       0.073   1.341  -0.386  1.00  0.00     0.049 A 
ATOM     11  C   UNL     1      -1.076  -1.141  -0.423  1.00  0.00     0.014 A 
ATOM     12  C   UNL     1      -1.285   1.234  -0.688  1.00  0.00     0.027 A 
ATOM     13  C   UNL     1      -1.862  -0.020  -0.705  1.00  0.00     0.003 A 
BRANCH  10  14
ATOM     14  N   UNL     1       0.581   2.657  -0.258  1.00  0.00    -0.318 N 
ATOM     15  C   UNL     1       1.334   3.317  -1.210  1.00  0.00     0.020 A 
ATOM     16  C   UNL     1       0.623   3.370   0.939  1.00  0.00     0.027 A 
ATOM     17  C   UNL     1       1.712   2.722  -2.522  1.00  0.00     0.065 C 
ATOM     18  C   UNL     1       1.670   4.546  -0.680  1.00  0.00     0.031 A 
ATOM     19  C   UNL     1       1.209   4.595   0.664  1.00  0.00    -0.003 A 
ATOM     20  C   UNL     1       0.157   2.745   2.217  1.00  0.00     0.065 C 
BRANCH  19  21
ATOM     21  C   UNL     1       1.533   5.668   1.551  1.00  0.00     0.029 C 
ATOM     22  C   UNL     1       0.896   6.195   2.613  1.00  0.00     0.102 C 
ATOM     23  C   UNL     1       1.651   7.225   3.374  1.00  0.00     0.262 C 
ATOM     24  C   UNL     1      -0.402   5.869   3.204  1.00  0.00     0.226 C 
ATOM     25  O   UNL     1       2.643   7.809   2.955  1.00  0.00    -0.269 OA
ATOM     26  N   UNL     1       1.164   7.451   4.634  1.00  0.00    -0.297 N 
ATOM     27  N   UNL     1      -0.807   6.172   4.383  1.00  0.00    -0.184 NA
ATOM     28  C   UNL     1       0.029   6.906   5.181  1.00  0.00     0.203 C 
ATOM     29  H   UNL     1       1.680   8.065   5.204  1.00  0.00     0.172 HD
ATOM     30  S   UNL     1      -0.288   7.232   6.794  1.00  0.00    -0.038 S 
BRANCH  24  31
ATOM     31  O   UNL     1      -1.280   5.251   2.413  1.00  0.00    -0.493 OA
ATOM     32  H   UNL     1      -1.036   5.008   1.542  1.00  0.00     0.295 HD
ENDBRANCH  24  31
ENDBRANCH  19  21
ENDBRANCH  10  14
ENDBRANCH   4   7
ENDBRANCH   2   3
ENDBRANCH   1   2
BRANCH   1  33
ATOM     33  C   UNL     1       5.045  -2.705   2.239  1.00  0.00     0.023 C 
BRANCH  33  34
ATOM     34  C   UNL     1       6.340  -2.964   1.491  1.00  0.00     0.116 C 
BRANCH  34  35
ATOM     35  N   UNL     1       7.462  -2.099   1.823  1.00  0.00    -0.352 N 
ATOM     36  C   UNL     1       8.666  -1.938   1.145  1.00  0.00     0.251 C 
ATOM     37  H   UNL     1       7.354  -1.554   2.636  1.00  0.00     0.163 HD
ATOM     38  O   UNL     1       9.556  -1.262   1.628  1.00  0.00    -0.269 OA
BRANCH  36  39
ATOM     39  C   UNL     1       8.808  -2.478  -0.237  1.00  0.00     0.039 A 
ATOM     40  C   UNL     1       9.403  -1.665  -1.209  1.00  0.00     0.014 A 
ATOM     41  C   UNL     1       8.173  -3.653  -0.622  1.00  0.00     0.014 A 
ATOM     42  C   UNL     1       9.122  -1.891  -2.557  1.00  0.00     0.010 A 
ATOM     43  C   UNL     1       7.767  -3.791  -1.932  1.00  0.00     0.010 A 
ATOM     44  C   UNL     1       8.195  -2.875  -2.895  1.00  0.00    -0.014 A 
BRANCH  44  45
ATOM     45  C   UNL     1       7.573  -3.005  -4.208  1.00  0.00     0.031 A 
ATOM     46  C   UNL     1       7.953  -4.129  -5.090  1.00  0.00     0.074 A 
ATOM     47  C   UNL     1       6.569  -2.169  -4.555  1.00  0.00     0.049 A 
ATOM     48  N   UNL     1       7.701  -4.188  -6.353  1.00  0.00    -0.248 NA
ATOM     49  C   UNL     1       8.689  -5.287  -4.599  1.00  0.00     0.031 C 
ATOM     50  C   UNL     1       5.660  -2.290  -5.692  1.00  0.00     0.029 A 
ATOM     51  N   UNL     1       6.313  -0.885  -4.045  1.00  0.00    -0.354 N 
ATOM     52  C   UNL     1       8.033  -5.448  -6.799  1.00  0.00     0.074 A 
ATOM     53  C   UNL     1       8.659  -6.088  -5.667  1.00  0.00     0.031 C 
ATOM     54  C   UNL     1       5.207  -1.066  -6.010  1.00  0.00     0.029 A 
ATOM     55  C   UNL     1       5.915  -0.117  -5.170  1.00  0.00     0.049 A 
ATOM     56  H   UNL     1       6.392  -0.584  -3.111  1.00  0.00     0.167 HD
ATOM     57  C   UNL     1       7.662  -5.826  -8.057  1.00  0.00     0.037 A 
ATOM     58  C   UNL     1       6.710   0.898  -5.620  1.00  0.00     0.037 A 
ATOM     59  C   UNL     1       7.081  -4.704  -8.791  1.00  0.00     0.049 A 
ATOM     60  C   UNL     1       7.269   0.686  -7.013  1.00  0.00     0.074 A 
ATOM     61  C   UNL     1       5.790  -4.259  -9.023  1.00  0.00     0.029 A 
ATOM     62  N   UNL     1       7.915  -3.660  -9.149  1.00  0.00    -0.354 N 
ATOM     63  N   UNL     1       7.106  -0.401  -7.716  1.00  0.00    -0.248 NA
ATOM     64  C   UNL     1       8.140   1.655  -7.681  1.00  0.00     0.031 C 
ATOM     65  C   UNL     1       5.863  -2.904  -9.464  1.00  0.00     0.029 A 
ATOM     66  C   UNL     1       7.197  -2.539  -9.512  1.00  0.00     0.049 A 
ATOM     67  H   UNL     1       8.898  -3.711  -9.146  1.00  0.00     0.167 HD
ATOM     68  C   UNL     1       7.839  -0.308  -8.866  1.00  0.00     0.074 A 
ATOM     69  C   UNL     1       8.474   0.994  -8.802  1.00  0.00     0.031 C 
ATOM     70  C   UNL     1       7.912  -1.308  -9.788  1.00  0.00     0.037 A 
BRANCH  57  71
ATOM     71  C   UNL     1       7.655  -7.249  -8.567  1.00  0.00     0.064 A 
ATOM     72  C   UNL     1       6.750  -7.639  -9.579  1.00  0.00     0.173 A 
ATOM     73  C   UNL     1       8.471  -8.287  -8.081  1.00  0.00     0.173 A 
ATOM     74  F   UNL     1       5.973  -6.744 -10.204  1.00  0.00    -0.203 F 
ATOM     75  C   UNL     1       6.605  -8.969  -9.988  1.00  0.00     0.198 A 
ATOM     76  C   UNL     1       8.284  -9.626  -8.442  1.00  0.00     0.198 A 
ATOM     77  F   UNL     1       9.525  -8.040  -7.296  1.00  0.00    -0.203 F 
ATOM     78  F   UNL     1       5.732  -9.274 -10.957  1.00  0.00    -0.200 F 
ATOM     79  C   UNL     1       7.344  -9.968  -9.391  1.00  0.00     0.200 A 
ATOM     80  F   UNL     1       9.031 -10.579  -7.867  1.00  0.00    -0.200 F 
ATOM     81  F   UNL     1       7.174 -11.248  -9.748  1.00  0.00    -0.200 F 
ENDBRANCH  57  71
BRANCH  58  82
ATOM     82  C   UNL     1       7.408   1.602  -4.508  1.00  0.00     0.064 A 
ATOM     83  C   UNL     1       6.620   2.184  -3.494  1.00  0.00     0.173 A 
ATOM     84  C   UNL     1       8.759   1.374  -4.226  1.00  0.00     0.173 A 
ATOM     85  F   UNL     1       5.317   2.429  -3.713  1.00  0.00    -0.203 F 
ATOM     86  C   UNL     1       7.123   2.384  -2.211  1.00  0.00     0.198 A 
ATOM     87  C   UNL     1       9.268   1.607  -2.946  1.00  0.00     0.198 A 
ATOM     88  F   UNL     1       9.560   0.808  -5.139  1.00  0.00    -0.203 F 
ATOM     89  F   UNL     1       6.308   2.799  -1.231  1.00  0.00    -0.200 F 
ATOM     90  C   UNL     1       8.440   2.066  -1.931  1.00  0.00     0.200 A 
ATOM     91  F   UNL     1      10.538   1.280  -2.670  1.00  0.00    -0.200 F 
ATOM     92  F   UNL     1       8.901   2.158  -0.676  1.00  0.00    -0.200 F 
ENDBRANCH  58  82
BRANCH  70  93
ATOM     93  C   UNL     1       8.685  -1.162 -11.056  1.00  0.00     0.064 A 
ATOM     94  C   UNL     1       8.466  -0.083 -11.925  1.00  0.00     0.173 A 
ATOM     95  C   UNL     1       9.580  -2.157 -11.490  1.00  0.00     0.173 A 
ATOM     96  F   UNL     1       7.604   0.892 -11.598  1.00  0.00    -0.203 F 
ATOM     97  C   UNL     1       9.126   0.008 -13.150  1.00  0.00     0.198 A 
ATOM     98  C   UNL     1      10.203  -2.087 -12.733  1.00  0.00     0.198 A 
ATOM     99  F   UNL     1       9.882  -3.205 -10.707  1.00  0.00    -0.203 F 
ATOM    100  F   UNL     1       8.925   1.074 -13.936  1.00  0.00    -0.200 F 
ATOM    101  C   UNL     1       9.982  -1.000 -13.559  1.00  0.00     0.200 A 
ATOM    102  F   UNL     1      11.020  -3.075 -13.124  1.00  0.00    -0.200 F 
ATOM    103  F   UNL     1      10.600  -0.922 -14.746  1.00  0.00    -0.200 F 
ENDBRANCH  70  93
ENDBRANCH  44  45
ENDBRANCH  36  39
ENDBRANCH  34  35
ENDBRANCH  33  34
ENDBRANCH   1  33
TORSDOF 14
