REMARK SMILES O=C(NCCCCNC(=O)c1ccc(-c2c3nc(c(-c4c(F)c(F)c(F)c(F)c4F)c4ccc([nH]4)c(-c4c(F)c(F)c(F)c(F)c4F)c4nc(c(-c5c(F)c(F)c(F)c(F)c5F)c5ccc2[nH]5)C=C4)C=C3)cc1)C1=N[C@@H]2NC=NN2[C@@H]([C@H]2C=NN=C2c2ccc(F)cc2)C1
REMARK SMILES IDX 5 1 4 2 3 3 1 4 2 5 74 7 75 8 94 9 76 10 81 11 77 12 80 13
REMARK SMILES IDX 78 14 79 16 82 17 83 18 86 19 84 20 85 21 87 22 88 23 93 24
REMARK SMILES IDX 89 25 92 26 90 27 91 28 6 29 7 30 8 31 9 32 10 34 11 35
REMARK SMILES IDX 12 36 73 37 13 38 72 39 14 40 15 41 16 42 66 43 17 44 71 45
REMARK SMILES IDX 65 46 67 47 18 48 70 49 64 50 63 51 19 53 51 54 31 55 50 56
REMARK SMILES IDX 32 57 35 58 49 59 68 60 33 61 34 62 48 64 69 65 36 66 20 67
REMARK SMILES IDX 21 68 29 69 22 70 23 71 27 72 30 73 24 74 25 75 28 76 26 77
REMARK SMILES IDX 52 78 53 79 61 80 54 81 55 82 59 83 62 84 56 85 57 86 60 87
REMARK SMILES IDX 58 88 37 89 38 90 46 91 39 92 40 93 44 94 47 95 41 96 42 97
REMARK SMILES IDX 45 98 43 99
REMARK H PARENT 3 6 77 15 8 33 67 52 35 63
REMARK Flexibility Score: inf
ROOT
ATOM      1  C   UNL     1      11.975  -4.927   0.938  1.00  0.00     0.023 C 
ENDROOT
BRANCH   1   2
ATOM      2  C   UNL     1      10.465  -4.792   1.100  1.00  0.00     0.116 C 
BRANCH   2   3
ATOM      3  N   UNL     1      10.002  -4.148   2.310  1.00  0.00    -0.351 N 
ATOM      4  O   UNL     1       8.494  -3.233   3.713  1.00  0.00    -0.268 OA
ATOM      5  C   UNL     1       8.792  -3.531   2.560  1.00  0.00     0.265 C 
ATOM      6  H   UNL     1      10.639  -4.150   3.061  1.00  0.00     0.163 HD
BRANCH   5   7
ATOM      7  C   UNL     1       7.847  -3.103   1.421  1.00  0.00     0.106 C 
ATOM      8  N   UNL     1       7.405  -1.893   1.474  1.00  0.00    -0.237 NA
ATOM      9  C   UNL     1       7.470  -4.099   0.354  1.00  0.00     0.090 C 
ATOM     10  C   UNL     1       6.755  -1.327   0.317  1.00  0.00     0.319 C 
ATOM     11  C   UNL     1       6.408  -3.524  -0.580  1.00  0.00     0.127 C 
ATOM     12  N   UNL     1       5.425  -0.801   0.433  1.00  0.00    -0.335 N 
ATOM     13  N   UNL     1       6.715  -2.117  -0.938  1.00  0.00    -0.249 NA
ATOM     14  C   UNL     1       4.936  -0.883  -0.837  1.00  0.00     0.217 C 
ATOM     15  H   UNL     1       4.973  -0.461   1.239  1.00  0.00     0.165 HD
ATOM     16  N   UNL     1       5.654  -1.562  -1.696  1.00  0.00    -0.164 NA
BRANCH  11  17
ATOM     17  C   UNL     1       6.147  -4.322  -1.868  1.00  0.00     0.109 C 
ATOM     18  C   UNL     1       7.316  -4.378  -2.793  1.00  0.00     0.120 C 
ATOM     19  C   UNL     1       5.989  -5.797  -1.671  1.00  0.00     0.081 C 
ATOM     20  N   UNL     1       7.700  -5.584  -3.058  1.00  0.00    -0.162 NA
ATOM     21  N   UNL     1       6.863  -6.488  -2.339  1.00  0.00    -0.155 NA
BRANCH  19  22
ATOM     22  C   UNL     1       5.013  -6.373  -0.730  1.00  0.00    -0.001 A 
ATOM     23  C   UNL     1       3.884  -5.659  -0.309  1.00  0.00     0.013 A 
ATOM     24  C   UNL     1       5.324  -7.609  -0.151  1.00  0.00     0.013 A 
ATOM     25  C   UNL     1       3.111  -6.151   0.743  1.00  0.00     0.040 A 
ATOM     26  C   UNL     1       4.545  -8.098   0.896  1.00  0.00     0.040 A 
ATOM     27  C   UNL     1       3.457  -7.357   1.344  1.00  0.00     0.123 A 
ATOM     28  F   UNL     1       2.737  -7.806   2.379  1.00  0.00    -0.207 F 
ENDBRANCH  19  22
ENDBRANCH  11  17
ENDBRANCH   5   7
ENDBRANCH   2   3
ENDBRANCH   1   2
BRANCH   1  29
ATOM     29  C   UNL     1      12.750  -5.678   2.015  1.00  0.00     0.023 C 
BRANCH  29  30
ATOM     30  C   UNL     1      12.271  -7.085   2.357  1.00  0.00     0.116 C 
BRANCH  30  31
ATOM     31  N   UNL     1      12.274  -8.001   1.227  1.00  0.00    -0.352 N 
ATOM     32  C   UNL     1      12.936  -9.188   1.015  1.00  0.00     0.251 C 
ATOM     33  H   UNL     1      11.698  -7.721   0.479  1.00  0.00     0.163 HD
ATOM     34  O   UNL     1      12.840  -9.735  -0.078  1.00  0.00    -0.269 OA
BRANCH  32  35
ATOM     35  C   UNL     1      13.796  -9.805   2.057  1.00  0.00     0.039 A 
ATOM     36  C   UNL     1      14.980 -10.430   1.649  1.00  0.00     0.014 A 
ATOM     37  C   UNL     1      13.451  -9.813   3.409  1.00  0.00     0.014 A 
ATOM     38  C   UNL     1      15.846 -10.982   2.597  1.00  0.00     0.010 A 
ATOM     39  C   UNL     1      14.360 -10.278   4.363  1.00  0.00     0.010 A 
ATOM     40  C   UNL     1      15.570 -10.866   3.970  1.00  0.00    -0.014 A 
BRANCH  40  41
ATOM     41  C   UNL     1      16.562 -11.326   4.980  1.00  0.00     0.031 A 
ATOM     42  C   UNL     1      16.237 -12.428   5.952  1.00  0.00     0.074 A 
ATOM     43  C   UNL     1      17.765 -10.720   5.041  1.00  0.00     0.049 A 
ATOM     44  N   UNL     1      17.004 -12.986   6.858  1.00  0.00    -0.248 NA
ATOM     45  C   UNL     1      14.866 -12.955   5.925  1.00  0.00     0.031 C 
ATOM     46  C   UNL     1      18.184  -9.593   4.205  1.00  0.00     0.029 A 
ATOM     47  N   UNL     1      18.861 -10.970   5.829  1.00  0.00    -0.354 N 
ATOM     48  C   UNL     1      16.207 -13.920   7.509  1.00  0.00     0.074 A 
ATOM     49  C   UNL     1      14.883 -13.810   6.937  1.00  0.00     0.031 C 
ATOM     50  C   UNL     1      19.460  -9.288   4.482  1.00  0.00     0.029 A 
ATOM     51  C   UNL     1      19.940 -10.168   5.542  1.00  0.00     0.049 A 
ATOM     52  H   UNL     1      18.873 -11.658   6.533  1.00  0.00     0.167 HD
ATOM     53  C   UNL     1      16.553 -14.803   8.477  1.00  0.00     0.037 A 
ATOM     54  C   UNL     1      21.181 -10.152   6.064  1.00  0.00     0.037 A 
ATOM     55  C   UNL     1      17.877 -14.917   9.037  1.00  0.00     0.049 A 
ATOM     56  C   UNL     1      21.540 -11.146   7.133  1.00  0.00     0.074 A 
ATOM     57  C   UNL     1      18.346 -15.828   9.969  1.00  0.00     0.029 A 
ATOM     58  N   UNL     1      18.942 -14.083   8.728  1.00  0.00    -0.354 N 
ATOM     59  N   UNL     1      20.807 -12.091   7.670  1.00  0.00    -0.248 NA
ATOM     60  C   UNL     1      22.910 -11.077   7.660  1.00  0.00     0.031 C 
ATOM     61  C   UNL     1      19.673 -15.502  10.273  1.00  0.00     0.029 A 
ATOM     62  C   UNL     1      20.056 -14.435   9.477  1.00  0.00     0.049 A 
ATOM     63  H   UNL     1      18.912 -13.348   8.073  1.00  0.00     0.167 HD
ATOM     64  C   UNL     1      21.632 -12.748   8.573  1.00  0.00     0.074 A 
ATOM     65  C   UNL     1      22.929 -12.109   8.491  1.00  0.00     0.031 C 
ATOM     66  C   UNL     1      21.342 -13.786   9.397  1.00  0.00     0.037 A 
BRANCH  53  67
ATOM     67  C   UNL     1      15.477 -15.714   9.005  1.00  0.00     0.064 A 
ATOM     68  C   UNL     1      14.896 -16.716   8.211  1.00  0.00     0.173 A 
ATOM     69  C   UNL     1      15.040 -15.602  10.335  1.00  0.00     0.173 A 
ATOM     70  F   UNL     1      15.270 -16.865   6.931  1.00  0.00    -0.203 F 
ATOM     71  C   UNL     1      13.893 -17.541   8.715  1.00  0.00     0.198 A 
ATOM     72  C   UNL     1      14.063 -16.453  10.845  1.00  0.00     0.198 A 
ATOM     73  F   UNL     1      15.565 -14.669  11.143  1.00  0.00    -0.203 F 
ATOM     74  F   UNL     1      13.311 -18.448   7.918  1.00  0.00    -0.200 F 
ATOM     75  C   UNL     1      13.483 -17.414  10.033  1.00  0.00     0.200 A 
ATOM     76  F   UNL     1      13.680 -16.339  12.125  1.00  0.00    -0.200 F 
ATOM     77  F   UNL     1      12.521 -18.212  10.517  1.00  0.00    -0.200 F 
ENDBRANCH  53  67
BRANCH  54  78
ATOM     78  C   UNL     1      22.194  -9.193   5.545  1.00  0.00     0.064 A 
ATOM     79  C   UNL     1      23.308  -9.645   4.824  1.00  0.00     0.173 A 
ATOM     80  C   UNL     1      22.075  -7.813   5.762  1.00  0.00     0.173 A 
ATOM     81  F   UNL     1      23.478 -10.958   4.607  1.00  0.00    -0.203 F 
ATOM     82  C   UNL     1      24.276  -8.757   4.359  1.00  0.00     0.198 A 
ATOM     83  C   UNL     1      23.026  -6.922   5.269  1.00  0.00     0.198 A 
ATOM     84  F   UNL     1      21.026  -7.327   6.442  1.00  0.00    -0.203 F 
ATOM     85  F   UNL     1      25.356  -9.222   3.718  1.00  0.00    -0.200 F 
ATOM     86  C   UNL     1      24.130  -7.395   4.577  1.00  0.00     0.200 A 
ATOM     87  F   UNL     1      22.873  -5.606   5.466  1.00  0.00    -0.200 F 
ATOM     88  F   UNL     1      25.058  -6.540   4.125  1.00  0.00    -0.200 F 
ENDBRANCH  54  78
BRANCH  66  89
ATOM     89  C   UNL     1      22.464 -14.314  10.249  1.00  0.00     0.064 A 
ATOM     90  C   UNL     1      23.029 -13.555  11.286  1.00  0.00     0.173 A 
ATOM     91  C   UNL     1      22.991 -15.594  10.017  1.00  0.00     0.173 A 
ATOM     92  F   UNL     1      22.573 -12.320  11.545  1.00  0.00    -0.203 F 
ATOM     93  C   UNL     1      24.114 -14.033  12.018  1.00  0.00     0.198 A 
ATOM     94  C   UNL     1      24.048 -16.086  10.778  1.00  0.00     0.198 A 
ATOM     95  F   UNL     1      22.483 -16.370   9.047  1.00  0.00    -0.203 F 
ATOM     96  F   UNL     1      24.688 -13.256  12.946  1.00  0.00    -0.200 F 
ATOM     97  C   UNL     1      24.619 -15.299  11.766  1.00  0.00     0.200 A 
ATOM     98  F   UNL     1      24.523 -17.317  10.545  1.00  0.00    -0.200 F 
ATOM     99  F   UNL     1      25.667 -15.755  12.466  1.00  0.00    -0.200 F 
ENDBRANCH  66  89
ENDBRANCH  40  41
ENDBRANCH  32  35
ENDBRANCH  30  31
ENDBRANCH  29  30
ENDBRANCH   1  29
TORSDOF 13
