REMARK SMILES Cc1ccccc1C(=O)Nc1cc(NC(=O)c2ccccc2C)cc(C(=O)NCCCCNC(=O)c2ccc(-c3c4nc(c(-c5c(F)c(F)c(F)c(F)c5F)c5ccc([nH]5)c(-c5c(F)c(F)c(F)c(F)c5F)c5nc(c(-c6c(F)c(F)c(F)c(F)c6F)c6ccc3[nH]6)C=C5)C=C4)cc2)c1
REMARK SMILES IDX 30 1 29 2 28 3 26 4 27 5 25 7 11 8 12 9 99 10 13 11 24 12
REMARK SMILES IDX 10 13 8 14 9 15 7 17 1 18 2 19 3 20 4 21 6 22 5 23 14 24
REMARK SMILES IDX 15 25 16 27 17 28 18 29 22 30 19 31 21 32 23 33 20 34 31 35
REMARK SMILES IDX 32 36 33 37 34 38 35 40 36 41 37 42 98 43 38 44 97 45 39 46
REMARK SMILES IDX 40 47 41 48 91 49 42 50 96 51 90 52 92 53 43 54 95 55 89 56
REMARK SMILES IDX 88 57 44 59 76 60 56 61 75 62 57 63 60 64 74 65 93 66 58 67
REMARK SMILES IDX 59 68 73 70 94 71 61 72 45 73 46 74 54 75 47 76 48 77 52 78
REMARK SMILES IDX 55 79 49 80 50 81 53 82 51 83 77 84 78 85 86 86 79 87 80 88
REMARK SMILES IDX 84 89 87 90 81 91 82 92 85 93 83 94 62 95 63 96 71 97 64 98
REMARK SMILES IDX 65 99 69 100 72 101 66 102 67 103 70 104 68 105
REMARK H PARENT 28 6 10 16 14 26 33 39 92 58 60 69
REMARK Flexibility Score: inf
ROOT
ATOM      1  C   UNL     1       8.095  -2.619  -0.413  1.00  0.00     0.023 C 
ENDROOT
BRANCH   1   2
ATOM      2  C   UNL     1       6.995  -2.727   0.642  1.00  0.00     0.116 C 
BRANCH   2   3
ATOM      3  N   UNL     1       6.867  -1.539   1.472  1.00  0.00    -0.352 N 
ATOM      4  C   UNL     1       6.041  -0.443   1.517  1.00  0.00     0.251 C 
ATOM      5  O   UNL     1       6.293   0.391   2.390  1.00  0.00    -0.269 OA
ATOM      6  H   UNL     1       7.546  -1.514   2.184  1.00  0.00     0.163 HD
BRANCH   4   7
ATOM      7  C   UNL     1       4.888  -0.182   0.608  1.00  0.00     0.043 A 
ATOM      8  C   UNL     1       3.081   1.314  -0.019  1.00  0.00     0.044 A 
ATOM      9  C   UNL     1       2.648   0.416  -0.995  1.00  0.00     0.052 A 
ATOM     10  C   UNL     1       4.275   1.079   0.673  1.00  0.00     0.040 A 
ATOM     11  C   UNL     1       3.273  -0.817  -1.104  1.00  0.00     0.044 A 
ATOM     12  C   UNL     1       4.298  -1.137  -0.214  1.00  0.00     0.040 A 
BRANCH   8  13
ATOM     13  N   UNL     1       2.284   2.382   0.420  1.00  0.00    -0.322 N 
ATOM     14  C   UNL     1       0.911   2.431   0.589  1.00  0.00     0.255 C 
ATOM     15  O   UNL     1       0.386   3.498   0.910  1.00  0.00    -0.269 OA
ATOM     16  H   UNL     1       2.769   3.211   0.638  1.00  0.00     0.170 HD
BRANCH  14  17
ATOM     17  C   UNL     1       0.038   1.227   0.440  1.00  0.00     0.043 A 
ATOM     18  C   UNL     1       1.327  -0.317   2.064  1.00  0.00     0.045 C 
ATOM     19  C   UNL     1       0.259  -0.028   1.047  1.00  0.00    -0.038 A 
ATOM     20  C   UNL     1      -0.599  -1.097   0.722  1.00  0.00     0.004 A 
ATOM     21  C   UNL     1      -1.712  -0.905  -0.094  1.00  0.00     0.000 A 
ATOM     22  C   UNL     1      -1.115   1.417  -0.341  1.00  0.00     0.014 A 
ATOM     23  C   UNL     1      -1.990   0.360  -0.598  1.00  0.00     0.001 A 
ENDBRANCH  14  17
ENDBRANCH   8  13
BRANCH  11  24
ATOM     24  N   UNL     1       2.921  -1.823  -2.013  1.00  0.00    -0.322 N 
ATOM     25  C   UNL     1       2.324  -1.774  -3.246  1.00  0.00     0.255 C 
ATOM     26  H   UNL     1       3.142  -2.734  -1.710  1.00  0.00     0.170 HD
ATOM     27  O   UNL     1       1.992  -2.824  -3.795  1.00  0.00    -0.269 OA
BRANCH  25  28
ATOM     28  C   UNL     1       2.124  -0.498  -3.963  1.00  0.00     0.043 A 
ATOM     29  C   UNL     1       0.811  -0.248  -4.390  1.00  0.00     0.014 A 
ATOM     30  C   UNL     1       3.161   0.407  -4.265  1.00  0.00    -0.038 A 
ATOM     31  C   UNL     1       0.506   0.934  -5.058  1.00  0.00     0.001 A 
ATOM     32  C   UNL     1       2.824   1.607  -4.912  1.00  0.00     0.004 A 
ATOM     33  C   UNL     1       4.608   0.177  -3.926  1.00  0.00     0.045 C 
ATOM     34  C   UNL     1       1.508   1.867  -5.303  1.00  0.00     0.000 A 
ENDBRANCH  25  28
ENDBRANCH  11  24
ENDBRANCH   4   7
ENDBRANCH   2   3
ENDBRANCH   1   2
BRANCH   1  35
ATOM     35  C   UNL     1       9.514  -2.778   0.132  1.00  0.00     0.023 C 
BRANCH  35  36
ATOM     36  C   UNL     1       9.784  -4.121   0.800  1.00  0.00     0.116 C 
BRANCH  36  37
ATOM     37  N   UNL     1       9.928  -5.252  -0.099  1.00  0.00    -0.352 N 
ATOM     38  C   UNL     1      10.079  -6.608   0.172  1.00  0.00     0.251 C 
ATOM     39  H   UNL     1       9.918  -5.022  -1.057  1.00  0.00     0.163 HD
ATOM     40  O   UNL     1      10.346  -7.366  -0.737  1.00  0.00    -0.269 OA
BRANCH  38  41
ATOM     41  C   UNL     1       9.756  -7.161   1.523  1.00  0.00     0.039 A 
ATOM     42  C   UNL     1       9.205  -8.452   1.586  1.00  0.00     0.014 A 
ATOM     43  C   UNL     1       9.764  -6.375   2.666  1.00  0.00     0.014 A 
ATOM     44  C   UNL     1       8.422  -8.818   2.680  1.00  0.00     0.010 A 
ATOM     45  C   UNL     1       8.879  -6.666   3.677  1.00  0.00     0.010 A 
ATOM     46  C   UNL     1       8.152  -7.858   3.644  1.00  0.00    -0.014 A 
BRANCH  46  47
ATOM     47  C   UNL     1       7.071  -7.932   4.615  1.00  0.00     0.031 A 
ATOM     48  C   UNL     1       7.384  -8.070   6.049  1.00  0.00     0.074 A 
ATOM     49  C   UNL     1       5.827  -7.605   4.203  1.00  0.00     0.049 A 
ATOM     50  N   UNL     1       6.509  -8.278   6.970  1.00  0.00    -0.248 NA
ATOM     51  C   UNL     1       8.748  -8.027   6.559  1.00  0.00     0.031 C 
ATOM     52  C   UNL     1       4.696  -7.171   5.021  1.00  0.00     0.029 A 
ATOM     53  N   UNL     1       5.274  -7.795   2.925  1.00  0.00    -0.354 N 
ATOM     54  C   UNL     1       7.124  -8.098   8.188  1.00  0.00     0.074 A 
ATOM     55  C   UNL     1       8.530  -8.046   7.877  1.00  0.00     0.031 C 
ATOM     56  C   UNL     1       3.558  -7.408   4.349  1.00  0.00     0.029 A 
ATOM     57  C   UNL     1       3.927  -8.157   3.162  1.00  0.00     0.049 A 
ATOM     58  H   UNL     1       5.726  -7.697   2.055  1.00  0.00     0.167 HD
ATOM     59  C   UNL     1       6.333  -7.882   9.280  1.00  0.00     0.037 A 
ATOM     60  C   UNL     1       3.478  -9.414   2.877  1.00  0.00     0.037 A 
ATOM     61  C   UNL     1       4.928  -8.146   8.947  1.00  0.00     0.049 A 
ATOM     62  C   UNL     1       2.915 -10.148   4.072  1.00  0.00     0.074 A 
ATOM     63  C   UNL     1       3.839  -7.330   8.681  1.00  0.00     0.029 A 
ATOM     64  N   UNL     1       4.562  -9.427   8.539  1.00  0.00    -0.354 N 
ATOM     65  N   UNL     1       3.224  -9.881   5.311  1.00  0.00    -0.248 NA
ATOM     66  C   UNL     1       1.954 -11.237   3.957  1.00  0.00     0.031 C 
ATOM     67  C   UNL     1       2.830  -8.125   8.074  1.00  0.00     0.029 A 
ATOM     68  C   UNL     1       3.295  -9.426   7.989  1.00  0.00     0.049 A 
ATOM     69  H   UNL     1       5.130 -10.226   8.631  1.00  0.00     0.167 HD
ATOM     70  C   UNL     1       2.532 -10.721   6.151  1.00  0.00     0.074 A 
ATOM     71  C   UNL     1       1.737 -11.535   5.249  1.00  0.00     0.031 C 
ATOM     72  C   UNL     1       2.685 -10.663   7.511  1.00  0.00     0.037 A 
BRANCH  59  73
ATOM     73  C   UNL     1       6.769  -7.191  10.567  1.00  0.00     0.064 A 
ATOM     74  C   UNL     1       5.805  -6.630  11.438  1.00  0.00     0.173 A 
ATOM     75  C   UNL     1       8.099  -6.960  10.969  1.00  0.00     0.173 A 
ATOM     76  F   UNL     1       4.493  -6.827  11.254  1.00  0.00    -0.203 F 
ATOM     77  C   UNL     1       6.146  -5.833  12.540  1.00  0.00     0.198 A 
ATOM     78  C   UNL     1       8.442  -6.144  12.054  1.00  0.00     0.198 A 
ATOM     79  F   UNL     1       9.136  -7.543  10.370  1.00  0.00    -0.203 F 
ATOM     80  F   UNL     1       5.179  -5.312  13.308  1.00  0.00    -0.200 F 
ATOM     81  C   UNL     1       7.465  -5.569  12.832  1.00  0.00     0.200 A 
ATOM     82  F   UNL     1       9.736  -5.925  12.332  1.00  0.00    -0.200 F 
ATOM     83  F   UNL     1       7.796  -4.786  13.868  1.00  0.00    -0.200 F 
ENDBRANCH  59  73
BRANCH  60  84
ATOM     84  C   UNL     1       4.206 -10.045   1.742  1.00  0.00     0.064 A 
ATOM     85  C   UNL     1       4.132  -9.422   0.479  1.00  0.00     0.173 A 
ATOM     86  C   UNL     1       5.255 -10.947   1.956  1.00  0.00     0.173 A 
ATOM     87  F   UNL     1       3.147  -8.545   0.224  1.00  0.00    -0.203 F 
ATOM     88  C   UNL     1       5.136  -9.587  -0.472  1.00  0.00     0.198 A 
ATOM     89  C   UNL     1       6.248 -11.127   0.990  1.00  0.00     0.198 A 
ATOM     90  F   UNL     1       5.394 -11.556   3.142  1.00  0.00    -0.203 F 
ATOM     91  F   UNL     1       5.105  -8.876  -1.608  1.00  0.00    -0.200 F 
ATOM     92  C   UNL     1       6.210 -10.417  -0.203  1.00  0.00     0.200 A 
ATOM     93  F   UNL     1       7.307 -11.905   1.260  1.00  0.00    -0.200 F 
ATOM     94  F   UNL     1       7.232 -10.497  -1.067  1.00  0.00    -0.200 F 
ENDBRANCH  60  84
BRANCH  72  95
ATOM     95  C   UNL     1       2.218 -11.680   8.546  1.00  0.00     0.064 A 
ATOM     96  C   UNL     1       1.804 -12.992   8.261  1.00  0.00     0.173 A 
ATOM     97  C   UNL     1       2.301 -11.380   9.934  1.00  0.00     0.173 A 
ATOM     98  F   UNL     1       1.800 -13.476   7.015  1.00  0.00    -0.203 F 
ATOM     99  C   UNL     1       1.438 -13.898   9.264  1.00  0.00     0.198 A 
ATOM    100  C   UNL     1       2.002 -12.307  10.933  1.00  0.00     0.198 A 
ATOM    101  F   UNL     1       2.711 -10.183  10.379  1.00  0.00    -0.203 F 
ATOM    102  F   UNL     1       1.006 -15.120   8.924  1.00  0.00    -0.200 F 
ATOM    103  C   UNL     1       1.551 -13.562  10.598  1.00  0.00     0.200 A 
ATOM    104  F   UNL     1       2.179 -11.978  12.220  1.00  0.00    -0.200 F 
ATOM    105  F   UNL     1       1.251 -14.452  11.553  1.00  0.00    -0.200 F 
ENDBRANCH  72  95
ENDBRANCH  46  47
ENDBRANCH  38  41
ENDBRANCH  36  37
ENDBRANCH  35  36
ENDBRANCH   1  35
TORSDOF 15
