REMARK SMILES Cc1ccc(C)c(/C=C2\SC(=S)N(CC(=O)NCCCCNC(=O)c3ccc(-c4c5nc(c(-c6c(F)c(F)c(F)c(F)c6F)c6ccc([nH]6)c(-c6c(F)c(F)c(F)c(F)c6F)c6nc(c(-c7c(F)c(F)c(F)c(F)c7F)c7ccc4[nH]7)C=C6)C=C5)cc3)C2=O)c1
REMARK SMILES IDX 19 1 18 2 17 3 15 4 16 5 14 7 13 8 8 9 9 10 10 11 88 12
REMARK SMILES IDX 11 13 89 14 12 15 7 16 1 17 2 18 3 19 90 20 4 21 5 22 6 23
REMARK SMILES IDX 20 24 21 25 22 26 23 27 24 29 25 30 26 31 87 32 27 33 86 34
REMARK SMILES IDX 28 35 29 36 30 37 80 38 31 39 85 40 79 41 81 42 32 43 84 44
REMARK SMILES IDX 78 45 77 46 33 48 65 49 45 50 64 51 46 52 49 53 63 54 82 55
REMARK SMILES IDX 47 56 48 57 62 59 83 60 50 61 34 62 35 63 43 64 36 65 37 66
REMARK SMILES IDX 41 67 44 68 38 69 39 70 42 71 40 72 66 73 67 74 75 75 68 76
REMARK SMILES IDX 69 77 73 78 76 79 70 80 71 81 74 82 72 83 51 84 52 85 60 86
REMARK SMILES IDX 53 87 54 88 58 89 61 90 55 91 56 92 59 93 57 94
REMARK H PARENT 17 6 22 28 81 47 49 58
REMARK Flexibility Score: inf
ROOT
ATOM      1  C   UNL     1      -3.637   3.389  -4.079  1.00  0.00     0.023 C 
ENDROOT
BRANCH   1   2
ATOM      2  C   UNL     1      -3.611   4.890  -4.367  1.00  0.00     0.116 C 
BRANCH   2   3
ATOM      3  N   UNL     1      -4.265   5.707  -3.372  1.00  0.00    -0.355 N 
ATOM      4  C   UNL     1      -3.737   6.623  -2.510  1.00  0.00     0.240 C 
ATOM      5  O   UNL     1      -4.518   7.457  -2.039  1.00  0.00    -0.273 OA
ATOM      6  H   UNL     1      -5.240   5.583  -3.306  1.00  0.00     0.163 HD
BRANCH   4   7
ATOM      7  C   UNL     1      -2.227   6.752  -2.269  1.00  0.00     0.227 C 
BRANCH   7   8
ATOM      8  N   UNL     1      -1.536   5.479  -2.088  1.00  0.00    -0.283 N 
ATOM      9  C   UNL     1      -1.310   2.521  -0.026  1.00  0.00     0.029 C 
ATOM     10  C   UNL     1      -1.111   3.453  -0.968  1.00  0.00     0.081 C 
ATOM     11  S   UNL     1      -0.049   3.397  -2.319  1.00  0.00    -0.054 SA
ATOM     12  C   UNL     1      -1.876   4.724  -0.978  1.00  0.00     0.266 C 
ATOM     13  C   UNL     1      -0.488   5.012  -2.851  1.00  0.00     0.148 C 
ATOM     14  O   UNL     1      -2.693   5.033  -0.124  1.00  0.00    -0.268 OA
ATOM     15  S   UNL     1       0.313   5.776  -4.099  1.00  0.00    -0.052 S 
BRANCH   9  16
ATOM     16  C   UNL     1      -0.653   1.207   0.030  1.00  0.00    -0.021 A 
ATOM     17  C   UNL     1       2.936  -0.097   0.073  1.00  0.00     0.044 C 
ATOM     18  C   UNL     1       1.437  -0.063   0.078  1.00  0.00    -0.051 A 
ATOM     19  C   UNL     1       0.703  -1.249   0.049  1.00  0.00     0.004 A 
ATOM     20  C   UNL     1       0.751   1.155   0.093  1.00  0.00     0.011 A 
ATOM     21  C   UNL     1      -0.692  -1.214   0.032  1.00  0.00     0.004 A 
ATOM     22  C   UNL     1      -1.389   0.007   0.020  1.00  0.00    -0.044 A 
ATOM     23  C   UNL     1      -2.892  -0.053  -0.019  1.00  0.00     0.045 C 
ENDBRANCH   9  16
ENDBRANCH   7   8
ENDBRANCH   4   7
ENDBRANCH   2   3
ENDBRANCH   1   2
BRANCH   1  24
ATOM     24  C   UNL     1      -5.000   2.680  -4.101  1.00  0.00     0.023 C 
BRANCH  24  25
ATOM     25  C   UNL     1      -5.755   2.680  -5.429  1.00  0.00     0.116 C 
BRANCH  25  26
ATOM     26  N   UNL     1      -5.018   2.067  -6.547  1.00  0.00    -0.352 N 
ATOM     27  C   UNL     1      -5.092   2.268  -7.926  1.00  0.00     0.251 C 
ATOM     28  H   UNL     1      -4.354   1.395  -6.272  1.00  0.00     0.163 HD
ATOM     29  O   UNL     1      -4.660   1.429  -8.697  1.00  0.00    -0.269 OA
BRANCH  27  30
ATOM     30  C   UNL     1      -5.650   3.529  -8.460  1.00  0.00     0.039 A 
ATOM     31  C   UNL     1      -5.910   3.807  -9.800  1.00  0.00     0.014 A 
ATOM     32  C   UNL     1      -5.709   4.577  -7.576  1.00  0.00     0.014 A 
ATOM     33  C   UNL     1      -6.139   5.144 -10.164  1.00  0.00     0.010 A 
ATOM     34  C   UNL     1      -6.404   5.699  -7.856  1.00  0.00     0.010 A 
ATOM     35  C   UNL     1      -6.297   6.103  -9.156  1.00  0.00    -0.014 A 
BRANCH  35  36
ATOM     36  C   UNL     1      -6.546   7.512  -9.350  1.00  0.00     0.031 A 
ATOM     37  C   UNL     1      -7.868   7.785  -9.935  1.00  0.00     0.074 A 
ATOM     38  C   UNL     1      -5.800   8.481  -8.776  1.00  0.00     0.049 A 
ATOM     39  N   UNL     1      -8.112   8.107 -11.158  1.00  0.00    -0.248 NA
ATOM     40  C   UNL     1      -9.066   7.472  -9.140  1.00  0.00     0.031 C 
ATOM     41  C   UNL     1      -4.686   8.372  -7.825  1.00  0.00     0.029 A 
ATOM     42  N   UNL     1      -5.955   9.826  -8.892  1.00  0.00    -0.354 N 
ATOM     43  C   UNL     1      -9.489   8.247 -11.230  1.00  0.00     0.074 A 
ATOM     44  C   UNL     1     -10.023   7.604 -10.059  1.00  0.00     0.031 C 
ATOM     45  C   UNL     1      -4.399   9.596  -7.317  1.00  0.00     0.029 A 
ATOM     46  C   UNL     1      -5.207  10.589  -8.005  1.00  0.00     0.049 A 
ATOM     47  H   UNL     1      -6.555  10.232  -9.559  1.00  0.00     0.167 HD
ATOM     48  C   UNL     1     -10.048   9.134 -12.096  1.00  0.00     0.037 A 
ATOM     49  C   UNL     1      -5.298  11.934  -7.843  1.00  0.00     0.037 A 
ATOM     50  C   UNL     1      -9.075   9.590 -13.063  1.00  0.00     0.049 A 
ATOM     51  C   UNL     1      -5.955  12.477  -9.064  1.00  0.00     0.074 A 
ATOM     52  C   UNL     1      -8.273   8.957 -13.995  1.00  0.00     0.029 A 
ATOM     53  N   UNL     1      -8.504  10.825 -12.863  1.00  0.00    -0.354 N 
ATOM     54  N   UNL     1      -5.403  12.470 -10.247  1.00  0.00    -0.248 NA
ATOM     55  C   UNL     1      -7.409  12.576  -9.057  1.00  0.00     0.031 C 
ATOM     56  C   UNL     1      -7.018   9.634 -13.924  1.00  0.00     0.029 A 
ATOM     57  C   UNL     1      -7.147  10.685 -13.015  1.00  0.00     0.049 A 
ATOM     58  H   UNL     1      -8.982  11.659 -12.651  1.00  0.00     0.167 HD
ATOM     59  C   UNL     1      -6.430  12.126 -11.116  1.00  0.00     0.074 A 
ATOM     60  C   UNL     1      -7.657  12.282 -10.337  1.00  0.00     0.031 C 
ATOM     61  C   UNL     1      -6.173  11.462 -12.281  1.00  0.00     0.037 A 
BRANCH  48  62
ATOM     62  C   UNL     1     -11.334   9.874 -11.838  1.00  0.00     0.064 A 
ATOM     63  C   UNL     1     -11.894  10.629 -12.885  1.00  0.00     0.173 A 
ATOM     64  C   UNL     1     -11.885  10.104 -10.558  1.00  0.00     0.173 A 
ATOM     65  F   UNL     1     -11.437  10.501 -14.140  1.00  0.00    -0.203 F 
ATOM     66  C   UNL     1     -12.871  11.599 -12.652  1.00  0.00     0.198 A 
ATOM     67  C   UNL     1     -12.902  11.029 -10.339  1.00  0.00     0.198 A 
ATOM     68  F   UNL     1     -11.395   9.538  -9.450  1.00  0.00    -0.203 F 
ATOM     69  F   UNL     1     -13.277  12.386 -13.657  1.00  0.00    -0.200 F 
ATOM     70  C   UNL     1     -13.370  11.803 -11.379  1.00  0.00     0.200 A 
ATOM     71  F   UNL     1     -13.359  11.221  -9.094  1.00  0.00    -0.200 F 
ATOM     72  F   UNL     1     -14.260  12.774 -11.142  1.00  0.00    -0.200 F 
ENDBRANCH  48  62
BRANCH  49  73
ATOM     73  C   UNL     1      -5.155  12.736  -6.602  1.00  0.00     0.064 A 
ATOM     74  C   UNL     1      -4.997  14.132  -6.650  1.00  0.00     0.173 A 
ATOM     75  C   UNL     1      -5.464  12.187  -5.342  1.00  0.00     0.173 A 
ATOM     76  F   UNL     1      -4.747  14.742  -7.818  1.00  0.00    -0.203 F 
ATOM     77  C   UNL     1      -5.167  14.932  -5.514  1.00  0.00     0.198 A 
ATOM     78  C   UNL     1      -5.630  12.986  -4.208  1.00  0.00     0.198 A 
ATOM     79  F   UNL     1      -5.710  10.877  -5.208  1.00  0.00    -0.203 F 
ATOM     80  F   UNL     1      -5.072  16.265  -5.613  1.00  0.00    -0.200 F 
ATOM     81  C   UNL     1      -5.495  14.359  -4.296  1.00  0.00     0.200 A 
ATOM     82  F   UNL     1      -5.988  12.423  -3.045  1.00  0.00    -0.200 F 
ATOM     83  F   UNL     1      -5.723  15.129  -3.223  1.00  0.00    -0.200 F 
ENDBRANCH  49  73
BRANCH  61  84
ATOM     84  C   UNL     1      -4.737  11.340 -12.717  1.00  0.00     0.064 A 
ATOM     85  C   UNL     1      -3.746  10.653 -11.992  1.00  0.00     0.173 A 
ATOM     86  C   UNL     1      -4.385  11.817 -13.986  1.00  0.00     0.173 A 
ATOM     87  F   UNL     1      -4.024  10.077 -10.818  1.00  0.00    -0.203 F 
ATOM     88  C   UNL     1      -2.455  10.494 -12.496  1.00  0.00     0.198 A 
ATOM     89  C   UNL     1      -3.107  11.626 -14.504  1.00  0.00     0.198 A 
ATOM     90  F   UNL     1      -5.302  12.432 -14.749  1.00  0.00    -0.203 F 
ATOM     91  F   UNL     1      -1.527   9.845 -11.777  1.00  0.00    -0.200 F 
ATOM     92  C   UNL     1      -2.139  10.975 -13.755  1.00  0.00     0.200 A 
ATOM     93  F   UNL     1      -2.821  12.049 -15.742  1.00  0.00    -0.200 F 
ATOM     94  F   UNL     1      -0.911  10.789 -14.258  1.00  0.00    -0.200 F 
ENDBRANCH  61  84
ENDBRANCH  35  36
ENDBRANCH  27  30
ENDBRANCH  25  26
ENDBRANCH  24  25
ENDBRANCH   1  24
TORSDOF 13
