REMARK SMILES O=C(NCCCCNC(=O)c1ccc(-c2ccc(OCc3ccccc3)cc2)nc1)c1ccc(-c2c3nc(c(-c4c(F)c(F)c(F)c(F)c4F)c4ccc([nH]4)c(-c4c(F)c(F)c(F)c(F)c4F)c4nc(c(-c5c(F)c(F)c(F)c(F)c5F)c5ccc2[nH]5)C=C4)C=C3)cc1
REMARK SMILES IDX 6 1 5 2 4 3 3 4 1 5 2 6 31 8 32 9 93 10 33 11 92 12 34 13
REMARK SMILES IDX 35 14 36 15 86 16 37 17 91 18 85 19 87 20 38 21 90 22 84 23
REMARK SMILES IDX 83 24 39 26 71 27 51 28 70 29 52 30 55 31 69 32 88 33 53 34
REMARK SMILES IDX 54 35 68 37 89 38 56 39 40 40 41 41 49 42 42 43 43 44 47 45
REMARK SMILES IDX 50 46 44 47 45 48 48 49 46 50 72 51 73 52 81 53 74 54 75 55
REMARK SMILES IDX 79 56 82 57 76 58 77 59 80 60 78 61 57 62 58 63 66 64 59 65
REMARK SMILES IDX 60 66 64 67 67 68 61 69 62 70 65 71 63 72 7 73 8 74 9 75
REMARK SMILES IDX 10 77 11 78 12 79 30 80 13 81 29 82 14 83 15 84 16 85 28 86
REMARK SMILES IDX 17 87 27 88 18 89 19 90 20 91 21 92 22 93 26 94 23 95 25 96
REMARK SMILES IDX 24 97
REMARK H PARENT 3 7 87 25 55 36 8 76
REMARK Flexibility Score: inf
ROOT
ATOM      1  C   UNL     1       4.476   3.308  -2.148  1.00  0.00     0.023 C 
ENDROOT
BRANCH   1   2
ATOM      2  C   UNL     1       4.958   1.866  -2.005  1.00  0.00     0.023 C 
BRANCH   2   3
ATOM      3  C   UNL     1       4.633   1.203  -0.673  1.00  0.00     0.116 C 
BRANCH   3   4
ATOM      4  N   UNL     1       3.205   1.103  -0.418  1.00  0.00    -0.352 N 
ATOM      5  O   UNL     1       1.238   0.067  -0.023  1.00  0.00    -0.269 OA
ATOM      6  C   UNL     1       2.461  -0.002  -0.079  1.00  0.00     0.251 C 
ATOM      7  H   UNL     1       2.700   1.945  -0.500  1.00  0.00     0.163 HD
BRANCH   6   8
ATOM      8  C   UNL     1       3.143  -1.285   0.191  1.00  0.00     0.039 A 
ATOM      9  C   UNL     1       4.277  -1.330   1.004  1.00  0.00     0.014 A 
ATOM     10  C   UNL     1       2.646  -2.456  -0.390  1.00  0.00     0.014 A 
ATOM     11  C   UNL     1       4.998  -2.511   1.116  1.00  0.00     0.010 A 
ATOM     12  C   UNL     1       3.323  -3.664  -0.202  1.00  0.00     0.010 A 
ATOM     13  C   UNL     1       4.522  -3.695   0.528  1.00  0.00    -0.014 A 
BRANCH  13  14
ATOM     14  C   UNL     1       5.261  -4.962   0.756  1.00  0.00     0.031 A 
ATOM     15  C   UNL     1       5.925  -5.695  -0.374  1.00  0.00     0.074 A 
ATOM     16  C   UNL     1       5.354  -5.428   2.016  1.00  0.00     0.049 A 
ATOM     17  N   UNL     1       6.630  -6.800  -0.337  1.00  0.00    -0.248 NA
ATOM     18  C   UNL     1       5.777  -5.125  -1.721  1.00  0.00     0.031 C 
ATOM     19  C   UNL     1       4.736  -4.805   3.189  1.00  0.00     0.029 A 
ATOM     20  N   UNL     1       6.014  -6.515   2.527  1.00  0.00    -0.354 N 
ATOM     21  C   UNL     1       6.994  -7.065  -1.651  1.00  0.00     0.074 A 
ATOM     22  C   UNL     1       6.413  -6.019  -2.467  1.00  0.00     0.031 C 
ATOM     23  C   UNL     1       5.084  -5.491   4.286  1.00  0.00     0.029 A 
ATOM     24  C   UNL     1       5.896  -6.635   3.890  1.00  0.00     0.049 A 
ATOM     25  H   UNL     1       6.523  -7.149   1.971  1.00  0.00     0.167 HD
ATOM     26  C   UNL     1       7.751  -8.084  -2.125  1.00  0.00     0.037 A 
ATOM     27  C   UNL     1       6.374  -7.572   4.728  1.00  0.00     0.037 A 
ATOM     28  C   UNL     1       8.339  -9.111  -1.303  1.00  0.00     0.049 A 
ATOM     29  C   UNL     1       7.193  -8.698   4.169  1.00  0.00     0.074 A 
ATOM     30  C   UNL     1       9.152 -10.164  -1.686  1.00  0.00     0.029 A 
ATOM     31  N   UNL     1       8.172  -9.217   0.071  1.00  0.00    -0.354 N 
ATOM     32  N   UNL     1       7.559  -8.917   2.929  1.00  0.00    -0.248 NA
ATOM     33  C   UNL     1       7.663  -9.709   5.124  1.00  0.00     0.031 C 
ATOM     34  C   UNL     1       9.441 -10.931  -0.552  1.00  0.00     0.029 A 
ATOM     35  C   UNL     1       8.848 -10.331   0.546  1.00  0.00     0.049 A 
ATOM     36  H   UNL     1       7.652  -8.593   0.626  1.00  0.00     0.167 HD
ATOM     37  C   UNL     1       8.310 -10.082   2.955  1.00  0.00     0.074 A 
ATOM     38  C   UNL     1       8.370 -10.509   4.339  1.00  0.00     0.031 C 
ATOM     39  C   UNL     1       8.893 -10.743   1.925  1.00  0.00     0.037 A 
BRANCH  26  40
ATOM     40  C   UNL     1       7.981  -8.154  -3.608  1.00  0.00     0.064 A 
ATOM     41  C   UNL     1       8.833  -7.255  -4.265  1.00  0.00     0.173 A 
ATOM     42  C   UNL     1       7.390  -9.174  -4.370  1.00  0.00     0.173 A 
ATOM     43  F   UNL     1       9.415  -6.256  -3.585  1.00  0.00    -0.203 F 
ATOM     44  C   UNL     1       9.071  -7.363  -5.634  1.00  0.00     0.198 A 
ATOM     45  C   UNL     1       7.651  -9.295  -5.733  1.00  0.00     0.198 A 
ATOM     46  F   UNL     1       6.573 -10.065  -3.790  1.00  0.00    -0.203 F 
ATOM     47  F   UNL     1       9.862  -6.472  -6.247  1.00  0.00    -0.200 F 
ATOM     48  C   UNL     1       8.487  -8.387  -6.364  1.00  0.00     0.200 A 
ATOM     49  F   UNL     1       7.095 -10.292  -6.435  1.00  0.00    -0.200 F 
ATOM     50  F   UNL     1       8.727  -8.496  -7.679  1.00  0.00    -0.200 F 
ENDBRANCH  26  40
BRANCH  27  51
ATOM     51  C   UNL     1       6.079  -7.479   6.180  1.00  0.00     0.064 A 
ATOM     52  C   UNL     1       7.091  -7.193   7.106  1.00  0.00     0.173 A 
ATOM     53  C   UNL     1       4.776  -7.657   6.669  1.00  0.00     0.173 A 
ATOM     54  F   UNL     1       8.355  -7.033   6.688  1.00  0.00    -0.203 F 
ATOM     55  C   UNL     1       6.813  -7.103   8.468  1.00  0.00     0.198 A 
ATOM     56  C   UNL     1       4.494  -7.535   8.027  1.00  0.00     0.198 A 
ATOM     57  F   UNL     1       3.772  -7.925   5.822  1.00  0.00    -0.203 F 
ATOM     58  F   UNL     1       7.806  -6.867   9.337  1.00  0.00    -0.200 F 
ATOM     59  C   UNL     1       5.514  -7.266   8.926  1.00  0.00     0.200 A 
ATOM     60  F   UNL     1       3.235  -7.675   8.463  1.00  0.00    -0.200 F 
ATOM     61  F   UNL     1       5.247  -7.169  10.235  1.00  0.00    -0.200 F 
ENDBRANCH  27  51
BRANCH  39  62
ATOM     62  C   UNL     1       9.660 -11.986   2.265  1.00  0.00     0.064 A 
ATOM     63  C   UNL     1       9.008 -13.169   2.642  1.00  0.00     0.173 A 
ATOM     64  C   UNL     1      11.061 -11.999   2.196  1.00  0.00     0.173 A 
ATOM     65  F   UNL     1       7.670 -13.201   2.741  1.00  0.00    -0.203 F 
ATOM     66  C   UNL     1       9.733 -14.312   2.966  1.00  0.00     0.198 A 
ATOM     67  C   UNL     1      11.781 -13.152   2.493  1.00  0.00     0.198 A 
ATOM     68  F   UNL     1      11.730 -10.893   1.837  1.00  0.00    -0.203 F 
ATOM     69  F   UNL     1       9.092 -15.416   3.375  1.00  0.00    -0.200 F 
ATOM     70  C   UNL     1      11.117 -14.305   2.885  1.00  0.00     0.200 A 
ATOM     71  F   UNL     1      13.118 -13.146   2.405  1.00  0.00    -0.200 F 
ATOM     72  F   UNL     1      11.814 -15.407   3.196  1.00  0.00    -0.200 F 
ENDBRANCH  39  62
ENDBRANCH  13  14
ENDBRANCH   6   8
ENDBRANCH   3   4
ENDBRANCH   2   3
ENDBRANCH   1   2
BRANCH   1  73
ATOM     73  C   UNL     1       4.875   4.238  -1.005  1.00  0.00     0.116 C 
BRANCH  73  74
ATOM     74  N   UNL     1       6.318   4.313  -0.837  1.00  0.00    -0.352 N 
ATOM     75  C   UNL     1       7.155   5.380  -1.034  1.00  0.00     0.252 C 
ATOM     76  H   UNL     1       6.754   3.481  -0.541  1.00  0.00     0.163 HD
ATOM     77  O   UNL     1       8.373   5.229  -1.031  1.00  0.00    -0.269 OA
BRANCH  75  78
ATOM     78  C   UNL     1       6.588   6.715  -1.250  1.00  0.00     0.058 A 
ATOM     79  C   UNL     1       5.702   7.286  -0.340  1.00  0.00     0.018 A 
ATOM     80  C   UNL     1       6.951   7.435  -2.375  1.00  0.00     0.125 A 
ATOM     81  C   UNL     1       5.175   8.540  -0.622  1.00  0.00     0.030 A 
ATOM     82  N   UNL     1       6.439   8.653  -2.678  1.00  0.00    -0.255 NA
ATOM     83  C   UNL     1       5.564   9.195  -1.794  1.00  0.00     0.070 A 
BRANCH  83  84
ATOM     84  C   UNL     1       5.014  10.508  -2.135  1.00  0.00     0.000 A 
ATOM     85  C   UNL     1       4.306  10.707  -3.328  1.00  0.00     0.014 A 
ATOM     86  C   UNL     1       5.118  11.580  -1.235  1.00  0.00     0.014 A 
ATOM     87  C   UNL     1       3.630  11.908  -3.558  1.00  0.00     0.047 A 
ATOM     88  C   UNL     1       4.460  12.788  -1.474  1.00  0.00     0.047 A 
ATOM     89  C   UNL     1       3.659  12.928  -2.606  1.00  0.00     0.119 A 
BRANCH  89  90
ATOM     90  O   UNL     1       2.785  13.954  -2.842  1.00  0.00    -0.489 OA
BRANCH  90  91
ATOM     91  C   UNL     1       2.514  14.885  -1.787  1.00  0.00     0.265 C 
BRANCH  91  92
ATOM     92  C   UNL     1       1.770  14.364  -0.565  1.00  0.00    -0.011 A 
ATOM     93  C   UNL     1       1.538  15.249   0.501  1.00  0.00     0.007 A 
ATOM     94  C   UNL     1       1.330  13.039  -0.431  1.00  0.00     0.007 A 
ATOM     95  C   UNL     1       0.929  14.809   1.679  1.00  0.00     0.000 A 
ATOM     96  C   UNL     1       0.748  12.591   0.757  1.00  0.00     0.000 A 
ATOM     97  C   UNL     1       0.551  13.475   1.813  1.00  0.00     0.000 A 
ENDBRANCH  91  92
ENDBRANCH  90  91
ENDBRANCH  89  90
ENDBRANCH  83  84
ENDBRANCH  75  78
ENDBRANCH  73  74
ENDBRANCH   1  73
TORSDOF 15
