REMARK SMILES CCN(Cc1ccc(Br)s1)C(=O)C[N@@H+](C)CC(=O)NCCCCNC(=O)c1ccc(-c2c3nc(c(-c4c(F)c(F)c(F)c(F)c4F)c4ccc([nH]4)c(-c4c(F)c(F)c(F)c(F)c4F)c4nc(c(-c5c(F)c(F)c(F)c(F)c5F)c5ccc2[nH]5)C=C4)C=C3)cc1
REMARK SMILES IDX 17 1 18 2 19 3 16 5 14 6 15 7 13 9 11 10 12 11 3 12 2 13
REMARK SMILES IDX 1 14 4 15 5 16 6 17 10 18 7 19 8 20 9 21 20 22 21 23 22 24
REMARK SMILES IDX 23 25 24 26 25 27 26 29 27 30 28 31 89 32 29 33 88 34 30 35
REMARK SMILES IDX 31 36 32 37 82 38 33 39 87 40 81 41 83 42 34 43 86 44 80 45
REMARK SMILES IDX 79 46 35 48 67 49 47 50 66 51 48 52 51 53 65 54 84 55 49 56
REMARK SMILES IDX 50 57 64 59 85 60 52 61 36 62 37 63 45 64 38 65 39 66 43 67
REMARK SMILES IDX 46 68 40 69 41 70 44 71 42 72 68 73 69 74 77 75 70 76 71 77
REMARK SMILES IDX 75 78 78 79 72 80 73 81 76 82 74 83 53 84 54 85 62 86 55 87
REMARK SMILES IDX 56 88 60 89 63 90 57 91 58 92 61 93 59 94
REMARK H PARENT 19 4 14 8 24 28 83 47 51 58
REMARK Flexibility Score: inf
ROOT
ATOM      1  C   UNL     1       4.419   1.311   3.712  1.00  0.00     0.275 C 
ATOM      2  O   UNL     1       5.022   1.092   2.659  1.00  0.00    -0.269 OA
ATOM      3  N   UNL     1       5.179   1.555   4.816  1.00  0.00    -0.351 N 
ATOM      4  H   UNL     1       6.147   1.620   4.652  1.00  0.00     0.163 HD
ENDROOT
BRANCH   1   5
ATOM      5  C   UNL     1       2.887   1.370   3.759  1.00  0.00     0.363 C 
BRANCH   5   6
ATOM      6  N   UNL     1       2.184   0.161   4.228  1.00  0.00    -0.322 N 
ATOM      7  C   UNL     1       1.952   0.077   5.653  1.00  0.00     0.333 C 
ATOM      8  H   UNL     1       1.257   0.304   3.829  1.00  0.00     0.348 HD
BRANCH   6   9
ATOM      9  C   UNL     1       2.666  -1.107   3.653  1.00  0.00     0.363 C 
BRANCH   9  10
ATOM     10  C   UNL     1       2.206  -1.280   2.200  1.00  0.00     0.278 C 
ATOM     11  O   UNL     1       3.050  -1.374   1.302  1.00  0.00    -0.268 OA
BRANCH  10  12
ATOM     12  N   UNL     1       0.841  -1.361   1.920  1.00  0.00    -0.333 N 
BRANCH  12  13
ATOM     13  C   UNL     1       0.449  -1.371   0.513  1.00  0.00     0.116 C 
ATOM     14  C   UNL     1       0.581   0.011  -0.117  1.00  0.00     0.027 C 
ENDBRANCH  12  13
BRANCH  12  15
ATOM     15  C   UNL     1      -0.235  -1.306   2.915  1.00  0.00     0.166 C 
BRANCH  15  16
ATOM     16  C   UNL     1      -0.260  -2.507   3.826  1.00  0.00     0.025 A 
ATOM     17  C   UNL     1      -0.575  -2.526   5.177  1.00  0.00     0.018 A 
ATOM     18  S   UNL     1       0.094  -4.095   3.268  1.00  0.00    -0.131 S 
ATOM     19  C   UNL     1      -0.371  -3.804   5.774  1.00  0.00     0.028 A 
ATOM     20  C   UNL     1       0.004  -4.729   4.835  1.00  0.00     0.070 A 
ATOM     21  Br  UNL     1       0.372  -6.519   5.242  1.00  0.00    -0.039 Br
ENDBRANCH  15  16
ENDBRANCH  12  15
ENDBRANCH  10  12
ENDBRANCH   9  10
ENDBRANCH   6   9
ENDBRANCH   5   6
ENDBRANCH   1   5
BRANCH   3  22
ATOM     22  C   UNL     1       4.776   1.734   6.191  1.00  0.00     0.116 C 
BRANCH  22  23
ATOM     23  C   UNL     1       5.051   0.464   6.998  1.00  0.00     0.023 C 
BRANCH  23  24
ATOM     24  C   UNL     1       6.499   0.266   7.421  1.00  0.00     0.023 C 
BRANCH  24  25
ATOM     25  C   UNL     1       7.064   1.371   8.294  1.00  0.00     0.116 C 
BRANCH  25  26
ATOM     26  N   UNL     1       6.302   1.604   9.512  1.00  0.00    -0.352 N 
ATOM     27  C   UNL     1       6.779   1.869  10.780  1.00  0.00     0.251 C 
ATOM     28  H   UNL     1       5.322   1.568   9.421  1.00  0.00     0.163 HD
ATOM     29  O   UNL     1       6.027   1.958  11.730  1.00  0.00    -0.269 OA
BRANCH  27  30
ATOM     30  C   UNL     1       8.241   1.994  10.958  1.00  0.00     0.039 A 
ATOM     31  C   UNL     1       8.871   1.218  11.933  1.00  0.00     0.014 A 
ATOM     32  C   UNL     1       8.986   2.795  10.091  1.00  0.00     0.014 A 
ATOM     33  C   UNL     1      10.265   1.184  11.982  1.00  0.00     0.010 A 
ATOM     34  C   UNL     1      10.369   2.682  10.077  1.00  0.00     0.010 A 
ATOM     35  C   UNL     1      11.022   1.878  11.024  1.00  0.00    -0.014 A 
BRANCH  35  36
ATOM     36  C   UNL     1      12.503   1.801  10.999  1.00  0.00     0.031 A 
ATOM     37  C   UNL     1      13.312   3.050  11.204  1.00  0.00     0.074 A 
ATOM     38  C   UNL     1      13.111   0.635  10.708  1.00  0.00     0.049 A 
ATOM     39  N   UNL     1      14.606   3.224  11.114  1.00  0.00    -0.248 NA
ATOM     40  C   UNL     1      12.562   4.280  11.508  1.00  0.00     0.031 C 
ATOM     41  C   UNL     1      12.431  -0.630  10.424  1.00  0.00     0.029 A 
ATOM     42  N   UNL     1      14.443   0.329  10.589  1.00  0.00    -0.354 N 
ATOM     43  C   UNL     1      14.816   4.580  11.322  1.00  0.00     0.074 A 
ATOM     44  C   UNL     1      13.517   5.195  11.481  1.00  0.00     0.031 C 
ATOM     45  C   UNL     1      13.350  -1.581  10.189  1.00  0.00     0.029 A 
ATOM     46  C   UNL     1      14.681  -0.987  10.273  1.00  0.00     0.049 A 
ATOM     47  H   UNL     1      15.162   0.989  10.718  1.00  0.00     0.167 HD
ATOM     48  C   UNL     1      15.990   5.249  11.405  1.00  0.00     0.037 A 
ATOM     49  C   UNL     1      15.843  -1.636  10.072  1.00  0.00     0.037 A 
ATOM     50  C   UNL     1      17.280   4.625  11.296  1.00  0.00     0.049 A 
ATOM     51  C   UNL     1      17.136  -0.878  10.207  1.00  0.00     0.074 A 
ATOM     52  C   UNL     1      18.532   5.198  11.437  1.00  0.00     0.029 A 
ATOM     53  N   UNL     1      17.482   3.280  11.025  1.00  0.00    -0.354 N 
ATOM     54  N   UNL     1      17.327   0.391  10.474  1.00  0.00    -0.248 NA
ATOM     55  C   UNL     1      18.376  -1.645  10.021  1.00  0.00     0.031 C 
ATOM     56  C   UNL     1      19.492   4.204  11.221  1.00  0.00     0.029 A 
ATOM     57  C   UNL     1      18.838   3.005  10.985  1.00  0.00     0.049 A 
ATOM     58  H   UNL     1      16.766   2.618  10.883  1.00  0.00     0.167 HD
ATOM     59  C   UNL     1      18.702   0.571  10.514  1.00  0.00     0.074 A 
ATOM     60  C   UNL     1      19.299  -0.724  10.258  1.00  0.00     0.031 C 
ATOM     61  C   UNL     1      19.409   1.705  10.740  1.00  0.00     0.037 A 
BRANCH  48  62
ATOM     62  C   UNL     1      15.925   6.729  11.643  1.00  0.00     0.064 A 
ATOM     63  C   UNL     1      15.498   7.258  12.871  1.00  0.00     0.173 A 
ATOM     64  C   UNL     1      16.306   7.630  10.638  1.00  0.00     0.173 A 
ATOM     65  F   UNL     1      15.107   6.438  13.859  1.00  0.00    -0.203 F 
ATOM     66  C   UNL     1      15.424   8.633  13.072  1.00  0.00     0.198 A 
ATOM     67  C   UNL     1      16.260   9.005  10.853  1.00  0.00     0.198 A 
ATOM     68  F   UNL     1      16.724   7.178   9.446  1.00  0.00    -0.203 F 
ATOM     69  F   UNL     1      14.958   9.114  14.234  1.00  0.00    -0.200 F 
ATOM     70  C   UNL     1      15.810   9.505  12.066  1.00  0.00     0.200 A 
ATOM     71  F   UNL     1      16.643   9.848   9.884  1.00  0.00    -0.200 F 
ATOM     72  F   UNL     1      15.740  10.829  12.263  1.00  0.00    -0.200 F 
ENDBRANCH  48  62
BRANCH  49  73
ATOM     73  C   UNL     1      15.840  -3.089   9.764  1.00  0.00     0.064 A 
ATOM     74  C   UNL     1      16.279  -4.024  10.711  1.00  0.00     0.173 A 
ATOM     75  C   UNL     1      15.400  -3.574   8.524  1.00  0.00     0.173 A 
ATOM     76  F   UNL     1      16.727  -3.607  11.905  1.00  0.00    -0.203 F 
ATOM     77  C   UNL     1      16.299  -5.387  10.423  1.00  0.00     0.198 A 
ATOM     78  C   UNL     1      15.396  -4.940   8.246  1.00  0.00     0.198 A 
ATOM     79  F   UNL     1      14.964  -2.721   7.585  1.00  0.00    -0.203 F 
ATOM     80  F   UNL     1      16.763  -6.255  11.332  1.00  0.00    -0.200 F 
ATOM     81  C   UNL     1      15.852  -5.845   9.193  1.00  0.00     0.200 A 
ATOM     82  F   UNL     1      14.952  -5.379   7.060  1.00  0.00    -0.200 F 
ATOM     83  F   UNL     1      15.868  -7.156   8.917  1.00  0.00    -0.200 F 
ENDBRANCH  49  73
BRANCH  61  84
ATOM     84  C   UNL     1      20.903   1.591  10.755  1.00  0.00     0.064 A 
ATOM     85  C   UNL     1      21.637   1.417   9.573  1.00  0.00     0.173 A 
ATOM     86  C   UNL     1      21.611   1.706  11.961  1.00  0.00     0.173 A 
ATOM     87  F   UNL     1      21.004   1.287   8.398  1.00  0.00    -0.203 F 
ATOM     88  C   UNL     1      23.027   1.341   9.602  1.00  0.00     0.198 A 
ATOM     89  C   UNL     1      23.001   1.657  11.982  1.00  0.00     0.198 A 
ATOM     90  F   UNL     1      20.953   1.880  13.117  1.00  0.00    -0.203 F 
ATOM     91  F   UNL     1      23.708   1.134   8.466  1.00  0.00    -0.200 F 
ATOM     92  C   UNL     1      23.707   1.468  10.804  1.00  0.00     0.200 A 
ATOM     93  F   UNL     1      23.657   1.792  13.143  1.00  0.00    -0.200 F 
ATOM     94  F   UNL     1      25.046   1.404  10.827  1.00  0.00    -0.200 F 
ENDBRANCH  61  84
ENDBRANCH  35  36
ENDBRANCH  27  30
ENDBRANCH  25  26
ENDBRANCH  24  25
ENDBRANCH  23  24
ENDBRANCH  22  23
ENDBRANCH   3  22
TORSDOF 18
