REMARK SMILES COc1ccc(O)c([C@@H]2[C@H](C(=O)NCCCCNC(=O)c3ccc(-c4c5nc(c(-c6c(F)c(F)c(F)c(F)c6F)c6ccc([nH]6)c(-c6c(F)c(F)c(F)c(F)c6F)c6nc(c(-c7c(F)c(F)c(F)c(F)c7F)c7ccc4[nH]7)C=C6)C=C5)cc3)c3ccccc3C(=O)N2C)c1
REMARK SMILES IDX 15 1 14 2 13 3 11 4 12 5 10 7 9 8 92 9 84 10 90 11 93 12
REMARK SMILES IDX 85 13 89 14 91 15 86 16 88 17 87 18 8 19 3 20 4 21 94 22
REMARK SMILES IDX 5 23 6 24 2 25 1 26 7 27 16 29 17 30 18 31 19 32 20 34 21 35
REMARK SMILES IDX 22 36 83 37 23 38 82 39 24 40 25 41 26 42 76 43 27 44 81 45
REMARK SMILES IDX 75 46 77 47 28 48 80 49 74 50 73 51 29 53 61 54 41 55 60 56
REMARK SMILES IDX 42 57 45 58 59 59 78 60 43 61 44 62 58 64 79 65 46 66 30 67
REMARK SMILES IDX 31 68 39 69 32 70 33 71 37 72 40 73 34 74 35 75 38 76 36 77
REMARK SMILES IDX 62 78 63 79 71 80 64 81 65 82 69 83 72 84 66 85 67 86 70 87
REMARK SMILES IDX 68 88 47 89 48 90 56 91 49 92 50 93 54 94 57 95 51 96 52 97
REMARK SMILES IDX 55 98 53 99
REMARK H PARENT 13 6 7 28 18 33 77 52 45 63
REMARK Flexibility Score: inf
ROOT
ATOM      1  C   UNL     1       2.536  -3.068   6.247  1.00  0.00     0.023 C 
ENDROOT
BRANCH   1   2
ATOM      2  C   UNL     1       3.656  -2.210   5.664  1.00  0.00     0.116 C 
BRANCH   2   3
ATOM      3  N   UNL     1       4.723  -2.976   5.037  1.00  0.00    -0.355 N 
ATOM      4  C   UNL     1       5.062  -3.126   3.723  1.00  0.00     0.230 C 
ATOM      5  O   UNL     1       6.221  -3.503   3.512  1.00  0.00    -0.274 OA
ATOM      6  H   UNL     1       5.297  -3.470   5.667  1.00  0.00     0.163 HD
BRANCH   4   7
ATOM      7  C   UNL     1       4.101  -2.946   2.544  1.00  0.00     0.136 C 
ATOM      8  C   UNL     1       2.955  -3.979   2.430  1.00  0.00     0.136 C 
ATOM      9  N   UNL     1       1.770  -3.623   3.215  1.00  0.00    -0.333 N 
ATOM     10  C   UNL     1       3.590  -1.539   2.387  1.00  0.00    -0.020 A 
ATOM     11  C   UNL     1       1.329  -2.286   3.222  1.00  0.00     0.254 C 
ATOM     12  C   UNL     1       0.769  -4.630   3.549  1.00  0.00     0.147 C 
ATOM     13  C   UNL     1       4.460  -0.524   1.957  1.00  0.00     0.005 A 
ATOM     14  C   UNL     1       2.258  -1.233   2.700  1.00  0.00     0.044 A 
ATOM     15  O   UNL     1       0.238  -1.943   3.668  1.00  0.00    -0.269 OA
ATOM     16  C   UNL     1       4.013   0.792   1.868  1.00  0.00     0.000 A 
ATOM     17  C   UNL     1       1.823   0.097   2.623  1.00  0.00     0.014 A 
ATOM     18  C   UNL     1       2.700   1.104   2.210  1.00  0.00     0.001 A 
BRANCH   8  19
ATOM     19  C   UNL     1       3.511  -5.405   2.447  1.00  0.00     0.021 A 
ATOM     20  C   UNL     1       4.523  -7.157   1.044  1.00  0.00     0.119 A 
ATOM     21  C   UNL     1       4.945  -7.829   2.185  1.00  0.00     0.050 A 
ATOM     22  C   UNL     1       3.801  -5.968   1.181  1.00  0.00     0.056 A 
ATOM     23  C   UNL     1       4.622  -7.336   3.445  1.00  0.00     0.050 A 
ATOM     24  C   UNL     1       3.919  -6.137   3.570  1.00  0.00     0.121 A 
BRANCH  20  25
ATOM     25  O   UNL     1       4.902  -7.730  -0.138  1.00  0.00    -0.497 OA
ATOM     26  C   UNL     1       4.454  -7.100  -1.331  1.00  0.00     0.278 C 
ENDBRANCH  20  25
BRANCH  24  27
ATOM     27  O   UNL     1       3.695  -5.748   4.855  1.00  0.00    -0.508 OA
ATOM     28  H   UNL     1       3.993  -6.282   5.565  1.00  0.00     0.293 HD
ENDBRANCH  24  27
ENDBRANCH   8  19
ENDBRANCH   4   7
ENDBRANCH   2   3
ENDBRANCH   1   2
BRANCH   1  29
ATOM     29  C   UNL     1       2.810  -3.607   7.644  1.00  0.00     0.023 C 
BRANCH  29  30
ATOM     30  C   UNL     1       2.850  -2.528   8.711  1.00  0.00     0.116 C 
BRANCH  30  31
ATOM     31  N   UNL     1       1.625  -1.744   8.795  1.00  0.00    -0.352 N 
ATOM     32  C   UNL     1       1.057  -1.178   9.914  1.00  0.00     0.251 C 
ATOM     33  H   UNL     1       1.144  -1.603   7.948  1.00  0.00     0.163 HD
ATOM     34  O   UNL     1      -0.024  -0.619   9.868  1.00  0.00    -0.269 OA
BRANCH  32  35
ATOM     35  C   UNL     1       1.781  -1.311  11.191  1.00  0.00     0.039 A 
ATOM     36  C   UNL     1       1.113  -1.855  12.289  1.00  0.00     0.014 A 
ATOM     37  C   UNL     1       3.140  -0.996  11.258  1.00  0.00     0.014 A 
ATOM     38  C   UNL     1       1.834  -2.147  13.444  1.00  0.00     0.010 A 
ATOM     39  C   UNL     1       3.873  -1.382  12.369  1.00  0.00     0.010 A 
ATOM     40  C   UNL     1       3.225  -1.949  13.477  1.00  0.00    -0.014 A 
BRANCH  40  41
ATOM     41  C   UNL     1       4.023  -2.297  14.675  1.00  0.00     0.031 A 
ATOM     42  C   UNL     1       4.760  -1.214  15.411  1.00  0.00     0.074 A 
ATOM     43  C   UNL     1       4.139  -3.585  15.051  1.00  0.00     0.049 A 
ATOM     44  N   UNL     1       5.572  -1.311  16.432  1.00  0.00    -0.248 NA
ATOM     45  C   UNL     1       4.594   0.159  14.906  1.00  0.00     0.031 C 
ATOM     46  C   UNL     1       3.524  -4.726  14.371  1.00  0.00     0.029 A 
ATOM     47  N   UNL     1       4.821  -4.150  16.097  1.00  0.00    -0.354 N 
ATOM     48  C   UNL     1       6.029  -0.022  16.670  1.00  0.00     0.074 A 
ATOM     49  C   UNL     1       5.460   0.829  15.649  1.00  0.00     0.031 C 
ATOM     50  C   UNL     1       3.827  -5.851  15.039  1.00  0.00     0.029 A 
ATOM     51  C   UNL     1       4.684  -5.515  16.171  1.00  0.00     0.049 A 
ATOM     52  H   UNL     1       5.359  -3.628  16.735  1.00  0.00     0.167 HD
ATOM     53  C   UNL     1       6.824   0.419  17.672  1.00  0.00     0.037 A 
ATOM     54  C   UNL     1       5.191  -6.390  17.060  1.00  0.00     0.037 A 
ATOM     55  C   UNL     1       7.345  -0.427  18.711  1.00  0.00     0.049 A 
ATOM     56  C   UNL     1       6.044  -5.870  18.185  1.00  0.00     0.074 A 
ATOM     57  C   UNL     1       8.102  -0.075  19.813  1.00  0.00     0.029 A 
ATOM     58  N   UNL     1       7.151  -1.799  18.777  1.00  0.00    -0.354 N 
ATOM     59  N   UNL     1       6.412  -4.638  18.444  1.00  0.00    -0.248 NA
ATOM     60  C   UNL     1       6.543  -6.860  19.148  1.00  0.00     0.031 C 
ATOM     61  C   UNL     1       8.397  -1.241  20.528  1.00  0.00     0.029 A 
ATOM     62  C   UNL     1       7.785  -2.312  19.895  1.00  0.00     0.049 A 
ATOM     63  H   UNL     1       6.638  -2.330  18.125  1.00  0.00     0.167 HD
ATOM     64  C   UNL     1       7.160  -4.700  19.611  1.00  0.00     0.074 A 
ATOM     65  C   UNL     1       7.180  -6.090  20.019  1.00  0.00     0.031 C 
ATOM     66  C   UNL     1       7.779  -3.699  20.285  1.00  0.00     0.037 A 
BRANCH  53  67
ATOM     67  C   UNL     1       7.159   1.882  17.697  1.00  0.00     0.064 A 
ATOM     68  C   UNL     1       6.186   2.854  17.980  1.00  0.00     0.173 A 
ATOM     69  C   UNL     1       8.468   2.318  17.448  1.00  0.00     0.173 A 
ATOM     70  F   UNL     1       4.915   2.491  18.208  1.00  0.00    -0.203 F 
ATOM     71  C   UNL     1       6.505   4.209  17.978  1.00  0.00     0.198 A 
ATOM     72  C   UNL     1       8.790   3.672  17.479  1.00  0.00     0.198 A 
ATOM     73  F   UNL     1       9.436   1.431  17.173  1.00  0.00    -0.203 F 
ATOM     74  F   UNL     1       5.547   5.121  18.193  1.00  0.00    -0.200 F 
ATOM     75  C   UNL     1       7.808   4.617  17.735  1.00  0.00     0.200 A 
ATOM     76  F   UNL     1      10.052   4.064  17.254  1.00  0.00    -0.200 F 
ATOM     77  F   UNL     1       8.114   5.921  17.738  1.00  0.00    -0.200 F 
ENDBRANCH  53  67
BRANCH  54  78
ATOM     78  C   UNL     1       4.868  -7.836  16.949  1.00  0.00     0.064 A 
ATOM     79  C   UNL     1       4.029  -8.457  17.886  1.00  0.00     0.173 A 
ATOM     80  C   UNL     1       5.387  -8.627  15.914  1.00  0.00     0.173 A 
ATOM     81  F   UNL     1       3.523  -7.746  18.905  1.00  0.00    -0.203 F 
ATOM     82  C   UNL     1       3.741  -9.817  17.806  1.00  0.00     0.198 A 
ATOM     83  C   UNL     1       5.076  -9.982  15.819  1.00  0.00     0.198 A 
ATOM     84  F   UNL     1       6.188  -8.080  14.988  1.00  0.00    -0.203 F 
ATOM     85  F   UNL     1       2.974 -10.394  18.741  1.00  0.00    -0.200 F 
ATOM     86  C   UNL     1       4.261 -10.578  16.770  1.00  0.00     0.200 A 
ATOM     87  F   UNL     1       5.570 -10.711  14.809  1.00  0.00    -0.200 F 
ATOM     88  F   UNL     1       3.982 -11.886  16.692  1.00  0.00    -0.200 F 
ENDBRANCH  54  78
BRANCH  66  89
ATOM     89  C   UNL     1       8.496  -4.067  21.549  1.00  0.00     0.064 A 
ATOM     90  C   UNL     1       9.707  -4.774  21.527  1.00  0.00     0.173 A 
ATOM     91  C   UNL     1       7.986  -3.669  22.794  1.00  0.00     0.173 A 
ATOM     92  F   UNL     1      10.226  -5.189  20.362  1.00  0.00    -0.203 F 
ATOM     93  C   UNL     1      10.368  -5.093  22.710  1.00  0.00     0.198 A 
ATOM     94  C   UNL     1       8.665  -3.964  23.972  1.00  0.00     0.198 A 
ATOM     95  F   UNL     1       6.835  -2.983  22.866  1.00  0.00    -0.203 F 
ATOM     96  F   UNL     1      11.499  -5.811  22.670  1.00  0.00    -0.200 F 
ATOM     97  C   UNL     1       9.851  -4.681  23.930  1.00  0.00     0.200 A 
ATOM     98  F   UNL     1       8.172  -3.553  25.148  1.00  0.00    -0.200 F 
ATOM     99  F   UNL     1      10.493  -4.983  25.067  1.00  0.00    -0.200 F 
ENDBRANCH  66  89
ENDBRANCH  40  41
ENDBRANCH  32  35
ENDBRANCH  30  31
ENDBRANCH  29  30
ENDBRANCH   1  29
TORSDOF 14
