REMARK SMILES CC(C)[C@@H](C)C(=O)N[C@@](C)(C(=O)NCCCCNC(=O)c1ccc(-c2c3nc(c(-c4c(F)c(F)c(F)c(F)c4F)c4ccc([nH]4)c(-c4c(F)c(F)c(F)c(F)c4F)c4nc(c(-c5c(F)c(F)c(F)c(F)c5F)c5ccc2[nH]5)C=C4)C=C3)cc1)C(F)(F)F
REMARK SMILES IDX 15 1 14 2 13 3 11 4 12 5 9 7 10 8 8 9 6 10 7 11 4 13 5 14
REMARK SMILES IDX 2 15 1 16 3 17 84 18 85 19 86 20 87 21 16 22 17 23 18 24
REMARK SMILES IDX 19 25 20 27 21 28 22 29 83 30 23 31 82 32 24 33 25 34 26 35
REMARK SMILES IDX 76 36 27 37 81 38 75 39 77 40 28 41 80 42 74 43 73 44 29 46
REMARK SMILES IDX 61 47 41 48 60 49 42 50 45 51 59 52 78 53 43 54 44 55 58 57
REMARK SMILES IDX 79 58 46 59 30 60 31 61 39 62 32 63 33 64 37 65 40 66 34 67
REMARK SMILES IDX 35 68 38 69 36 70 62 71 63 72 71 73 64 74 65 75 69 76 72 77
REMARK SMILES IDX 66 78 67 79 70 80 68 81 47 82 48 83 56 84 49 85 50 86 54 87
REMARK SMILES IDX 57 88 51 89 52 90 55 91 53 92
REMARK H PARENT 13 6 8 12 18 26 77 45 45 56
REMARK Flexibility Score: inf
ROOT
ATOM      1  C   UNL     1      -2.647   3.484  -6.195  1.00  0.00     0.023 C 
ENDROOT
BRANCH   1   2
ATOM      2  C   UNL     1      -1.265   3.789  -5.623  1.00  0.00     0.116 C 
BRANCH   2   3
ATOM      3  N   UNL     1      -1.357   4.420  -4.315  1.00  0.00    -0.354 N 
ATOM      4  C   UNL     1      -0.861   4.130  -3.077  1.00  0.00     0.254 C 
ATOM      5  O   UNL     1      -1.221   4.910  -2.191  1.00  0.00    -0.272 OA
ATOM      6  H   UNL     1      -1.901   5.240  -4.325  1.00  0.00     0.163 HD
BRANCH   4   7
ATOM      7  C   UNL     1       0.025   2.893  -2.791  1.00  0.00     0.212 C 
ATOM      8  C   UNL     1       1.279   2.877  -3.689  1.00  0.00     0.056 C 
BRANCH   7   9
ATOM      9  N   UNL     1      -0.890   1.750  -3.173  1.00  0.00    -0.334 N 
ATOM     10  C   UNL     1      -1.314   0.535  -2.782  1.00  0.00     0.224 C 
ATOM     11  O   UNL     1      -2.078  -0.026  -3.577  1.00  0.00    -0.275 OA
ATOM     12  H   UNL     1      -1.340   1.981  -4.018  1.00  0.00     0.164 HD
BRANCH  10  13
ATOM     13  C   UNL     1      -0.986  -0.137  -1.468  1.00  0.00     0.078 C 
ATOM     14  C   UNL     1      -1.759   0.581  -0.359  1.00  0.00     0.018 C 
BRANCH  13  15
ATOM     15  C   UNL     1       0.531  -0.382  -1.343  1.00  0.00    -0.005 C 
ATOM     16  C   UNL     1       1.034  -0.522   0.090  1.00  0.00     0.008 C 
ATOM     17  C   UNL     1       0.942  -1.617  -2.159  1.00  0.00     0.008 C 
ENDBRANCH  13  15
ENDBRANCH  10  13
ENDBRANCH   7   9
BRANCH   7  18
ATOM     18  C   UNL     1       0.547   3.118  -1.342  1.00  0.00     0.420 C 
ATOM     19  F   UNL     1      -0.389   3.015  -0.385  1.00  0.00    -0.168 F 
ATOM     20  F   UNL     1       1.537   2.248  -1.024  1.00  0.00    -0.168 F 
ATOM     21  F   UNL     1       1.129   4.341  -1.214  1.00  0.00    -0.168 F 
ENDBRANCH   7  18
ENDBRANCH   4   7
ENDBRANCH   2   3
ENDBRANCH   1   2
BRANCH   1  22
ATOM     22  C   UNL     1      -3.528   4.711  -6.430  1.00  0.00     0.023 C 
BRANCH  22  23
ATOM     23  C   UNL     1      -2.873   5.829  -7.232  1.00  0.00     0.116 C 
BRANCH  23  24
ATOM     24  N   UNL     1      -2.429   5.395  -8.547  1.00  0.00    -0.352 N 
ATOM     25  C   UNL     1      -2.634   5.992  -9.767  1.00  0.00     0.251 C 
ATOM     26  H   UNL     1      -1.910   4.558  -8.566  1.00  0.00     0.163 HD
ATOM     27  O   UNL     1      -2.308   5.418 -10.801  1.00  0.00    -0.269 OA
BRANCH  25  28
ATOM     28  C   UNL     1      -3.283   7.317  -9.826  1.00  0.00     0.039 A 
ATOM     29  C   UNL     1      -4.338   7.511 -10.719  1.00  0.00     0.014 A 
ATOM     30  C   UNL     1      -2.874   8.350  -8.978  1.00  0.00     0.014 A 
ATOM     31  C   UNL     1      -5.032   8.722 -10.712  1.00  0.00     0.010 A 
ATOM     32  C   UNL     1      -3.617   9.524  -8.916  1.00  0.00     0.010 A 
ATOM     33  C   UNL     1      -4.703   9.722  -9.783  1.00  0.00    -0.014 A 
BRANCH  33  34
ATOM     34  C   UNL     1      -5.488  10.980  -9.697  1.00  0.00     0.031 A 
ATOM     35  C   UNL     1      -4.830  12.301  -9.985  1.00  0.00     0.074 A 
ATOM     36  C   UNL     1      -6.773  10.938  -9.294  1.00  0.00     0.049 A 
ATOM     37  N   UNL     1      -5.326  13.509  -9.896  1.00  0.00    -0.248 NA
ATOM     38  C   UNL     1      -3.419  12.261 -10.399  1.00  0.00     0.031 C 
ATOM     39  C   UNL     1      -7.507   9.723  -8.936  1.00  0.00     0.029 A 
ATOM     40  N   UNL     1      -7.686  11.945  -9.105  1.00  0.00    -0.354 N 
ATOM     41  C   UNL     1      -4.287  14.369 -10.228  1.00  0.00     0.074 A 
ATOM     42  C   UNL     1      -3.119  13.550 -10.465  1.00  0.00     0.031 C 
ATOM     43  C   UNL     1      -8.762  10.053  -8.592  1.00  0.00     0.029 A 
ATOM     44  C   UNL     1      -8.911  11.503  -8.665  1.00  0.00     0.049 A 
ATOM     45  H   UNL     1      -7.484  12.894  -9.270  1.00  0.00     0.167 HD
ATOM     46  C   UNL     1      -4.313  15.717 -10.348  1.00  0.00     0.037 A 
ATOM     47  C   UNL     1     -10.023  12.191  -8.345  1.00  0.00     0.037 A 
ATOM     48  C   UNL     1      -5.485  16.526 -10.135  1.00  0.00     0.049 A 
ATOM     49  C   UNL     1     -10.022  13.691  -8.481  1.00  0.00     0.074 A 
ATOM     50  C   UNL     1      -5.630  17.892 -10.296  1.00  0.00     0.029 A 
ATOM     51  N   UNL     1      -6.713  16.041  -9.709  1.00  0.00    -0.354 N 
ATOM     52  N   UNL     1      -9.056  14.486  -8.871  1.00  0.00    -0.248 NA
ATOM     53  C   UNL     1     -11.270  14.387  -8.139  1.00  0.00     0.031 C 
ATOM     54  C   UNL     1      -6.929  18.242  -9.914  1.00  0.00     0.029 A 
ATOM     55  C   UNL     1      -7.613  17.086  -9.576  1.00  0.00     0.049 A 
ATOM     56  H   UNL     1      -6.915  15.094  -9.529  1.00  0.00     0.167 HD
ATOM     57  C   UNL     1      -9.586  15.769  -8.853  1.00  0.00     0.074 A 
ATOM     58  C   UNL     1     -10.965  15.644  -8.427  1.00  0.00     0.031 C 
ATOM     59  C   UNL     1      -8.986  16.945  -9.161  1.00  0.00     0.037 A 
BRANCH  46  60
ATOM     60  C   UNL     1      -3.034  16.408 -10.728  1.00  0.00     0.064 A 
ATOM     61  C   UNL     1      -2.473  16.270 -12.007  1.00  0.00     0.173 A 
ATOM     62  C   UNL     1      -2.384  17.253  -9.816  1.00  0.00     0.173 A 
ATOM     63  F   UNL     1      -3.047  15.465 -12.914  1.00  0.00    -0.203 F 
ATOM     64  C   UNL     1      -1.294  16.928 -12.348  1.00  0.00     0.198 A 
ATOM     65  C   UNL     1      -1.224  17.936 -10.171  1.00  0.00     0.198 A 
ATOM     66  F   UNL     1      -2.880  17.426  -8.581  1.00  0.00    -0.203 F 
ATOM     67  F   UNL     1      -0.750  16.740 -13.558  1.00  0.00    -0.200 F 
ATOM     68  C   UNL     1      -0.675  17.767 -11.433  1.00  0.00     0.200 A 
ATOM     69  F   UNL     1      -0.636  18.758  -9.291  1.00  0.00    -0.200 F 
ATOM     70  F   UNL     1       0.453  18.408 -11.766  1.00  0.00    -0.200 F 
ENDBRANCH  46  60
BRANCH  47  71
ATOM     71  C   UNL     1     -11.238  11.469  -7.882  1.00  0.00     0.064 A 
ATOM     72  C   UNL     1     -12.396  11.425  -8.672  1.00  0.00     0.173 A 
ATOM     73  C   UNL     1     -11.273  10.820  -6.640  1.00  0.00     0.173 A 
ATOM     74  F   UNL     1     -12.420  12.048  -9.860  1.00  0.00    -0.203 F 
ATOM     75  C   UNL     1     -13.549  10.782  -8.226  1.00  0.00     0.198 A 
ATOM     76  C   UNL     1     -12.415  10.149  -6.209  1.00  0.00     0.198 A 
ATOM     77  F   UNL     1     -10.190  10.826  -5.848  1.00  0.00    -0.203 F 
ATOM     78  F   UNL     1     -14.657  10.800  -8.979  1.00  0.00    -0.200 F 
ATOM     79  C   UNL     1     -13.556  10.139  -6.997  1.00  0.00     0.200 A 
ATOM     80  F   UNL     1     -12.412   9.516  -5.028  1.00  0.00    -0.200 F 
ATOM     81  F   UNL     1     -14.663   9.518  -6.570  1.00  0.00    -0.200 F 
ENDBRANCH  47  71
BRANCH  59  82
ATOM     82  C   UNL     1      -9.825  18.189  -9.091  1.00  0.00     0.064 A 
ATOM     83  C   UNL     1     -10.253  18.725  -7.868  1.00  0.00     0.173 A 
ATOM     84  C   UNL     1     -10.168  18.876 -10.266  1.00  0.00     0.173 A 
ATOM     85  F   UNL     1      -9.964  18.098  -6.718  1.00  0.00    -0.203 F 
ATOM     86  C   UNL     1     -11.017  19.888  -7.825  1.00  0.00     0.198 A 
ATOM     87  C   UNL     1     -10.903  20.058 -10.217  1.00  0.00     0.198 A 
ATOM     88  F   UNL     1      -9.777  18.411 -11.462  1.00  0.00    -0.203 F 
ATOM     89  F   UNL     1     -11.458  20.354  -6.649  1.00  0.00    -0.200 F 
ATOM     90  C   UNL     1     -11.334  20.558  -8.998  1.00  0.00     0.200 A 
ATOM     91  F   UNL     1     -11.193  20.712 -11.350  1.00  0.00    -0.200 F 
ATOM     92  F   UNL     1     -12.061  21.683  -8.953  1.00  0.00    -0.200 F 
ENDBRANCH  59  82
ENDBRANCH  33  34
ENDBRANCH  25  28
ENDBRANCH  23  24
ENDBRANCH  22  23
ENDBRANCH   1  22
TORSDOF 15
