REMARK SMILES COCC[C@@H](C)NC(=O)N1Cc2nc[nH]c2C[C@@H]1C(=O)NCCCCNC(=O)c1ccc(-c2c3nc(c(-c4c(F)c(F)c(F)c(F)c4F)c4ccc([nH]4)c(-c4c(F)c(F)c(F)c(F)c4F)c4nc(c(-c5c(F)c(F)c(F)c(F)c5F)c5ccc2[nH]5)C=C4)C=C3)cc1
REMARK SMILES IDX 22 1 21 2 19 3 20 4 18 6 10 7 11 8 12 9 17 10 13 11 16 12
REMARK SMILES IDX 14 13 15 14 8 16 7 17 9 19 5 20 6 21 4 22 3 23 2 24 1 25
REMARK SMILES IDX 23 26 24 27 25 28 26 29 27 30 28 32 29 33 30 34 91 35 31 36
REMARK SMILES IDX 90 37 32 38 33 39 34 40 84 41 35 42 89 43 83 44 85 45 36 46
REMARK SMILES IDX 88 47 82 48 81 49 37 51 69 52 49 53 68 54 50 55 53 56 67 57
REMARK SMILES IDX 86 58 51 59 52 60 66 62 87 63 54 64 38 65 39 66 47 67 40 68
REMARK SMILES IDX 41 69 45 70 48 71 42 72 43 73 46 74 44 75 70 76 71 77 79 78
REMARK SMILES IDX 72 79 73 80 77 81 80 82 74 83 75 84 78 85 76 86 55 87 56 88
REMARK SMILES IDX 64 89 57 90 58 91 62 92 65 93 59 94 60 95 63 96 61 97
REMARK H PARENT 21 5 15 15 7 18 26 31 85 50 53 61
REMARK Flexibility Score: inf
ROOT
ATOM      1  C   UNL     1       2.938  -0.361   3.068  1.00  0.00     0.116 C 
ENDROOT
BRANCH   1   2
ATOM      2  N   UNL     1       3.021   0.941   2.424  1.00  0.00    -0.354 N 
ATOM      3  C   UNL     1       2.136   1.991   2.559  1.00  0.00     0.243 C 
ATOM      4  O   UNL     1       2.594   3.131   2.491  1.00  0.00    -0.273 OA
ATOM      5  H   UNL     1       3.790   1.088   1.828  1.00  0.00     0.163 HD
BRANCH   3   6
ATOM      6  C   UNL     1       0.654   1.686   2.858  1.00  0.00     0.182 C 
ATOM      7  N   UNL     1      -0.460   2.466   2.207  1.00  0.00    -0.306 N 
ATOM      8  C   UNL     1      -1.854   2.149   2.631  1.00  0.00     0.180 C 
ATOM      9  C   UNL     1      -1.901   1.613   4.023  1.00  0.00     0.081 A 
ATOM     10  C   UNL     1       0.576   1.760   4.416  1.00  0.00     0.091 C 
ATOM     11  N   UNL     1      -3.026   1.177   4.673  1.00  0.00    -0.240 NA
ATOM     12  C   UNL     1      -0.800   1.435   4.821  1.00  0.00     0.042 A 
ATOM     13  C   UNL     1      -2.609   0.773   5.855  1.00  0.00     0.197 A 
ATOM     14  N   UNL     1      -1.252   0.909   5.992  1.00  0.00    -0.348 N 
ATOM     15  H   UNL     1      -0.712   0.673   6.780  1.00  0.00     0.167 HD
BRANCH   7  16
ATOM     16  C   UNL     1      -0.326   3.564   1.405  1.00  0.00     0.318 C 
ATOM     17  N   UNL     1       0.549   3.569   0.373  1.00  0.00    -0.335 N 
ATOM     18  H   UNL     1       0.797   4.468   0.056  1.00  0.00     0.165 HD
ATOM     19  O   UNL     1      -1.066   4.545   1.500  1.00  0.00    -0.249 OA
BRANCH  17  20
ATOM     20  C   UNL     1       1.190   2.478  -0.354  1.00  0.00     0.083 C 
ATOM     21  C   UNL     1       2.623   2.876  -0.718  1.00  0.00     0.031 C 
BRANCH  20  22
ATOM     22  C   UNL     1       0.376   2.104  -1.607  1.00  0.00     0.053 C 
BRANCH  22  23
ATOM     23  C   UNL     1       0.863   0.839  -2.322  1.00  0.00     0.162 C 
BRANCH  23  24
ATOM     24  O   UNL     1       0.324  -0.371  -1.791  1.00  0.00    -0.385 OA
ATOM     25  C   UNL     1       0.864  -0.773  -0.545  1.00  0.00     0.194 C 
ENDBRANCH  23  24
ENDBRANCH  22  23
ENDBRANCH  20  22
ENDBRANCH  17  20
ENDBRANCH   7  16
ENDBRANCH   3   6
ENDBRANCH   1   2
BRANCH   1  26
ATOM     26  C   UNL     1       3.485  -1.538   2.257  1.00  0.00     0.023 C 
BRANCH  26  27
ATOM     27  C   UNL     1       4.891  -1.405   1.666  1.00  0.00     0.023 C 
BRANCH  27  28
ATOM     28  C   UNL     1       5.974  -1.021   2.660  1.00  0.00     0.116 C 
BRANCH  28  29
ATOM     29  N   UNL     1       6.221  -2.029   3.691  1.00  0.00    -0.352 N 
ATOM     30  C   UNL     1       7.186  -1.979   4.681  1.00  0.00     0.251 C 
ATOM     31  H   UNL     1       5.641  -2.824   3.678  1.00  0.00     0.163 HD
ATOM     32  O   UNL     1       7.559  -2.995   5.264  1.00  0.00    -0.269 OA
BRANCH  30  33
ATOM     33  C   UNL     1       7.755  -0.668   5.033  1.00  0.00     0.039 A 
ATOM     34  C   UNL     1       9.128  -0.477   5.213  1.00  0.00     0.014 A 
ATOM     35  C   UNL     1       6.867   0.401   5.118  1.00  0.00     0.014 A 
ATOM     36  C   UNL     1       9.604   0.820   5.392  1.00  0.00     0.010 A 
ATOM     37  C   UNL     1       7.348   1.682   5.124  1.00  0.00     0.010 A 
ATOM     38  C   UNL     1       8.707   1.898   5.323  1.00  0.00    -0.014 A 
BRANCH  38  39
ATOM     39  C   UNL     1       9.173   3.280   5.339  1.00  0.00     0.031 A 
ATOM     40  C   UNL     1      10.147   3.616   4.264  1.00  0.00     0.074 A 
ATOM     41  C   UNL     1       8.583   4.229   6.099  1.00  0.00     0.049 A 
ATOM     42  N   UNL     1      11.383   3.964   4.402  1.00  0.00    -0.248 NA
ATOM     43  C   UNL     1       9.742   3.419   2.862  1.00  0.00     0.031 C 
ATOM     44  C   UNL     1       7.399   4.100   6.959  1.00  0.00     0.029 A 
ATOM     45  N   UNL     1       8.854   5.560   6.177  1.00  0.00    -0.354 N 
ATOM     46  C   UNL     1      11.859   4.224   3.119  1.00  0.00     0.074 A 
ATOM     47  C   UNL     1      10.873   3.699   2.211  1.00  0.00     0.031 C 
ATOM     48  C   UNL     1       6.921   5.326   7.266  1.00  0.00     0.029 A 
ATOM     49  C   UNL     1       7.856   6.321   6.778  1.00  0.00     0.049 A 
ATOM     50  H   UNL     1       9.690   5.953   5.835  1.00  0.00     0.167 HD
ATOM     51  C   UNL     1      12.906   5.074   2.922  1.00  0.00     0.037 A 
ATOM     52  C   UNL     1       7.796   7.675   6.843  1.00  0.00     0.037 A 
ATOM     53  C   UNL     1      13.607   5.317   4.158  1.00  0.00     0.049 A 
ATOM     54  C   UNL     1       9.167   8.183   6.590  1.00  0.00     0.074 A 
ATOM     55  C   UNL     1      14.289   4.528   5.063  1.00  0.00     0.029 A 
ATOM     56  N   UNL     1      13.336   6.490   4.818  1.00  0.00    -0.354 N 
ATOM     57  N   UNL     1      10.167   8.002   7.405  1.00  0.00    -0.248 NA
ATOM     58  C   UNL     1       9.527   8.483   5.213  1.00  0.00     0.031 C 
ATOM     59  C   UNL     1      13.958   5.065   6.343  1.00  0.00     0.029 A 
ATOM     60  C   UNL     1      13.161   6.194   6.143  1.00  0.00     0.049 A 
ATOM     61  H   UNL     1      13.277   7.385   4.411  1.00  0.00     0.167 HD
ATOM     62  C   UNL     1      11.244   7.719   6.579  1.00  0.00     0.074 A 
ATOM     63  C   UNL     1      10.812   8.119   5.241  1.00  0.00     0.031 C 
ATOM     64  C   UNL     1      12.261   6.918   7.009  1.00  0.00     0.037 A 
BRANCH  51  65
ATOM     65  C   UNL     1      13.068   5.993   1.733  1.00  0.00     0.064 A 
ATOM     66  C   UNL     1      14.255   6.747   1.613  1.00  0.00     0.173 A 
ATOM     67  C   UNL     1      12.005   6.403   0.901  1.00  0.00     0.173 A 
ATOM     68  F   UNL     1      15.329   6.454   2.361  1.00  0.00    -0.203 F 
ATOM     69  C   UNL     1      14.333   7.881   0.799  1.00  0.00     0.198 A 
ATOM     70  C   UNL     1      12.105   7.503   0.049  1.00  0.00     0.198 A 
ATOM     71  F   UNL     1      10.794   5.838   0.956  1.00  0.00    -0.203 F 
ATOM     72  F   UNL     1      15.434   8.644   0.826  1.00  0.00    -0.200 F 
ATOM     73  C   UNL     1      13.255   8.263   0.025  1.00  0.00     0.200 A 
ATOM     74  F   UNL     1      11.042   7.867  -0.682  1.00  0.00    -0.200 F 
ATOM     75  F   UNL     1      13.302   9.386  -0.703  1.00  0.00    -0.200 F 
ENDBRANCH  51  65
BRANCH  52  76
ATOM     76  C   UNL     1       6.607   8.561   6.807  1.00  0.00     0.064 A 
ATOM     77  C   UNL     1       6.703   9.914   7.173  1.00  0.00     0.173 A 
ATOM     78  C   UNL     1       5.429   8.178   6.136  1.00  0.00     0.173 A 
ATOM     79  F   UNL     1       7.808  10.371   7.780  1.00  0.00    -0.203 F 
ATOM     80  C   UNL     1       5.699  10.835   6.854  1.00  0.00     0.198 A 
ATOM     81  C   UNL     1       4.426   9.097   5.823  1.00  0.00     0.198 A 
ATOM     82  F   UNL     1       5.274   6.925   5.685  1.00  0.00    -0.203 F 
ATOM     83  F   UNL     1       5.859  12.131   7.160  1.00  0.00    -0.200 F 
ATOM     84  C   UNL     1       4.568  10.428   6.167  1.00  0.00     0.200 A 
ATOM     85  F   UNL     1       3.353   8.698   5.126  1.00  0.00    -0.200 F 
ATOM     86  F   UNL     1       3.639  11.322   5.801  1.00  0.00    -0.200 F 
ENDBRANCH  52  76
BRANCH  64  87
ATOM     87  C   UNL     1      12.322   6.588   8.476  1.00  0.00     0.064 A 
ATOM     88  C   UNL     1      11.340   5.857   9.168  1.00  0.00     0.173 A 
ATOM     89  C   UNL     1      13.495   6.905   9.172  1.00  0.00     0.173 A 
ATOM     90  F   UNL     1      10.233   5.427   8.550  1.00  0.00    -0.203 F 
ATOM     91  C   UNL     1      11.509   5.502  10.505  1.00  0.00     0.198 A 
ATOM     92  C   UNL     1      13.679   6.517  10.496  1.00  0.00     0.198 A 
ATOM     93  F   UNL     1      14.491   7.554   8.548  1.00  0.00    -0.203 F 
ATOM     94  F   UNL     1      10.551   4.815  11.146  1.00  0.00    -0.200 F 
ATOM     95  C   UNL     1      12.682   5.825  11.165  1.00  0.00     0.200 A 
ATOM     96  F   UNL     1      14.836   6.789  11.113  1.00  0.00    -0.200 F 
ATOM     97  F   UNL     1      12.865   5.448  12.438  1.00  0.00    -0.200 F 
ENDBRANCH  64  87
ENDBRANCH  38  39
ENDBRANCH  30  33
ENDBRANCH  28  29
ENDBRANCH  27  28
ENDBRANCH  26  27
ENDBRANCH   1  26
TORSDOF 16
