REMARK SMILES O=C(NCCCCNC(=O)[C@@]1([C@@H]2CCO[C@@]3(CCOC3)C2)CCOC1)c1ccc(-c2c3nc(c(-c4c(F)c(F)c(F)c(F)c4F)c4ccc([nH]4)c(-c4c(F)c(F)c(F)c(F)c4F)c4nc(c(-c5c(F)c(F)c(F)c(F)c5F)c5ccc2[nH]5)C=C4)C=C3)cc1
REMARK SMILES IDX 5 1 4 2 3 3 1 4 2 5 26 7 27 8 88 9 28 10 87 11 29 12 30 13
REMARK SMILES IDX 31 14 81 15 32 16 86 17 80 18 82 19 33 20 85 21 79 22 78 23
REMARK SMILES IDX 34 25 66 26 46 27 65 28 47 29 50 30 64 31 83 32 48 33 49 34
REMARK SMILES IDX 63 36 84 37 51 38 35 39 36 40 44 41 37 42 38 43 42 44 45 45
REMARK SMILES IDX 39 46 40 47 43 48 41 49 67 50 68 51 76 52 69 53 70 54 74 55
REMARK SMILES IDX 77 56 71 57 72 58 75 59 73 60 52 61 53 62 61 63 54 64 55 65
REMARK SMILES IDX 59 66 62 67 56 68 57 69 60 70 58 71 6 72 7 73 8 74 9 75
REMARK SMILES IDX 10 77 11 78 22 79 25 80 23 81 24 82 12 83 13 84 21 85 14 86
REMARK SMILES IDX 16 87 15 88 17 89 20 90 18 91 19 92
REMARK H PARENT 3 6 82 24 50 35 8 76
REMARK Flexibility Score: inf
ROOT
ATOM      1  C   UNL     1       8.073  -2.824   5.600  1.00  0.00     0.023 C 
ENDROOT
BRANCH   1   2
ATOM      2  C   UNL     1       8.186  -3.424   4.202  1.00  0.00     0.116 C 
BRANCH   2   3
ATOM      3  N   UNL     1       9.432  -3.088   3.532  1.00  0.00    -0.352 N 
ATOM      4  O   UNL     1      11.299  -3.473   2.322  1.00  0.00    -0.269 OA
ATOM      5  C   UNL     1      10.211  -3.877   2.721  1.00  0.00     0.251 C 
ATOM      6  H   UNL     1       9.762  -2.172   3.679  1.00  0.00     0.163 HD
BRANCH   5   7
ATOM      7  C   UNL     1       9.746  -5.232   2.357  1.00  0.00     0.039 A 
ATOM      8  C   UNL     1       8.434  -5.442   1.928  1.00  0.00     0.014 A 
ATOM      9  C   UNL     1      10.637  -6.304   2.456  1.00  0.00     0.014 A 
ATOM     10  C   UNL     1       7.975  -6.738   1.725  1.00  0.00     0.010 A 
ATOM     11  C   UNL     1      10.195  -7.600   2.175  1.00  0.00     0.010 A 
ATOM     12  C   UNL     1       8.853  -7.829   1.835  1.00  0.00    -0.014 A 
BRANCH  12  13
ATOM     13  C   UNL     1       8.357  -9.193   1.526  1.00  0.00     0.031 A 
ATOM     14  C   UNL     1       8.278 -10.252   2.588  1.00  0.00     0.074 A 
ATOM     15  C   UNL     1       7.951  -9.460   0.270  1.00  0.00     0.049 A 
ATOM     16  N   UNL     1       7.859 -11.489   2.489  1.00  0.00    -0.248 NA
ATOM     17  C   UNL     1       8.734  -9.881   3.935  1.00  0.00     0.031 C 
ATOM     18  C   UNL     1       7.992  -8.510  -0.845  1.00  0.00     0.029 A 
ATOM     19  N   UNL     1       7.414 -10.595  -0.280  1.00  0.00    -0.354 N 
ATOM     20  C   UNL     1       8.013 -12.047   3.751  1.00  0.00     0.074 A 
ATOM     21  C   UNL     1       8.590 -11.022   4.595  1.00  0.00     0.031 C 
ATOM     22  C   UNL     1       7.461  -9.086  -1.933  1.00  0.00     0.029 A 
ATOM     23  C   UNL     1       7.103 -10.462  -1.611  1.00  0.00     0.049 A 
ATOM     24  H   UNL     1       7.265 -11.424   0.229  1.00  0.00     0.167 HD
ATOM     25  C   UNL     1       7.692 -13.297   4.164  1.00  0.00     0.037 A 
ATOM     26  C   UNL     1       6.601 -11.356  -2.482  1.00  0.00     0.037 A 
ATOM     27  C   UNL     1       7.108 -14.307   3.318  1.00  0.00     0.049 A 
ATOM     28  C   UNL     1       6.287 -12.743  -2.002  1.00  0.00     0.074 A 
ATOM     29  C   UNL     1       6.715 -15.592   3.652  1.00  0.00     0.029 A 
ATOM     30  N   UNL     1       6.836 -14.147   1.966  1.00  0.00    -0.354 N 
ATOM     31  N   UNL     1       6.404 -13.247  -0.798  1.00  0.00    -0.248 NA
ATOM     32  C   UNL     1       5.773 -13.687  -3.003  1.00  0.00     0.031 C 
ATOM     33  C   UNL     1       6.254 -16.226   2.493  1.00  0.00     0.029 A 
ATOM     34  C   UNL     1       6.306 -15.319   1.447  1.00  0.00     0.049 A 
ATOM     35  H   UNL     1       6.997 -13.323   1.452  1.00  0.00     0.167 HD
ATOM     36  C   UNL     1       5.963 -14.559  -0.890  1.00  0.00     0.074 A 
ATOM     37  C   UNL     1       5.556 -14.766  -2.265  1.00  0.00     0.031 C 
ATOM     38  C   UNL     1       5.905 -15.508   0.076  1.00  0.00     0.037 A 
BRANCH  25  39
ATOM     39  C   UNL     1       7.981 -13.657   5.594  1.00  0.00     0.064 A 
ATOM     40  C   UNL     1       7.231 -13.127   6.655  1.00  0.00     0.173 A 
ATOM     41  C   UNL     1       8.985 -14.588   5.903  1.00  0.00     0.173 A 
ATOM     42  F   UNL     1       6.266 -12.226   6.416  1.00  0.00    -0.203 F 
ATOM     43  C   UNL     1       7.489 -13.500   7.972  1.00  0.00     0.198 A 
ATOM     44  C   UNL     1       9.222 -14.980   7.219  1.00  0.00     0.198 A 
ATOM     45  F   UNL     1       9.727 -15.132   4.927  1.00  0.00    -0.203 F 
ATOM     46  F   UNL     1       6.786 -12.950   8.972  1.00  0.00    -0.200 F 
ATOM     47  C   UNL     1       8.478 -14.431   8.252  1.00  0.00     0.200 A 
ATOM     48  F   UNL     1      10.168 -15.890   7.486  1.00  0.00    -0.200 F 
ATOM     49  F   UNL     1       8.718 -14.796   9.520  1.00  0.00    -0.200 F 
ENDBRANCH  25  39
BRANCH  26  50
ATOM     50  C   UNL     1       6.373 -10.959  -3.895  1.00  0.00     0.064 A 
ATOM     51  C   UNL     1       5.076 -10.845  -4.412  1.00  0.00     0.173 A 
ATOM     52  C   UNL     1       7.446 -10.670  -4.752  1.00  0.00     0.173 A 
ATOM     53  F   UNL     1       4.019 -11.128  -3.636  1.00  0.00    -0.203 F 
ATOM     54  C   UNL     1       4.861 -10.472  -5.737  1.00  0.00     0.198 A 
ATOM     55  C   UNL     1       7.229 -10.267  -6.066  1.00  0.00     0.198 A 
ATOM     56  F   UNL     1       8.707 -10.758  -4.303  1.00  0.00    -0.203 F 
ATOM     57  F   UNL     1       3.612 -10.410  -6.218  1.00  0.00    -0.200 F 
ATOM     58  C   UNL     1       5.937 -10.176  -6.561  1.00  0.00     0.200 A 
ATOM     59  F   UNL     1       8.271  -9.964  -6.852  1.00  0.00    -0.200 F 
ATOM     60  F   UNL     1       5.729  -9.807  -7.832  1.00  0.00    -0.200 F 
ENDBRANCH  26  50
BRANCH  38  61
ATOM     61  C   UNL     1       5.353 -16.847  -0.317  1.00  0.00     0.064 A 
ATOM     62  C   UNL     1       6.075 -17.729  -1.134  1.00  0.00     0.173 A 
ATOM     63  C   UNL     1       4.096 -17.261   0.149  1.00  0.00     0.173 A 
ATOM     64  F   UNL     1       7.274 -17.372  -1.619  1.00  0.00    -0.203 F 
ATOM     65  C   UNL     1       5.547 -18.966  -1.493  1.00  0.00     0.198 A 
ATOM     66  C   UNL     1       3.584 -18.511  -0.187  1.00  0.00     0.198 A 
ATOM     67  F   UNL     1       3.368 -16.456   0.937  1.00  0.00    -0.203 F 
ATOM     68  F   UNL     1       6.231 -19.771  -2.317  1.00  0.00    -0.200 F 
ATOM     69  C   UNL     1       4.306 -19.358  -1.014  1.00  0.00     0.200 A 
ATOM     70  F   UNL     1       2.390 -18.893   0.286  1.00  0.00    -0.200 F 
ATOM     71  F   UNL     1       3.800 -20.551  -1.358  1.00  0.00    -0.200 F 
ENDBRANCH  38  61
ENDBRANCH  12  13
ENDBRANCH   5   7
ENDBRANCH   2   3
ENDBRANCH   1   2
BRANCH   1  72
ATOM     72  C   UNL     1       8.182  -1.295   5.663  1.00  0.00     0.023 C 
BRANCH  72  73
ATOM     73  C   UNL     1       7.135  -0.558   4.822  1.00  0.00     0.116 C 
BRANCH  73  74
ATOM     74  N   UNL     1       5.821  -0.682   5.425  1.00  0.00    -0.356 N 
ATOM     75  C   UNL     1       5.051   0.096   6.216  1.00  0.00     0.228 C 
ATOM     76  H   UNL     1       5.387  -1.538   5.204  1.00  0.00     0.163 HD
ATOM     77  O   UNL     1       4.102  -0.498   6.749  1.00  0.00    -0.274 OA
BRANCH  75  78
ATOM     78  C   UNL     1       5.195   1.613   6.436  1.00  0.00     0.078 C 
ATOM     79  C   UNL     1       5.383   1.826   7.947  1.00  0.00     0.048 C 
ATOM     80  C   UNL     1       6.484   2.285   5.993  1.00  0.00     0.177 C 
ATOM     81  C   UNL     1       6.020   3.198   8.056  1.00  0.00     0.161 C 
ATOM     82  O   UNL     1       6.590   3.487   6.771  1.00  0.00    -0.380 OA
BRANCH  78  83
ATOM     83  C   UNL     1       3.880   2.268   5.824  1.00  0.00     0.012 C 
ATOM     84  C   UNL     1       4.014   3.576   5.032  1.00  0.00     0.033 C 
ATOM     85  C   UNL     1       2.715   2.460   6.832  1.00  0.00     0.043 C 
ATOM     86  C   UNL     1       2.717   3.869   4.265  1.00  0.00     0.161 C 
ATOM     87  C   UNL     1       1.507   3.220   6.225  1.00  0.00     0.094 C 
ATOM     88  O   UNL     1       1.574   3.201   4.802  1.00  0.00    -0.372 OA
ATOM     89  C   UNL     1       0.190   2.608   6.682  1.00  0.00     0.066 C 
ATOM     90  C   UNL     1       1.342   4.640   6.792  1.00  0.00     0.195 C 
ATOM     91  C   UNL     1      -0.024   3.237   8.041  1.00  0.00     0.163 C 
ATOM     92  O   UNL     1       0.555   4.547   7.990  1.00  0.00    -0.378 OA
ENDBRANCH  78  83
ENDBRANCH  75  78
ENDBRANCH  73  74
ENDBRANCH  72  73
ENDBRANCH   1  72
TORSDOF 12
