REMARK SMILES COCc1cc(C)nc(N/N=C\c2ccc(-c3cccc(C(=O)NCCCCNC(=O)c4ccc(-c5c6nc(c(-c7c(F)c(F)c(F)c(F)c7F)c7ccc([nH]7)c(-c7c(F)c(F)c(F)c(F)c7F)c7nc(c(-c8c(F)c(F)c(F)c(F)c8F)c8ccc5[nH]8)C=C7)C=C6)cc4)c3)o2)c1C#N
REMARK SMILES IDX 22 1 23 2 24 3 21 5 17 6 18 7 95 8 19 9 20 10 16 11 13 12
REMARK SMILES IDX 14 13 96 14 15 15 12 16 11 17 10 18 9 20 4 21 5 22 97 23
REMARK SMILES IDX 6 24 7 25 8 26 3 27 2 28 1 29 98 30 99 31 25 32 26 33 27 34
REMARK SMILES IDX 28 35 29 36 30 37 31 39 32 40 33 41 94 42 34 43 93 44 35 45
REMARK SMILES IDX 36 46 37 47 87 48 38 49 92 50 86 51 88 52 39 53 91 54 85 55
REMARK SMILES IDX 84 56 40 58 72 59 52 60 71 61 53 62 56 63 70 64 89 65 54 66
REMARK SMILES IDX 55 67 69 69 90 70 57 71 41 72 42 73 50 74 43 75 44 76 48 77
REMARK SMILES IDX 51 78 45 79 46 80 49 81 47 82 73 83 74 84 82 85 75 86 76 87
REMARK SMILES IDX 80 88 83 89 77 90 78 91 81 92 79 93 58 94 59 95 67 96 60 97
REMARK SMILES IDX 61 98 65 99 68 100 62 101 63 102 66 103 64 104
REMARK H PARENT 24 4 10 19 29 38 88 57 56 68
REMARK Flexibility Score: inf
ROOT
ATOM      1  C   UNL     1      -4.091   0.282  -8.964  1.00  0.00     0.251 C 
ATOM      2  O   UNL     1      -4.269  -0.448  -9.936  1.00  0.00    -0.269 OA
ATOM      3  N   UNL     1      -5.119   0.445  -8.057  1.00  0.00    -0.352 N 
ATOM      4  H   UNL     1      -5.978   0.057  -8.339  1.00  0.00     0.163 HD
ENDROOT
BRANCH   1   5
ATOM      5  C   UNL     1      -2.759   0.909  -8.750  1.00  0.00     0.040 A 
ATOM      6  C   UNL     1      -1.402   2.587  -7.639  1.00  0.00     0.018 A 
ATOM      7  C   UNL     1      -0.251   1.865  -7.977  1.00  0.00     0.012 A 
ATOM      8  C   UNL     1      -2.627   2.153  -8.139  1.00  0.00     0.025 A 
ATOM      9  C   UNL     1      -0.350   0.695  -8.737  1.00  0.00     0.002 A 
ATOM     10  C   UNL     1      -1.606   0.198  -9.095  1.00  0.00     0.014 A 
BRANCH   6  11
ATOM     11  C   UNL     1      -1.411   3.558  -6.547  1.00  0.00     0.134 A 
ATOM     12  C   UNL     1      -0.337   4.677  -5.010  1.00  0.00     0.147 A 
ATOM     13  C   UNL     1      -1.617   4.523  -4.527  1.00  0.00     0.053 A 
ATOM     14  O   UNL     1      -0.240   4.185  -6.279  1.00  0.00    -0.455 OA
ATOM     15  C   UNL     1      -2.320   3.816  -5.532  1.00  0.00     0.051 A 
BRANCH  12  16
ATOM     16  C   UNL     1       0.877   5.152  -4.446  1.00  0.00     0.180 C 
ATOM     17  N   UNL     1       1.556   4.701  -3.434  1.00  0.00    -0.178 NA
BRANCH  17  18
ATOM     18  N   UNL     1       1.162   3.667  -2.641  1.00  0.00    -0.260 N 
ATOM     19  H   UNL     1       1.021   3.884  -1.691  1.00  0.00     0.192 HD
BRANCH  18  20
ATOM     20  C   UNL     1       0.925   2.301  -3.010  1.00  0.00     0.164 A 
ATOM     21  C   UNL     1       1.151  -0.058  -2.411  1.00  0.00     0.001 A 
ATOM     22  C   UNL     1       0.133  -0.349  -3.311  1.00  0.00     0.031 A 
ATOM     23  C   UNL     1       1.574   1.281  -2.281  1.00  0.00     0.102 A 
ATOM     24  C   UNL     1      -0.436   0.679  -4.034  1.00  0.00     0.040 A 
ATOM     25  C   UNL     1      -1.646   0.339  -4.853  1.00  0.00     0.067 C 
ATOM     26  N   UNL     1      -0.048   1.977  -3.900  1.00  0.00    -0.233 NA
BRANCH  21  27
ATOM     27  C   UNL     1       1.617  -1.175  -1.511  1.00  0.00     0.196 C 
BRANCH  27  28
ATOM     28  O   UNL     1       0.669  -1.396  -0.465  1.00  0.00    -0.380 OA
ATOM     29  C   UNL     1       0.759  -0.452   0.596  1.00  0.00     0.195 C 
ENDBRANCH  27  28
ENDBRANCH  21  27
BRANCH  23  30
ATOM     30  C   UNL     1       2.598   1.611  -1.344  1.00  0.00     0.103 C 
ATOM     31  N   UNL     1       3.395   1.873  -0.534  1.00  0.00    -0.192 NA
ENDBRANCH  23  30
ENDBRANCH  18  20
ENDBRANCH  17  18
ENDBRANCH  12  16
ENDBRANCH   6  11
ENDBRANCH   1   5
BRANCH   3  32
ATOM     32  C   UNL     1      -5.146   1.093  -6.756  1.00  0.00     0.116 C 
BRANCH  32  33
ATOM     33  C   UNL     1      -5.761   2.495  -6.824  1.00  0.00     0.023 C 
BRANCH  33  34
ATOM     34  C   UNL     1      -7.278   2.525  -6.901  1.00  0.00     0.023 C 
BRANCH  34  35
ATOM     35  C   UNL     1      -7.974   1.933  -5.690  1.00  0.00     0.116 C 
BRANCH  35  36
ATOM     36  N   UNL     1      -7.640   2.609  -4.444  1.00  0.00    -0.352 N 
ATOM     37  C   UNL     1      -8.487   3.025  -3.445  1.00  0.00     0.251 C 
ATOM     38  H   UNL     1      -6.683   2.791  -4.298  1.00  0.00     0.163 HD
ATOM     39  O   UNL     1      -8.072   3.700  -2.511  1.00  0.00    -0.269 OA
BRANCH  37  40
ATOM     40  C   UNL     1      -9.919   2.678  -3.539  1.00  0.00     0.039 A 
ATOM     41  C   UNL     1     -10.872   3.680  -3.361  1.00  0.00     0.014 A 
ATOM     42  C   UNL     1     -10.308   1.379  -3.879  1.00  0.00     0.014 A 
ATOM     43  C   UNL     1     -12.216   3.395  -3.597  1.00  0.00     0.010 A 
ATOM     44  C   UNL     1     -11.630   1.126  -4.215  1.00  0.00     0.010 A 
ATOM     45  C   UNL     1     -12.601   2.128  -4.071  1.00  0.00    -0.014 A 
BRANCH  45  46
ATOM     46  C   UNL     1     -14.013   1.831  -4.416  1.00  0.00     0.031 A 
ATOM     47  C   UNL     1     -14.756   0.753  -3.677  1.00  0.00     0.074 A 
ATOM     48  C   UNL     1     -14.607   2.491  -5.429  1.00  0.00     0.049 A 
ATOM     49  N   UNL     1     -15.972   0.307  -3.866  1.00  0.00    -0.248 NA
ATOM     50  C   UNL     1     -14.026   0.064  -2.601  1.00  0.00     0.031 C 
ATOM     51  C   UNL     1     -13.975   3.523  -6.253  1.00  0.00     0.029 A 
ATOM     52  N   UNL     1     -15.874   2.386  -5.946  1.00  0.00    -0.354 N 
ATOM     53  C   UNL     1     -16.146  -0.713  -2.941  1.00  0.00     0.074 A 
ATOM     54  C   UNL     1     -14.891  -0.870  -2.240  1.00  0.00     0.031 C 
ATOM     55  C   UNL     1     -14.865   3.977  -7.149  1.00  0.00     0.029 A 
ATOM     56  C   UNL     1     -16.113   3.235  -6.999  1.00  0.00     0.049 A 
ATOM     57  H   UNL     1     -16.549   1.761  -5.594  1.00  0.00     0.167 HD
ATOM     58  C   UNL     1     -17.262  -1.433  -2.678  1.00  0.00     0.037 A 
ATOM     59  C   UNL     1     -17.210   3.388  -7.765  1.00  0.00     0.037 A 
ATOM     60  C   UNL     1     -18.511  -1.267  -3.374  1.00  0.00     0.049 A 
ATOM     61  C   UNL     1     -18.426   2.548  -7.476  1.00  0.00     0.074 A 
ATOM     62  C   UNL     1     -19.713  -1.915  -3.154  1.00  0.00     0.029 A 
ATOM     63  N   UNL     1     -18.715  -0.397  -4.435  1.00  0.00    -0.354 N 
ATOM     64  N   UNL     1     -18.604   1.637  -6.551  1.00  0.00    -0.248 NA
ATOM     65  C   UNL     1     -19.598   2.763  -8.336  1.00  0.00     0.031 C 
ATOM     66  C   UNL     1     -20.623  -1.488  -4.125  1.00  0.00     0.029 A 
ATOM     67  C   UNL     1     -20.015  -0.515  -4.901  1.00  0.00     0.049 A 
ATOM     68  H   UNL     1     -18.036   0.215  -4.803  1.00  0.00     0.167 HD
ATOM     69  C   UNL     1     -19.913   1.196  -6.694  1.00  0.00     0.074 A 
ATOM     70  C   UNL     1     -20.489   1.952  -7.786  1.00  0.00     0.031 C 
ATOM     71  C   UNL     1     -20.578   0.250  -5.985  1.00  0.00     0.037 A 
BRANCH  58  72
ATOM     72  C   UNL     1     -17.180  -2.470  -1.593  1.00  0.00     0.064 A 
ATOM     73  C   UNL     1     -17.006  -2.118  -0.245  1.00  0.00     0.173 A 
ATOM     74  C   UNL     1     -17.308  -3.834  -1.900  1.00  0.00     0.173 A 
ATOM     75  F   UNL     1     -16.866  -0.830   0.105  1.00  0.00    -0.203 F 
ATOM     76  C   UNL     1     -16.926  -3.092   0.747  1.00  0.00     0.198 A 
ATOM     77  C   UNL     1     -17.268  -4.802  -0.900  1.00  0.00     0.198 A 
ATOM     78  F   UNL     1     -17.482  -4.228  -3.170  1.00  0.00    -0.203 F 
ATOM     79  F   UNL     1     -16.697  -2.733   2.018  1.00  0.00    -0.200 F 
ATOM     80  C   UNL     1     -17.066  -4.432   0.420  1.00  0.00     0.200 A 
ATOM     81  F   UNL     1     -17.420  -6.095  -1.216  1.00  0.00    -0.200 F 
ATOM     82  F   UNL     1     -16.997  -5.367   1.377  1.00  0.00    -0.200 F 
ENDBRANCH  58  72
BRANCH  59  83
ATOM     83  C   UNL     1     -17.214   4.382  -8.872  1.00  0.00     0.064 A 
ATOM     84  C   UNL     1     -18.042   5.513  -8.828  1.00  0.00     0.173 A 
ATOM     85  C   UNL     1     -16.401   4.216 -10.004  1.00  0.00     0.173 A 
ATOM     86  F   UNL     1     -18.852   5.708  -7.777  1.00  0.00    -0.203 F 
ATOM     87  C   UNL     1     -18.080   6.421  -9.884  1.00  0.00     0.198 A 
ATOM     88  C   UNL     1     -16.412   5.144 -11.043  1.00  0.00     0.198 A 
ATOM     89  F   UNL     1     -15.584   3.156 -10.095  1.00  0.00    -0.203 F 
ATOM     90  F   UNL     1     -18.924   7.460  -9.841  1.00  0.00    -0.200 F 
ATOM     91  C   UNL     1     -17.260   6.239 -10.988  1.00  0.00     0.200 A 
ATOM     92  F   UNL     1     -15.604   4.975 -12.098  1.00  0.00    -0.200 F 
ATOM     93  F   UNL     1     -17.294   7.115 -12.002  1.00  0.00    -0.200 F 
ENDBRANCH  59  83
BRANCH  71  94
ATOM     94  C   UNL     1     -22.020   0.009  -6.334  1.00  0.00     0.064 A 
ATOM     95  C   UNL     1     -22.403  -0.586  -7.545  1.00  0.00     0.173 A 
ATOM     96  C   UNL     1     -23.033   0.344  -5.421  1.00  0.00     0.173 A 
ATOM     97  F   UNL     1     -21.477  -0.915  -8.459  1.00  0.00    -0.203 F 
ATOM     98  C   UNL     1     -23.746  -0.807  -7.842  1.00  0.00     0.198 A 
ATOM     99  C   UNL     1     -24.371   0.086  -5.704  1.00  0.00     0.198 A 
ATOM    100  F   UNL     1     -22.724   0.908  -4.243  1.00  0.00    -0.203 F 
ATOM    101  F   UNL     1     -24.091  -1.323  -9.030  1.00  0.00    -0.200 F 
ATOM    102  C   UNL     1     -24.727  -0.480  -6.918  1.00  0.00     0.200 A 
ATOM    103  F   UNL     1     -25.315   0.384  -4.801  1.00  0.00    -0.200 F 
ATOM    104  F   UNL     1     -26.018  -0.703  -7.202  1.00  0.00    -0.200 F 
ENDBRANCH  71  94
ENDBRANCH  45  46
ENDBRANCH  37  40
ENDBRANCH  35  36
ENDBRANCH  34  35
ENDBRANCH  33  34
ENDBRANCH  32  33
ENDBRANCH   3  32
TORSDOF 18
