REMARK SMILES C[C@](NC(=O)[C@](C)([NH3+])C(F)(F)F)(C(=O)NCCCCNC(=O)c1ccc(-c2c3nc(c(-c4c(F)c(F)c(F)c(F)c4F)c4ccc([nH]4)c(-c4c(F)c(F)c(F)c(F)c4F)c4nc(c(-c5c(F)c(F)c(F)c(F)c5F)c5ccc2[nH]5)C=C4)C=C3)cc1)c1ccccc1
REMARK SMILES IDX 17 1 16 2 15 3 13 4 14 5 2 7 1 8 86 9 87 10 91 11 88 12
REMARK SMILES IDX 90 13 89 14 3 15 4 16 5 18 6 19 7 20 8 21 9 25 10 26 11 27
REMARK SMILES IDX 12 28 18 29 19 30 20 31 21 32 22 34 23 35 24 36 85 37 25 38
REMARK SMILES IDX 84 39 26 40 27 41 28 42 78 43 29 44 83 45 77 46 79 47 30 48
REMARK SMILES IDX 82 49 76 50 75 51 31 53 63 54 43 55 62 56 44 57 47 58 61 59
REMARK SMILES IDX 80 60 45 61 46 62 60 64 81 65 48 66 32 67 33 68 41 69 34 70
REMARK SMILES IDX 35 71 39 72 42 73 36 74 37 75 40 76 38 77 64 78 65 79 73 80
REMARK SMILES IDX 66 81 67 82 71 83 74 84 68 85 69 86 72 87 70 88 49 89 50 90
REMARK SMILES IDX 58 91 51 92 52 93 56 94 59 95 53 96 54 97 57 98 55 99
REMARK H PARENT 15 6 3 17 8 22 8 23 8 24 20 33 79 52 47 63
REMARK Flexibility Score: inf
ROOT
ATOM      1  C   UNL     1       1.180   5.958   1.439  1.00  0.00     0.023 C 
ENDROOT
BRANCH   1   2
ATOM      2  C   UNL     1       2.585   5.439   1.713  1.00  0.00     0.116 C 
BRANCH   2   3
ATOM      3  N   UNL     1       2.979   5.658   3.093  1.00  0.00    -0.354 N 
ATOM      4  C   UNL     1       3.641   4.852   3.984  1.00  0.00     0.250 C 
ATOM      5  O   UNL     1       4.087   5.443   4.974  1.00  0.00    -0.272 OA
ATOM      6  H   UNL     1       2.727   6.539   3.453  1.00  0.00     0.163 HD
BRANCH   4   7
ATOM      7  C   UNL     1       3.985   3.332   3.635  1.00  0.00     0.142 C 
ATOM      8  C   UNL     1       5.195   3.524   2.710  1.00  0.00     0.051 C 
BRANCH   7   9
ATOM      9  C   UNL     1       4.350   2.494   4.881  1.00  0.00    -0.013 A 
ATOM     10  C   UNL     1       3.911   2.834   6.175  1.00  0.00     0.007 A 
ATOM     11  C   UNL     1       5.127   1.325   4.762  1.00  0.00     0.007 A 
ATOM     12  C   UNL     1       4.321   2.111   7.300  1.00  0.00     0.000 A 
ATOM     13  C   UNL     1       5.521   0.589   5.884  1.00  0.00     0.000 A 
ATOM     14  C   UNL     1       5.136   0.995   7.155  1.00  0.00     0.000 A 
ENDBRANCH   7   9
BRANCH   7  15
ATOM     15  N   UNL     1       2.728   2.772   3.065  1.00  0.00    -0.332 N 
ATOM     16  C   UNL     1       2.183   1.973   2.132  1.00  0.00     0.291 C 
ATOM     17  H   UNL     1       1.985   3.144   3.592  1.00  0.00     0.165 HD
ATOM     18  O   UNL     1       0.940   1.988   2.209  1.00  0.00    -0.267 OA
BRANCH  16  19
ATOM     19  C   UNL     1       2.846   1.019   1.100  1.00  0.00     0.267 C 
ATOM     20  C   UNL     1       1.734   0.614   0.091  1.00  0.00     0.100 C 
BRANCH  19  21
ATOM     21  N   UNL     1       3.228  -0.235   1.831  1.00  0.00    -0.337 N 
ATOM     22  H   UNL     1       3.668  -0.887   1.182  1.00  0.00     0.345 HD
ATOM     23  H   UNL     1       2.392  -0.664   2.229  1.00  0.00     0.345 HD
ATOM     24  H   UNL     1       3.882  -0.007   2.579  1.00  0.00     0.345 HD
ENDBRANCH  19  21
BRANCH  19  25
ATOM     25  C   UNL     1       3.946   1.682   0.251  1.00  0.00     0.453 C 
ATOM     26  F   UNL     1       4.148   1.036  -0.925  1.00  0.00    -0.164 F 
ATOM     27  F   UNL     1       3.647   2.964  -0.062  1.00  0.00    -0.164 F 
ATOM     28  F   UNL     1       5.140   1.671   0.876  1.00  0.00    -0.164 F 
ENDBRANCH  19  25
ENDBRANCH  16  19
ENDBRANCH   7  15
ENDBRANCH   4   7
ENDBRANCH   2   3
ENDBRANCH   1   2
BRANCH   1  29
ATOM     29  C   UNL     1       1.080   7.482   1.428  1.00  0.00     0.023 C 
BRANCH  29  30
ATOM     30  C   UNL     1       1.987   8.169   0.414  1.00  0.00     0.116 C 
BRANCH  30  31
ATOM     31  N   UNL     1       1.698   7.776  -0.957  1.00  0.00    -0.352 N 
ATOM     32  C   UNL     1       1.463   8.576  -2.051  1.00  0.00     0.251 C 
ATOM     33  H   UNL     1       1.667   6.806  -1.124  1.00  0.00     0.163 HD
ATOM     34  O   UNL     1       1.072   8.096  -3.104  1.00  0.00    -0.269 OA
BRANCH  32  35
ATOM     35  C   UNL     1       1.662  10.034  -1.925  1.00  0.00     0.039 A 
ATOM     36  C   UNL     1       0.656  10.894  -2.368  1.00  0.00     0.014 A 
ATOM     37  C   UNL     1       2.820  10.543  -1.331  1.00  0.00     0.014 A 
ATOM     38  C   UNL     1       0.782  12.267  -2.150  1.00  0.00     0.010 A 
ATOM     39  C   UNL     1       2.904  11.899  -1.039  1.00  0.00     0.010 A 
ATOM     40  C   UNL     1       1.887  12.776  -1.448  1.00  0.00    -0.014 A 
BRANCH  40  41
ATOM     41  C   UNL     1       1.997  14.221  -1.129  1.00  0.00     0.031 A 
ATOM     42  C   UNL     1       3.130  15.033  -1.692  1.00  0.00     0.074 A 
ATOM     43  C   UNL     1       1.115  14.787  -0.282  1.00  0.00     0.049 A 
ATOM     44  N   UNL     1       3.433  16.290  -1.483  1.00  0.00    -0.248 NA
ATOM     45  C   UNL     1       4.065  14.332  -2.587  1.00  0.00     0.031 C 
ATOM     46  C   UNL     1       0.002  14.093   0.368  1.00  0.00     0.029 A 
ATOM     47  N   UNL     1       1.022  16.074   0.186  1.00  0.00    -0.354 N 
ATOM     48  C   UNL     1       4.596  16.522  -2.205  1.00  0.00     0.074 A 
ATOM     49  C   UNL     1       4.978  15.265  -2.810  1.00  0.00     0.031 C 
ATOM     50  C   UNL     1      -0.679  14.967   1.125  1.00  0.00     0.029 A 
ATOM     51  C   UNL     1      -0.028  16.271   1.050  1.00  0.00     0.049 A 
ATOM     52  H   UNL     1       1.648  16.788  -0.073  1.00  0.00     0.167 HD
ATOM     53  C   UNL     1       5.270  17.685  -2.368  1.00  0.00     0.037 A 
ATOM     54  C   UNL     1      -0.415  17.378   1.712  1.00  0.00     0.037 A 
ATOM     55  C   UNL     1       4.872  18.938  -1.783  1.00  0.00     0.049 A 
ATOM     56  C   UNL     1       0.361  18.654   1.525  1.00  0.00     0.074 A 
ATOM     57  C   UNL     1       5.449  20.186  -1.942  1.00  0.00     0.029 A 
ATOM     58  N   UNL     1       3.799  19.101  -0.919  1.00  0.00    -0.354 N 
ATOM     59  N   UNL     1       1.414  18.882   0.777  1.00  0.00    -0.248 NA
ATOM     60  C   UNL     1      -0.108  19.830   2.271  1.00  0.00     0.031 C 
ATOM     61  C   UNL     1       4.761  21.092  -1.128  1.00  0.00     0.029 A 
ATOM     62  C   UNL     1       3.716  20.424  -0.512  1.00  0.00     0.049 A 
ATOM     63  H   UNL     1       3.187  18.384  -0.636  1.00  0.00     0.167 HD
ATOM     64  C   UNL     1       1.712  20.229   0.936  1.00  0.00     0.074 A 
ATOM     65  C   UNL     1       0.719  20.771   1.840  1.00  0.00     0.031 C 
ATOM     66  C   UNL     1       2.716  20.951   0.382  1.00  0.00     0.037 A 
BRANCH  53  67
ATOM     67  C   UNL     1       6.513  17.657  -3.212  1.00  0.00     0.064 A 
ATOM     68  C   UNL     1       6.460  17.443  -4.598  1.00  0.00     0.173 A 
ATOM     69  C   UNL     1       7.771  17.881  -2.633  1.00  0.00     0.173 A 
ATOM     70  F   UNL     1       5.284  17.212  -5.202  1.00  0.00    -0.203 F 
ATOM     71  C   UNL     1       7.621  17.422  -5.366  1.00  0.00     0.198 A 
ATOM     72  C   UNL     1       8.927  17.894  -3.409  1.00  0.00     0.198 A 
ATOM     73  F   UNL     1       7.880  18.096  -1.313  1.00  0.00    -0.203 F 
ATOM     74  F   UNL     1       7.550  17.161  -6.679  1.00  0.00    -0.200 F 
ATOM     75  C   UNL     1       8.852  17.656  -4.773  1.00  0.00     0.200 A 
ATOM     76  F   UNL     1      10.114  18.136  -2.836  1.00  0.00    -0.200 F 
ATOM     77  F   UNL     1       9.968  17.645  -5.515  1.00  0.00    -0.200 F 
ENDBRANCH  53  67
BRANCH  54  78
ATOM     78  C   UNL     1      -1.612  17.339   2.594  1.00  0.00     0.064 A 
ATOM     79  C   UNL     1      -2.778  18.040   2.256  1.00  0.00     0.173 A 
ATOM     80  C   UNL     1      -1.614  16.612   3.794  1.00  0.00     0.173 A 
ATOM     81  F   UNL     1      -2.819  18.766   1.129  1.00  0.00    -0.203 F 
ATOM     82  C   UNL     1      -3.891  18.036   3.095  1.00  0.00     0.198 A 
ATOM     83  C   UNL     1      -2.738  16.584   4.617  1.00  0.00     0.198 A 
ATOM     84  F   UNL     1      -0.526  15.920   4.162  1.00  0.00    -0.203 F 
ATOM     85  F   UNL     1      -4.973  18.757   2.771  1.00  0.00    -0.200 F 
ATOM     86  C   UNL     1      -3.872  17.303   4.272  1.00  0.00     0.200 A 
ATOM     87  F   UNL     1      -2.722  15.861   5.745  1.00  0.00    -0.200 F 
ATOM     88  F   UNL     1      -4.943  17.298   5.077  1.00  0.00    -0.200 F 
ENDBRANCH  54  78
BRANCH  66  89
ATOM     89  C   UNL     1       2.770  22.418   0.703  1.00  0.00     0.064 A 
ATOM     90  C   UNL     1       3.126  22.884   1.977  1.00  0.00     0.173 A 
ATOM     91  C   UNL     1       2.500  23.370  -0.293  1.00  0.00     0.173 A 
ATOM     92  F   UNL     1       3.379  22.016   2.967  1.00  0.00    -0.203 F 
ATOM     93  C   UNL     1       3.182  24.249   2.250  1.00  0.00     0.198 A 
ATOM     94  C   UNL     1       2.591  24.733  -0.026  1.00  0.00     0.198 A 
ATOM     95  F   UNL     1       2.163  22.978  -1.531  1.00  0.00    -0.203 F 
ATOM     96  F   UNL     1       3.472  24.671   3.488  1.00  0.00    -0.200 F 
ATOM     97  C   UNL     1       2.923  25.171   1.247  1.00  0.00     0.200 A 
ATOM     98  F   UNL     1       2.357  25.622  -1.001  1.00  0.00    -0.200 F 
ATOM     99  F   UNL     1       2.986  26.484   1.509  1.00  0.00    -0.200 F 
ENDBRANCH  66  89
ENDBRANCH  40  41
ENDBRANCH  32  35
ENDBRANCH  30  31
ENDBRANCH  29  30
ENDBRANCH   1  29
TORSDOF 16
