REMARK SMILES O=C(C[C@](O)(c1ccco1)C(F)(F)F)NCCCCNC(=O)c1ccc(-c2c3nc(c(-c4c(F)c(F)c(F)c(F)c4F)c4ccc([nH]4)c(-c4c(F)c(F)c(F)c(F)c4F)c4nc(c(-c5c(F)c(F)c(F)c(F)c5F)c5ccc2[nH]5)C=C4)C=C3)cc1
REMARK SMILES IDX 17 1 16 2 15 3 1 4 2 5 3 7 4 8 6 9 7 10 10 11 8 12 9 13
REMARK SMILES IDX 11 14 12 15 13 16 14 17 5 18 18 20 19 21 20 22 21 23 22 25
REMARK SMILES IDX 23 26 24 27 85 28 25 29 84 30 26 31 27 32 28 33 78 34 29 35
REMARK SMILES IDX 83 36 77 37 79 38 30 39 82 40 76 41 75 42 31 44 63 45 43 46
REMARK SMILES IDX 62 47 44 48 47 49 61 50 80 51 45 52 46 53 60 55 81 56 48 57
REMARK SMILES IDX 32 58 33 59 41 60 34 61 35 62 39 63 42 64 36 65 37 66 40 67
REMARK SMILES IDX 38 68 64 69 65 70 73 71 66 72 67 73 71 74 74 75 68 76 69 77
REMARK SMILES IDX 72 78 70 79 49 80 50 81 58 82 51 83 52 84 56 85 59 86 53 87
REMARK SMILES IDX 54 88 57 89 55 90
REMARK H PARENT 15 6 5 19 20 24 79 43 47 54
REMARK Flexibility Score: inf
ROOT
ATOM      1  C   UNL     1       3.343   0.733   5.327  1.00  0.00     0.023 C 
ENDROOT
BRANCH   1   2
ATOM      2  C   UNL     1       2.995   0.230   3.927  1.00  0.00     0.116 C 
BRANCH   2   3
ATOM      3  N   UNL     1       3.760   0.889   2.885  1.00  0.00    -0.356 N 
ATOM      4  O   UNL     1       3.708  -0.894   1.436  1.00  0.00    -0.275 OA
ATOM      5  C   UNL     1       3.999   0.273   1.675  1.00  0.00     0.223 C 
ATOM      6  H   UNL     1       4.115   1.793   3.044  1.00  0.00     0.163 HD
BRANCH   5   7
ATOM      7  C   UNL     1       4.652   1.164   0.645  1.00  0.00     0.153 C 
BRANCH   7   8
ATOM      8  C   UNL     1       3.635   1.922  -0.231  1.00  0.00     0.227 C 
BRANCH   8   9
ATOM      9  C   UNL     1       4.389   2.901  -1.102  1.00  0.00     0.145 A 
ATOM     10  C   UNL     1       4.486   4.279  -1.169  1.00  0.00     0.049 A 
ATOM     11  O   UNL     1       5.176   2.343  -2.076  1.00  0.00    -0.466 OA
ATOM     12  C   UNL     1       5.358   4.572  -2.246  1.00  0.00     0.042 A 
ATOM     13  C   UNL     1       5.751   3.361  -2.763  1.00  0.00     0.195 A 
ENDBRANCH   8   9
BRANCH   8  14
ATOM     14  C   UNL     1       2.562   2.645   0.623  1.00  0.00     0.425 C 
ATOM     15  F   UNL     1       1.804   3.505  -0.099  1.00  0.00    -0.167 F 
ATOM     16  F   UNL     1       1.705   1.793   1.232  1.00  0.00    -0.167 F 
ATOM     17  F   UNL     1       3.147   3.374   1.614  1.00  0.00    -0.167 F 
ENDBRANCH   8  14
BRANCH   8  18
ATOM     18  O   UNL     1       3.022   0.999  -1.156  1.00  0.00    -0.374 OA
ATOM     19  H   UNL     1       2.381   1.474  -1.709  1.00  0.00     0.212 HD
ENDBRANCH   8  18
ENDBRANCH   7   8
ENDBRANCH   5   7
ENDBRANCH   2   3
ENDBRANCH   1   2
BRANCH   1  20
ATOM     20  C   UNL     1       3.138   2.233   5.561  1.00  0.00     0.023 C 
BRANCH  20  21
ATOM     21  C   UNL     1       1.719   2.747   5.334  1.00  0.00     0.116 C 
BRANCH  21  22
ATOM     22  N   UNL     1       0.779   2.245   6.324  1.00  0.00    -0.352 N 
ATOM     23  C   UNL     1      -0.025   2.929   7.202  1.00  0.00     0.251 C 
ATOM     24  H   UNL     1       0.708   1.265   6.372  1.00  0.00     0.163 HD
ATOM     25  O   UNL     1      -0.628   2.313   8.083  1.00  0.00    -0.269 OA
BRANCH  23  26
ATOM     26  C   UNL     1      -0.159   4.402   7.127  1.00  0.00     0.039 A 
ATOM     27  C   UNL     1      -0.154   5.140   8.315  1.00  0.00     0.014 A 
ATOM     28  C   UNL     1      -0.317   5.059   5.904  1.00  0.00     0.014 A 
ATOM     29  C   UNL     1      -0.235   6.535   8.273  1.00  0.00     0.010 A 
ATOM     30  C   UNL     1      -0.327   6.454   5.858  1.00  0.00     0.010 A 
ATOM     31  C   UNL     1      -0.283   7.207   7.041  1.00  0.00    -0.014 A 
BRANCH  31  32
ATOM     32  C   UNL     1      -0.274   8.693   6.973  1.00  0.00     0.031 A 
ATOM     33  C   UNL     1      -1.451   9.438   6.407  1.00  0.00     0.074 A 
ATOM     34  C   UNL     1       0.824   9.372   7.360  1.00  0.00     0.049 A 
ATOM     35  N   UNL     1      -1.594  10.723   6.193  1.00  0.00    -0.248 NA
ATOM     36  C   UNL     1      -2.612   8.630   6.005  1.00  0.00     0.031 C 
ATOM     37  C   UNL     1       2.049   8.768   7.886  1.00  0.00     0.029 A 
ATOM     38  N   UNL     1       1.094  10.719   7.357  1.00  0.00    -0.354 N 
ATOM     39  C   UNL     1      -2.852  10.874   5.624  1.00  0.00     0.074 A 
ATOM     40  C   UNL     1      -3.410   9.547   5.476  1.00  0.00     0.031 C 
ATOM     41  C   UNL     1       2.932   9.738   8.169  1.00  0.00     0.029 A 
ATOM     42  C   UNL     1       2.353  11.029   7.809  1.00  0.00     0.049 A 
ATOM     43  H   UNL     1       0.446  11.397   7.059  1.00  0.00     0.167 HD
ATOM     44  C   UNL     1      -3.493  12.017   5.276  1.00  0.00     0.037 A 
ATOM     45  C   UNL     1       2.977  12.219   7.911  1.00  0.00     0.037 A 
ATOM     46  C   UNL     1      -2.945  13.339   5.440  1.00  0.00     0.049 A 
ATOM     47  C   UNL     1       2.249  13.472   7.508  1.00  0.00     0.074 A 
ATOM     48  C   UNL     1      -3.538  14.559   5.165  1.00  0.00     0.029 A 
ATOM     49  N   UNL     1      -1.673  13.614   5.919  1.00  0.00    -0.354 N 
ATOM     50  N   UNL     1       1.037  13.607   7.028  1.00  0.00    -0.248 NA
ATOM     51  C   UNL     1       2.974  14.740   7.667  1.00  0.00     0.031 C 
ATOM     52  C   UNL     1      -2.609  15.570   5.434  1.00  0.00     0.029 A 
ATOM     53  C   UNL     1      -1.455  14.983   5.927  1.00  0.00     0.049 A 
ATOM     54  H   UNL     1      -1.020  12.936   6.211  1.00  0.00     0.167 HD
ATOM     55  C   UNL     1       0.844  14.970   6.854  1.00  0.00     0.074 A 
ATOM     56  C   UNL     1       2.059  15.623   7.294  1.00  0.00     0.031 C 
ATOM     57  C   UNL     1      -0.243  15.622   6.373  1.00  0.00     0.037 A 
BRANCH  44  58
ATOM     58  C   UNL     1      -4.867  11.888   4.684  1.00  0.00     0.064 A 
ATOM     59  C   UNL     1      -5.964  11.474   5.455  1.00  0.00     0.173 A 
ATOM     60  C   UNL     1      -5.099  12.217   3.340  1.00  0.00     0.173 A 
ATOM     61  F   UNL     1      -5.795  11.139   6.743  1.00  0.00    -0.203 F 
ATOM     62  C   UNL     1      -7.234  11.364   4.895  1.00  0.00     0.198 A 
ATOM     63  C   UNL     1      -6.376  12.136   2.791  1.00  0.00     0.198 A 
ATOM     64  F   UNL     1      -4.087  12.627   2.559  1.00  0.00    -0.203 F 
ATOM     65  F   UNL     1      -8.256  10.918   5.639  1.00  0.00    -0.200 F 
ATOM     66  C   UNL     1      -7.441  11.702   3.566  1.00  0.00     0.200 A 
ATOM     67  F   UNL     1      -6.577  12.478   1.511  1.00  0.00    -0.200 F 
ATOM     68  F   UNL     1      -8.665  11.603   3.031  1.00  0.00    -0.200 F 
ENDBRANCH  44  58
BRANCH  45  69
ATOM     69  C   UNL     1       4.367  12.282   8.435  1.00  0.00     0.064 A 
ATOM     70  C   UNL     1       4.640  12.848   9.688  1.00  0.00     0.173 A 
ATOM     71  C   UNL     1       5.449  11.782   7.695  1.00  0.00     0.173 A 
ATOM     72  F   UNL     1       3.642  13.360  10.422  1.00  0.00    -0.203 F 
ATOM     73  C   UNL     1       5.944  12.930  10.172  1.00  0.00     0.198 A 
ATOM     74  C   UNL     1       6.748  11.837   8.194  1.00  0.00     0.198 A 
ATOM     75  F   UNL     1       5.241  11.226   6.492  1.00  0.00    -0.203 F 
ATOM     76  F   UNL     1       6.182  13.517  11.353  1.00  0.00    -0.200 F 
ATOM     77  C   UNL     1       6.996  12.418   9.428  1.00  0.00     0.200 A 
ATOM     78  F   UNL     1       7.761  11.329   7.477  1.00  0.00    -0.200 F 
ATOM     79  F   UNL     1       8.249  12.492   9.897  1.00  0.00    -0.200 F 
ENDBRANCH  45  69
BRANCH  57  80
ATOM     80  C   UNL     1      -0.183  17.122   6.327  1.00  0.00     0.064 A 
ATOM     81  C   UNL     1       0.622  17.800   5.401  1.00  0.00     0.173 A 
ATOM     82  C   UNL     1      -0.972  17.890   7.198  1.00  0.00     0.173 A 
ATOM     83  F   UNL     1       1.407  17.112   4.557  1.00  0.00    -0.203 F 
ATOM     84  C   UNL     1       0.654  19.192   5.364  1.00  0.00     0.198 A 
ATOM     85  C   UNL     1      -0.961  19.280   7.138  1.00  0.00     0.198 A 
ATOM     86  F   UNL     1      -1.764  17.290   8.099  1.00  0.00    -0.203 F 
ATOM     87  F   UNL     1       1.467  19.819   4.502  1.00  0.00    -0.200 F 
ATOM     88  C   UNL     1      -0.142  19.930   6.227  1.00  0.00     0.200 A 
ATOM     89  F   UNL     1      -1.741  19.992   7.963  1.00  0.00    -0.200 F 
ATOM     90  F   UNL     1      -0.115  21.270   6.185  1.00  0.00    -0.200 F 
ENDBRANCH  57  80
ENDBRANCH  31  32
ENDBRANCH  23  26
ENDBRANCH  21  22
ENDBRANCH  20  21
ENDBRANCH   1  20
TORSDOF 15
