REMARK SMILES O=C(NCCCCNC(=O)[C@@H](NC(=O)c1ccncc1Cl)C1CC1)c1ccc(-c2c3nc(c(-c4c(F)c(F)c(F)c(F)c4F)c4ccc([nH]4)c(-c4c(F)c(F)c(F)c(F)c4F)c4nc(c(-c5c(F)c(F)c(F)c(F)c5F)c5ccc2[nH]5)C=C4)C=C3)cc1
REMARK SMILES IDX 5 1 4 2 3 3 1 4 2 5 25 7 26 8 87 9 27 10 86 11 28 12 29 13
REMARK SMILES IDX 30 14 80 15 31 16 85 17 79 18 81 19 32 20 84 21 78 22 77 23
REMARK SMILES IDX 33 25 65 26 45 27 64 28 46 29 49 30 63 31 82 32 47 33 48 34
REMARK SMILES IDX 62 36 83 37 50 38 34 39 35 40 43 41 36 42 37 43 41 44 44 45
REMARK SMILES IDX 38 46 39 47 42 48 40 49 66 50 67 51 75 52 68 53 69 54 73 55
REMARK SMILES IDX 76 56 70 57 71 58 74 59 72 60 51 61 52 62 60 63 53 64 54 65
REMARK SMILES IDX 58 66 61 67 55 68 56 69 59 70 57 71 6 72 7 73 8 74 9 75
REMARK SMILES IDX 10 77 11 78 12 79 13 80 14 82 15 83 16 84 20 85 17 86 19 87
REMARK SMILES IDX 21 88 18 89 22 90 23 91 24 92
REMARK H PARENT 3 6 81 24 49 35 8 76 12 81
REMARK Flexibility Score: inf
ROOT
ATOM      1  C   UNL     1       4.759   1.462  -2.265  1.00  0.00     0.023 C 
ENDROOT
BRANCH   1   2
ATOM      2  C   UNL     1       4.464   0.880  -0.889  1.00  0.00     0.116 C 
BRANCH   2   3
ATOM      3  N   UNL     1       3.052   0.920  -0.537  1.00  0.00    -0.352 N 
ATOM      4  O   UNL     1       1.097   0.063   0.223  1.00  0.00    -0.269 OA
ATOM      5  C   UNL     1       2.310  -0.055   0.087  1.00  0.00     0.251 C 
ATOM      6  H   UNL     1       2.570   1.746  -0.774  1.00  0.00     0.163 HD
BRANCH   5   7
ATOM      7  C   UNL     1       3.004  -1.265   0.566  1.00  0.00     0.039 A 
ATOM      8  C   UNL     1       4.159  -1.139   1.341  1.00  0.00     0.014 A 
ATOM      9  C   UNL     1       2.535  -2.524   0.183  1.00  0.00     0.014 A 
ATOM     10  C   UNL     1       4.924  -2.264   1.613  1.00  0.00     0.010 A 
ATOM     11  C   UNL     1       3.261  -3.664   0.536  1.00  0.00     0.010 A 
ATOM     12  C   UNL     1       4.475  -3.539   1.230  1.00  0.00    -0.014 A 
BRANCH  12  13
ATOM     13  C   UNL     1       5.263  -4.725   1.645  1.00  0.00     0.031 A 
ATOM     14  C   UNL     1       5.950  -5.604   0.641  1.00  0.00     0.074 A 
ATOM     15  C   UNL     1       5.389  -4.965   2.965  1.00  0.00     0.049 A 
ATOM     16  N   UNL     1       6.707  -6.653   0.850  1.00  0.00    -0.248 NA
ATOM     17  C   UNL     1       5.763  -5.275  -0.780  1.00  0.00     0.031 C 
ATOM     18  C   UNL     1       4.750  -4.181   4.025  1.00  0.00     0.029 A 
ATOM     19  N   UNL     1       6.112  -5.911   3.642  1.00  0.00    -0.354 N 
ATOM     20  C   UNL     1       7.072  -7.117  -0.406  1.00  0.00     0.074 A 
ATOM     21  C   UNL     1       6.439  -6.249  -1.376  1.00  0.00     0.031 C 
ATOM     22  C   UNL     1       5.154  -4.640   5.217  1.00  0.00     0.029 A 
ATOM     23  C   UNL     1       6.024  -5.790   5.007  1.00  0.00     0.049 A 
ATOM     24  H   UNL     1       6.643  -6.609   3.195  1.00  0.00     0.167 HD
ATOM     25  C   UNL     1       7.870  -8.169  -0.714  1.00  0.00     0.037 A 
ATOM     26  C   UNL     1       6.572  -6.533   5.985  1.00  0.00     0.037 A 
ATOM     27  C   UNL     1       8.508  -9.017   0.261  1.00  0.00     0.049 A 
ATOM     28  C   UNL     1       7.445  -7.694   5.608  1.00  0.00     0.074 A 
ATOM     29  C   UNL     1       9.353 -10.094   0.049  1.00  0.00     0.029 A 
ATOM     30  N   UNL     1       8.373  -8.883   1.635  1.00  0.00    -0.354 N 
ATOM     31  N   UNL     1       7.798  -8.108   4.416  1.00  0.00    -0.248 NA
ATOM     32  C   UNL     1       7.989  -8.493   6.712  1.00  0.00     0.031 C 
ATOM     33  C   UNL     1       9.697 -10.634   1.292  1.00  0.00     0.029 A 
ATOM     34  C   UNL     1       9.103  -9.868   2.282  1.00  0.00     0.049 A 
ATOM     35  H   UNL     1       7.836  -8.191   2.085  1.00  0.00     0.167 HD
ATOM     36  C   UNL     1       8.608  -9.213   4.624  1.00  0.00     0.074 A 
ATOM     37  C   UNL     1       8.722  -9.383   6.059  1.00  0.00     0.031 C 
ATOM     38  C   UNL     1       9.195 -10.023   3.711  1.00  0.00     0.037 A 
BRANCH  25  39
ATOM     39  C   UNL     1       8.097  -8.477  -2.166  1.00  0.00     0.064 A 
ATOM     40  C   UNL     1       8.929  -7.680  -2.965  1.00  0.00     0.173 A 
ATOM     41  C   UNL     1       7.536  -9.626  -2.744  1.00  0.00     0.173 A 
ATOM     42  F   UNL     1       9.481  -6.565  -2.463  1.00  0.00    -0.203 F 
ATOM     43  C   UNL     1       9.183  -8.016  -4.293  1.00  0.00     0.198 A 
ATOM     44  C   UNL     1       7.811  -9.972  -4.066  1.00  0.00     0.198 A 
ATOM     45  F   UNL     1       6.737 -10.426  -2.022  1.00  0.00    -0.203 F 
ATOM     46  F   UNL     1       9.961  -7.226  -5.046  1.00  0.00    -0.200 F 
ATOM     47  C   UNL     1       8.632  -9.166  -4.839  1.00  0.00     0.200 A 
ATOM     48  F   UNL     1       7.286 -11.089  -4.588  1.00  0.00    -0.200 F 
ATOM     49  F   UNL     1       8.889  -9.495  -6.112  1.00  0.00    -0.200 F 
ENDBRANCH  25  39
BRANCH  26  50
ATOM     50  C   UNL     1       6.297  -6.202   7.405  1.00  0.00     0.064 A 
ATOM     51  C   UNL     1       7.306  -5.710   8.242  1.00  0.00     0.173 A 
ATOM     52  C   UNL     1       5.013  -6.358   7.950  1.00  0.00     0.173 A 
ATOM     53  F   UNL     1       8.553  -5.559   7.771  1.00  0.00    -0.203 F 
ATOM     54  C   UNL     1       7.047  -5.403   9.576  1.00  0.00     0.198 A 
ATOM     55  C   UNL     1       4.747  -6.020   9.274  1.00  0.00     0.198 A 
ATOM     56  F   UNL     1       4.011  -6.818   7.187  1.00  0.00    -0.203 F 
ATOM     57  F   UNL     1       8.039  -4.974  10.367  1.00  0.00    -0.200 F 
ATOM     58  C   UNL     1       5.766  -5.551  10.089  1.00  0.00     0.200 A 
ATOM     59  F   UNL     1       3.505  -6.147   9.759  1.00  0.00    -0.200 F 
ATOM     60  F   UNL     1       5.516  -5.247  11.369  1.00  0.00    -0.200 F 
ENDBRANCH  26  50
BRANCH  38  61
ATOM     61  C   UNL     1      10.018 -11.156   4.247  1.00  0.00     0.064 A 
ATOM     62  C   UNL     1       9.418 -12.275   4.844  1.00  0.00     0.173 A 
ATOM     63  C   UNL     1      11.417 -11.124   4.161  1.00  0.00     0.173 A 
ATOM     64  F   UNL     1       8.084 -12.341   4.966  1.00  0.00    -0.203 F 
ATOM     65  C   UNL     1      10.193 -13.307   5.364  1.00  0.00     0.198 A 
ATOM     66  C   UNL     1      12.187 -12.171   4.658  1.00  0.00     0.198 A 
ATOM     67  F   UNL     1      12.037 -10.077   3.596  1.00  0.00    -0.203 F 
ATOM     68  F   UNL     1       9.602 -14.340   5.980  1.00  0.00    -0.200 F 
ATOM     69  C   UNL     1      11.576 -13.257   5.267  1.00  0.00     0.200 A 
ATOM     70  F   UNL     1      13.523 -12.125   4.557  1.00  0.00    -0.200 F 
ATOM     71  F   UNL     1      12.320 -14.250   5.773  1.00  0.00    -0.200 F 
ENDBRANCH  38  61
ENDBRANCH  12  13
ENDBRANCH   5   7
ENDBRANCH   2   3
ENDBRANCH   1   2
BRANCH   1  72
ATOM     72  C   UNL     1       4.391   2.935  -2.422  1.00  0.00     0.023 C 
BRANCH  72  73
ATOM     73  C   UNL     1       5.121   3.855  -1.450  1.00  0.00     0.116 C 
BRANCH  73  74
ATOM     74  N   UNL     1       6.506   4.046  -1.830  1.00  0.00    -0.354 N 
ATOM     75  C   UNL     1       7.167   5.219  -2.087  1.00  0.00     0.242 C 
ATOM     76  H   UNL     1       7.043   3.225  -1.915  1.00  0.00     0.163 HD
ATOM     77  O   UNL     1       8.381   5.167  -2.293  1.00  0.00    -0.273 OA
BRANCH  75  78
ATOM     78  C   UNL     1       6.407   6.584  -1.994  1.00  0.00     0.174 C 
BRANCH  78  79
ATOM     79  N   UNL     1       5.327   6.490  -3.000  1.00  0.00    -0.340 N 
ATOM     80  C   UNL     1       4.018   6.741  -3.251  1.00  0.00     0.253 C 
ATOM     81  H   UNL     1       5.710   6.081  -3.809  1.00  0.00     0.164 HD
ATOM     82  O   UNL     1       3.552   6.380  -4.333  1.00  0.00    -0.269 OA
BRANCH  80  83
ATOM     83  C   UNL     1       3.085   7.323  -2.301  1.00  0.00     0.061 A 
ATOM     84  C   UNL     1       2.166   6.457  -1.694  1.00  0.00     0.035 A 
ATOM     85  C   UNL     1       2.976   8.695  -2.124  1.00  0.00     0.072 A 
ATOM     86  C   UNL     1       1.250   6.997  -0.813  1.00  0.00     0.112 A 
ATOM     87  C   UNL     1       2.030   9.134  -1.211  1.00  0.00     0.132 A 
ATOM     88  Cl  UNL     1       3.920   9.839  -2.997  1.00  0.00    -0.082 Cl
ATOM     89  N   UNL     1       1.184   8.315  -0.534  1.00  0.00    -0.263 NA
ENDBRANCH  80  83
ENDBRANCH  78  79
BRANCH  78  90
ATOM     90  C   UNL     1       6.281   6.931  -0.536  1.00  0.00     0.021 C 
ATOM     91  C   UNL     1       5.699   8.220  -0.026  1.00  0.00     0.006 C 
ATOM     92  C   UNL     1       5.076   6.904   0.362  1.00  0.00     0.006 C 
ENDBRANCH  78  90
ENDBRANCH  75  78
ENDBRANCH  73  74
ENDBRANCH  72  73
ENDBRANCH   1  72
TORSDOF 14
