REMARK SMILES CC(=O)[C@@H]1CCCC[N@H+]1CC(C)(C)C(=O)NCCCCNC(=O)c1ccc(-c2c3nc(c(-c4c(F)c(F)c(F)c(F)c4F)c4ccc([nH]4)c(-c4c(F)c(F)c(F)c(F)c4F)c4nc(c(-c5c(F)c(F)c(F)c(F)c5F)c5ccc2[nH]5)C=C4)C=C3)cc1
REMARK SMILES IDX 18 1 17 2 16 3 14 4 15 5 11 7 12 8 13 9 10 10 9 11 4 12 5 13
REMARK SMILES IDX 6 14 8 15 7 17 2 18 1 19 3 20 19 21 20 22 21 23 22 24 23 26
REMARK SMILES IDX 24 27 25 28 86 29 26 30 85 31 27 32 28 33 29 34 79 35 30 36
REMARK SMILES IDX 84 37 78 38 80 39 31 40 83 41 77 42 76 43 32 45 64 46 44 47
REMARK SMILES IDX 63 48 45 49 48 50 62 51 81 52 46 53 47 54 61 56 82 57 49 58
REMARK SMILES IDX 33 59 34 60 42 61 35 62 36 63 40 64 43 65 37 66 38 67 41 68
REMARK SMILES IDX 39 69 65 70 66 71 74 72 67 73 68 74 72 75 75 76 69 77 70 78
REMARK SMILES IDX 73 79 71 80 50 81 51 82 59 83 52 84 53 85 57 86 60 87 54 88
REMARK SMILES IDX 55 89 58 90 56 91
REMARK H PARENT 16 6 9 16 21 25 80 44 48 55
REMARK Flexibility Score: inf
ROOT
ATOM      1  C   UNL     1      -3.674   2.866  -6.994  1.00  0.00     0.023 C 
ENDROOT
BRANCH   1   2
ATOM      2  C   UNL     1      -2.419   2.394  -6.264  1.00  0.00     0.116 C 
BRANCH   2   3
ATOM      3  N   UNL     1      -1.990   3.367  -5.280  1.00  0.00    -0.355 N 
ATOM      4  C   UNL     1      -1.818   3.287  -3.934  1.00  0.00     0.231 C 
ATOM      5  O   UNL     1      -1.800   4.377  -3.354  1.00  0.00    -0.274 OA
ATOM      6  H   UNL     1      -1.784   4.253  -5.657  1.00  0.00     0.163 HD
BRANCH   4   7
ATOM      7  C   UNL     1      -1.750   1.951  -3.167  1.00  0.00     0.092 C 
ATOM      8  C   UNL     1      -0.990   0.846  -3.910  1.00  0.00     0.027 C 
ATOM      9  C   UNL     1      -3.220   1.509  -2.966  1.00  0.00     0.027 C 
BRANCH   7  10
ATOM     10  C   UNL     1      -1.136   2.154  -1.720  1.00  0.00     0.279 C 
BRANCH  10  11
ATOM     11  N   UNL     1       0.278   2.513  -1.426  1.00  0.00    -0.325 N 
ATOM     12  C   UNL     1       1.319   1.511  -1.738  1.00  0.00     0.251 C 
ATOM     13  C   UNL     1       2.731   1.979  -1.331  1.00  0.00     0.074 C 
ATOM     14  C   UNL     1       3.064   3.351  -1.893  1.00  0.00     0.012 C 
ATOM     15  C   UNL     1       0.616   3.853  -1.927  1.00  0.00     0.262 C 
ATOM     16  H   UNL     1       0.299   2.524  -0.407  1.00  0.00     0.348 HD
ATOM     17  C   UNL     1       1.989   4.337  -1.469  1.00  0.00     0.062 C 
BRANCH  12  18
ATOM     18  C   UNL     1       1.054   0.172  -1.030  1.00  0.00     0.186 C 
ATOM     19  C   UNL     1       1.076   0.131   0.478  1.00  0.00     0.094 C 
ATOM     20  O   UNL     1       0.899  -0.872  -1.672  1.00  0.00    -0.293 OA
ENDBRANCH  12  18
ENDBRANCH  10  11
ENDBRANCH   7  10
ENDBRANCH   4   7
ENDBRANCH   2   3
ENDBRANCH   1   2
BRANCH   1  21
ATOM     21  C   UNL     1      -3.487   4.112  -7.857  1.00  0.00     0.023 C 
BRANCH  21  22
ATOM     22  C   UNL     1      -2.355   4.027  -8.873  1.00  0.00     0.116 C 
BRANCH  22  23
ATOM     23  N   UNL     1      -2.493   2.901  -9.786  1.00  0.00    -0.352 N 
ATOM     24  C   UNL     1      -2.391   2.891 -11.157  1.00  0.00     0.251 C 
ATOM     25  H   UNL     1      -2.685   2.031  -9.365  1.00  0.00     0.163 HD
ATOM     26  O   UNL     1      -2.648   1.885 -11.803  1.00  0.00    -0.269 OA
BRANCH  24  27
ATOM     27  C   UNL     1      -1.995   4.136 -11.841  1.00  0.00     0.039 A 
ATOM     28  C   UNL     1      -2.817   4.649 -12.847  1.00  0.00     0.014 A 
ATOM     29  C   UNL     1      -0.851   4.824 -11.430  1.00  0.00     0.014 A 
ATOM     30  C   UNL     1      -2.531   5.902 -13.392  1.00  0.00     0.010 A 
ATOM     31  C   UNL     1      -0.609   6.099 -11.923  1.00  0.00     0.010 A 
ATOM     32  C   UNL     1      -1.449   6.651 -12.905  1.00  0.00    -0.014 A 
BRANCH  32  33
ATOM     33  C   UNL     1      -1.148   8.012 -13.409  1.00  0.00     0.031 A 
ATOM     34  C   UNL     1       0.149   8.261 -14.122  1.00  0.00     0.074 A 
ATOM     35  C   UNL     1      -1.983   9.033 -13.135  1.00  0.00     0.049 A 
ATOM     36  N   UNL     1       0.696   9.394 -14.481  1.00  0.00    -0.248 NA
ATOM     37  C   UNL     1       0.958   7.073 -14.441  1.00  0.00     0.031 C 
ATOM     38  C   UNL     1      -3.256   8.922 -12.422  1.00  0.00     0.029 A 
ATOM     39  N   UNL     1      -1.871  10.374 -13.407  1.00  0.00    -0.354 N 
ATOM     40  C   UNL     1       1.924   9.057 -15.034  1.00  0.00     0.074 A 
ATOM     41  C   UNL     1       2.060   7.621 -14.929  1.00  0.00     0.031 C 
ATOM     42  C   UNL     1      -3.811  10.141 -12.321  1.00  0.00     0.029 A 
ATOM     43  C   UNL     1      -2.915  11.123 -12.923  1.00  0.00     0.049 A 
ATOM     44  H   UNL     1      -1.113  10.762 -13.902  1.00  0.00     0.167 HD
ATOM     45  C   UNL     1       2.846   9.874 -15.596  1.00  0.00     0.037 A 
ATOM     46  C   UNL     1      -3.115  12.455 -12.951  1.00  0.00     0.037 A 
ATOM     47  C   UNL     1       2.685  11.296 -15.736  1.00  0.00     0.049 A 
ATOM     48  C   UNL     1      -2.082  13.339 -13.597  1.00  0.00     0.074 A 
ATOM     49  C   UNL     1       3.538  12.207 -16.332  1.00  0.00     0.029 A 
ATOM     50  N   UNL     1       1.587  12.011 -15.281  1.00  0.00    -0.354 N 
ATOM     51  N   UNL     1      -0.940  13.008 -14.149  1.00  0.00    -0.248 NA
ATOM     52  C   UNL     1      -2.366  14.781 -13.625  1.00  0.00     0.031 C 
ATOM     53  C   UNL     1       2.968  13.479 -16.214  1.00  0.00     0.029 A 
ATOM     54  C   UNL     1       1.742  13.354 -15.581  1.00  0.00     0.049 A 
ATOM     55  H   UNL     1       0.812  11.621 -14.815  1.00  0.00     0.167 HD
ATOM     56  C   UNL     1      -0.389  14.191 -14.623  1.00  0.00     0.074 A 
ATOM     57  C   UNL     1      -1.322  15.248 -14.294  1.00  0.00     0.031 C 
ATOM     58  C   UNL     1       0.785  14.384 -15.272  1.00  0.00     0.037 A 
BRANCH  45  59
ATOM     59  C   UNL     1       4.108   9.244 -16.104  1.00  0.00     0.064 A 
ATOM     60  C   UNL     1       4.114   8.431 -17.248  1.00  0.00     0.173 A 
ATOM     61  C   UNL     1       5.330   9.473 -15.455  1.00  0.00     0.173 A 
ATOM     62  F   UNL     1       2.969   8.168 -17.895  1.00  0.00    -0.203 F 
ATOM     63  C   UNL     1       5.292   7.847 -17.705  1.00  0.00     0.198 A 
ATOM     64  C   UNL     1       6.511   8.911 -15.932  1.00  0.00     0.198 A 
ATOM     65  F   UNL     1       5.380  10.245 -14.359  1.00  0.00    -0.203 F 
ATOM     66  F   UNL     1       5.264   7.032 -18.769  1.00  0.00    -0.200 F 
ATOM     67  C   UNL     1       6.490   8.093 -17.052  1.00  0.00     0.200 A 
ATOM     68  F   UNL     1       7.670   9.158 -15.306  1.00  0.00    -0.200 F 
ATOM     69  F   UNL     1       7.624   7.533 -17.496  1.00  0.00    -0.200 F 
ENDBRANCH  45  59
BRANCH  46  70
ATOM     70  C   UNL     1      -4.354  13.034 -12.371  1.00  0.00     0.064 A 
ATOM     71  C   UNL     1      -5.347  13.574 -13.200  1.00  0.00     0.173 A 
ATOM     72  C   UNL     1      -4.570  13.068 -10.986  1.00  0.00     0.173 A 
ATOM     73  F   UNL     1      -5.175  13.583 -14.530  1.00  0.00    -0.203 F 
ATOM     74  C   UNL     1      -6.500  14.146 -12.666  1.00  0.00     0.198 A 
ATOM     75  C   UNL     1      -5.735  13.617 -10.454  1.00  0.00     0.198 A 
ATOM     76  F   UNL     1      -3.653  12.560 -10.150  1.00  0.00    -0.203 F 
ATOM     77  F   UNL     1      -7.412  14.694 -13.479  1.00  0.00    -0.200 F 
ATOM     78  C   UNL     1      -6.695  14.162 -11.293  1.00  0.00     0.200 A 
ATOM     79  F   UNL     1      -5.926  13.621  -9.127  1.00  0.00    -0.200 F 
ATOM     80  F   UNL     1      -7.804  14.711 -10.779  1.00  0.00    -0.200 F 
ENDBRANCH  46  70
BRANCH  58  81
ATOM     81  C   UNL     1       1.101  15.776 -15.728  1.00  0.00     0.064 A 
ATOM     82  C   UNL     1       1.515  16.770 -14.831  1.00  0.00     0.173 A 
ATOM     83  C   UNL     1       1.046  16.099 -17.093  1.00  0.00     0.173 A 
ATOM     84  F   UNL     1       1.569  16.511 -13.515  1.00  0.00    -0.203 F 
ATOM     85  C   UNL     1       1.850  18.043 -15.282  1.00  0.00     0.198 A 
ATOM     86  C   UNL     1       1.405  17.365 -17.543  1.00  0.00     0.198 A 
ATOM     87  F   UNL     1       0.660  15.179 -17.990  1.00  0.00    -0.203 F 
ATOM     88  F   UNL     1       2.213  18.989 -14.404  1.00  0.00    -0.200 F 
ATOM     89  C   UNL     1       1.804  18.337 -16.637  1.00  0.00     0.200 A 
ATOM     90  F   UNL     1       1.371  17.644 -18.853  1.00  0.00    -0.200 F 
ATOM     91  F   UNL     1       2.139  19.560 -17.070  1.00  0.00    -0.200 F 
ENDBRANCH  58  81
ENDBRANCH  32  33
ENDBRANCH  24  27
ENDBRANCH  22  23
ENDBRANCH  21  22
ENDBRANCH   1  21
TORSDOF 14
