REMARK SMILES O=C(CCCOc1ccccc1)NCCCCNC(=O)c1ccc(-c2c3nc(c(-c4c(F)c(F)c(F)c(F)c4F)c4ccc([nH]4)c(-c4c(F)c(F)c(F)c(F)c4F)c4nc(c(-c5c(F)c(F)c(F)c(F)c5F)c5ccc2[nH]5)C=C4)C=C3)cc1
REMARK SMILES IDX 14 1 13 2 1 3 2 4 3 6 4 7 5 8 6 9 7 10 8 11 12 12 9 13 11 14
REMARK SMILES IDX 10 15 15 16 16 17 17 18 18 19 19 20 20 22 21 23 22 24 83 25
REMARK SMILES IDX 23 26 82 27 24 28 25 29 26 30 76 31 27 32 81 33 75 34 77 35
REMARK SMILES IDX 28 36 80 37 74 38 73 39 29 41 61 42 41 43 60 44 42 45 45 46
REMARK SMILES IDX 59 47 78 48 43 49 44 50 58 52 79 53 46 54 30 55 31 56 39 57
REMARK SMILES IDX 32 58 33 59 37 60 40 61 34 62 35 63 38 64 36 65 62 66 63 67
REMARK SMILES IDX 71 68 64 69 65 70 69 71 72 72 66 73 67 74 70 75 68 76 47 77
REMARK SMILES IDX 48 78 56 79 49 80 50 81 54 82 57 83 51 84 52 85 55 86 53 87
REMARK H PARENT 13 5 18 21 77 40 45 51
REMARK Flexibility Score: inf
ROOT
ATOM      1  C   UNL     1       1.857   2.333   1.007  1.00  0.00     0.116 C 
ENDROOT
BRANCH   1   2
ATOM      2  N   UNL     1       2.361   1.036   0.610  1.00  0.00    -0.356 N 
ATOM      3  O   UNL     1       0.879   0.794  -1.124  1.00  0.00    -0.275 OA
ATOM      4  C   UNL     1       1.821   0.367  -0.465  1.00  0.00     0.220 C 
ATOM      5  H   UNL     1       3.101   0.628   1.114  1.00  0.00     0.163 HD
BRANCH   4   6
ATOM      6  C   UNL     1       2.481  -0.958  -0.773  1.00  0.00     0.103 C 
BRANCH   6   7
ATOM      7  C   UNL     1       3.774  -0.839  -1.587  1.00  0.00     0.051 C 
BRANCH   7   8
ATOM      8  C   UNL     1       4.962  -0.106  -0.943  1.00  0.00     0.230 C 
BRANCH   8   9
ATOM      9  O   UNL     1       5.821  -0.964  -0.175  1.00  0.00    -0.494 OA
BRANCH   9  10
ATOM     10  C   UNL     1       5.389  -1.163   1.103  1.00  0.00     0.119 A 
ATOM     11  C   UNL     1       5.771  -0.309   2.134  1.00  0.00     0.046 A 
ATOM     12  C   UNL     1       4.635  -2.300   1.378  1.00  0.00     0.046 A 
ATOM     13  C   UNL     1       5.308  -0.546   3.431  1.00  0.00     0.004 A 
ATOM     14  C   UNL     1       4.143  -2.517   2.663  1.00  0.00     0.004 A 
ATOM     15  C   UNL     1       4.472  -1.635   3.689  1.00  0.00     0.000 A 
ENDBRANCH   9  10
ENDBRANCH   8   9
ENDBRANCH   7   8
ENDBRANCH   6   7
ENDBRANCH   4   6
ENDBRANCH   1   2
BRANCH   1  16
ATOM     16  C   UNL     1       2.346   2.762   2.387  1.00  0.00     0.023 C 
BRANCH  16  17
ATOM     17  C   UNL     1       3.850   3.020   2.495  1.00  0.00     0.023 C 
BRANCH  17  18
ATOM     18  C   UNL     1       4.416   4.080   1.557  1.00  0.00     0.116 C 
BRANCH  18  19
ATOM     19  N   UNL     1       3.855   5.401   1.793  1.00  0.00    -0.352 N 
ATOM     20  C   UNL     1       4.482   6.590   2.067  1.00  0.00     0.251 C 
ATOM     21  H   UNL     1       2.873   5.449   1.749  1.00  0.00     0.163 HD
ATOM     22  O   UNL     1       3.811   7.572   2.387  1.00  0.00    -0.269 OA
BRANCH  20  23
ATOM     23  C   UNL     1       5.957   6.703   2.014  1.00  0.00     0.039 A 
ATOM     24  C   UNL     1       6.611   7.425   3.018  1.00  0.00     0.014 A 
ATOM     25  C   UNL     1       6.698   6.127   0.980  1.00  0.00     0.014 A 
ATOM     26  C   UNL     1       8.006   7.508   3.023  1.00  0.00     0.010 A 
ATOM     27  C   UNL     1       8.092   6.144   1.028  1.00  0.00     0.010 A 
ATOM     28  C   UNL     1       8.762   6.833   2.050  1.00  0.00    -0.014 A 
BRANCH  28  29
ATOM     29  C   UNL     1      10.249   6.828   2.097  1.00  0.00     0.031 A 
ATOM     30  C   UNL     1      11.050   7.446   0.984  1.00  0.00     0.074 A 
ATOM     31  C   UNL     1      10.881   6.212   3.115  1.00  0.00     0.049 A 
ATOM     32  N   UNL     1      12.349   7.482   0.818  1.00  0.00    -0.248 NA
ATOM     33  C   UNL     1      10.290   8.089  -0.100  1.00  0.00     0.031 C 
ATOM     34  C   UNL     1      10.223   5.540   4.237  1.00  0.00     0.029 A 
ATOM     35  N   UNL     1      12.221   6.041   3.369  1.00  0.00    -0.354 N 
ATOM     36  C   UNL     1      12.559   8.134  -0.390  1.00  0.00     0.074 A 
ATOM     37  C   UNL     1      11.255   8.432  -0.941  1.00  0.00     0.031 C 
ATOM     38  C   UNL     1      11.156   5.053   5.069  1.00  0.00     0.029 A 
ATOM     39  C   UNL     1      12.479   5.336   4.520  1.00  0.00     0.049 A 
ATOM     40  H   UNL     1      12.929   6.390   2.781  1.00  0.00     0.167 HD
ATOM     41  C   UNL     1      13.733   8.473  -0.976  1.00  0.00     0.037 A 
ATOM     42  C   UNL     1      13.649   4.952   5.066  1.00  0.00     0.037 A 
ATOM     43  C   UNL     1      15.030   8.194  -0.416  1.00  0.00     0.049 A 
ATOM     44  C   UNL     1      14.938   5.321   4.380  1.00  0.00     0.074 A 
ATOM     45  C   UNL     1      16.275   8.554  -0.903  1.00  0.00     0.029 A 
ATOM     46  N   UNL     1      15.251   7.482   0.754  1.00  0.00    -0.354 N 
ATOM     47  N   UNL     1      15.124   6.003   3.277  1.00  0.00    -0.248 NA
ATOM     48  C   UNL     1      16.181   4.870   5.022  1.00  0.00     0.031 C 
ATOM     49  C   UNL     1      17.250   8.008  -0.062  1.00  0.00     0.029 A 
ATOM     50  C   UNL     1      16.612   7.364   0.986  1.00  0.00     0.049 A 
ATOM     51  H   UNL     1      14.544   7.114   1.333  1.00  0.00     0.167 HD
ATOM     52  C   UNL     1      16.500   6.092   3.111  1.00  0.00     0.074 A 
ATOM     53  C   UNL     1      17.101   5.407   4.235  1.00  0.00     0.031 C 
ATOM     54  C   UNL     1      17.201   6.689   2.115  1.00  0.00     0.037 A 
BRANCH  41  55
ATOM     55  C   UNL     1      13.674   9.181  -2.301  1.00  0.00     0.064 A 
ATOM     56  C   UNL     1      13.203  10.498  -2.414  1.00  0.00     0.173 A 
ATOM     57  C   UNL     1      14.141   8.551  -3.465  1.00  0.00     0.173 A 
ATOM     58  F   UNL     1      12.737  11.144  -1.335  1.00  0.00    -0.203 F 
ATOM     59  C   UNL     1      13.173  11.146  -3.647  1.00  0.00     0.198 A 
ATOM     60  C   UNL     1      14.142   9.214  -4.689  1.00  0.00     0.198 A 
ATOM     61  F   UNL     1      14.611   7.295  -3.413  1.00  0.00    -0.203 F 
ATOM     62  F   UNL     1      12.672  12.385  -3.738  1.00  0.00    -0.200 F 
ATOM     63  C   UNL     1      13.650  10.507  -4.781  1.00  0.00     0.200 A 
ATOM     64  F   UNL     1      14.619   8.601  -5.781  1.00  0.00    -0.200 F 
ATOM     65  F   UNL     1      13.632  11.136  -5.964  1.00  0.00    -0.200 F 
ENDBRANCH  41  55
BRANCH  42  66
ATOM     66  C   UNL     1      13.662   4.187   6.342  1.00  0.00     0.064 A 
ATOM     67  C   UNL     1      14.174   4.757   7.517  1.00  0.00     0.173 A 
ATOM     68  C   UNL     1      13.184   2.871   6.412  1.00  0.00     0.173 A 
ATOM     69  F   UNL     1      14.663   6.005   7.497  1.00  0.00    -0.203 F 
ATOM     70  C   UNL     1      14.232   4.030   8.704  1.00  0.00     0.198 A 
ATOM     71  C   UNL     1      13.211   2.156   7.608  1.00  0.00     0.198 A 
ATOM     72  F   UNL     1      12.679   2.280   5.319  1.00  0.00    -0.203 F 
ATOM     73  F   UNL     1      14.777   4.581   9.798  1.00  0.00    -0.200 F 
ATOM     74  C   UNL     1      13.745   2.733   8.751  1.00  0.00     0.200 A 
ATOM     75  F   UNL     1      12.725   0.909   7.652  1.00  0.00    -0.200 F 
ATOM     76  F   UNL     1      13.799   2.035   9.893  1.00  0.00    -0.200 F 
ENDBRANCH  42  66
BRANCH  54  77
ATOM     77  C   UNL     1      18.700   6.670   2.218  1.00  0.00     0.064 A 
ATOM     78  C   UNL     1      19.439   5.490   2.046  1.00  0.00     0.173 A 
ATOM     79  C   UNL     1      19.409   7.859   2.454  1.00  0.00     0.173 A 
ATOM     80  F   UNL     1      18.811   4.324   1.833  1.00  0.00    -0.203 F 
ATOM     81  C   UNL     1      20.829   5.496   2.136  1.00  0.00     0.198 A 
ATOM     82  C   UNL     1      20.799   7.867   2.508  1.00  0.00     0.198 A 
ATOM     83  F   UNL     1      18.752   9.017   2.618  1.00  0.00    -0.203 F 
ATOM     84  F   UNL     1      21.511   4.348   2.022  1.00  0.00    -0.200 F 
ATOM     85  C   UNL     1      21.508   6.685   2.358  1.00  0.00     0.200 A 
ATOM     86  F   UNL     1      21.454   9.020   2.706  1.00  0.00    -0.200 F 
ATOM     87  F   UNL     1      22.846   6.690   2.435  1.00  0.00    -0.200 F 
ENDBRANCH  54  77
ENDBRANCH  28  29
ENDBRANCH  20  23
ENDBRANCH  18  19
ENDBRANCH  17  18
ENDBRANCH  16  17
ENDBRANCH   1  16
TORSDOF 15
