REMARK SMILES Nc1cc(F)c([C@H]([NH3+])C(=O)NCCCCNC(=O)c2ccc(-c3c4nc(c(-c5c(F)c(F)c(F)c(F)c5F)c5ccc([nH]5)c(-c5c(F)c(F)c(F)c(F)c5F)c5nc(c(-c6c(F)c(F)c(F)c(F)c6F)c6ccc3[nH]6)C=C5)C=C4)cc2)cc1F
REMARK SMILES IDX 13 1 12 2 11 3 9 4 10 5 7 7 6 8 2 9 3 10 83 11 4 12 82 13
REMARK SMILES IDX 84 14 5 15 1 16 8 19 14 23 15 24 16 25 17 26 18 28 19 29
REMARK SMILES IDX 20 30 81 31 21 32 80 33 22 34 23 35 24 36 74 37 25 38 79 39
REMARK SMILES IDX 73 40 75 41 26 42 78 43 72 44 71 45 27 47 59 48 39 49 58 50
REMARK SMILES IDX 40 51 43 52 57 53 76 54 41 55 42 56 56 58 77 59 44 60 28 61
REMARK SMILES IDX 29 62 37 63 30 64 31 65 35 66 38 67 32 68 33 69 36 70 34 71
REMARK SMILES IDX 60 72 61 73 69 74 62 75 63 76 67 77 70 78 64 79 65 80 68 81
REMARK SMILES IDX 66 82 45 83 46 84 54 85 47 86 48 87 52 88 55 89 49 90 50 91
REMARK SMILES IDX 53 92 51 93
REMARK H PARENT 11 6 1 17 1 18 8 20 8 21 8 22 16 27 75 46 43 57
REMARK Flexibility Score: inf
ROOT
ATOM      1  C   UNL     1       0.834   4.523   2.151  1.00  0.00     0.023 C 
ENDROOT
BRANCH   1   2
ATOM      2  C   UNL     1       0.249   4.206   3.526  1.00  0.00     0.116 C 
BRANCH   2   3
ATOM      3  N   UNL     1      -1.185   4.409   3.555  1.00  0.00    -0.351 N 
ATOM      4  C   UNL     1      -2.176   3.625   4.072  1.00  0.00     0.283 C 
ATOM      5  O   UNL     1      -3.326   4.075   4.037  1.00  0.00    -0.268 OA
ATOM      6  H   UNL     1      -1.494   5.244   3.135  1.00  0.00     0.163 HD
BRANCH   4   7
ATOM      7  C   UNL     1      -1.896   2.194   4.596  1.00  0.00     0.305 C 
BRANCH   7   8
ATOM      8  C   UNL     1      -0.962   2.083   5.790  1.00  0.00     0.058 A 
ATOM      9  C   UNL     1       0.745   1.820   8.055  1.00  0.00     0.071 A 
ATOM     10  C   UNL     1       0.113   3.029   7.777  1.00  0.00     0.068 A 
ATOM     11  C   UNL     1       0.517   0.747   7.186  1.00  0.00     0.146 A 
ATOM     12  C   UNL     1      -0.745   3.144   6.680  1.00  0.00     0.135 A 
ATOM     13  C   UNL     1      -0.332   0.862   6.086  1.00  0.00     0.055 A 
ATOM     14  F   UNL     1       1.121  -0.430   7.416  1.00  0.00    -0.205 F 
ATOM     15  F   UNL     1      -1.345   4.327   6.490  1.00  0.00    -0.206 F 
BRANCH   9  16
ATOM     16  N   UNL     1       1.663   1.723   9.093  1.00  0.00    -0.396 N 
ATOM     17  H   UNL     1       1.809   2.490   9.694  1.00  0.00     0.156 HD
ATOM     18  H   UNL     1       2.168   0.889   9.228  1.00  0.00     0.156 HD
ENDBRANCH   9  16
ENDBRANCH   7   8
BRANCH   7  19
ATOM     19  N   UNL     1      -1.481   1.336   3.457  1.00  0.00    -0.343 N 
ATOM     20  H   UNL     1      -0.603   1.682   3.072  1.00  0.00     0.345 HD
ATOM     21  H   UNL     1      -2.201   1.359   2.734  1.00  0.00     0.345 HD
ATOM     22  H   UNL     1      -1.356   0.377   3.781  1.00  0.00     0.345 HD
ENDBRANCH   7  19
ENDBRANCH   4   7
ENDBRANCH   2   3
ENDBRANCH   1   2
BRANCH   1  23
ATOM     23  C   UNL     1       0.698   5.984   1.720  1.00  0.00     0.023 C 
BRANCH  23  24
ATOM     24  C   UNL     1       1.282   7.002   2.692  1.00  0.00     0.116 C 
BRANCH  24  25
ATOM     25  N   UNL     1       2.717   6.849   2.885  1.00  0.00    -0.352 N 
ATOM     26  C   UNL     1       3.703   7.805   2.814  1.00  0.00     0.251 C 
ATOM     27  H   UNL     1       3.022   5.938   3.096  1.00  0.00     0.163 HD
ATOM     28  O   UNL     1       4.886   7.490   2.880  1.00  0.00    -0.269 OA
BRANCH  26  29
ATOM     29  C   UNL     1       3.323   9.218   2.613  1.00  0.00     0.039 A 
ATOM     30  C   UNL     1       2.317   9.794   3.391  1.00  0.00     0.014 A 
ATOM     31  C   UNL     1       3.938   9.952   1.595  1.00  0.00     0.014 A 
ATOM     32  C   UNL     1       1.806  11.037   3.038  1.00  0.00     0.010 A 
ATOM     33  C   UNL     1       3.479  11.237   1.297  1.00  0.00     0.010 A 
ATOM     34  C   UNL     1       2.375  11.768   1.981  1.00  0.00    -0.014 A 
BRANCH  34  35
ATOM     35  C   UNL     1       1.790  13.081   1.609  1.00  0.00     0.031 A 
ATOM     36  C   UNL     1       1.115  13.276   0.279  1.00  0.00     0.074 A 
ATOM     37  C   UNL     1       1.811  14.083   2.507  1.00  0.00     0.049 A 
ATOM     38  N   UNL     1       0.528  14.344  -0.200  1.00  0.00    -0.248 NA
ATOM     39  C   UNL     1       1.097  12.124  -0.635  1.00  0.00     0.031 C 
ATOM     40  C   UNL     1       2.418  14.004   3.836  1.00  0.00     0.029 A 
ATOM     41  N   UNL     1       1.283  15.347   2.455  1.00  0.00    -0.354 N 
ATOM     42  C   UNL     1       0.086  14.000  -1.470  1.00  0.00     0.074 A 
ATOM     43  C   UNL     1       0.497  12.632  -1.703  1.00  0.00     0.031 C 
ATOM     44  C   UNL     1       2.172  15.143   4.498  1.00  0.00     0.029 A 
ATOM     45  C   UNL     1       1.447  16.055   3.619  1.00  0.00     0.049 A 
ATOM     46  H   UNL     1       0.830  15.711   1.660  1.00  0.00     0.167 HD
ATOM     47  C   UNL     1      -0.609  14.754  -2.356  1.00  0.00     0.037 A 
ATOM     48  C   UNL     1       1.063  17.304   3.942  1.00  0.00     0.037 A 
ATOM     49  C   UNL     1      -1.031  16.110  -2.114  1.00  0.00     0.049 A 
ATOM     50  C   UNL     1       0.335  18.134   2.927  1.00  0.00     0.074 A 
ATOM     51  C   UNL     1      -1.742  16.954  -2.949  1.00  0.00     0.029 A 
ATOM     52  N   UNL     1      -0.783  16.819  -0.948  1.00  0.00    -0.354 N 
ATOM     53  N   UNL     1      -0.060  17.803   1.722  1.00  0.00    -0.248 NA
ATOM     54  C   UNL     1       0.012  19.514   3.311  1.00  0.00     0.031 C 
ATOM     55  C   UNL     1      -1.892  18.186  -2.303  1.00  0.00     0.029 A 
ATOM     56  C   UNL     1      -1.313  18.095  -1.047  1.00  0.00     0.049 A 
ATOM     57  H   UNL     1      -0.301  16.466  -0.164  1.00  0.00     0.167 HD
ATOM     58  C   UNL     1      -0.685  18.928   1.205  1.00  0.00     0.074 A 
ATOM     59  C   UNL     1      -0.632  19.946   2.235  1.00  0.00     0.031 C 
ATOM     60  C   UNL     1      -1.247  19.100  -0.016  1.00  0.00     0.037 A 
BRANCH  47  61
ATOM     61  C   UNL     1      -0.949  14.135  -3.681  1.00  0.00     0.064 A 
ATOM     62  C   UNL     1      -1.932  13.141  -3.797  1.00  0.00     0.173 A 
ATOM     63  C   UNL     1      -0.317  14.573  -4.855  1.00  0.00     0.173 A 
ATOM     64  F   UNL     1      -2.556  12.678  -2.704  1.00  0.00    -0.203 F 
ATOM     65  C   UNL     1      -2.256  12.595  -5.037  1.00  0.00     0.198 A 
ATOM     66  C   UNL     1      -0.662  14.044  -6.096  1.00  0.00     0.198 A 
ATOM     67  F   UNL     1       0.626  15.526  -4.800  1.00  0.00    -0.203 F 
ATOM     68  F   UNL     1      -3.170  11.619  -5.120  1.00  0.00    -0.200 F 
ATOM     69  C   UNL     1      -1.626  13.052  -6.186  1.00  0.00     0.200 A 
ATOM     70  F   UNL     1      -0.060  14.494  -7.205  1.00  0.00    -0.200 F 
ATOM     71  F   UNL     1      -1.944  12.531  -7.379  1.00  0.00    -0.200 F 
ENDBRANCH  47  61
BRANCH  48  72
ATOM     72  C   UNL     1       1.353  17.818   5.303  1.00  0.00     0.064 A 
ATOM     73  C   UNL     1       0.326  17.971   6.243  1.00  0.00     0.173 A 
ATOM     74  C   UNL     1       2.665  18.099   5.713  1.00  0.00     0.173 A 
ATOM     75  F   UNL     1      -0.946  17.731   5.891  1.00  0.00    -0.203 F 
ATOM     76  C   UNL     1       0.601  18.378   7.547  1.00  0.00     0.198 A 
ATOM     77  C   UNL     1       2.942  18.481   7.023  1.00  0.00     0.198 A 
ATOM     78  F   UNL     1       3.681  17.961   4.849  1.00  0.00    -0.203 F 
ATOM     79  F   UNL     1      -0.400  18.529   8.424  1.00  0.00    -0.200 F 
ATOM     80  C   UNL     1       1.910  18.621   7.939  1.00  0.00     0.200 A 
ATOM     81  F   UNL     1       4.208  18.697   7.402  1.00  0.00    -0.200 F 
ATOM     82  F   UNL     1       2.176  18.987   9.200  1.00  0.00    -0.200 F 
ENDBRANCH  48  72
BRANCH  60  83
ATOM     83  C   UNL     1      -1.861  20.436  -0.307  1.00  0.00     0.064 A 
ATOM     84  C   UNL     1      -1.069  21.562  -0.574  1.00  0.00     0.173 A 
ATOM     85  C   UNL     1      -3.255  20.579  -0.376  1.00  0.00     0.173 A 
ATOM     86  F   UNL     1       0.268  21.478  -0.506  1.00  0.00    -0.203 F 
ATOM     87  C   UNL     1      -1.652  22.788  -0.884  1.00  0.00     0.198 A 
ATOM     88  C   UNL     1      -3.833  21.800  -0.710  1.00  0.00     0.198 A 
ATOM     89  F   UNL     1      -4.055  19.529  -0.134  1.00  0.00    -0.203 F 
ATOM     90  F   UNL     1      -0.877  23.859  -1.102  1.00  0.00    -0.200 F 
ATOM     91  C   UNL     1      -3.032  22.904  -0.960  1.00  0.00     0.200 A 
ATOM     92  F   UNL     1      -5.167  21.907  -0.793  1.00  0.00    -0.200 F 
ATOM     93  F   UNL     1      -3.591  24.082  -1.269  1.00  0.00    -0.200 F 
ENDBRANCH  60  83
ENDBRANCH  34  35
ENDBRANCH  26  29
ENDBRANCH  24  25
ENDBRANCH  23  24
ENDBRANCH   1  23
TORSDOF 14
