REMARK SMILES Cc1ccc(S(=O)(=O)N(c2ccccc2)[C@H](C)C(=O)NCCCCNC(=O)c2ccc(-c3c4nc(c(-c5c(F)c(F)c(F)c(F)c5F)c5ccc([nH]5)c(-c5c(F)c(F)c(F)c(F)c5F)c5nc(c(-c6c(F)c(F)c(F)c(F)c6F)c6ccc3[nH]6)C=C5)C=C4)cc2)cc1
REMARK SMILES IDX 22 1 21 2 20 3 18 4 19 5 16 7 17 8 9 9 6 10 7 11 8 12 5 13
REMARK SMILES IDX 1 14 2 15 3 16 92 17 4 18 91 19 10 20 11 21 15 22 12 23
REMARK SMILES IDX 14 24 13 25 23 26 24 27 25 28 26 29 27 31 28 32 29 33 90 34
REMARK SMILES IDX 30 35 89 36 31 37 32 38 33 39 83 40 34 41 88 42 82 43 84 44
REMARK SMILES IDX 35 45 87 46 81 47 80 48 36 50 68 51 48 52 67 53 49 54 52 55
REMARK SMILES IDX 66 56 85 57 50 58 51 59 65 61 86 62 53 63 37 64 38 65 46 66
REMARK SMILES IDX 39 67 40 68 44 69 47 70 41 71 42 72 45 73 43 74 69 75 70 76
REMARK SMILES IDX 78 77 71 78 72 79 76 80 79 81 73 82 74 83 77 84 75 85 54 86
REMARK SMILES IDX 55 87 63 88 56 89 57 90 61 91 64 92 58 93 59 94 62 95 60 96
REMARK H PARENT 20 6 25 30 84 49 52 60
REMARK Flexibility Score: inf
ROOT
ATOM      1  C   UNL     1      -3.449  -1.284   1.935  1.00  0.00     0.023 C 
ENDROOT
BRANCH   1   2
ATOM      2  C   UNL     1      -4.605  -0.718   1.112  1.00  0.00     0.116 C 
BRANCH   2   3
ATOM      3  N   UNL     1      -5.339   0.378   1.716  1.00  0.00    -0.354 N 
ATOM      4  C   UNL     1      -6.032   1.406   1.131  1.00  0.00     0.243 C 
ATOM      5  O   UNL     1      -6.896   1.932   1.846  1.00  0.00    -0.273 OA
ATOM      6  H   UNL     1      -5.340   0.384   2.700  1.00  0.00     0.163 HD
BRANCH   4   7
ATOM      7  C   UNL     1      -5.777   1.943  -0.291  1.00  0.00     0.185 C 
ATOM      8  C   UNL     1      -4.295   2.205  -0.570  1.00  0.00     0.043 C 
BRANCH   7   9
ATOM      9  N   UNL     1      -6.510   1.244  -1.410  1.00  0.00    -0.254 N 
BRANCH   9  10
ATOM     10  S   UNL     1      -7.121   2.283  -2.623  1.00  0.00     0.265 S 
ATOM     11  O   UNL     1      -5.998   3.052  -3.103  1.00  0.00    -0.201 OA
ATOM     12  O   UNL     1      -8.278   2.962  -2.055  1.00  0.00    -0.201 OA
BRANCH  10  13
ATOM     13  C   UNL     1      -7.722   1.372  -4.039  1.00  0.00     0.088 A 
ATOM     14  C   UNL     1      -8.524  -0.806  -7.671  1.00  0.00     0.044 C 
ATOM     15  C   UNL     1      -8.280  -0.034  -6.408  1.00  0.00    -0.051 A 
ATOM     16  C   UNL     1      -7.909   1.313  -6.461  1.00  0.00     0.005 A 
ATOM     17  C   UNL     1      -8.463  -0.638  -5.159  1.00  0.00     0.005 A 
ATOM     18  C   UNL     1      -7.611   2.005  -5.285  1.00  0.00     0.022 A 
ATOM     19  C   UNL     1      -8.222   0.073  -3.977  1.00  0.00     0.022 A 
ENDBRANCH  10  13
ENDBRANCH   9  10
BRANCH   9  20
ATOM     20  C   UNL     1      -6.160  -0.094  -1.722  1.00  0.00     0.053 A 
ATOM     21  C   UNL     1      -6.878  -1.090  -1.052  1.00  0.00     0.027 A 
ATOM     22  C   UNL     1      -5.114  -0.434  -2.577  1.00  0.00     0.027 A 
ATOM     23  C   UNL     1      -6.527  -2.426  -1.204  1.00  0.00     0.002 A 
ATOM     24  C   UNL     1      -4.785  -1.781  -2.752  1.00  0.00     0.002 A 
ATOM     25  C   UNL     1      -5.482  -2.774  -2.057  1.00  0.00     0.000 A 
ENDBRANCH   9  20
ENDBRANCH   7   9
ENDBRANCH   4   7
ENDBRANCH   2   3
ENDBRANCH   1   2
BRANCH   1  26
ATOM     26  C   UNL     1      -3.850  -2.135   3.142  1.00  0.00     0.023 C 
BRANCH  26  27
ATOM     27  C   UNL     1      -4.665  -3.389   2.831  1.00  0.00     0.116 C 
BRANCH  27  28
ATOM     28  N   UNL     1      -3.923  -4.527   2.316  1.00  0.00    -0.352 N 
ATOM     29  C   UNL     1      -4.364  -5.780   1.919  1.00  0.00     0.251 C 
ATOM     30  H   UNL     1      -2.952  -4.386   2.235  1.00  0.00     0.163 HD
ATOM     31  O   UNL     1      -3.526  -6.638   1.654  1.00  0.00    -0.269 OA
BRANCH  29  32
ATOM     32  C   UNL     1      -5.808  -6.080   1.677  1.00  0.00     0.039 A 
ATOM     33  C   UNL     1      -6.138  -7.102   0.766  1.00  0.00     0.014 A 
ATOM     34  C   UNL     1      -6.834  -5.303   2.199  1.00  0.00     0.014 A 
ATOM     35  C   UNL     1      -7.427  -7.182   0.226  1.00  0.00     0.010 A 
ATOM     36  C   UNL     1      -8.071  -5.301   1.592  1.00  0.00     0.010 A 
ATOM     37  C   UNL     1      -8.354  -6.203   0.566  1.00  0.00    -0.014 A 
BRANCH  37  38
ATOM     38  C   UNL     1      -9.597  -5.931  -0.142  1.00  0.00     0.031 A 
ATOM     39  C   UNL     1     -10.908  -6.154   0.502  1.00  0.00     0.074 A 
ATOM     40  C   UNL     1      -9.520  -5.198  -1.276  1.00  0.00     0.049 A 
ATOM     41  N   UNL     1     -12.031  -6.110  -0.129  1.00  0.00    -0.248 NA
ATOM     42  C   UNL     1     -11.057  -6.458   1.921  1.00  0.00     0.031 C 
ATOM     43  C   UNL     1     -10.568  -4.390  -1.891  1.00  0.00     0.029 A 
ATOM     44  N   UNL     1      -8.470  -5.166  -2.203  1.00  0.00    -0.354 N 
ATOM     45  C   UNL     1     -13.039  -6.116   0.804  1.00  0.00     0.074 A 
ATOM     46  C   UNL     1     -12.384  -6.377   2.066  1.00  0.00     0.031 C 
ATOM     47  C   UNL     1     -10.244  -4.162  -3.174  1.00  0.00     0.029 A 
ATOM     48  C   UNL     1      -9.067  -4.958  -3.466  1.00  0.00     0.049 A 
ATOM     49  H   UNL     1      -7.509  -5.267  -2.012  1.00  0.00     0.167 HD
ATOM     50  C   UNL     1     -14.307  -5.791   0.423  1.00  0.00     0.037 A 
ATOM     51  C   UNL     1      -8.983  -5.933  -4.417  1.00  0.00     0.037 A 
ATOM     52  C   UNL     1     -14.386  -5.510  -1.007  1.00  0.00     0.049 A 
ATOM     53  C   UNL     1     -10.315  -6.537  -4.801  1.00  0.00     0.074 A 
ATOM     54  C   UNL     1     -14.385  -4.353  -1.768  1.00  0.00     0.029 A 
ATOM     55  N   UNL     1     -14.161  -6.546  -1.894  1.00  0.00    -0.354 N 
ATOM     56  N   UNL     1     -11.451  -6.234  -4.237  1.00  0.00    -0.248 NA
ATOM     57  C   UNL     1     -10.451  -7.607  -5.788  1.00  0.00     0.031 C 
ATOM     58  C   UNL     1     -14.144  -4.713  -3.126  1.00  0.00     0.029 A 
ATOM     59  C   UNL     1     -14.008  -6.087  -3.187  1.00  0.00     0.049 A 
ATOM     60  H   UNL     1     -14.115  -7.495  -1.635  1.00  0.00     0.167 HD
ATOM     61  C   UNL     1     -12.426  -7.066  -4.708  1.00  0.00     0.074 A 
ATOM     62  C   UNL     1     -11.756  -7.907  -5.683  1.00  0.00     0.031 C 
ATOM     63  C   UNL     1     -13.704  -7.041  -4.238  1.00  0.00     0.037 A 
BRANCH  50  64
ATOM     64  C   UNL     1     -15.428  -5.526   1.393  1.00  0.00     0.064 A 
ATOM     65  C   UNL     1     -16.421  -4.566   1.107  1.00  0.00     0.173 A 
ATOM     66  C   UNL     1     -15.565  -6.174   2.634  1.00  0.00     0.173 A 
ATOM     67  F   UNL     1     -16.466  -3.936  -0.073  1.00  0.00    -0.203 F 
ATOM     68  C   UNL     1     -17.405  -4.210   2.033  1.00  0.00     0.198 A 
ATOM     69  C   UNL     1     -16.513  -5.777   3.583  1.00  0.00     0.198 A 
ATOM     70  F   UNL     1     -14.813  -7.239   2.946  1.00  0.00    -0.203 F 
ATOM     71  F   UNL     1     -18.323  -3.289   1.705  1.00  0.00    -0.200 F 
ATOM     72  C   UNL     1     -17.427  -4.788   3.285  1.00  0.00     0.200 A 
ATOM     73  F   UNL     1     -16.532  -6.362   4.790  1.00  0.00    -0.200 F 
ATOM     74  F   UNL     1     -18.339  -4.409   4.191  1.00  0.00    -0.200 F 
ENDBRANCH  50  64
BRANCH  51  75
ATOM     75  C   UNL     1      -7.698  -6.681  -4.334  1.00  0.00     0.064 A 
ATOM     76  C   UNL     1      -6.504  -5.978  -4.587  1.00  0.00     0.173 A 
ATOM     77  C   UNL     1      -7.606  -7.879  -3.613  1.00  0.00     0.173 A 
ATOM     78  F   UNL     1      -6.540  -4.813  -5.253  1.00  0.00    -0.203 F 
ATOM     79  C   UNL     1      -5.293  -6.390  -4.035  1.00  0.00     0.198 A 
ATOM     80  C   UNL     1      -6.388  -8.294  -3.074  1.00  0.00     0.198 A 
ATOM     81  F   UNL     1      -8.712  -8.575  -3.312  1.00  0.00    -0.203 F 
ATOM     82  F   UNL     1      -4.200  -5.627  -4.179  1.00  0.00    -0.200 F 
ATOM     83  C   UNL     1      -5.243  -7.532  -3.253  1.00  0.00     0.200 A 
ATOM     84  F   UNL     1      -6.344  -9.381  -2.289  1.00  0.00    -0.200 F 
ATOM     85  F   UNL     1      -4.104  -7.870  -2.632  1.00  0.00    -0.200 F 
ENDBRANCH  51  75
BRANCH  63  86
ATOM     86  C   UNL     1     -14.781  -7.943  -4.754  1.00  0.00     0.064 A 
ATOM     87  C   UNL     1     -15.023  -8.098  -6.126  1.00  0.00     0.173 A 
ATOM     88  C   UNL     1     -15.682  -8.584  -3.879  1.00  0.00     0.173 A 
ATOM     89  F   UNL     1     -14.247  -7.484  -7.032  1.00  0.00    -0.203 F 
ATOM     90  C   UNL     1     -16.079  -8.880  -6.595  1.00  0.00     0.198 A 
ATOM     91  C   UNL     1     -16.768  -9.317  -4.349  1.00  0.00     0.198 A 
ATOM     92  F   UNL     1     -15.518  -8.536  -2.549  1.00  0.00    -0.203 F 
ATOM     93  F   UNL     1     -16.246  -9.049  -7.914  1.00  0.00    -0.200 F 
ATOM     94  C   UNL     1     -16.959  -9.476  -5.708  1.00  0.00     0.200 A 
ATOM     95  F   UNL     1     -17.622  -9.872  -3.478  1.00  0.00    -0.200 F 
ATOM     96  F   UNL     1     -17.986 -10.208  -6.160  1.00  0.00    -0.200 F 
ENDBRANCH  63  86
ENDBRANCH  37  38
ENDBRANCH  29  32
ENDBRANCH  27  28
ENDBRANCH  26  27
ENDBRANCH   1  26
TORSDOF 15
