REMARK SMILES Cc1cccc(N2CCN(c3ncc(NC(=O)c4ccccc4F)cc3C(=O)NCCCCNC(=O)c3ccc(-c4c5nc(c(-c6c(F)c(F)c(F)c(F)c6F)c6ccc([nH]6)c(-c6c(F)c(F)c(F)c(F)c6F)c6nc(c(-c7c(F)c(F)c(F)c(F)c7F)c7ccc4[nH]7)C=C6)C=C5)cc3)C[C@@H]2C)c1
REMARK SMILES IDX 31 1 30 2 29 3 27 4 28 5 26 7 11 8 12 9 13 10 25 11 14 12
REMARK SMILES IDX 10 13 7 14 8 15 101 16 9 17 100 18 102 19 6 20 1 21 2 22
REMARK SMILES IDX 3 23 103 24 4 25 5 26 15 27 16 28 17 30 18 31 19 32 23 33
REMARK SMILES IDX 20 34 22 35 24 36 21 37 32 38 33 39 34 40 35 41 36 43 37 44
REMARK SMILES IDX 38 45 99 46 39 47 98 48 40 49 41 50 42 51 92 52 43 53 97 54
REMARK SMILES IDX 91 55 93 56 44 57 96 58 90 59 89 60 45 62 77 63 57 64 76 65
REMARK SMILES IDX 58 66 61 67 75 68 94 69 59 70 60 71 74 73 95 74 62 75 46 76
REMARK SMILES IDX 47 77 55 78 48 79 49 80 53 81 56 82 50 83 51 84 54 85 52 86
REMARK SMILES IDX 78 87 79 88 87 89 80 90 81 91 85 92 88 93 82 94 83 95 86 96
REMARK SMILES IDX 84 97 63 98 64 99 72 100 65 101 66 102 70 103 73 104 67 105
REMARK SMILES IDX 68 106 71 107 69 108
REMARK H PARENT 29 6 15 29 34 42 93 61 61 72
REMARK Flexibility Score: inf
ROOT
ATOM      1  C   UNL     1      -6.701   7.664  -3.170  1.00  0.00     0.023 C 
ENDROOT
BRANCH   1   2
ATOM      2  C   UNL     1      -6.997   6.362  -2.397  1.00  0.00     0.116 C 
BRANCH   2   3
ATOM      3  N   UNL     1      -5.787   5.600  -2.145  1.00  0.00    -0.352 N 
ATOM      4  C   UNL     1      -4.688   6.035  -1.434  1.00  0.00     0.255 C 
ATOM      5  O   UNL     1      -3.613   6.060  -2.025  1.00  0.00    -0.269 OA
ATOM      6  H   UNL     1      -5.747   4.689  -2.515  1.00  0.00     0.163 HD
BRANCH   4   7
ATOM      7  C   UNL     1      -4.810   6.457  -0.018  1.00  0.00     0.084 A 
ATOM      8  C   UNL     1      -4.073   5.846   1.016  1.00  0.00     0.141 A 
ATOM      9  N   UNL     1      -4.231   6.264   2.304  1.00  0.00    -0.236 NA
ATOM     10  C   UNL     1      -5.103   7.268   2.578  1.00  0.00     0.139 A 
ATOM     11  C   UNL     1      -5.709   7.478   0.306  1.00  0.00     0.045 A 
ATOM     12  C   UNL     1      -5.876   7.891   1.617  1.00  0.00     0.060 A 
BRANCH   8  13
ATOM     13  N   UNL     1      -3.289   4.723   0.826  1.00  0.00    -0.352 N 
ATOM     14  N   UNL     1      -1.755   2.341   0.459  1.00  0.00    -0.365 N 
ATOM     15  C   UNL     1      -2.940   2.337   1.339  1.00  0.00     0.138 C 
ATOM     16  C   UNL     1      -1.682   3.421  -0.564  1.00  0.00     0.098 C 
ATOM     17  C   UNL     1      -3.226   3.740   1.920  1.00  0.00     0.139 C 
ATOM     18  C   UNL     1      -2.013   4.801   0.086  1.00  0.00     0.142 C 
ATOM     19  C   UNL     1      -2.623   3.103  -1.734  1.00  0.00     0.033 C 
BRANCH  14  20
ATOM     20  C   UNL     1      -1.077   1.152   0.228  1.00  0.00     0.037 A 
ATOM     21  C   UNL     1       2.544  -0.020  -0.139  1.00  0.00     0.044 C 
ATOM     22  C   UNL     1       1.046  -0.038  -0.078  1.00  0.00    -0.049 A 
ATOM     23  C   UNL     1       0.358  -1.252  -0.142  1.00  0.00     0.003 A 
ATOM     24  C   UNL     1       0.319   1.151   0.093  1.00  0.00     0.029 A 
ATOM     25  C   UNL     1      -1.030  -1.274  -0.035  1.00  0.00     0.002 A 
ATOM     26  C   UNL     1      -1.735  -0.083   0.154  1.00  0.00     0.026 A 
ENDBRANCH  14  20
ENDBRANCH   8  13
BRANCH  12  27
ATOM     27  N   UNL     1      -6.851   8.871   1.860  1.00  0.00    -0.320 N 
ATOM     28  C   UNL     1      -6.915   9.841   2.828  1.00  0.00     0.258 C 
ATOM     29  H   UNL     1      -7.611   8.861   1.235  1.00  0.00     0.170 HD
ATOM     30  O   UNL     1      -7.997  10.366   3.092  1.00  0.00    -0.269 OA
BRANCH  28  31
ATOM     31  C   UNL     1      -5.694  10.355   3.479  1.00  0.00     0.075 A 
ATOM     32  C   UNL     1      -5.774  10.774   4.812  1.00  0.00     0.017 A 
ATOM     33  C   UNL     1      -4.505  10.546   2.772  1.00  0.00     0.135 A 
ATOM     34  C   UNL     1      -4.651  11.319   5.439  1.00  0.00     0.001 A 
ATOM     35  C   UNL     1      -3.378  11.066   3.401  1.00  0.00     0.040 A 
ATOM     36  F   UNL     1      -4.420  10.275   1.461  1.00  0.00    -0.206 F 
ATOM     37  C   UNL     1      -3.450  11.449   4.739  1.00  0.00     0.003 A 
ENDBRANCH  28  31
ENDBRANCH  12  27
ENDBRANCH   4   7
ENDBRANCH   2   3
ENDBRANCH   1   2
BRANCH   1  38
ATOM     38  C   UNL     1      -5.999   7.465  -4.519  1.00  0.00     0.023 C 
BRANCH  38  39
ATOM     39  C   UNL     1      -6.907   6.877  -5.586  1.00  0.00     0.116 C 
BRANCH  39  40
ATOM     40  N   UNL     1      -7.675   7.869  -6.326  1.00  0.00    -0.352 N 
ATOM     41  C   UNL     1      -8.733   7.701  -7.206  1.00  0.00     0.251 C 
ATOM     42  H   UNL     1      -7.400   8.803  -6.179  1.00  0.00     0.163 HD
ATOM     43  O   UNL     1      -9.175   8.655  -7.820  1.00  0.00    -0.269 OA
BRANCH  41  44
ATOM     44  C   UNL     1      -9.431   6.391  -7.268  1.00  0.00     0.039 A 
ATOM     45  C   UNL     1     -10.832   6.412  -7.211  1.00  0.00     0.014 A 
ATOM     46  C   UNL     1      -8.742   5.195  -7.104  1.00  0.00     0.014 A 
ATOM     47  C   UNL     1     -11.505   5.314  -6.688  1.00  0.00     0.010 A 
ATOM     48  C   UNL     1      -9.389   4.151  -6.478  1.00  0.00     0.010 A 
ATOM     49  C   UNL     1     -10.753   4.256  -6.188  1.00  0.00    -0.014 A 
BRANCH  49  50
ATOM     50  C   UNL     1     -11.268   3.284  -5.236  1.00  0.00     0.031 A 
ATOM     51  C   UNL     1     -11.493   1.891  -5.659  1.00  0.00     0.074 A 
ATOM     52  C   UNL     1     -11.386   3.650  -3.939  1.00  0.00     0.049 A 
ATOM     53  N   UNL     1     -12.115   1.011  -4.954  1.00  0.00    -0.248 NA
ATOM     54  C   UNL     1     -11.095   1.395  -6.972  1.00  0.00     0.031 C 
ATOM     55  C   UNL     1     -11.537   2.784  -2.772  1.00  0.00     0.029 A 
ATOM     56  N   UNL     1     -11.614   4.945  -3.439  1.00  0.00    -0.354 N 
ATOM     57  C   UNL     1     -11.953  -0.209  -5.566  1.00  0.00     0.074 A 
ATOM     58  C   UNL     1     -11.430   0.105  -6.869  1.00  0.00     0.031 C 
ATOM     59  C   UNL     1     -12.115   3.486  -1.784  1.00  0.00     0.029 A 
ATOM     60  C   UNL     1     -12.498   4.767  -2.349  1.00  0.00     0.049 A 
ATOM     61  H   UNL     1     -11.240   5.791  -3.775  1.00  0.00     0.167 HD
ATOM     62  C   UNL     1     -12.159  -1.331  -4.818  1.00  0.00     0.037 A 
ATOM     63  C   UNL     1     -13.778   5.240  -2.393  1.00  0.00     0.037 A 
ATOM     64  C   UNL     1     -12.900  -0.989  -3.598  1.00  0.00     0.049 A 
ATOM     65  C   UNL     1     -14.830   4.165  -2.231  1.00  0.00     0.074 A 
ATOM     66  C   UNL     1     -12.549  -0.855  -2.265  1.00  0.00     0.029 A 
ATOM     67  N   UNL     1     -14.168  -0.421  -3.726  1.00  0.00    -0.354 N 
ATOM     68  N   UNL     1     -14.622   2.898  -2.463  1.00  0.00    -0.248 NA
ATOM     69  C   UNL     1     -16.200   4.440  -1.809  1.00  0.00     0.031 C 
ATOM     70  C   UNL     1     -13.575  -0.116  -1.615  1.00  0.00     0.029 A 
ATOM     71  C   UNL     1     -14.568   0.162  -2.540  1.00  0.00     0.049 A 
ATOM     72  H   UNL     1     -14.705  -0.433  -4.551  1.00  0.00     0.167 HD
ATOM     73  C   UNL     1     -15.779   2.195  -2.243  1.00  0.00     0.074 A 
ATOM     74  C   UNL     1     -16.732   3.205  -1.817  1.00  0.00     0.031 C 
ATOM     75  C   UNL     1     -15.854   0.844  -2.441  1.00  0.00     0.037 A 
BRANCH  62  76
ATOM     76  C   UNL     1     -11.501  -2.684  -5.057  1.00  0.00     0.064 A 
ATOM     77  C   UNL     1     -11.565  -3.689  -4.062  1.00  0.00     0.173 A 
ATOM     78  C   UNL     1     -10.689  -3.027  -6.160  1.00  0.00     0.173 A 
ATOM     79  F   UNL     1     -12.315  -3.535  -2.962  1.00  0.00    -0.203 F 
ATOM     80  C   UNL     1     -10.841  -4.887  -4.142  1.00  0.00     0.198 A 
ATOM     81  C   UNL     1      -9.981  -4.231  -6.248  1.00  0.00     0.198 A 
ATOM     82  F   UNL     1     -10.513  -2.221  -7.205  1.00  0.00    -0.203 F 
ATOM     83  F   UNL     1     -10.908  -5.774  -3.139  1.00  0.00    -0.200 F 
ATOM     84  C   UNL     1     -10.043  -5.155  -5.233  1.00  0.00     0.200 A 
ATOM     85  F   UNL     1      -9.218  -4.468  -7.326  1.00  0.00    -0.200 F 
ATOM     86  F   UNL     1      -9.337  -6.291  -5.307  1.00  0.00    -0.200 F 
ENDBRANCH  62  76
BRANCH  63  87
ATOM     87  C   UNL     1     -13.920   6.468  -3.223  1.00  0.00     0.064 A 
ATOM     88  C   UNL     1     -13.182   7.611  -2.853  1.00  0.00     0.173 A 
ATOM     89  C   UNL     1     -14.433   6.426  -4.524  1.00  0.00     0.173 A 
ATOM     90  F   UNL     1     -12.663   7.703  -1.618  1.00  0.00    -0.203 F 
ATOM     91  C   UNL     1     -12.862   8.602  -3.779  1.00  0.00     0.198 A 
ATOM     92  C   UNL     1     -14.128   7.433  -5.444  1.00  0.00     0.198 A 
ATOM     93  F   UNL     1     -15.127   5.360  -4.946  1.00  0.00    -0.203 F 
ATOM     94  F   UNL     1     -12.051   9.610  -3.426  1.00  0.00    -0.200 F 
ATOM     95  C   UNL     1     -13.314   8.498  -5.082  1.00  0.00     0.200 A 
ATOM     96  F   UNL     1     -14.536   7.317  -6.716  1.00  0.00    -0.200 F 
ATOM     97  F   UNL     1     -12.929   9.394  -6.002  1.00  0.00    -0.200 F 
ENDBRANCH  63  87
BRANCH  75  98
ATOM     98  C   UNL     1     -17.122   0.015  -2.485  1.00  0.00     0.064 A 
ATOM     99  C   UNL     1     -18.390   0.523  -2.815  1.00  0.00     0.173 A 
ATOM    100  C   UNL     1     -17.061  -1.394  -2.335  1.00  0.00     0.173 A 
ATOM    101  F   UNL     1     -18.571   1.815  -3.116  1.00  0.00    -0.203 F 
ATOM    102  C   UNL     1     -19.518  -0.299  -2.914  1.00  0.00     0.198 A 
ATOM    103  C   UNL     1     -18.174  -2.218  -2.500  1.00  0.00     0.198 A 
ATOM    104  F   UNL     1     -15.909  -2.021  -2.054  1.00  0.00    -0.203 F 
ATOM    105  F   UNL     1     -20.713   0.246  -3.184  1.00  0.00    -0.200 F 
ATOM    106  C   UNL     1     -19.408  -1.669  -2.771  1.00  0.00     0.200 A 
ATOM    107  F   UNL     1     -18.035  -3.549  -2.417  1.00  0.00    -0.200 F 
ATOM    108  F   UNL     1     -20.481  -2.456  -2.918  1.00  0.00    -0.200 F 
ENDBRANCH  75  98
ENDBRANCH  49  50
ENDBRANCH  41  44
ENDBRANCH  39  40
ENDBRANCH  38  39
ENDBRANCH   1  38
TORSDOF 15
