REMARK SMILES CC1=C(C(=O)NCCCCNC(=O)c2ccc(-c3c4nc(c(-c5c(F)c(F)c(F)c(F)c5F)c5ccc([nH]5)c(-c5c(F)c(F)c(F)c(F)c5F)c5nc(c(-c6c(F)c(F)c(F)c(F)c6F)c6ccc3[nH]6)C=C5)C=C4)cc2)[C@H](c2ccc(Cl)cc2)n2ncnc2N1
REMARK SMILES IDX 9 1 8 2 7 3 6 4 4 5 5 6 3 8 1 9 2 10 90 11 77 12 89 13 85 15
REMARK SMILES IDX 88 16 86 17 87 18 78 19 79 20 84 21 80 22 83 23 81 24 82 25
REMARK SMILES IDX 10 26 11 27 12 28 13 30 14 31 15 32 76 33 16 34 75 35 17 36
REMARK SMILES IDX 18 37 19 38 69 39 20 40 74 41 68 42 70 43 21 44 73 45 67 46
REMARK SMILES IDX 66 47 22 49 54 50 34 51 53 52 35 53 38 54 52 55 71 56 36 57
REMARK SMILES IDX 37 58 51 60 72 61 39 62 23 63 24 64 32 65 25 66 26 67 30 68
REMARK SMILES IDX 33 69 27 70 28 71 31 72 29 73 55 74 56 75 64 76 57 77 58 78
REMARK SMILES IDX 62 79 65 80 59 81 60 82 63 83 61 84 40 85 41 86 49 87 42 88
REMARK SMILES IDX 43 89 47 90 50 91 44 92 45 93 48 94 46 95
REMARK H PARENT 6 7 90 14 11 29 70 48 38 59
REMARK Flexibility Score: inf
ROOT
ATOM      1  C   UNL     1       0.349   3.073  -2.328  1.00  0.00     0.023 C 
ENDROOT
BRANCH   1   2
ATOM      2  C   UNL     1       0.757   1.878  -1.460  1.00  0.00     0.023 C 
BRANCH   2   3
ATOM      3  C   UNL     1      -0.108   1.631  -0.215  1.00  0.00     0.116 C 
BRANCH   3   4
ATOM      4  N   UNL     1      -1.184   0.722  -0.530  1.00  0.00    -0.352 N 
ATOM      5  C   UNL     1      -1.345  -0.616  -0.538  1.00  0.00     0.251 C 
ATOM      6  O   UNL     1      -2.392  -0.974  -1.094  1.00  0.00    -0.270 OA
ATOM      7  H   UNL     1      -2.001   1.196  -0.807  1.00  0.00     0.163 HD
BRANCH   5   8
ATOM      8  C   UNL     1      -0.479  -1.679   0.095  1.00  0.00     0.065 C 
ATOM      9  C   UNL     1       1.936  -0.756   0.113  1.00  0.00     0.065 C 
ATOM     10  C   UNL     1       0.863  -1.782   0.337  1.00  0.00     0.026 C 
ATOM     11  N   UNL     1       1.413  -3.013   0.716  1.00  0.00    -0.328 N 
ATOM     12  C   UNL     1      -1.363  -2.947   0.381  1.00  0.00     0.179 C 
ATOM     13  C   UNL     1       0.788  -4.181   0.510  1.00  0.00     0.226 A 
ATOM     14  H   UNL     1       2.295  -3.020   1.152  1.00  0.00     0.169 HD
ATOM     15  N   UNL     1      -0.548  -4.162   0.249  1.00  0.00    -0.219 N 
ATOM     16  N   UNL     1       1.228  -5.411   0.476  1.00  0.00    -0.200 NA
ATOM     17  N   UNL     1      -1.014  -5.397  -0.027  1.00  0.00    -0.157 NA
ATOM     18  C   UNL     1       0.105  -6.117   0.124  1.00  0.00     0.248 A 
BRANCH  12  19
ATOM     19  C   UNL     1      -2.064  -2.886   1.760  1.00  0.00    -0.018 A 
ATOM     20  C   UNL     1      -1.751  -3.767   2.816  1.00  0.00     0.008 A 
ATOM     21  C   UNL     1      -3.084  -1.943   1.989  1.00  0.00     0.008 A 
ATOM     22  C   UNL     1      -2.427  -3.713   4.039  1.00  0.00     0.021 A 
ATOM     23  C   UNL     1      -3.749  -1.875   3.220  1.00  0.00     0.021 A 
ATOM     24  C   UNL     1      -3.420  -2.763   4.238  1.00  0.00     0.041 A 
ATOM     25  Cl  UNL     1      -4.249  -2.695   5.743  1.00  0.00    -0.084 Cl
ENDBRANCH  12  19
ENDBRANCH   5   8
ENDBRANCH   3   4
ENDBRANCH   2   3
ENDBRANCH   1   2
BRANCH   1  26
ATOM     26  C   UNL     1       0.639   4.426  -1.694  1.00  0.00     0.116 C 
BRANCH  26  27
ATOM     27  N   UNL     1       2.063   4.638  -1.427  1.00  0.00    -0.352 N 
ATOM     28  C   UNL     1       2.627   5.599  -0.614  1.00  0.00     0.251 C 
ATOM     29  H   UNL     1       2.689   4.026  -1.878  1.00  0.00     0.163 HD
ATOM     30  O   UNL     1       3.795   5.959  -0.753  1.00  0.00    -0.269 OA
BRANCH  28  31
ATOM     31  C   UNL     1       1.798   6.163   0.457  1.00  0.00     0.039 A 
ATOM     32  C   UNL     1       1.710   7.540   0.679  1.00  0.00     0.014 A 
ATOM     33  C   UNL     1       1.034   5.258   1.192  1.00  0.00     0.014 A 
ATOM     34  C   UNL     1       0.779   8.004   1.603  1.00  0.00     0.010 A 
ATOM     35  C   UNL     1       0.016   5.724   1.979  1.00  0.00     0.010 A 
ATOM     36  C   UNL     1      -0.079   7.087   2.235  1.00  0.00    -0.014 A 
BRANCH  36  37
ATOM     37  C   UNL     1      -1.189   7.538   3.067  1.00  0.00     0.031 A 
ATOM     38  C   UNL     1      -2.125   8.465   2.373  1.00  0.00     0.074 A 
ATOM     39  C   UNL     1      -1.464   6.979   4.268  1.00  0.00     0.049 A 
ATOM     40  N   UNL     1      -2.334   9.711   2.638  1.00  0.00    -0.248 NA
ATOM     41  C   UNL     1      -2.796   8.002   1.145  1.00  0.00     0.031 C 
ATOM     42  C   UNL     1      -0.792   5.845   4.918  1.00  0.00     0.029 A 
ATOM     43  N   UNL     1      -2.478   7.249   5.135  1.00  0.00    -0.354 N 
ATOM     44  C   UNL     1      -3.320  10.136   1.750  1.00  0.00     0.074 A 
ATOM     45  C   UNL     1      -3.420   9.113   0.744  1.00  0.00     0.031 C 
ATOM     46  C   UNL     1      -1.549   5.386   5.939  1.00  0.00     0.029 A 
ATOM     47  C   UNL     1      -2.664   6.293   6.131  1.00  0.00     0.049 A 
ATOM     48  H   UNL     1      -3.037   8.056   5.063  1.00  0.00     0.167 HD
ATOM     49  C   UNL     1      -4.148  11.166   2.081  1.00  0.00     0.037 A 
ATOM     50  C   UNL     1      -3.670   6.250   7.042  1.00  0.00     0.037 A 
ATOM     51  C   UNL     1      -3.604  11.914   3.188  1.00  0.00     0.049 A 
ATOM     52  C   UNL     1      -4.259   7.609   7.100  1.00  0.00     0.074 A 
ATOM     53  C   UNL     1      -2.456  12.651   3.401  1.00  0.00     0.029 A 
ATOM     54  N   UNL     1      -4.104  11.632   4.435  1.00  0.00    -0.354 N 
ATOM     55  N   UNL     1      -3.628   8.648   7.570  1.00  0.00    -0.248 NA
ATOM     56  C   UNL     1      -5.364   7.900   6.202  1.00  0.00     0.031 C 
ATOM     57  C   UNL     1      -2.079  12.368   4.748  1.00  0.00     0.029 A 
ATOM     58  C   UNL     1      -3.056  11.546   5.311  1.00  0.00     0.049 A 
ATOM     59  H   UNL     1      -5.055  11.511   4.660  1.00  0.00     0.167 HD
ATOM     60  C   UNL     1      -3.945   9.673   6.694  1.00  0.00     0.074 A 
ATOM     61  C   UNL     1      -5.088   9.178   5.928  1.00  0.00     0.031 C 
ATOM     62  C   UNL     1      -3.065  10.694   6.476  1.00  0.00     0.037 A 
BRANCH  49  63
ATOM     63  C   UNL     1      -5.619  11.245   1.722  1.00  0.00     0.064 A 
ATOM     64  C   UNL     1      -6.348  12.390   2.108  1.00  0.00     0.173 A 
ATOM     65  C   UNL     1      -6.401  10.140   1.322  1.00  0.00     0.173 A 
ATOM     66  F   UNL     1      -5.714  13.502   2.511  1.00  0.00    -0.203 F 
ATOM     67  C   UNL     1      -7.744  12.388   2.192  1.00  0.00     0.198 A 
ATOM     68  C   UNL     1      -7.795  10.160   1.358  1.00  0.00     0.198 A 
ATOM     69  F   UNL     1      -5.865   8.962   0.989  1.00  0.00    -0.203 F 
ATOM     70  F   UNL     1      -8.381  13.451   2.701  1.00  0.00    -0.200 F 
ATOM     71  C   UNL     1      -8.466  11.268   1.828  1.00  0.00     0.200 A 
ATOM     72  F   UNL     1      -8.476   9.056   1.016  1.00  0.00    -0.200 F 
ATOM     73  F   UNL     1      -9.796  11.236   1.974  1.00  0.00    -0.200 F 
ENDBRANCH  49  63
BRANCH  50  74
ATOM     74  C   UNL     1      -4.356   5.079   7.640  1.00  0.00     0.064 A 
ATOM     75  C   UNL     1      -5.155   5.214   8.789  1.00  0.00     0.173 A 
ATOM     76  C   UNL     1      -4.494   3.877   6.921  1.00  0.00     0.173 A 
ATOM     77  F   UNL     1      -5.118   6.347   9.506  1.00  0.00    -0.203 F 
ATOM     78  C   UNL     1      -6.063   4.221   9.175  1.00  0.00     0.198 A 
ATOM     79  C   UNL     1      -5.400   2.886   7.307  1.00  0.00     0.198 A 
ATOM     80  F   UNL     1      -3.829   3.687   5.772  1.00  0.00    -0.203 F 
ATOM     81  F   UNL     1      -6.858   4.417  10.236  1.00  0.00    -0.200 F 
ATOM     82  C   UNL     1      -6.195   3.065   8.425  1.00  0.00     0.200 A 
ATOM     83  F   UNL     1      -5.551   1.792   6.548  1.00  0.00    -0.200 F 
ATOM     84  F   UNL     1      -7.117   2.147   8.751  1.00  0.00    -0.200 F 
ENDBRANCH  50  74
BRANCH  62  85
ATOM     85  C   UNL     1      -1.900  10.818   7.421  1.00  0.00     0.064 A 
ATOM     86  C   UNL     1      -0.883   9.857   7.569  1.00  0.00     0.173 A 
ATOM     87  C   UNL     1      -1.752  12.021   8.122  1.00  0.00     0.173 A 
ATOM     88  F   UNL     1      -0.897   8.721   6.862  1.00  0.00    -0.203 F 
ATOM     89  C   UNL     1       0.202  10.076   8.417  1.00  0.00     0.198 A 
ATOM     90  C   UNL     1      -0.649  12.253   8.938  1.00  0.00     0.198 A 
ATOM     91  F   UNL     1      -2.663  12.996   7.980  1.00  0.00    -0.203 F 
ATOM     92  F   UNL     1       1.149   9.136   8.555  1.00  0.00    -0.200 F 
ATOM     93  C   UNL     1       0.320  11.276   9.096  1.00  0.00     0.200 A 
ATOM     94  F   UNL     1      -0.515  13.436   9.553  1.00  0.00    -0.200 F 
ATOM     95  F   UNL     1       1.380  11.503   9.885  1.00  0.00    -0.200 F 
ENDBRANCH  62  85
ENDBRANCH  36  37
ENDBRANCH  28  31
ENDBRANCH  26  27
ENDBRANCH   1  26
TORSDOF 12
