REMARK SMILES Cc1ccc(C(=O)N[C@@H]2C=C[C@H](C(=O)NCCCCNC(=O)c3ccc(-c4c5nc(c(-c6c(F)c(F)c(F)c(F)c6F)c6ccc([nH]6)c(-c6c(F)c(F)c(F)c(F)c6F)c6nc(c(-c7c(F)c(F)c(F)c(F)c7F)c7ccc4[nH]7)C=C6)C=C5)cc3)C2)c(F)c1
REMARK SMILES IDX 17 1 16 2 15 3 13 4 14 5 12 7 9 8 10 9 86 10 11 11 8 12 6 13
REMARK SMILES IDX 7 14 5 16 1 17 2 18 3 19 89 20 4 21 87 22 88 23 18 24 19 25
REMARK SMILES IDX 20 26 21 27 22 29 23 30 24 31 85 32 25 33 84 34 26 35 27 36
REMARK SMILES IDX 28 37 78 38 29 39 83 40 77 41 79 42 30 43 82 44 76 45 75 46
REMARK SMILES IDX 31 48 63 49 43 50 62 51 44 52 47 53 61 54 80 55 45 56 46 57
REMARK SMILES IDX 60 59 81 60 48 61 32 62 33 63 41 64 34 65 35 66 39 67 42 68
REMARK SMILES IDX 36 69 37 70 40 71 38 72 64 73 65 74 73 75 66 76 67 77 71 78
REMARK SMILES IDX 74 79 68 80 69 81 72 82 70 83 49 84 50 85 58 86 51 87 52 88
REMARK SMILES IDX 56 89 59 90 53 91 54 92 57 93 55 94
REMARK H PARENT 15 6 8 15 20 28 79 47 47 58
REMARK Flexibility Score: inf
ROOT
ATOM      1  C   UNL     1       1.038  -9.169   2.739  1.00  0.00     0.023 C 
ENDROOT
BRANCH   1   2
ATOM      2  C   UNL     1       1.543  -7.763   3.080  1.00  0.00     0.116 C 
BRANCH   2   3
ATOM      3  N   UNL     1       2.229  -7.103   1.981  1.00  0.00    -0.356 N 
ATOM      4  C   UNL     1       2.073  -5.825   1.502  1.00  0.00     0.227 C 
ATOM      5  O   UNL     1       2.882  -5.416   0.671  1.00  0.00    -0.274 OA
ATOM      6  H   UNL     1       2.901  -7.650   1.514  1.00  0.00     0.163 HD
BRANCH   4   7
ATOM      7  C   UNL     1       0.882  -4.998   1.998  1.00  0.00     0.103 C 
ATOM      8  C   UNL     1      -0.842  -4.384   0.322  1.00  0.00     0.106 C 
ATOM      9  C   UNL     1      -0.031  -3.208   0.773  1.00  0.00    -0.006 C 
ATOM     10  C   UNL     1      -0.394  -5.480   1.301  1.00  0.00     0.047 C 
ATOM     11  C   UNL     1       0.920  -3.545   1.651  1.00  0.00    -0.016 C 
BRANCH   8  12
ATOM     12  N   UNL     1      -0.581  -4.558  -1.097  1.00  0.00    -0.346 N 
ATOM     13  C   UNL     1      -0.911  -5.538  -2.000  1.00  0.00     0.254 C 
ATOM     14  O   UNL     1      -0.864  -5.289  -3.201  1.00  0.00    -0.269 OA
ATOM     15  H   UNL     1      -0.060  -3.822  -1.492  1.00  0.00     0.164 HD
BRANCH  13  16
ATOM     16  C   UNL     1      -1.222  -6.905  -1.554  1.00  0.00     0.075 A 
ATOM     17  C   UNL     1      -1.334 -10.795   0.263  1.00  0.00     0.044 C 
ATOM     18  C   UNL     1      -1.365  -9.464  -0.429  1.00  0.00    -0.048 A 
ATOM     19  C   UNL     1      -2.246  -8.455  -0.012  1.00  0.00     0.004 A 
ATOM     20  C   UNL     1      -0.506  -9.216  -1.504  1.00  0.00     0.043 A 
ATOM     21  C   UNL     1      -2.194  -7.181  -0.589  1.00  0.00     0.017 A 
ATOM     22  C   UNL     1      -0.431  -7.940  -2.054  1.00  0.00     0.136 A 
ATOM     23  F   UNL     1       0.471  -7.724  -3.022  1.00  0.00    -0.206 F 
ENDBRANCH  13  16
ENDBRANCH   8  12
ENDBRANCH   4   7
ENDBRANCH   2   3
ENDBRANCH   1   2
BRANCH   1  24
ATOM     24  C   UNL     1       2.074 -10.186   2.240  1.00  0.00     0.023 C 
BRANCH  24  25
ATOM     25  C   UNL     1       3.244 -10.385   3.184  1.00  0.00     0.116 C 
BRANCH  25  26
ATOM     26  N   UNL     1       2.859 -10.957   4.474  1.00  0.00    -0.352 N 
ATOM     27  C   UNL     1       3.677 -11.421   5.489  1.00  0.00     0.251 C 
ATOM     28  H   UNL     1       1.891 -11.021   4.642  1.00  0.00     0.163 HD
ATOM     29  O   UNL     1       3.236 -12.148   6.368  1.00  0.00    -0.269 OA
BRANCH  27  30
ATOM     30  C   UNL     1       5.092 -11.005   5.513  1.00  0.00     0.039 A 
ATOM     31  C   UNL     1       6.112 -11.821   6.027  1.00  0.00     0.014 A 
ATOM     32  C   UNL     1       5.382  -9.727   5.058  1.00  0.00     0.014 A 
ATOM     33  C   UNL     1       7.424 -11.341   6.054  1.00  0.00     0.010 A 
ATOM     34  C   UNL     1       6.674  -9.347   4.871  1.00  0.00     0.010 A 
ATOM     35  C   UNL     1       7.681 -10.098   5.477  1.00  0.00    -0.014 A 
BRANCH  35  36
ATOM     36  C   UNL     1       8.907  -9.333   5.602  1.00  0.00     0.031 A 
ATOM     37  C   UNL     1      10.065  -9.600   4.750  1.00  0.00     0.074 A 
ATOM     38  C   UNL     1       8.761  -8.188   6.307  1.00  0.00     0.049 A 
ATOM     39  N   UNL     1      11.260  -9.212   5.022  1.00  0.00    -0.248 NA
ATOM     40  C   UNL     1       9.960 -10.325   3.491  1.00  0.00     0.031 C 
ATOM     41  C   UNL     1       9.561  -6.976   6.304  1.00  0.00     0.029 A 
ATOM     42  N   UNL     1       7.765  -7.934   7.268  1.00  0.00    -0.354 N 
ATOM     43  C   UNL     1      11.986  -9.306   3.855  1.00  0.00     0.074 A 
ATOM     44  C   UNL     1      11.181 -10.126   2.978  1.00  0.00     0.031 C 
ATOM     45  C   UNL     1       9.246  -6.255   7.398  1.00  0.00     0.029 A 
ATOM     46  C   UNL     1       8.341  -7.066   8.203  1.00  0.00     0.049 A 
ATOM     47  H   UNL     1       6.849  -8.294   7.280  1.00  0.00     0.167 HD
ATOM     48  C   UNL     1      13.082  -8.503   3.703  1.00  0.00     0.037 A 
ATOM     49  C   UNL     1       8.611  -7.558   9.449  1.00  0.00     0.037 A 
ATOM     50  C   UNL     1      13.254  -7.656   4.888  1.00  0.00     0.049 A 
ATOM     51  C   UNL     1      10.094  -7.610   9.698  1.00  0.00     0.074 A 
ATOM     52  C   UNL     1      12.901  -6.337   5.131  1.00  0.00     0.029 A 
ATOM     53  N   UNL     1      13.492  -8.232   6.136  1.00  0.00    -0.354 N 
ATOM     54  N   UNL     1      10.989  -7.787   8.763  1.00  0.00    -0.248 NA
ATOM     55  C   UNL     1      10.678  -7.387  11.013  1.00  0.00     0.031 C 
ATOM     56  C   UNL     1      12.866  -6.141   6.533  1.00  0.00     0.029 A 
ATOM     57  C   UNL     1      13.207  -7.334   7.148  1.00  0.00     0.049 A 
ATOM     58  H   UNL     1      13.817  -9.151   6.276  1.00  0.00     0.167 HD
ATOM     59  C   UNL     1      12.237  -7.640   9.306  1.00  0.00     0.074 A 
ATOM     60  C   UNL     1      11.988  -7.406  10.718  1.00  0.00     0.031 C 
ATOM     61  C   UNL     1      13.379  -7.676   8.554  1.00  0.00     0.037 A 
BRANCH  48  62
ATOM     62  C   UNL     1      13.759  -8.220   2.372  1.00  0.00     0.064 A 
ATOM     63  C   UNL     1      14.414  -6.989   2.136  1.00  0.00     0.173 A 
ATOM     64  C   UNL     1      13.773  -9.104   1.276  1.00  0.00     0.173 A 
ATOM     65  F   UNL     1      14.597  -6.091   3.111  1.00  0.00    -0.203 F 
ATOM     66  C   UNL     1      14.920  -6.628   0.884  1.00  0.00     0.198 A 
ATOM     67  C   UNL     1      14.242  -8.728   0.010  1.00  0.00     0.198 A 
ATOM     68  F   UNL     1      13.388 -10.379   1.407  1.00  0.00    -0.203 F 
ATOM     69  F   UNL     1      15.515  -5.436   0.727  1.00  0.00    -0.200 F 
ATOM     70  C   UNL     1      14.804  -7.484  -0.189  1.00  0.00     0.200 A 
ATOM     71  F   UNL     1      14.150  -9.587  -1.016  1.00  0.00    -0.200 F 
ATOM     72  F   UNL     1      15.260  -7.126  -1.397  1.00  0.00    -0.200 F 
ENDBRANCH  48  62
BRANCH  49  73
ATOM     73  C   UNL     1       7.608  -8.584   9.880  1.00  0.00     0.064 A 
ATOM     74  C   UNL     1       6.265  -8.168  10.014  1.00  0.00     0.173 A 
ATOM     75  C   UNL     1       7.838  -9.960   9.738  1.00  0.00     0.173 A 
ATOM     76  F   UNL     1       5.981  -6.862  10.145  1.00  0.00    -0.203 F 
ATOM     77  C   UNL     1       5.205  -9.063   9.875  1.00  0.00     0.198 A 
ATOM     78  C   UNL     1       6.770 -10.858   9.619  1.00  0.00     0.198 A 
ATOM     79  F   UNL     1       9.086 -10.430   9.607  1.00  0.00    -0.203 F 
ATOM     80  F   UNL     1       3.942  -8.609   9.879  1.00  0.00    -0.200 F 
ATOM     81  C   UNL     1       5.458 -10.404   9.651  1.00  0.00     0.200 A 
ATOM     82  F   UNL     1       7.012 -12.158   9.394  1.00  0.00    -0.200 F 
ATOM     83  F   UNL     1       4.442 -11.252   9.438  1.00  0.00    -0.200 F 
ENDBRANCH  49  73
BRANCH  61  84
ATOM     84  C   UNL     1      14.777  -7.851   9.097  1.00  0.00     0.064 A 
ATOM     85  C   UNL     1      15.061  -8.410  10.354  1.00  0.00     0.173 A 
ATOM     86  C   UNL     1      15.911  -7.575   8.292  1.00  0.00     0.173 A 
ATOM     87  F   UNL     1      14.091  -8.878  11.150  1.00  0.00    -0.203 F 
ATOM     88  C   UNL     1      16.369  -8.567  10.818  1.00  0.00     0.198 A 
ATOM     89  C   UNL     1      17.213  -7.803   8.729  1.00  0.00     0.198 A 
ATOM     90  F   UNL     1      15.796  -7.105   7.042  1.00  0.00    -0.203 F 
ATOM     91  F   UNL     1      16.578  -9.036  12.056  1.00  0.00    -0.200 F 
ATOM     92  C   UNL     1      17.444  -8.270  10.004  1.00  0.00     0.200 A 
ATOM     93  F   UNL     1      18.241  -7.583   7.897  1.00  0.00    -0.200 F 
ATOM     94  F   UNL     1      18.696  -8.460  10.438  1.00  0.00    -0.200 F 
ENDBRANCH  61  84
ENDBRANCH  35  36
ENDBRANCH  27  30
ENDBRANCH  25  26
ENDBRANCH  24  25
ENDBRANCH   1  24
TORSDOF 13
