REMARK SMILES O=C(NCCCCNC(=O)[C@@H](O)c1cscc1Br)c1ccc(-c2c3nc(c(-c4c(F)c(F)c(F)c(F)c4F)c4ccc([nH]4)c(-c4c(F)c(F)c(F)c(F)c4F)c4nc(c(-c5c(F)c(F)c(F)c(F)c5F)c5ccc2[nH]5)C=C4)C=C3)cc1
REMARK SMILES IDX 5 1 4 2 3 3 1 4 2 5 19 7 20 8 81 9 21 10 80 11 22 12 23 13
REMARK SMILES IDX 24 14 74 15 25 16 79 17 73 18 75 19 26 20 78 21 72 22 71 23
REMARK SMILES IDX 27 25 59 26 39 27 58 28 40 29 43 30 57 31 76 32 41 33 42 34
REMARK SMILES IDX 56 36 77 37 44 38 28 39 29 40 37 41 30 42 31 43 35 44 38 45
REMARK SMILES IDX 32 46 33 47 36 48 34 49 60 50 61 51 69 52 62 53 63 54 67 55
REMARK SMILES IDX 70 56 64 57 65 58 68 59 66 60 45 61 46 62 54 63 47 64 48 65
REMARK SMILES IDX 52 66 55 67 49 68 50 69 53 70 51 71 6 72 7 73 8 74 9 75
REMARK SMILES IDX 10 77 11 78 12 79 13 81 14 82 17 83 15 84 16 85 18 86
REMARK H PARENT 3 6 75 24 43 35 8 76 12 80
REMARK Flexibility Score: inf
ROOT
ATOM      1  C   UNL     1       5.050  -0.928  -2.454  1.00  0.00     0.023 C 
ENDROOT
BRANCH   1   2
ATOM      2  C   UNL     1       4.682  -0.123  -1.214  1.00  0.00     0.116 C 
BRANCH   2   3
ATOM      3  N   UNL     1       3.249   0.066  -1.042  1.00  0.00    -0.352 N 
ATOM      4  O   UNL     1       1.266  -0.001   0.040  1.00  0.00    -0.269 OA
ATOM      5  C   UNL     1       2.478  -0.111   0.088  1.00  0.00     0.251 C 
ATOM      6  H   UNL     1       2.761   0.361  -1.845  1.00  0.00     0.163 HD
BRANCH   5   7
ATOM      7  C   UNL     1       3.143  -0.478   1.358  1.00  0.00     0.039 A 
ATOM      8  C   UNL     1       4.284   0.204   1.781  1.00  0.00     0.014 A 
ATOM      9  C   UNL     1       2.640  -1.546   2.107  1.00  0.00     0.014 A 
ATOM     10  C   UNL     1       5.019  -0.290   2.850  1.00  0.00     0.010 A 
ATOM     11  C   UNL     1       3.332  -1.983   3.241  1.00  0.00     0.010 A 
ATOM     12  C   UNL     1       4.551  -1.386   3.596  1.00  0.00    -0.014 A 
BRANCH  12  13
ATOM     13  C   UNL     1       5.345  -1.849   4.762  1.00  0.00     0.031 A 
ATOM     14  C   UNL     1       5.993  -3.205   4.779  1.00  0.00     0.074 A 
ATOM     15  C   UNL     1       5.533  -0.995   5.786  1.00  0.00     0.049 A 
ATOM     16  N   UNL     1       6.766  -3.737   5.694  1.00  0.00    -0.248 NA
ATOM     17  C   UNL     1       5.740  -4.084   3.627  1.00  0.00     0.031 C 
ATOM     18  C   UNL     1       4.940   0.341   5.884  1.00  0.00     0.029 A 
ATOM     19  N   UNL     1       6.294  -1.105   6.921  1.00  0.00    -0.354 N 
ATOM     20  C   UNL     1       7.079  -5.010   5.238  1.00  0.00     0.074 A 
ATOM     21  C   UNL     1       6.393  -5.186   3.976  1.00  0.00     0.031 C 
ATOM     22  C   UNL     1       5.404   0.948   6.985  1.00  0.00     0.029 A 
ATOM     23  C   UNL     1       6.278   0.025   7.700  1.00  0.00     0.049 A 
ATOM     24  H   UNL     1       6.803  -1.915   7.154  1.00  0.00     0.167 HD
ATOM     25  C   UNL     1       7.876  -5.942   5.817  1.00  0.00     0.037 A 
ATOM     26  C   UNL     1       6.892   0.289   8.867  1.00  0.00     0.037 A 
ATOM     27  C   UNL     1       8.567  -5.757   7.068  1.00  0.00     0.049 A 
ATOM     28  C   UNL     1       7.772  -0.760   9.480  1.00  0.00     0.074 A 
ATOM     29  C   UNL     1       9.398  -6.641   7.736  1.00  0.00     0.029 A 
ATOM     30  N   UNL     1       8.512  -4.605   7.838  1.00  0.00    -0.354 N 
ATOM     31  N   UNL     1       8.065  -1.956   9.032  1.00  0.00    -0.248 NA
ATOM     32  C   UNL     1       8.405  -0.424  10.762  1.00  0.00     0.031 C 
ATOM     33  C   UNL     1       9.821  -6.035   8.924  1.00  0.00     0.029 A 
ATOM     34  C   UNL     1       9.287  -4.758   8.977  1.00  0.00     0.049 A 
ATOM     35  H   UNL     1       7.999  -3.796   7.609  1.00  0.00     0.167 HD
ATOM     36  C   UNL     1       8.917  -2.516   9.972  1.00  0.00     0.074 A 
ATOM     37  C   UNL     1       9.120  -1.514  10.999  1.00  0.00     0.031 C 
ATOM     38  C   UNL     1       9.472  -3.752   9.990  1.00  0.00     0.037 A 
BRANCH  25  39
ATOM     39  C   UNL     1       8.044  -7.255   5.108  1.00  0.00     0.064 A 
ATOM     40  C   UNL     1       8.829  -7.368   3.951  1.00  0.00     0.173 A 
ATOM     41  C   UNL     1       7.466  -8.424   5.626  1.00  0.00     0.173 A 
ATOM     42  F   UNL     1       9.393  -6.278   3.410  1.00  0.00    -0.203 F 
ATOM     43  C   UNL     1       9.017  -8.601   3.331  1.00  0.00     0.198 A 
ATOM     44  C   UNL     1       7.676  -9.659   5.016  1.00  0.00     0.198 A 
ATOM     45  F   UNL     1       6.712  -8.372   6.734  1.00  0.00    -0.203 F 
ATOM     46  F   UNL     1       9.745  -8.680   2.208  1.00  0.00    -0.200 F 
ATOM     47  C   UNL     1       8.447  -9.745   3.868  1.00  0.00     0.200 A 
ATOM     48  F   UNL     1       7.134 -10.766   5.543  1.00  0.00    -0.200 F 
ATOM     49  F   UNL     1       8.639 -10.932   3.276  1.00  0.00    -0.200 F 
ENDBRANCH  25  39
BRANCH  26  50
ATOM     50  C   UNL     1       6.686   1.604   9.524  1.00  0.00     0.064 A 
ATOM     51  C   UNL     1       7.723   2.543   9.608  1.00  0.00     0.173 A 
ATOM     52  C   UNL     1       5.440   1.954  10.066  1.00  0.00     0.173 A 
ATOM     53  F   UNL     1       8.936   2.246   9.120  1.00  0.00    -0.203 F 
ATOM     54  C   UNL     1       7.524   3.777  10.222  1.00  0.00     0.198 A 
ATOM     55  C   UNL     1       5.235   3.200  10.651  1.00  0.00     0.198 A 
ATOM     56  F   UNL     1       4.415   1.092  10.003  1.00  0.00    -0.203 F 
ATOM     57  F   UNL     1       8.542   4.643  10.324  1.00  0.00    -0.200 F 
ATOM     58  C   UNL     1       6.279   4.108  10.736  1.00  0.00     0.200 A 
ATOM     59  F   UNL     1       4.025   3.522  11.130  1.00  0.00    -0.200 F 
ATOM     60  F   UNL     1       6.087   5.300  11.316  1.00  0.00    -0.200 F 
ENDBRANCH  26  50
BRANCH  38  61
ATOM     61  C   UNL     1      10.357  -4.077  11.155  1.00  0.00     0.064 A 
ATOM     62  C   UNL     1       9.824  -4.319  12.430  1.00  0.00     0.173 A 
ATOM     63  C   UNL     1      11.747  -4.155  10.994  1.00  0.00     0.173 A 
ATOM     64  F   UNL     1       8.501  -4.238  12.636  1.00  0.00    -0.203 F 
ATOM     65  C   UNL     1      10.657  -4.599  13.510  1.00  0.00     0.198 A 
ATOM     66  C   UNL     1      12.575  -4.460  12.071  1.00  0.00     0.198 A 
ATOM     67  F   UNL     1      12.303  -3.935   9.793  1.00  0.00    -0.203 F 
ATOM     68  F   UNL     1      10.132  -4.776  14.730  1.00  0.00    -0.200 F 
ATOM     69  C   UNL     1      12.030  -4.673  13.329  1.00  0.00     0.200 A 
ATOM     70  F   UNL     1      13.901  -4.538  11.894  1.00  0.00    -0.200 F 
ATOM     71  F   UNL     1      12.830  -4.938  14.370  1.00  0.00    -0.200 F 
ENDBRANCH  38  61
ENDBRANCH  12  13
ENDBRANCH   5   7
ENDBRANCH   2   3
ENDBRANCH   1   2
BRANCH   1  72
ATOM     72  C   UNL     1       4.572  -0.342  -3.779  1.00  0.00     0.023 C 
BRANCH  72  73
ATOM     73  C   UNL     1       4.982   1.105  -4.026  1.00  0.00     0.116 C 
BRANCH  73  74
ATOM     74  N   UNL     1       6.410   1.260  -4.216  1.00  0.00    -0.354 N 
ATOM     75  C   UNL     1       7.062   1.828  -5.278  1.00  0.00     0.253 C 
ATOM     76  H   UNL     1       6.982   0.914  -3.493  1.00  0.00     0.163 HD
ATOM     77  O   UNL     1       8.290   1.938  -5.213  1.00  0.00    -0.272 OA
BRANCH  75  78
ATOM     78  C   UNL     1       6.277   2.302  -6.533  1.00  0.00     0.235 C 
BRANCH  78  79
ATOM     79  O   UNL     1       5.529   1.228  -7.092  1.00  0.00    -0.378 OA
ATOM     80  H   UNL     1       4.882   0.911  -6.442  1.00  0.00     0.212 HD
ENDBRANCH  78  79
BRANCH  78  81
ATOM     81  C   UNL     1       5.472   3.554  -6.231  1.00  0.00     0.015 A 
ATOM     82  C   UNL     1       6.088   4.708  -5.756  1.00  0.00     0.073 A 
ATOM     83  C   UNL     1       4.061   3.800  -6.362  1.00  0.00     0.035 A 
ATOM     84  S   UNL     1       5.001   5.974  -5.398  1.00  0.00    -0.151 S 
ATOM     85  C   UNL     1       3.672   5.041  -5.913  1.00  0.00     0.080 A 
ATOM     86  Br  UNL     1       2.779   2.584  -7.052  1.00  0.00    -0.050 Br
ENDBRANCH  78  81
ENDBRANCH  75  78
ENDBRANCH  73  74
ENDBRANCH  72  73
ENDBRANCH   1  72
TORSDOF 13
