REMARK SMILES CC(C)Cc1ccc([C@H](CF)C(=O)NCCCCNC(=O)c2ccc(-c3c4nc(c(-c5c(F)c(F)c(F)c(F)c5F)c5ccc([nH]5)c(-c5c(F)c(F)c(F)c(F)c5F)c5nc(c(-c6c(F)c(F)c(F)c(F)c6F)c6ccc3[nH]6)C=C5)C=C4)cc2)cc1
REMARK SMILES IDX 16 1 15 2 14 3 12 4 13 5 9 7 8 8 5 9 6 10 86 11 7 12 85 13
REMARK SMILES IDX 4 14 2 15 1 16 3 17 10 18 11 19 17 20 18 21 19 22 20 23
REMARK SMILES IDX 21 25 22 26 23 27 84 28 24 29 83 30 25 31 26 32 27 33 77 34
REMARK SMILES IDX 28 35 82 36 76 37 78 38 29 39 81 40 75 41 74 42 30 44 62 45
REMARK SMILES IDX 42 46 61 47 43 48 46 49 60 50 79 51 44 52 45 53 59 55 80 56
REMARK SMILES IDX 47 57 31 58 32 59 40 60 33 61 34 62 38 63 41 64 35 65 36 66
REMARK SMILES IDX 39 67 37 68 63 69 64 70 72 71 65 72 66 73 70 74 73 75 67 76
REMARK SMILES IDX 68 77 71 78 69 79 48 80 49 81 57 82 50 83 51 84 55 85 58 86
REMARK SMILES IDX 52 87 53 88 56 89 54 90
REMARK H PARENT 14 6 19 24 78 43 46 54
REMARK Flexibility Score: inf
ROOT
ATOM      1  C   UNL     1       0.726   3.193  -1.533  1.00  0.00     0.023 C 
ENDROOT
BRANCH   1   2
ATOM      2  C   UNL     1      -0.339   4.106  -2.131  1.00  0.00     0.116 C 
BRANCH   2   3
ATOM      3  N   UNL     1      -0.372   4.015  -3.580  1.00  0.00    -0.355 N 
ATOM      4  C   UNL     1      -1.398   3.678  -4.413  1.00  0.00     0.230 C 
ATOM      5  O   UNL     1      -1.179   3.715  -5.627  1.00  0.00    -0.274 OA
ATOM      6  H   UNL     1       0.477   4.230  -4.030  1.00  0.00     0.163 HD
BRANCH   4   7
ATOM      7  C   UNL     1      -2.753   3.231  -3.874  1.00  0.00     0.139 C 
BRANCH   7   8
ATOM      8  C   UNL     1      -3.431   4.279  -2.996  1.00  0.00    -0.033 A 
ATOM      9  C   UNL     1      -4.705   6.268  -1.426  1.00  0.00    -0.048 A 
ATOM     10  C   UNL     1      -4.668   4.934  -1.006  1.00  0.00     0.004 A 
ATOM     11  C   UNL     1      -4.081   6.606  -2.630  1.00  0.00     0.004 A 
ATOM     12  C   UNL     1      -4.066   3.949  -1.791  1.00  0.00     0.005 A 
ATOM     13  C   UNL     1      -3.454   5.625  -3.405  1.00  0.00     0.005 A 
BRANCH   9  14
ATOM     14  C   UNL     1      -5.424   7.313  -0.606  1.00  0.00     0.038 C 
BRANCH  14  15
ATOM     15  C   UNL     1      -6.962   7.298  -0.760  1.00  0.00    -0.013 C 
ATOM     16  C   UNL     1      -7.611   6.036  -0.183  1.00  0.00     0.008 C 
ATOM     17  C   UNL     1      -7.560   8.526  -0.067  1.00  0.00     0.008 C 
ENDBRANCH  14  15
ENDBRANCH   9  14
ENDBRANCH   7   8
BRANCH   7  18
ATOM     18  C   UNL     1      -2.566   1.827  -3.298  1.00  0.00     0.232 C 
ATOM     19  F   UNL     1      -3.779   1.235  -3.112  1.00  0.00    -0.250 F 
ENDBRANCH   7  18
ENDBRANCH   4   7
ENDBRANCH   2   3
ENDBRANCH   1   2
BRANCH   1  20
ATOM     20  C   UNL     1       2.162   3.580  -1.880  1.00  0.00     0.023 C 
BRANCH  20  21
ATOM     21  C   UNL     1       2.551   5.005  -1.507  1.00  0.00     0.116 C 
BRANCH  21  22
ATOM     22  N   UNL     1       2.426   5.275  -0.083  1.00  0.00    -0.352 N 
ATOM     23  C   UNL     1       3.329   5.876   0.763  1.00  0.00     0.251 C 
ATOM     24  H   UNL     1       1.581   4.988   0.332  1.00  0.00     0.163 HD
ATOM     25  O   UNL     1       3.130   5.907   1.970  1.00  0.00    -0.269 OA
BRANCH  23  26
ATOM     26  C   UNL     1       4.566   6.456   0.200  1.00  0.00     0.039 A 
ATOM     27  C   UNL     1       5.793   6.129   0.781  1.00  0.00     0.014 A 
ATOM     28  C   UNL     1       4.512   7.285  -0.923  1.00  0.00     0.014 A 
ATOM     29  C   UNL     1       6.975   6.576   0.189  1.00  0.00     0.010 A 
ATOM     30  C   UNL     1       5.690   7.664  -1.555  1.00  0.00     0.010 A 
ATOM     31  C   UNL     1       6.934   7.313  -1.006  1.00  0.00    -0.014 A 
BRANCH  31  32
ATOM     32  C   UNL     1       8.176   7.733  -1.701  1.00  0.00     0.031 A 
ATOM     33  C   UNL     1       8.489   9.194  -1.858  1.00  0.00     0.074 A 
ATOM     34  C   UNL     1       8.980   6.805  -2.255  1.00  0.00     0.049 A 
ATOM     35  N   UNL     1       9.468   9.768  -2.511  1.00  0.00    -0.248 NA
ATOM     36  C   UNL     1       7.557  10.139  -1.222  1.00  0.00     0.031 C 
ATOM     37  C   UNL     1       8.762   5.358  -2.208  1.00  0.00     0.029 A 
ATOM     38  N   UNL     1      10.138   6.942  -2.979  1.00  0.00    -0.354 N 
ATOM     39  C   UNL     1       9.259  11.134  -2.378  1.00  0.00     0.074 A 
ATOM     40  C   UNL     1       8.031  11.305  -1.633  1.00  0.00     0.031 C 
ATOM     41  C   UNL     1       9.764   4.741  -2.854  1.00  0.00     0.029 A 
ATOM     42  C   UNL     1      10.673   5.747  -3.395  1.00  0.00     0.049 A 
ATOM     43  H   UNL     1      10.547   7.815  -3.181  1.00  0.00     0.167 HD
ATOM     44  C   UNL     1      10.035  12.153  -2.817  1.00  0.00     0.037 A 
ATOM     45  C   UNL     1      11.768   5.495  -4.137  1.00  0.00     0.037 A 
ATOM     46  C   UNL     1      11.269  11.978  -3.535  1.00  0.00     0.049 A 
ATOM     47  C   UNL     1      12.606   6.646  -4.624  1.00  0.00     0.074 A 
ATOM     48  C   UNL     1      12.159  12.943  -3.972  1.00  0.00     0.029 A 
ATOM     49  N   UNL     1      11.787  10.751  -3.924  1.00  0.00    -0.354 N 
ATOM     50  N   UNL     1      12.436   7.932  -4.436  1.00  0.00    -0.248 NA
ATOM     51  C   UNL     1      13.791   6.309  -5.426  1.00  0.00     0.031 C 
ATOM     52  C   UNL     1      13.192  12.304  -4.665  1.00  0.00     0.029 A 
ATOM     53  C   UNL     1      12.974  10.937  -4.615  1.00  0.00     0.049 A 
ATOM     54  H   UNL     1      11.373   9.877  -3.736  1.00  0.00     0.167 HD
ATOM     55  C   UNL     1      13.507   8.555  -5.063  1.00  0.00     0.074 A 
ATOM     56  C   UNL     1      14.326   7.505  -5.630  1.00  0.00     0.031 C 
ATOM     57  C   UNL     1      13.786   9.878  -5.160  1.00  0.00     0.037 A 
BRANCH  44  58
ATOM     58  C   UNL     1       9.569  13.551  -2.526  1.00  0.00     0.064 A 
ATOM     59  C   UNL     1       9.560  14.067  -1.221  1.00  0.00     0.173 A 
ATOM     60  C   UNL     1       9.149  14.393  -3.567  1.00  0.00     0.173 A 
ATOM     61  F   UNL     1       9.940  13.300  -0.189  1.00  0.00    -0.203 F 
ATOM     62  C   UNL     1       9.114  15.361  -0.965  1.00  0.00     0.198 A 
ATOM     63  C   UNL     1       8.734  15.697  -3.311  1.00  0.00     0.198 A 
ATOM     64  F   UNL     1       9.143  13.952  -4.834  1.00  0.00    -0.203 F 
ATOM     65  F   UNL     1       9.060  15.812   0.296  1.00  0.00    -0.200 F 
ATOM     66  C   UNL     1       8.708  16.177  -2.010  1.00  0.00     0.200 A 
ATOM     67  F   UNL     1       8.354  16.489  -4.323  1.00  0.00    -0.200 F 
ATOM     68  F   UNL     1       8.282  17.423  -1.762  1.00  0.00    -0.200 F 
ENDBRANCH  44  58
BRANCH  45  69
ATOM     69  C   UNL     1      12.154   4.092  -4.441  1.00  0.00     0.064 A 
ATOM     70  C   UNL     1      13.300   3.523  -3.866  1.00  0.00     0.173 A 
ATOM     71  C   UNL     1      11.397   3.295  -5.311  1.00  0.00     0.173 A 
ATOM     72  F   UNL     1      14.068   4.253  -3.043  1.00  0.00    -0.203 F 
ATOM     73  C   UNL     1      13.685   2.219  -4.167  1.00  0.00     0.198 A 
ATOM     74  C   UNL     1      11.768   1.980  -5.589  1.00  0.00     0.198 A 
ATOM     75  F   UNL     1      10.290   3.789  -5.883  1.00  0.00    -0.203 F 
ATOM     76  F   UNL     1      14.810   1.717  -3.639  1.00  0.00    -0.200 F 
ATOM     77  C   UNL     1      12.916   1.446  -5.024  1.00  0.00     0.200 A 
ATOM     78  F   UNL     1      11.015   1.232  -6.407  1.00  0.00    -0.200 F 
ATOM     79  F   UNL     1      13.286   0.191  -5.310  1.00  0.00    -0.200 F 
ENDBRANCH  45  69
BRANCH  57  80
ATOM     80  C   UNL     1      15.052  10.266  -5.865  1.00  0.00     0.064 A 
ATOM     81  C   UNL     1      15.183  10.159  -7.257  1.00  0.00     0.173 A 
ATOM     82  C   UNL     1      16.131  10.796  -5.141  1.00  0.00     0.173 A 
ATOM     83  F   UNL     1      14.186   9.644  -7.992  1.00  0.00    -0.203 F 
ATOM     84  C   UNL     1      16.358  10.549  -7.896  1.00  0.00     0.198 A 
ATOM     85  C   UNL     1      17.292  11.212  -5.787  1.00  0.00     0.198 A 
ATOM     86  F   UNL     1      16.053  10.925  -3.808  1.00  0.00    -0.203 F 
ATOM     87  F   UNL     1      16.478  10.397  -9.223  1.00  0.00    -0.200 F 
ATOM     88  C   UNL     1      17.407  11.082  -7.162  1.00  0.00     0.200 A 
ATOM     89  F   UNL     1      18.299  11.741  -5.077  1.00  0.00    -0.200 F 
ATOM     90  F   UNL     1      18.532  11.466  -7.781  1.00  0.00    -0.200 F 
ENDBRANCH  57  80
ENDBRANCH  31  32
ENDBRANCH  23  26
ENDBRANCH  21  22
ENDBRANCH  20  21
ENDBRANCH   1  20
TORSDOF 15
