REMARK SMILES Cc1nn(C)cc1-c1cc(C(F)(F)F)c2c(C)nn(CC(=O)NCCCCNC(=O)c3ccc(-c4c5nc(c(-c6c(F)c(F)c(F)c(F)c6F)c6ccc([nH]6)c(-c6c(F)c(F)c(F)c(F)c6F)c6nc(c(-c7c(F)c(F)c(F)c(F)c7F)c7ccc4[nH]7)C=C6)C=C5)cc3)c2n1
REMARK SMILES IDX 25 1 24 2 23 3 21 4 22 5 20 7 19 8 8 9 9 10 95 11 10 12
REMARK SMILES IDX 94 13 15 14 16 15 18 16 17 17 7 18 1 19 2 20 3 21 4 22 6 23
REMARK SMILES IDX 5 24 11 25 12 26 13 27 14 28 26 29 27 30 28 31 29 32 30 34
REMARK SMILES IDX 31 35 32 36 93 37 33 38 92 39 34 40 35 41 36 42 86 43 37 44
REMARK SMILES IDX 91 45 85 46 87 47 38 48 90 49 84 50 83 51 39 53 71 54 51 55
REMARK SMILES IDX 70 56 52 57 55 58 69 59 88 60 53 61 54 62 68 64 89 65 56 66
REMARK SMILES IDX 40 67 41 68 49 69 42 70 43 71 47 72 50 73 44 74 45 75 48 76
REMARK SMILES IDX 46 77 72 78 73 79 81 80 74 81 75 82 79 83 82 84 76 85 77 86
REMARK SMILES IDX 80 87 78 88 57 89 58 90 66 91 59 92 60 93 64 94 67 95 61 96
REMARK SMILES IDX 62 97 65 98 63 99
REMARK H PARENT 23 6 28 33 87 52 55 63
REMARK Flexibility Score: inf
ROOT
ATOM      1  C   UNL     1      -0.364   0.334   3.354  1.00  0.00     0.023 C 
ENDROOT
BRANCH   1   2
ATOM      2  C   UNL     1      -0.881   1.703   3.764  1.00  0.00     0.116 C 
BRANCH   2   3
ATOM      3  N   UNL     1      -0.128   2.763   3.124  1.00  0.00    -0.354 N 
ATOM      4  C   UNL     1      -0.379   3.418   1.949  1.00  0.00     0.241 C 
ATOM      5  O   UNL     1       0.431   4.282   1.603  1.00  0.00    -0.273 OA
ATOM      6  H   UNL     1       0.681   3.053   3.603  1.00  0.00     0.163 HD
BRANCH   4   7
ATOM      7  C   UNL     1      -1.650   3.170   1.172  1.00  0.00     0.246 C 
BRANCH   7   8
ATOM      8  N   UNL     1      -1.589   1.957   0.373  1.00  0.00    -0.237 N 
ATOM      9  C   UNL     1      -2.009  -1.541   1.025  1.00  0.00     0.077 A 
ATOM     10  C   UNL     1      -2.838  -2.317   0.228  1.00  0.00     0.043 A 
ATOM     11  N   UNL     1      -2.573  -0.455   1.666  1.00  0.00    -0.228 NA
ATOM     12  C   UNL     1      -3.663  -1.629  -0.698  1.00  0.00     0.071 A 
ATOM     13  C   UNL     1      -2.797   0.489   0.700  1.00  0.00     0.159 A 
ATOM     14  C   UNL     1      -3.211  -0.312  -0.946  1.00  0.00     0.054 A 
ATOM     15  C   UNL     1      -1.938   0.512  -2.284  1.00  0.00     0.070 A 
ATOM     16  N   UNL     1      -1.168   1.988  -1.540  1.00  0.00    -0.175 NA
ATOM     17  C   UNL     1      -1.210  -0.259  -3.336  1.00  0.00     0.069 C 
BRANCH   9  18
ATOM     18  C   UNL     1      -0.857  -1.010   0.266  1.00  0.00     0.041 A 
ATOM     19  C   UNL     1      -2.742   1.551  -0.908  1.00  0.00     0.069 C 
ATOM     20  C   UNL     1      -0.940   0.368  -0.444  1.00  0.00     0.069 A 
ATOM     21  N   UNL     1       0.395   0.775  -0.455  1.00  0.00    -0.178 NA
ATOM     22  N   UNL     1       1.150  -0.261  -0.086  1.00  0.00    -0.275 N 
ATOM     23  C   UNL     1       0.469  -1.343   0.386  1.00  0.00     0.119 A 
ATOM     24  C   UNL     1       2.575  -0.029  -0.018  1.00  0.00     0.173 C 
ENDBRANCH   9  18
BRANCH  12  25
ATOM     25  C   UNL     1      -5.159  -1.821  -0.461  1.00  0.00     0.417 C 
ATOM     26  F   UNL     1      -5.556  -1.299   0.736  1.00  0.00    -0.166 F 
ATOM     27  F   UNL     1      -5.927  -1.207  -1.400  1.00  0.00    -0.166 F 
ATOM     28  F   UNL     1      -5.540  -3.126  -0.440  1.00  0.00    -0.166 F 
ENDBRANCH  12  25
ENDBRANCH   7   8
ENDBRANCH   4   7
ENDBRANCH   2   3
ENDBRANCH   1   2
BRANCH   1  29
ATOM     29  C   UNL     1       0.982  -0.155   3.871  1.00  0.00     0.023 C 
BRANCH  29  30
ATOM     30  C   UNL     1       0.962  -0.410   5.359  1.00  0.00     0.116 C 
BRANCH  30  31
ATOM     31  N   UNL     1      -0.013  -1.440   5.738  1.00  0.00    -0.352 N 
ATOM     32  C   UNL     1      -0.307  -1.889   7.009  1.00  0.00     0.251 C 
ATOM     33  H   UNL     1      -0.514  -1.858   5.001  1.00  0.00     0.163 HD
ATOM     34  O   UNL     1      -0.864  -2.958   7.212  1.00  0.00    -0.269 OA
BRANCH  32  35
ATOM     35  C   UNL     1       0.032  -0.995   8.120  1.00  0.00     0.039 A 
ATOM     36  C   UNL     1       0.672  -1.439   9.278  1.00  0.00     0.014 A 
ATOM     37  C   UNL     1      -0.254   0.353   7.913  1.00  0.00     0.014 A 
ATOM     38  C   UNL     1       1.036  -0.491  10.227  1.00  0.00     0.010 A 
ATOM     39  C   UNL     1       0.325   1.286   8.715  1.00  0.00     0.010 A 
ATOM     40  C   UNL     1       0.844   0.866   9.928  1.00  0.00    -0.014 A 
BRANCH  40  41
ATOM     41  C   UNL     1       1.269   1.932  10.811  1.00  0.00     0.031 A 
ATOM     42  C   UNL     1       2.741   2.008  10.953  1.00  0.00     0.074 A 
ATOM     43  C   UNL     1       0.395   2.879  11.221  1.00  0.00     0.049 A 
ATOM     44  N   UNL     1       3.429   1.754  12.014  1.00  0.00    -0.248 NA
ATOM     45  C   UNL     1       3.564   2.189   9.743  1.00  0.00     0.031 C 
ATOM     46  C   UNL     1      -1.028   3.027  10.882  1.00  0.00     0.029 A 
ATOM     47  N   UNL     1       0.635   3.989  11.972  1.00  0.00    -0.354 N 
ATOM     48  C   UNL     1       4.755   1.978  11.665  1.00  0.00     0.074 A 
ATOM     49  C   UNL     1       4.795   2.011  10.229  1.00  0.00     0.031 C 
ATOM     50  C   UNL     1      -1.455   4.263  11.228  1.00  0.00     0.029 A 
ATOM     51  C   UNL     1      -0.390   4.942  11.936  1.00  0.00     0.049 A 
ATOM     52  H   UNL     1       1.460   4.111  12.496  1.00  0.00     0.167 HD
ATOM     53  C   UNL     1       5.645   2.412  12.599  1.00  0.00     0.037 A 
ATOM     54  C   UNL     1      -0.292   6.212  12.413  1.00  0.00     0.037 A 
ATOM     55  C   UNL     1       5.129   2.202  13.930  1.00  0.00     0.049 A 
ATOM     56  C   UNL     1       0.828   6.198  13.402  1.00  0.00     0.074 A 
ATOM     57  C   UNL     1       4.726   1.082  14.633  1.00  0.00     0.029 A 
ATOM     58  N   UNL     1       4.546   3.273  14.565  1.00  0.00    -0.354 N 
ATOM     59  N   UNL     1       0.783   5.509  14.513  1.00  0.00    -0.248 NA
ATOM     60  C   UNL     1       2.162   6.469  12.880  1.00  0.00     0.031 C 
ATOM     61  C   UNL     1       3.539   1.485  15.310  1.00  0.00     0.029 A 
ATOM     62  C   UNL     1       3.347   2.848  15.080  1.00  0.00     0.049 A 
ATOM     63  H   UNL     1       4.921   4.181  14.636  1.00  0.00     0.167 HD
ATOM     64  C   UNL     1       2.027   4.899  14.599  1.00  0.00     0.074 A 
ATOM     65  C   UNL     1       2.841   5.545  13.566  1.00  0.00     0.031 C 
ATOM     66  C   UNL     1       2.204   3.715  15.257  1.00  0.00     0.037 A 
BRANCH  53  67
ATOM     67  C   UNL     1       6.771   3.372  12.317  1.00  0.00     0.064 A 
ATOM     68  C   UNL     1       7.710   3.635  13.333  1.00  0.00     0.173 A 
ATOM     69  C   UNL     1       6.805   4.254  11.214  1.00  0.00     0.173 A 
ATOM     70  F   UNL     1       7.749   2.877  14.439  1.00  0.00    -0.203 F 
ATOM     71  C   UNL     1       8.564   4.739  13.280  1.00  0.00     0.198 A 
ATOM     72  C   UNL     1       7.697   5.321  11.139  1.00  0.00     0.198 A 
ATOM     73  F   UNL     1       5.909   4.197  10.222  1.00  0.00    -0.203 F 
ATOM     74  F   UNL     1       9.351   5.020  14.326  1.00  0.00    -0.200 F 
ATOM     75  C   UNL     1       8.555   5.582  12.184  1.00  0.00     0.200 A 
ATOM     76  F   UNL     1       7.653   6.139  10.078  1.00  0.00    -0.200 F 
ATOM     77  F   UNL     1       9.333   6.671  12.155  1.00  0.00    -0.200 F 
ENDBRANCH  53  67
BRANCH  54  78
ATOM     78  C   UNL     1      -0.788   7.462  11.768  1.00  0.00     0.064 A 
ATOM     79  C   UNL     1      -0.776   8.697  12.442  1.00  0.00     0.173 A 
ATOM     80  C   UNL     1      -1.029   7.524  10.380  1.00  0.00     0.173 A 
ATOM     81  F   UNL     1      -0.506   8.746  13.755  1.00  0.00    -0.203 F 
ATOM     82  C   UNL     1      -0.973   9.912  11.767  1.00  0.00     0.198 A 
ATOM     83  C   UNL     1      -1.228   8.733   9.709  1.00  0.00     0.198 A 
ATOM     84  F   UNL     1      -0.985   6.418   9.624  1.00  0.00    -0.203 F 
ATOM     85  F   UNL     1      -0.900  11.072  12.435  1.00  0.00    -0.200 F 
ATOM     86  C   UNL     1      -1.188   9.928  10.399  1.00  0.00     0.200 A 
ATOM     87  F   UNL     1      -1.396   8.732   8.379  1.00  0.00    -0.200 F 
ATOM     88  F   UNL     1      -1.316  11.090   9.741  1.00  0.00    -0.200 F 
ENDBRANCH  54  78
BRANCH  66  89
ATOM     89  C   UNL     1       1.063   3.142  16.056  1.00  0.00     0.064 A 
ATOM     90  C   UNL     1      -0.140   2.677  15.493  1.00  0.00     0.173 A 
ATOM     91  C   UNL     1       1.299   2.832  17.402  1.00  0.00     0.173 A 
ATOM     92  F   UNL     1      -0.405   2.853  14.194  1.00  0.00    -0.203 F 
ATOM     93  C   UNL     1      -1.059   1.943  16.245  1.00  0.00     0.198 A 
ATOM     94  C   UNL     1       0.398   2.071  18.141  1.00  0.00     0.198 A 
ATOM     95  F   UNL     1       2.453   3.201  17.979  1.00  0.00    -0.203 F 
ATOM     96  F   UNL     1      -2.188   1.493  15.677  1.00  0.00    -0.200 F 
ATOM     97  C   UNL     1      -0.781   1.628  17.564  1.00  0.00     0.200 A 
ATOM     98  F   UNL     1       0.698   1.724  19.399  1.00  0.00    -0.200 F 
ATOM     99  F   UNL     1      -1.632   0.870  18.270  1.00  0.00    -0.200 F 
ENDBRANCH  66  89
ENDBRANCH  40  41
ENDBRANCH  32  35
ENDBRANCH  30  31
ENDBRANCH  29  30
ENDBRANCH   1  29
TORSDOF 14
