REMARK SMILES COc1ccc(C(=O)NCCCCNC(=O)c2ccc(-c3c4nc(c(-c5c(F)c(F)c(F)c(F)c5F)c5ccc([nH]5)c(-c5c(F)c(F)c(F)c(F)c5F)c5nc(c(-c6c(F)c(F)c(F)c(F)c6F)c6ccc3[nH]6)C=C5)C=C4)cc2)cc1C(F)(F)F
REMARK SMILES IDX 12 1 11 2 10 3 9 4 7 5 8 6 6 8 3 9 4 10 81 11 5 12 80 13
REMARK SMILES IDX 2 14 1 15 82 16 83 17 84 18 85 19 13 20 14 21 15 22 16 24
REMARK SMILES IDX 17 25 18 26 79 27 19 28 78 29 20 30 21 31 22 32 72 33 23 34
REMARK SMILES IDX 77 35 71 36 73 37 24 38 76 39 70 40 69 41 25 43 57 44 37 45
REMARK SMILES IDX 56 46 38 47 41 48 55 49 74 50 39 51 40 52 54 54 75 55 42 56
REMARK SMILES IDX 26 57 27 58 35 59 28 60 29 61 33 62 36 63 30 64 31 65 34 66
REMARK SMILES IDX 32 67 58 68 59 69 67 70 60 71 61 72 65 73 68 74 62 75 63 76
REMARK SMILES IDX 66 77 64 78 43 79 44 80 52 81 45 82 46 83 50 84 53 85 47 86
REMARK SMILES IDX 48 87 51 88 49 89
REMARK H PARENT 9 7 14 23 73 42 41 53
REMARK Flexibility Score: inf
ROOT
ATOM      1  C   UNL     1       6.245   6.414  -2.908  1.00  0.00     0.023 C 
ENDROOT
BRANCH   1   2
ATOM      2  C   UNL     1       5.372   5.291  -2.345  1.00  0.00     0.023 C 
BRANCH   2   3
ATOM      3  C   UNL     1       4.238   5.770  -1.433  1.00  0.00     0.116 C 
BRANCH   3   4
ATOM      4  N   UNL     1       3.109   6.236  -2.215  1.00  0.00    -0.352 N 
ATOM      5  C   UNL     1       1.936   5.626  -2.585  1.00  0.00     0.251 C 
ATOM      6  O   UNL     1       1.115   6.298  -3.209  1.00  0.00    -0.269 OA
ATOM      7  H   UNL     1       3.200   7.161  -2.540  1.00  0.00     0.163 HD
BRANCH   5   8
ATOM      8  C   UNL     1       1.597   4.217  -2.230  1.00  0.00     0.040 A 
ATOM      9  C   UNL     1       0.813   1.612  -1.517  1.00  0.00     0.131 A 
ATOM     10  C   UNL     1      -0.150   2.588  -1.778  1.00  0.00     0.048 A 
ATOM     11  C   UNL     1       2.170   1.896  -1.667  1.00  0.00     0.098 A 
ATOM     12  C   UNL     1       0.241   3.887  -2.116  1.00  0.00     0.017 A 
ATOM     13  C   UNL     1       2.541   3.201  -2.049  1.00  0.00     0.030 A 
BRANCH   9  14
ATOM     14  O   UNL     1       0.377   0.350  -1.224  1.00  0.00    -0.496 OA
ATOM     15  C   UNL     1       0.308   0.140   0.186  1.00  0.00     0.278 C 
ENDBRANCH   9  14
BRANCH  11  16
ATOM     16  C   UNL     1       3.249   0.889  -1.365  1.00  0.00     0.419 C 
ATOM     17  F   UNL     1       4.422   1.166  -2.008  1.00  0.00    -0.166 F 
ATOM     18  F   UNL     1       3.566   0.880  -0.038  1.00  0.00    -0.166 F 
ATOM     19  F   UNL     1       2.948  -0.395  -1.692  1.00  0.00    -0.166 F 
ENDBRANCH  11  16
ENDBRANCH   5   8
ENDBRANCH   3   4
ENDBRANCH   2   3
ENDBRANCH   1   2
BRANCH   1  20
ATOM     20  C   UNL     1       7.047   7.180  -1.864  1.00  0.00     0.116 C 
BRANCH  20  21
ATOM     21  N   UNL     1       7.960   6.340  -1.104  1.00  0.00    -0.352 N 
ATOM     22  C   UNL     1       9.165   6.686  -0.545  1.00  0.00     0.251 C 
ATOM     23  H   UNL     1       7.677   5.406  -0.975  1.00  0.00     0.163 HD
ATOM     24  O   UNL     1       9.874   5.840  -0.011  1.00  0.00    -0.269 OA
BRANCH  22  25
ATOM     25  C   UNL     1       9.623   8.087  -0.635  1.00  0.00     0.039 A 
ATOM     26  C   UNL     1      10.909   8.345  -1.116  1.00  0.00     0.014 A 
ATOM     27  C   UNL     1       8.771   9.137  -0.285  1.00  0.00     0.014 A 
ATOM     28  C   UNL     1      11.319   9.665  -1.309  1.00  0.00     0.010 A 
ATOM     29  C   UNL     1       9.155  10.448  -0.543  1.00  0.00     0.010 A 
ATOM     30  C   UNL     1      10.432  10.724  -1.056  1.00  0.00    -0.014 A 
BRANCH  30  31
ATOM     31  C   UNL     1      10.820  12.133  -1.308  1.00  0.00     0.031 A 
ATOM     32  C   UNL     1      10.926  13.094  -0.159  1.00  0.00     0.074 A 
ATOM     33  C   UNL     1      10.995  12.562  -2.571  1.00  0.00     0.049 A 
ATOM     34  N   UNL     1      11.149  14.383  -0.174  1.00  0.00    -0.248 NA
ATOM     35  C   UNL     1      10.723  12.535   1.187  1.00  0.00     0.031 C 
ATOM     36  C   UNL     1      10.874  11.734  -3.772  1.00  0.00     0.029 A 
ATOM     37  N   UNL     1      11.297  13.810  -3.057  1.00  0.00    -0.354 N 
ATOM     38  C   UNL     1      11.090  14.791   1.152  1.00  0.00     0.074 A 
ATOM     39  C   UNL     1      10.762  13.623   1.941  1.00  0.00     0.031 C 
ATOM     40  C   UNL     1      11.118  12.491  -4.854  1.00  0.00     0.029 A 
ATOM     41  C   UNL     1      11.376  13.863  -4.427  1.00  0.00     0.049 A 
ATOM     42  H   UNL     1      11.443  14.593  -2.478  1.00  0.00     0.167 HD
ATOM     43  C   UNL     1      11.310  16.024   1.666  1.00  0.00     0.037 A 
ATOM     44  C   UNL     1      11.622  14.904  -5.244  1.00  0.00     0.037 A 
ATOM     45  C   UNL     1      11.670  17.174   0.880  1.00  0.00     0.049 A 
ATOM     46  C   UNL     1      11.870  16.263  -4.647  1.00  0.00     0.074 A 
ATOM     47  C   UNL     1      11.982  18.451   1.311  1.00  0.00     0.029 A 
ATOM     48  N   UNL     1      11.767  17.183  -0.504  1.00  0.00    -0.354 N 
ATOM     49  N   UNL     1      11.875  16.625  -3.387  1.00  0.00    -0.248 NA
ATOM     50  C   UNL     1      12.151  17.357  -5.587  1.00  0.00     0.031 C 
ATOM     51  C   UNL     1      12.228  19.244   0.185  1.00  0.00     0.029 A 
ATOM     52  C   UNL     1      12.116  18.450  -0.945  1.00  0.00     0.049 A 
ATOM     53  H   UNL     1      11.612  16.405  -1.087  1.00  0.00     0.167 HD
ATOM     54  C   UNL     1      12.188  17.978  -3.380  1.00  0.00     0.074 A 
ATOM     55  C   UNL     1      12.376  18.370  -4.761  1.00  0.00     0.031 C 
ATOM     56  C   UNL     1      12.310  18.819  -2.324  1.00  0.00     0.037 A 
BRANCH  43  57
ATOM     57  C   UNL     1      11.166  16.189   3.150  1.00  0.00     0.064 A 
ATOM     58  C   UNL     1      12.088  15.626   4.046  1.00  0.00     0.173 A 
ATOM     59  C   UNL     1      10.107  16.939   3.683  1.00  0.00     0.173 A 
ATOM     60  F   UNL     1      13.111  14.889   3.588  1.00  0.00    -0.203 F 
ATOM     61  C   UNL     1      11.934  15.777   5.422  1.00  0.00     0.198 A 
ATOM     62  C   UNL     1       9.974  17.114   5.059  1.00  0.00     0.198 A 
ATOM     63  F   UNL     1       9.201  17.503   2.871  1.00  0.00    -0.203 F 
ATOM     64  F   UNL     1      12.795  15.183   6.260  1.00  0.00    -0.200 F 
ATOM     65  C   UNL     1      10.882  16.526   5.926  1.00  0.00     0.200 A 
ATOM     66  F   UNL     1       8.963  17.847   5.544  1.00  0.00    -0.200 F 
ATOM     67  F   UNL     1      10.737  16.674   7.250  1.00  0.00    -0.200 F 
ENDBRANCH  43  57
BRANCH  44  68
ATOM     68  C   UNL     1      11.678  14.696  -6.713  1.00  0.00     0.064 A 
ATOM     69  C   UNL     1      12.898  14.767  -7.400  1.00  0.00     0.173 A 
ATOM     70  C   UNL     1      10.523  14.421  -7.459  1.00  0.00     0.173 A 
ATOM     71  F   UNL     1      14.026  15.047  -6.731  1.00  0.00    -0.203 F 
ATOM     72  C   UNL     1      12.959  14.588  -8.780  1.00  0.00     0.198 A 
ATOM     73  C   UNL     1      10.588  14.217  -8.836  1.00  0.00     0.198 A 
ATOM     74  F   UNL     1       9.332  14.339  -6.848  1.00  0.00    -0.203 F 
ATOM     75  F   UNL     1      14.132  14.701  -9.417  1.00  0.00    -0.200 F 
ATOM     76  C   UNL     1      11.805  14.307  -9.496  1.00  0.00     0.200 A 
ATOM     77  F   UNL     1       9.473  13.934  -9.523  1.00  0.00    -0.200 F 
ATOM     78  F   UNL     1      11.864  14.131 -10.823  1.00  0.00    -0.200 F 
ENDBRANCH  44  68
BRANCH  56  79
ATOM     79  C   UNL     1      12.701  20.237  -2.616  1.00  0.00     0.064 A 
ATOM     80  C   UNL     1      11.801  21.144  -3.194  1.00  0.00     0.173 A 
ATOM     81  C   UNL     1      13.978  20.705  -2.272  1.00  0.00     0.173 A 
ATOM     82  F   UNL     1      10.574  20.741  -3.555  1.00  0.00    -0.203 F 
ATOM     83  C   UNL     1      12.174  22.464  -3.435  1.00  0.00     0.198 A 
ATOM     84  C   UNL     1      14.337  22.032  -2.489  1.00  0.00     0.198 A 
ATOM     85  F   UNL     1      14.873  19.877  -1.711  1.00  0.00    -0.203 F 
ATOM     86  F   UNL     1      11.313  23.303  -4.027  1.00  0.00    -0.200 F 
ATOM     87  C   UNL     1      13.438  22.908  -3.076  1.00  0.00     0.200 A 
ATOM     88  F   UNL     1      15.555  22.462  -2.129  1.00  0.00    -0.200 F 
ATOM     89  F   UNL     1      13.791  24.181  -3.301  1.00  0.00    -0.200 F 
ENDBRANCH  56  79
ENDBRANCH  30  31
ENDBRANCH  22  25
ENDBRANCH  20  21
ENDBRANCH   1  20
TORSDOF 13
