REMARK SMILES [NH3+][C@H]1CCC[C@H]1C(=O)NCc1ccc(C(=O)NCCCCNC(=O)c2ccc(-c3c4nc(c(-c5c(F)c(F)c(F)c(F)c5F)c5ccc([nH]5)c(-c5c(F)c(F)c(F)c(F)c5F)c5nc(c(-c6c(F)c(F)c(F)c(F)c6F)c6ccc3[nH]6)C=C5)C=C4)cc2)o1
REMARK SMILES IDX 18 1 17 2 15 3 16 4 14 6 11 7 12 8 88 9 13 10 10 11 9 12
REMARK SMILES IDX 7 13 8 14 6 16 2 17 3 18 4 19 5 20 1 21 19 25 20 26 21 27
REMARK SMILES IDX 22 28 23 29 24 31 25 32 26 33 87 34 27 35 86 36 28 37 29 38
REMARK SMILES IDX 30 39 80 40 31 41 85 42 79 43 81 44 32 45 84 46 78 47 77 48
REMARK SMILES IDX 33 50 65 51 45 52 64 53 46 54 49 55 63 56 82 57 47 58 48 59
REMARK SMILES IDX 62 61 83 62 50 63 34 64 35 65 43 66 36 67 37 68 41 69 44 70
REMARK SMILES IDX 38 71 39 72 42 73 40 74 66 75 67 76 75 77 68 78 69 79 73 80
REMARK SMILES IDX 76 81 70 82 71 83 74 84 72 85 51 86 52 87 60 88 53 89 54 90
REMARK SMILES IDX 58 91 61 92 55 93 56 94 59 95 57 96
REMARK H PARENT 17 5 9 15 1 22 1 23 1 24 22 30 81 49 49 60
REMARK Flexibility Score: inf
ROOT
ATOM      1  C   UNL     1       6.005   3.586  -4.564  1.00  0.00     0.116 C 
ENDROOT
BRANCH   1   2
ATOM      2  N   UNL     1       6.605   2.281  -4.398  1.00  0.00    -0.349 N 
ATOM      3  C   UNL     1       6.050   1.034  -4.211  1.00  0.00     0.286 C 
ATOM      4  O   UNL     1       6.862   0.110  -4.118  1.00  0.00    -0.266 OA
ATOM      5  H   UNL     1       7.589   2.284  -4.422  1.00  0.00     0.163 HD
BRANCH   3   6
ATOM      6  C   UNL     1       4.613   0.830  -4.152  1.00  0.00     0.191 A 
ATOM      7  C   UNL     1       2.821  -0.474  -4.096  1.00  0.00     0.124 A 
ATOM      8  C   UNL     1       2.358   0.819  -4.139  1.00  0.00     0.048 A 
ATOM      9  O   UNL     1       4.181  -0.481  -4.141  1.00  0.00    -0.454 OA
ATOM     10  C   UNL     1       3.498   1.648  -4.082  1.00  0.00     0.056 A 
BRANCH   7  11
ATOM     11  C   UNL     1       2.119  -1.774  -4.005  1.00  0.00     0.191 C 
BRANCH  11  12
ATOM     12  N   UNL     1       2.424  -2.421  -2.743  1.00  0.00    -0.348 N 
ATOM     13  C   UNL     1       1.729  -2.617  -1.597  1.00  0.00     0.229 C 
ATOM     14  O   UNL     1       2.335  -3.194  -0.684  1.00  0.00    -0.275 OA
ATOM     15  H   UNL     1       3.333  -2.798  -2.712  1.00  0.00     0.163 HD
BRANCH  13  16
ATOM     16  C   UNL     1       0.303  -2.138  -1.334  1.00  0.00     0.136 C 
ATOM     17  C   UNL     1       0.149  -0.664  -0.926  1.00  0.00     0.193 C 
ATOM     18  C   UNL     1      -1.253  -0.249  -1.380  1.00  0.00     0.066 C 
ATOM     19  C   UNL     1      -1.825  -1.369  -2.239  1.00  0.00     0.007 C 
ATOM     20  C   UNL     1      -0.770  -2.457  -2.364  1.00  0.00     0.020 C 
BRANCH  17  21
ATOM     21  N   UNL     1       1.115   0.285  -1.453  1.00  0.00    -0.354 N 
ATOM     22  H   UNL     1       0.898   1.219  -1.106  1.00  0.00     0.344 HD
ATOM     23  H   UNL     1       1.074   0.283  -2.472  1.00  0.00     0.344 HD
ATOM     24  H   UNL     1       2.053   0.019  -1.151  1.00  0.00     0.344 HD
ENDBRANCH  17  21
ENDBRANCH  13  16
ENDBRANCH  11  12
ENDBRANCH   7  11
ENDBRANCH   3   6
ENDBRANCH   1   2
BRANCH   1  25
ATOM     25  C   UNL     1       5.990   4.358  -3.245  1.00  0.00     0.023 C 
BRANCH  25  26
ATOM     26  C   UNL     1       7.306   5.086  -2.946  1.00  0.00     0.023 C 
BRANCH  26  27
ATOM     27  C   UNL     1       7.697   6.153  -3.967  1.00  0.00     0.116 C 
BRANCH  27  28
ATOM     28  N   UNL     1       6.691   7.188  -4.140  1.00  0.00    -0.352 N 
ATOM     29  C   UNL     1       6.874   8.501  -4.505  1.00  0.00     0.251 C 
ATOM     30  H   UNL     1       5.760   6.914  -3.976  1.00  0.00     0.163 HD
ATOM     31  O   UNL     1       5.934   9.284  -4.517  1.00  0.00    -0.269 OA
BRANCH  29  32
ATOM     32  C   UNL     1       8.235   8.968  -4.839  1.00  0.00     0.039 A 
ATOM     33  C   UNL     1       8.733  10.101  -4.192  1.00  0.00     0.014 A 
ATOM     34  C   UNL     1       9.027   8.265  -5.750  1.00  0.00     0.014 A 
ATOM     35  C   UNL     1      10.056  10.490  -4.406  1.00  0.00     0.010 A 
ATOM     36  C   UNL     1      10.364   8.616  -5.913  1.00  0.00     0.010 A 
ATOM     37  C   UNL     1      10.892   9.728  -5.239  1.00  0.00    -0.014 A 
BRANCH  37  38
ATOM     38  C   UNL     1      12.325  10.072  -5.410  1.00  0.00     0.031 A 
ATOM     39  C   UNL     1      12.839  10.502  -6.755  1.00  0.00     0.074 A 
ATOM     40  C   UNL     1      13.172   9.928  -4.374  1.00  0.00     0.049 A 
ATOM     41  N   UNL     1      14.067  10.763  -7.127  1.00  0.00    -0.248 NA
ATOM     42  C   UNL     1      11.845  10.632  -7.832  1.00  0.00     0.031 C 
ATOM     43  C   UNL     1      12.801   9.470  -3.034  1.00  0.00     0.029 A 
ATOM     44  N   UNL     1      14.526  10.138  -4.288  1.00  0.00    -0.354 N 
ATOM     45  C   UNL     1      13.993  11.073  -8.477  1.00  0.00     0.074 A 
ATOM     46  C   UNL     1      12.611  10.919  -8.874  1.00  0.00     0.031 C 
ATOM     47  C   UNL     1      13.896   9.450  -2.256  1.00  0.00     0.029 A 
ATOM     48  C   UNL     1      15.050   9.860  -3.049  1.00  0.00     0.049 A 
ATOM     49  H   UNL     1      15.070  10.459  -5.044  1.00  0.00     0.167 HD
ATOM     50  C   UNL     1      14.986  11.474  -9.306  1.00  0.00     0.037 A 
ATOM     51  C   UNL     1      16.321   9.921  -2.608  1.00  0.00     0.037 A 
ATOM     52  C   UNL     1      16.355  11.654  -8.902  1.00  0.00     0.049 A 
ATOM     53  C   UNL     1      17.404  10.373  -3.551  1.00  0.00     0.074 A 
ATOM     54  C   UNL     1      17.425  12.106  -9.654  1.00  0.00     0.029 A 
ATOM     55  N   UNL     1      16.843  11.393  -7.630  1.00  0.00    -0.354 N 
ATOM     56  N   UNL     1      17.311  10.725  -4.810  1.00  0.00    -0.248 NA
ATOM     57  C   UNL     1      18.768  10.444  -3.007  1.00  0.00     0.031 C 
ATOM     58  C   UNL     1      18.568  12.084  -8.848  1.00  0.00     0.029 A 
ATOM     59  C   UNL     1      18.201  11.662  -7.580  1.00  0.00     0.049 A 
ATOM     60  H   UNL     1      16.303  11.065  -6.874  1.00  0.00     0.167 HD
ATOM     61  C   UNL     1      18.593  11.086  -5.200  1.00  0.00     0.074 A 
ATOM     62  C   UNL     1      19.445  10.925  -4.040  1.00  0.00     0.031 C 
ATOM     63  C   UNL     1      19.028  11.512  -6.411  1.00  0.00     0.037 A 
BRANCH  50  64
ATOM     64  C   UNL     1      14.626  11.762 -10.734  1.00  0.00     0.064 A 
ATOM     65  C   UNL     1      13.870  12.890 -11.085  1.00  0.00     0.173 A 
ATOM     66  C   UNL     1      15.081  10.929 -11.767  1.00  0.00     0.173 A 
ATOM     67  F   UNL     1      13.401  13.711 -10.133  1.00  0.00    -0.203 F 
ATOM     68  C   UNL     1      13.564  13.162 -12.415  1.00  0.00     0.198 A 
ATOM     69  C   UNL     1      14.797  11.219 -13.098  1.00  0.00     0.198 A 
ATOM     70  F   UNL     1      15.811   9.839 -11.485  1.00  0.00    -0.203 F 
ATOM     71  F   UNL     1      12.805  14.223 -12.723  1.00  0.00    -0.200 F 
ATOM     72  C   UNL     1      14.034  12.331 -13.421  1.00  0.00     0.200 A 
ATOM     73  F   UNL     1      15.262  10.422 -14.071  1.00  0.00    -0.200 F 
ATOM     74  F   UNL     1      13.748  12.600 -14.703  1.00  0.00    -0.200 F 
ENDBRANCH  50  64
BRANCH  51  75
ATOM     75  C   UNL     1      16.641   9.568  -1.200  1.00  0.00     0.064 A 
ATOM     76  C   UNL     1      17.050  10.550  -0.287  1.00  0.00     0.173 A 
ATOM     77  C   UNL     1      16.567   8.244  -0.745  1.00  0.00     0.173 A 
ATOM     78  F   UNL     1      17.156  11.827  -0.682  1.00  0.00    -0.203 F 
ATOM     79  C   UNL     1      17.399  10.218   1.020  1.00  0.00     0.198 A 
ATOM     80  C   UNL     1      16.889   7.917   0.571  1.00  0.00     0.198 A 
ATOM     81  F   UNL     1      16.176   7.267  -1.577  1.00  0.00    -0.203 F 
ATOM     82  F   UNL     1      17.837  11.169   1.856  1.00  0.00    -0.200 F 
ATOM     83  C   UNL     1      17.314   8.902   1.449  1.00  0.00     0.200 A 
ATOM     84  F   UNL     1      16.793   6.646   0.986  1.00  0.00    -0.200 F 
ATOM     85  F   UNL     1      17.652   8.583   2.706  1.00  0.00    -0.200 F 
ENDBRANCH  51  75
BRANCH  63  86
ATOM     86  C   UNL     1      20.479  11.874  -6.533  1.00  0.00     0.064 A 
ATOM     87  C   UNL     1      21.483  10.895  -6.546  1.00  0.00     0.173 A 
ATOM     88  C   UNL     1      20.864  13.215  -6.681  1.00  0.00     0.173 A 
ATOM     89  F   UNL     1      21.165   9.600  -6.393  1.00  0.00    -0.203 F 
ATOM     90  C   UNL     1      22.823  11.248  -6.679  1.00  0.00     0.198 A 
ATOM     91  C   UNL     1      22.202  13.562  -6.842  1.00  0.00     0.198 A 
ATOM     92  F   UNL     1      19.940  14.188  -6.681  1.00  0.00    -0.203 F 
ATOM     93  F   UNL     1      23.770  10.300  -6.644  1.00  0.00    -0.200 F 
ATOM     94  C   UNL     1      23.180  12.579  -6.834  1.00  0.00     0.200 A 
ATOM     95  F   UNL     1      22.545  14.847  -7.005  1.00  0.00    -0.200 F 
ATOM     96  F   UNL     1      24.470  12.916  -6.969  1.00  0.00    -0.200 F 
ENDBRANCH  63  86
ENDBRANCH  37  38
ENDBRANCH  29  32
ENDBRANCH  27  28
ENDBRANCH  26  27
ENDBRANCH  25  26
ENDBRANCH   1  25
TORSDOF 15
