REMARK SMILES CC[C@@H](Oc1ccccc1/C=C1/SC(=S)N(c2ccc(NC(C)=O)cc2)C1=O)C(=O)NCCCCNC(=O)c1ccc(-c2c3nc(c(-c4c(F)c(F)c(F)c(F)c4F)c4ccc([nH]4)c(-c4c(F)c(F)c(F)c(F)c4F)c4nc(c(-c5c(F)c(F)c(F)c(F)c5F)c5ccc2[nH]5)C=C4)C=C3)cc1
REMARK SMILES IDX 32 1 31 2 29 3 30 4 3 6 2 7 1 8 4 9 5 10 6 11 10 12 7 13
REMARK SMILES IDX 9 14 8 15 11 16 12 17 13 18 27 19 14 20 16 21 28 22 15 23
REMARK SMILES IDX 17 24 18 25 26 26 19 27 25 28 20 29 21 30 22 31 23 33 24 34
REMARK SMILES IDX 33 35 34 36 35 37 36 38 37 39 38 41 39 42 40 43 101 44 41 45
REMARK SMILES IDX 100 46 42 47 43 48 44 49 94 50 45 51 99 52 93 53 95 54 46 55
REMARK SMILES IDX 98 56 92 57 91 58 47 60 79 61 59 62 78 63 60 64 63 65 77 66
REMARK SMILES IDX 96 67 61 68 62 69 76 71 97 72 64 73 48 74 49 75 57 76 50 77
REMARK SMILES IDX 51 78 55 79 58 80 52 81 53 82 56 83 54 84 80 85 81 86 89 87
REMARK SMILES IDX 82 88 83 89 87 90 90 91 84 92 85 93 88 94 86 95 65 96 66 97
REMARK SMILES IDX 74 98 67 99 68 100 72 101 75 102 69 103 70 104 73 105 71 106
REMARK H PARENT 31 5 21 32 36 40 95 59 63 70
REMARK Flexibility Score: inf
ROOT
ATOM      1  C   UNL     1      -1.428   3.227  -1.874  1.00  0.00     0.116 C 
ENDROOT
BRANCH   1   2
ATOM      2  N   UNL     1      -0.140   3.845  -2.117  1.00  0.00    -0.353 N 
ATOM      3  C   UNL     1       1.108   3.283  -2.176  1.00  0.00     0.261 C 
ATOM      4  O   UNL     1       2.022   3.993  -2.611  1.00  0.00    -0.271 OA
ATOM      5  H   UNL     1      -0.165   4.818  -2.262  1.00  0.00     0.163 HD
BRANCH   3   6
ATOM      6  C   UNL     1       1.415   1.874  -1.612  1.00  0.00     0.261 C 
BRANCH   6   7
ATOM      7  C   UNL     1       1.392   1.970  -0.076  1.00  0.00     0.052 C 
ATOM      8  C   UNL     1       2.513   1.167   0.573  1.00  0.00     0.008 C 
ENDBRANCH   6   7
BRANCH   6   9
ATOM      9  O   UNL     1       0.472   0.901  -2.067  1.00  0.00    -0.480 OA
BRANCH   9  10
ATOM     10  C   UNL     1       0.987  -0.352  -2.282  1.00  0.00     0.127 A 
ATOM     11  C   UNL     1       1.609  -0.631  -3.498  1.00  0.00     0.047 A 
ATOM     12  C   UNL     1       0.716  -1.392  -1.373  1.00  0.00     0.018 A 
ATOM     13  C   UNL     1       2.006  -1.938  -3.792  1.00  0.00     0.004 A 
ATOM     14  C   UNL     1       1.146  -2.692  -1.664  1.00  0.00     0.012 A 
ATOM     15  C   UNL     1       1.785  -2.964  -2.873  1.00  0.00     0.001 A 
BRANCH  12  16
ATOM     16  C   UNL     1      -0.050  -1.177  -0.142  1.00  0.00     0.033 C 
ATOM     17  C   UNL     1      -1.348  -0.849  -0.117  1.00  0.00     0.081 C 
ATOM     18  S   UNL     1      -2.193  -0.492   1.340  1.00  0.00    -0.054 SA
ATOM     19  C   UNL     1      -2.258  -0.710  -1.289  1.00  0.00     0.270 C 
ATOM     20  C   UNL     1      -3.661  -0.024   0.485  1.00  0.00     0.152 C 
ATOM     21  N   UNL     1      -3.481  -0.207  -0.873  1.00  0.00    -0.261 N 
ATOM     22  O   UNL     1      -1.975  -1.051  -2.431  1.00  0.00    -0.268 OA
ATOM     23  S   UNL     1      -4.962   0.633   1.298  1.00  0.00    -0.051 S 
BRANCH  21  24
ATOM     24  C   UNL     1      -4.487  -0.018  -1.849  1.00  0.00     0.051 A 
ATOM     25  C   UNL     1      -5.571  -0.890  -1.910  1.00  0.00     0.029 A 
ATOM     26  C   UNL     1      -4.341   0.971  -2.825  1.00  0.00     0.029 A 
ATOM     27  C   UNL     1      -6.514  -0.760  -2.934  1.00  0.00     0.028 A 
ATOM     28  C   UNL     1      -5.314   1.135  -3.812  1.00  0.00     0.028 A 
ATOM     29  C   UNL     1      -6.404   0.263  -3.878  1.00  0.00     0.041 A 
BRANCH  29  30
ATOM     30  N   UNL     1      -7.355   0.494  -4.891  1.00  0.00    -0.326 N 
ATOM     31  C   UNL     1      -8.410  -0.327  -5.236  1.00  0.00     0.221 C 
ATOM     32  H   UNL     1      -7.258   1.328  -5.405  1.00  0.00     0.169 HD
ATOM     33  C   UNL     1      -9.363   0.324  -6.205  1.00  0.00     0.114 C 
ATOM     34  O   UNL     1      -8.598  -1.479  -4.859  1.00  0.00    -0.275 OA
ENDBRANCH  29  30
ENDBRANCH  21  24
ENDBRANCH  12  16
ENDBRANCH   9  10
ENDBRANCH   6   9
ENDBRANCH   3   6
ENDBRANCH   1   2
BRANCH   1  35
ATOM     35  C   UNL     1      -2.054   3.600  -0.530  1.00  0.00     0.023 C 
BRANCH  35  36
ATOM     36  C   UNL     1      -2.953   4.842  -0.541  1.00  0.00     0.023 C 
BRANCH  36  37
ATOM     37  C   UNL     1      -4.204   4.774  -1.423  1.00  0.00     0.116 C 
BRANCH  37  38
ATOM     38  N   UNL     1      -5.132   3.701  -1.101  1.00  0.00    -0.352 N 
ATOM     39  C   UNL     1      -6.474   3.578  -1.394  1.00  0.00     0.251 C 
ATOM     40  H   UNL     1      -4.743   2.949  -0.599  1.00  0.00     0.163 HD
ATOM     41  O   UNL     1      -7.088   2.572  -1.053  1.00  0.00    -0.269 OA
BRANCH  39  42
ATOM     42  C   UNL     1      -7.221   4.688  -2.027  1.00  0.00     0.039 A 
ATOM     43  C   UNL     1      -8.475   5.008  -1.491  1.00  0.00     0.014 A 
ATOM     44  C   UNL     1      -6.694   5.456  -3.065  1.00  0.00     0.014 A 
ATOM     45  C   UNL     1      -9.123   6.178  -1.883  1.00  0.00     0.010 A 
ATOM     46  C   UNL     1      -7.304   6.661  -3.408  1.00  0.00     0.010 A 
ATOM     47  C   UNL     1      -8.495   7.055  -2.779  1.00  0.00    -0.014 A 
BRANCH  47  48
ATOM     48  C   UNL     1      -8.995   8.440  -2.957  1.00  0.00     0.031 A 
ATOM     49  C   UNL     1      -9.514   8.911  -4.280  1.00  0.00     0.074 A 
ATOM     50  C   UNL     1      -8.877   9.300  -1.925  1.00  0.00     0.049 A 
ATOM     51  N   UNL     1      -9.917  10.106  -4.630  1.00  0.00    -0.248 NA
ATOM     52  C   UNL     1      -9.562   7.918  -5.363  1.00  0.00     0.031 C 
ATOM     53  C   UNL     1      -8.320   8.970  -0.610  1.00  0.00     0.029 A 
ATOM     54  N   UNL     1      -9.204  10.629  -1.818  1.00  0.00    -0.354 N 
ATOM     55  C   UNL     1     -10.258  10.013  -5.971  1.00  0.00     0.074 A 
ATOM     56  C   UNL     1      -9.974   8.655  -6.386  1.00  0.00     0.031 C 
ATOM     57  C   UNL     1      -8.364  10.057   0.175  1.00  0.00     0.029 A 
ATOM     58  C   UNL     1      -8.916  11.169  -0.588  1.00  0.00     0.049 A 
ATOM     59  H   UNL     1      -9.606  11.145  -2.554  1.00  0.00     0.167 HD
ATOM     60  C   UNL     1     -10.777  10.971  -6.774  1.00  0.00     0.037 A 
ATOM     61  C   UNL     1      -9.075  12.424  -0.129  1.00  0.00     0.037 A 
ATOM     62  C   UNL     1     -11.073  12.314  -6.347  1.00  0.00     0.049 A 
ATOM     63  C   UNL     1      -9.671  13.461  -1.039  1.00  0.00     0.074 A 
ATOM     64  C   UNL     1     -11.656  13.342  -7.069  1.00  0.00     0.029 A 
ATOM     65  N   UNL     1     -10.806  12.817  -5.082  1.00  0.00    -0.354 N 
ATOM     66  N   UNL     1     -10.062  13.340  -2.284  1.00  0.00    -0.248 NA
ATOM     67  C   UNL     1      -9.853  14.808  -0.480  1.00  0.00     0.031 C 
ATOM     68  C   UNL     1     -11.708  14.476  -6.252  1.00  0.00     0.029 A 
ATOM     69  C   UNL     1     -11.196  14.145  -5.008  1.00  0.00     0.049 A 
ATOM     70  H   UNL     1     -10.399  12.306  -4.345  1.00  0.00     0.167 HD
ATOM     71  C   UNL     1     -10.559  14.582  -2.649  1.00  0.00     0.074 A 
ATOM     72  C   UNL     1     -10.434  15.440  -1.489  1.00  0.00     0.031 C 
ATOM     73  C   UNL     1     -11.071  14.978  -3.840  1.00  0.00     0.037 A 
BRANCH  60  74
ATOM     74  C   UNL     1     -11.066  10.601  -8.199  1.00  0.00     0.064 A 
ATOM     75  C   UNL     1     -12.130   9.751  -8.533  1.00  0.00     0.173 A 
ATOM     76  C   UNL     1     -10.299  11.135  -9.245  1.00  0.00     0.173 A 
ATOM     77  F   UNL     1     -12.885   9.204  -7.568  1.00  0.00    -0.203 F 
ATOM     78  C   UNL     1     -12.402   9.430  -9.860  1.00  0.00     0.198 A 
ATOM     79  C   UNL     1     -10.590  10.833 -10.573  1.00  0.00     0.198 A 
ATOM     80  F   UNL     1      -9.272  11.956  -8.980  1.00  0.00    -0.203 F 
ATOM     81  F   UNL     1     -13.398   8.582 -10.152  1.00  0.00    -0.200 F 
ATOM     82  C   UNL     1     -11.637   9.977 -10.879  1.00  0.00     0.200 A 
ATOM     83  F   UNL     1      -9.855  11.369 -11.557  1.00  0.00    -0.200 F 
ATOM     84  F   UNL     1     -11.903   9.671 -12.156  1.00  0.00    -0.200 F 
ENDBRANCH  60  74
BRANCH  61  85
ATOM     85  C   UNL     1      -8.691  12.762   1.266  1.00  0.00     0.064 A 
ATOM     86  C   UNL     1      -9.668  13.046   2.231  1.00  0.00     0.173 A 
ATOM     87  C   UNL     1      -7.348  12.813   1.663  1.00  0.00     0.173 A 
ATOM     88  F   UNL     1     -10.966  13.027   1.894  1.00  0.00    -0.203 F 
ATOM     89  C   UNL     1      -9.315  13.391   3.533  1.00  0.00     0.198 A 
ATOM     90  C   UNL     1      -6.996  13.133   2.973  1.00  0.00     0.198 A 
ATOM     91  F   UNL     1      -6.375  12.543   0.780  1.00  0.00    -0.203 F 
ATOM     92  F   UNL     1     -10.267  13.703   4.423  1.00  0.00    -0.200 F 
ATOM     93  C   UNL     1      -7.980  13.430   3.905  1.00  0.00     0.200 A 
ATOM     94  F   UNL     1      -5.705  13.156   3.332  1.00  0.00    -0.200 F 
ATOM     95  F   UNL     1      -7.640  13.762   5.158  1.00  0.00    -0.200 F 
ENDBRANCH  61  85
BRANCH  73  96
ATOM     96  C   UNL     1     -11.560  16.392  -3.935  1.00  0.00     0.064 A 
ATOM     97  C   UNL     1     -10.670  17.473  -3.997  1.00  0.00     0.173 A 
ATOM     98  C   UNL     1     -12.935  16.663  -4.001  1.00  0.00     0.173 A 
ATOM     99  F   UNL     1      -9.347  17.263  -3.920  1.00  0.00    -0.203 F 
ATOM    100  C   UNL     1     -11.140  18.779  -4.100  1.00  0.00     0.198 A 
ATOM    101  C   UNL     1     -13.400  17.968  -4.130  1.00  0.00     0.198 A 
ATOM    102  F   UNL     1     -13.825  15.662  -3.949  1.00  0.00    -0.203 F 
ATOM    103  F   UNL     1     -10.273  19.801  -4.114  1.00  0.00    -0.200 F 
ATOM    104  C   UNL     1     -12.503  19.025  -4.173  1.00  0.00     0.200 A 
ATOM    105  F   UNL     1     -14.717  18.204  -4.211  1.00  0.00    -0.200 F 
ATOM    106  F   UNL     1     -12.953  20.283  -4.278  1.00  0.00    -0.200 F 
ENDBRANCH  73  96
ENDBRANCH  47  48
ENDBRANCH  39  42
ENDBRANCH  37  38
ENDBRANCH  36  37
ENDBRANCH  35  36
ENDBRANCH   1  35
TORSDOF 17
