REMARK SMILES Cc1ccc(N2C[C@H](C(=O)N3CCC[C@@H](C(=O)NCCCCNC(=O)c4ccc(-c5c6nc(c(-c7c(F)c(F)c(F)c(F)c7F)c7ccc([nH]7)c(-c7c(F)c(F)c(F)c(F)c7F)c7nc(c(-c8c(F)c(F)c(F)c(F)c8F)c8ccc5[nH]8)C=C7)C=C6)cc4)C3)CC2=O)cc1C
REMARK SMILES IDX 20 1 19 2 18 3 16 4 17 5 15 7 11 8 12 9 89 10 13 11 14 12
REMARK SMILES IDX 9 13 10 14 8 15 6 16 7 17 91 18 90 19 92 20 5 21 1 22 2 23
REMARK SMILES IDX 3 24 94 25 4 26 93 27 95 28 21 29 22 30 23 31 24 32 25 34
REMARK SMILES IDX 26 35 27 36 88 37 28 38 87 39 29 40 30 41 31 42 81 43 32 44
REMARK SMILES IDX 86 45 80 46 82 47 33 48 85 49 79 50 78 51 34 53 66 54 46 55
REMARK SMILES IDX 65 56 47 57 50 58 64 59 83 60 48 61 49 62 63 64 84 65 51 66
REMARK SMILES IDX 35 67 36 68 44 69 37 70 38 71 42 72 45 73 39 74 40 75 43 76
REMARK SMILES IDX 41 77 67 78 68 79 76 80 69 81 70 82 74 83 77 84 71 85 72 86
REMARK SMILES IDX 75 87 73 88 52 89 53 90 61 91 54 92 55 93 59 94 62 95 56 96
REMARK SMILES IDX 57 97 60 98 58 99
REMARK H PARENT 18 6 23 33 82 52 50 63
REMARK Flexibility Score: inf
ROOT
ATOM      1  C   UNL     1       1.221  -5.987   3.280  1.00  0.00     0.023 C 
ENDROOT
BRANCH   1   2
ATOM      2  C   UNL     1       0.568  -6.988   2.335  1.00  0.00     0.116 C 
BRANCH   2   3
ATOM      3  N   UNL     1      -0.685  -7.520   2.832  1.00  0.00    -0.356 N 
ATOM      4  C   UNL     1      -1.910  -7.634   2.252  1.00  0.00     0.224 C 
ATOM      5  O   UNL     1      -2.792  -8.181   2.921  1.00  0.00    -0.275 OA
ATOM      6  H   UNL     1      -0.643  -7.861   3.755  1.00  0.00     0.163 HD
BRANCH   4   7
ATOM      7  C   UNL     1      -2.254  -7.048   0.886  1.00  0.00     0.098 C 
ATOM      8  N   UNL     1      -2.657  -4.909  -0.299  1.00  0.00    -0.342 N 
ATOM      9  C   UNL     1      -1.698  -5.251  -1.334  1.00  0.00     0.119 C 
ATOM     10  C   UNL     1      -2.432  -5.526   1.011  1.00  0.00     0.133 C 
ATOM     11  C   UNL     1      -1.690  -6.750  -1.576  1.00  0.00     0.022 C 
ATOM     12  C   UNL     1      -1.360  -7.499  -0.284  1.00  0.00     0.017 C 
BRANCH   8  13
ATOM     13  C   UNL     1      -3.816  -4.257  -0.687  1.00  0.00     0.228 C 
ATOM     14  O   UNL     1      -4.303  -4.449  -1.802  1.00  0.00    -0.274 OA
BRANCH  13  15
ATOM     15  C   UNL     1      -4.440  -3.259   0.286  1.00  0.00     0.108 C 
ATOM     16  N   UNL     1      -3.099  -1.375   0.018  1.00  0.00    -0.312 N 
ATOM     17  C   UNL     1      -3.393  -2.406   0.976  1.00  0.00     0.139 C 
ATOM     18  C   UNL     1      -4.195  -1.141  -0.820  1.00  0.00     0.227 C 
ATOM     19  C   UNL     1      -5.241  -2.191  -0.484  1.00  0.00     0.116 C 
ATOM     20  O   UNL     1      -4.330  -0.279  -1.667  1.00  0.00    -0.274 OA
BRANCH  16  21
ATOM     21  C   UNL     1      -1.884  -0.664   0.004  1.00  0.00     0.044 A 
ATOM     22  C   UNL     1       1.841   1.541  -0.020  1.00  0.00     0.044 C 
ATOM     23  C   UNL     1       0.568   0.741  -0.010  1.00  0.00    -0.048 A 
ATOM     24  C   UNL     1      -0.655   1.411  -0.173  1.00  0.00     0.006 A 
ATOM     25  C   UNL     1       0.565  -0.659   0.127  1.00  0.00    -0.046 A 
ATOM     26  C   UNL     1      -1.865   0.713  -0.198  1.00  0.00     0.026 A 
ATOM     27  C   UNL     1      -0.667  -1.339   0.169  1.00  0.00     0.030 A 
ATOM     28  C   UNL     1       1.823  -1.484   0.161  1.00  0.00     0.044 C 
ENDBRANCH  16  21
ENDBRANCH  13  15
ENDBRANCH   8  13
ENDBRANCH   4   7
ENDBRANCH   2   3
ENDBRANCH   1   2
BRANCH   1  29
ATOM     29  C   UNL     1       1.715  -6.545   4.610  1.00  0.00     0.023 C 
BRANCH  29  30
ATOM     30  C   UNL     1       2.674  -7.723   4.513  1.00  0.00     0.116 C 
BRANCH  30  31
ATOM     31  N   UNL     1       3.881  -7.437   3.747  1.00  0.00    -0.352 N 
ATOM     32  C   UNL     1       5.192  -7.685   4.090  1.00  0.00     0.251 C 
ATOM     33  H   UNL     1       3.741  -7.011   2.871  1.00  0.00     0.163 HD
ATOM     34  O   UNL     1       6.114  -7.299   3.383  1.00  0.00    -0.269 OA
BRANCH  32  35
ATOM     35  C   UNL     1       5.467  -8.397   5.353  1.00  0.00     0.039 A 
ATOM     36  C   UNL     1       6.321  -7.820   6.295  1.00  0.00     0.014 A 
ATOM     37  C   UNL     1       4.793  -9.587   5.635  1.00  0.00     0.014 A 
ATOM     38  C   UNL     1       6.430  -8.393   7.564  1.00  0.00     0.010 A 
ATOM     39  C   UNL     1       4.832 -10.100   6.924  1.00  0.00     0.010 A 
ATOM     40  C   UNL     1       5.649  -9.510   7.902  1.00  0.00    -0.014 A 
BRANCH  40  41
ATOM     41  C   UNL     1       5.678 -10.117   9.257  1.00  0.00     0.031 A 
ATOM     42  C   UNL     1       6.116 -11.547   9.405  1.00  0.00     0.074 A 
ATOM     43  C   UNL     1       5.213  -9.435  10.322  1.00  0.00     0.049 A 
ATOM     44  N   UNL     1       6.042 -12.336  10.445  1.00  0.00    -0.248 NA
ATOM     45  C   UNL     1       6.678 -12.187   8.204  1.00  0.00     0.031 C 
ATOM     46  C   UNL     1       4.734  -8.053  10.304  1.00  0.00     0.029 A 
ATOM     47  N   UNL     1       5.042  -9.827  11.628  1.00  0.00    -0.354 N 
ATOM     48  C   UNL     1       6.517 -13.568  10.014  1.00  0.00     0.074 A 
ATOM     49  C   UNL     1       6.821 -13.439   8.607  1.00  0.00     0.031 C 
ATOM     50  C   UNL     1       4.336  -7.708  11.540  1.00  0.00     0.029 A 
ATOM     51  C   UNL     1       4.480  -8.860  12.426  1.00  0.00     0.049 A 
ATOM     52  H   UNL     1       5.299 -10.717  11.961  1.00  0.00     0.167 HD
ATOM     53  C   UNL     1       6.704 -14.698  10.735  1.00  0.00     0.037 A 
ATOM     54  C   UNL     1       4.102  -8.906  13.719  1.00  0.00     0.037 A 
ATOM     55  C   UNL     1       6.429 -14.808  12.142  1.00  0.00     0.049 A 
ATOM     56  C   UNL     1       4.298 -10.184  14.495  1.00  0.00     0.074 A 
ATOM     57  C   UNL     1       6.632 -15.891  12.977  1.00  0.00     0.029 A 
ATOM     58  N   UNL     1       5.889 -13.794  12.920  1.00  0.00    -0.354 N 
ATOM     59  N   UNL     1       4.793 -11.329  14.092  1.00  0.00    -0.248 NA
ATOM     60  C   UNL     1       3.884 -10.177  15.906  1.00  0.00     0.031 C 
ATOM     61  C   UNL     1       6.164 -15.553  14.249  1.00  0.00     0.029 A 
ATOM     62  C   UNL     1       5.735 -14.235  14.223  1.00  0.00     0.049 A 
ATOM     63  H   UNL     1       5.652 -12.896  12.595  1.00  0.00     0.167 HD
ATOM     64  C   UNL     1       4.796 -12.159  15.205  1.00  0.00     0.074 A 
ATOM     65  C   UNL     1       4.247 -11.390  16.301  1.00  0.00     0.031 C 
ATOM     66  C   UNL     1       5.221 -13.441  15.311  1.00  0.00     0.037 A 
BRANCH  53  67
ATOM     67  C   UNL     1       7.227 -15.905  10.012  1.00  0.00     0.064 A 
ATOM     68  C   UNL     1       8.533 -15.951   9.498  1.00  0.00     0.173 A 
ATOM     69  C   UNL     1       6.422 -17.044   9.855  1.00  0.00     0.173 A 
ATOM     70  F   UNL     1       9.340 -14.885   9.609  1.00  0.00    -0.203 F 
ATOM     71  C   UNL     1       8.999 -17.076   8.824  1.00  0.00     0.198 A 
ATOM     72  C   UNL     1       6.905 -18.181   9.214  1.00  0.00     0.198 A 
ATOM     73  F   UNL     1       5.168 -17.057  10.331  1.00  0.00    -0.203 F 
ATOM     74  F   UNL     1      10.228 -17.073   8.290  1.00  0.00    -0.200 F 
ATOM     75  C   UNL     1       8.189 -18.193   8.690  1.00  0.00     0.200 A 
ATOM     76  F   UNL     1       6.125 -19.265   9.100  1.00  0.00    -0.200 F 
ATOM     77  F   UNL     1       8.642 -19.279   8.048  1.00  0.00    -0.200 F 
ENDBRANCH  53  67
BRANCH  54  78
ATOM     78  C   UNL     1       3.513  -7.705  14.370  1.00  0.00     0.064 A 
ATOM     79  C   UNL     1       4.204  -7.025  15.383  1.00  0.00     0.173 A 
ATOM     80  C   UNL     1       2.247  -7.221  14.010  1.00  0.00     0.173 A 
ATOM     81  F   UNL     1       5.410  -7.459  15.778  1.00  0.00    -0.203 F 
ATOM     82  C   UNL     1       3.642  -5.924  16.027  1.00  0.00     0.198 A 
ATOM     83  C   UNL     1       1.699  -6.101  14.632  1.00  0.00     0.198 A 
ATOM     84  F   UNL     1       1.544  -7.830  13.043  1.00  0.00    -0.203 F 
ATOM     85  F   UNL     1       4.303  -5.326  17.027  1.00  0.00    -0.200 F 
ATOM     86  C   UNL     1       2.392  -5.459  15.647  1.00  0.00     0.200 A 
ATOM     87  F   UNL     1       0.498  -5.645  14.250  1.00  0.00    -0.200 F 
ATOM     88  F   UNL     1       1.852  -4.399  16.264  1.00  0.00    -0.200 F 
ENDBRANCH  54  78
BRANCH  66  89
ATOM     89  C   UNL     1       5.192 -14.083  16.667  1.00  0.00     0.064 A 
ATOM     90  C   UNL     1       3.995 -14.488  17.273  1.00  0.00     0.173 A 
ATOM     91  C   UNL     1       6.397 -14.384  17.323  1.00  0.00     0.173 A 
ATOM     92  F   UNL     1       2.817 -14.213  16.693  1.00  0.00    -0.203 F 
ATOM     93  C   UNL     1       4.005 -15.164  18.491  1.00  0.00     0.198 A 
ATOM     94  C   UNL     1       6.404 -15.087  18.523  1.00  0.00     0.198 A 
ATOM     95  F   UNL     1       7.570 -14.024  16.780  1.00  0.00    -0.203 F 
ATOM     96  F   UNL     1       2.848 -15.518  19.068  1.00  0.00    -0.200 F 
ATOM     97  C   UNL     1       5.209 -15.475  19.108  1.00  0.00     0.200 A 
ATOM     98  F   UNL     1       7.569 -15.402  19.106  1.00  0.00    -0.200 F 
ATOM     99  F   UNL     1       5.216 -16.149  20.266  1.00  0.00    -0.200 F 
ENDBRANCH  66  89
ENDBRANCH  40  41
ENDBRANCH  32  35
ENDBRANCH  30  31
ENDBRANCH  29  30
ENDBRANCH   1  29
TORSDOF 14
