REMARK SMILES O=C(CCN1C(=O)S/C(=C\c2ccc(F)cc2)C1=O)Nc1ccc(O)cc1C(=O)NCCCCNC(=O)c1ccc(-c2c3nc(c(-c4c(F)c(F)c(F)c(F)c4F)c4ccc([nH]4)c(-c4c(F)c(F)c(F)c(F)c4F)c4nc(c(-c5c(F)c(F)c(F)c(F)c5F)c5ccc2[nH]5)C=C4)C=C3)cc1
REMARK SMILES IDX 31 1 30 2 28 3 29 4 27 6 21 7 22 8 23 9 26 10 24 11 20 12
REMARK SMILES IDX 1 13 2 14 3 16 4 17 5 18 6 19 18 20 7 21 8 22 9 23 19 24
REMARK SMILES IDX 10 25 11 26 12 27 17 28 13 29 16 30 14 31 15 32 25 33 32 35
REMARK SMILES IDX 33 36 34 37 35 38 36 39 37 41 38 42 39 43 100 44 40 45 99 46
REMARK SMILES IDX 41 47 42 48 43 49 93 50 44 51 98 52 92 53 94 54 45 55 97 56
REMARK SMILES IDX 91 57 90 58 46 60 78 61 58 62 77 63 59 64 62 65 76 66 95 67
REMARK SMILES IDX 60 68 61 69 75 71 96 72 63 73 47 74 48 75 56 76 49 77 50 78
REMARK SMILES IDX 54 79 57 80 51 81 52 82 55 83 53 84 79 85 80 86 88 87 81 88
REMARK SMILES IDX 82 89 86 90 89 91 83 92 84 93 87 94 85 95 64 96 65 97 73 98
REMARK SMILES IDX 66 99 67 100 71 101 74 102 68 103 69 104 72 105 70 106
REMARK H PARENT 30 5 20 15 25 34 35 40 94 59 62 70
REMARK Flexibility Score: inf
ROOT
ATOM      1  C   UNL     1       2.896  -1.328  -2.180  1.00  0.00     0.116 C 
ENDROOT
BRANCH   1   2
ATOM      2  N   UNL     1       3.657  -0.564  -3.158  1.00  0.00    -0.352 N 
ATOM      3  C   UNL     1       3.540   0.760  -3.571  1.00  0.00     0.253 C 
ATOM      4  O   UNL     1       4.403   1.201  -4.332  1.00  0.00    -0.269 OA
ATOM      5  H   UNL     1       4.376  -1.069  -3.601  1.00  0.00     0.163 HD
BRANCH   3   6
ATOM      6  C   UNL     1       2.431   1.686  -3.157  1.00  0.00     0.067 A 
ATOM      7  C   UNL     1       1.950   1.827  -1.843  1.00  0.00     0.054 A 
ATOM      8  C   UNL     1       0.842   2.655  -1.585  1.00  0.00     0.031 A 
ATOM      9  C   UNL     1       0.287   3.442  -2.593  1.00  0.00     0.048 A 
ATOM     10  C   UNL     1       1.885   2.516  -4.157  1.00  0.00     0.062 A 
ATOM     11  C   UNL     1       0.840   3.394  -3.864  1.00  0.00     0.116 A 
BRANCH   7  12
ATOM     12  N   UNL     1       2.681   1.299  -0.762  1.00  0.00    -0.325 N 
ATOM     13  O   UNL     1       0.949   0.717   0.640  1.00  0.00    -0.275 OA
ATOM     14  C   UNL     1       2.150   0.865   0.430  1.00  0.00     0.226 C 
ATOM     15  H   UNL     1       3.658   1.235  -0.869  1.00  0.00     0.169 HD
BRANCH  14  16
ATOM     16  C   UNL     1       3.165   0.592   1.524  1.00  0.00     0.122 C 
BRANCH  16  17
ATOM     17  C   UNL     1       4.431  -0.168   1.132  1.00  0.00     0.140 C 
BRANCH  17  18
ATOM     18  N   UNL     1       5.411   0.535   0.298  1.00  0.00    -0.268 N 
ATOM     19  C   UNL     1       5.955   1.739   0.648  1.00  0.00     0.293 C 
ATOM     20  C   UNL     1       6.002  -0.080  -0.775  1.00  0.00     0.268 C 
ATOM     21  O   UNL     1       5.672   2.413   1.626  1.00  0.00    -0.261 OA
ATOM     22  S   UNL     1       7.168   2.228  -0.529  1.00  0.00    -0.022 SA
ATOM     23  C   UNL     1       7.080   0.740  -1.365  1.00  0.00     0.083 C 
ATOM     24  O   UNL     1       5.679  -1.157  -1.245  1.00  0.00    -0.268 OA
ATOM     25  C   UNL     1       7.755   0.262  -2.421  1.00  0.00     0.029 C 
BRANCH  25  26
ATOM     26  C   UNL     1       8.761   0.906  -3.275  1.00  0.00    -0.024 A 
ATOM     27  C   UNL     1       9.711   1.817  -2.804  1.00  0.00     0.011 A 
ATOM     28  C   UNL     1       8.766   0.566  -4.641  1.00  0.00     0.011 A 
ATOM     29  C   UNL     1      10.585   2.447  -3.693  1.00  0.00     0.040 A 
ATOM     30  C   UNL     1       9.648   1.185  -5.527  1.00  0.00     0.040 A 
ATOM     31  C   UNL     1      10.536   2.136  -5.046  1.00  0.00     0.123 A 
ATOM     32  F   UNL     1      11.357   2.762  -5.898  1.00  0.00    -0.207 F 
ENDBRANCH  25  26
ENDBRANCH  17  18
ENDBRANCH  16  17
ENDBRANCH  14  16
ENDBRANCH   7  12
BRANCH  11  33
ATOM     33  O   UNL     1       0.384   4.213  -4.855  1.00  0.00    -0.508 OA
ATOM     34  H   UNL     1      -0.316   4.811  -4.684  1.00  0.00     0.293 HD
ENDBRANCH  11  33
ENDBRANCH   3   6
ENDBRANCH   1   2
BRANCH   1  35
ATOM     35  C   UNL     1       2.920  -2.866  -2.192  1.00  0.00     0.023 C 
BRANCH  35  36
ATOM     36  C   UNL     1       4.117  -3.837  -2.014  1.00  0.00     0.023 C 
BRANCH  36  37
ATOM     37  C   UNL     1       5.264  -3.864  -0.982  1.00  0.00     0.116 C 
BRANCH  37  38
ATOM     38  N   UNL     1       5.012  -3.569   0.415  1.00  0.00    -0.352 N 
ATOM     39  C   UNL     1       5.932  -3.658   1.451  1.00  0.00     0.251 C 
ATOM     40  H   UNL     1       4.102  -3.277   0.652  1.00  0.00     0.163 HD
ATOM     41  O   UNL     1       5.642  -3.293   2.586  1.00  0.00    -0.269 OA
BRANCH  39  42
ATOM     42  C   UNL     1       7.266  -4.265   1.196  1.00  0.00     0.039 A 
ATOM     43  C   UNL     1       7.544  -5.527   1.731  1.00  0.00     0.014 A 
ATOM     44  C   UNL     1       8.211  -3.627   0.389  1.00  0.00     0.014 A 
ATOM     45  C   UNL     1       8.712  -6.203   1.355  1.00  0.00     0.010 A 
ATOM     46  C   UNL     1       9.363  -4.317  -0.013  1.00  0.00     0.010 A 
ATOM     47  C   UNL     1       9.600  -5.630   0.428  1.00  0.00    -0.014 A 
BRANCH  47  48
ATOM     48  C   UNL     1      10.685  -6.449  -0.187  1.00  0.00     0.031 A 
ATOM     49  C   UNL     1      12.136  -6.164   0.073  1.00  0.00     0.074 A 
ATOM     50  C   UNL     1      10.343  -7.426  -1.053  1.00  0.00     0.049 A 
ATOM     51  N   UNL     1      13.194  -6.777  -0.396  1.00  0.00    -0.248 NA
ATOM     52  C   UNL     1      12.440  -5.032   0.958  1.00  0.00     0.031 C 
ATOM     53  C   UNL     1       8.971  -7.760  -1.439  1.00  0.00     0.029 A 
ATOM     54  N   UNL     1      11.111  -8.313  -1.769  1.00  0.00    -0.354 N 
ATOM     55  C   UNL     1      14.289  -6.107   0.133  1.00  0.00     0.074 A 
ATOM     56  C   UNL     1      13.767  -5.012   0.924  1.00  0.00     0.031 C 
ATOM     57  C   UNL     1       8.991  -8.790  -2.297  1.00  0.00     0.029 A 
ATOM     58  C   UNL     1      10.377  -9.174  -2.550  1.00  0.00     0.049 A 
ATOM     59  H   UNL     1      12.095  -8.330  -1.727  1.00  0.00     0.167 HD
ATOM     60  C   UNL     1      15.606  -6.392  -0.015  1.00  0.00     0.037 A 
ATOM     61  C   UNL     1      10.769 -10.162  -3.379  1.00  0.00     0.037 A 
ATOM     62  C   UNL     1      16.118  -7.493  -0.793  1.00  0.00     0.049 A 
ATOM     63  C   UNL     1      12.234 -10.463  -3.523  1.00  0.00     0.074 A 
ATOM     64  C   UNL     1      17.431  -7.909  -0.937  1.00  0.00     0.029 A 
ATOM     65  N   UNL     1      15.343  -8.344  -1.568  1.00  0.00    -0.354 N 
ATOM     66  N   UNL     1      13.254  -9.877  -2.945  1.00  0.00    -0.248 NA
ATOM     67  C   UNL     1      12.606 -11.561  -4.427  1.00  0.00     0.031 C 
ATOM     68  C   UNL     1      17.455  -8.977  -1.839  1.00  0.00     0.029 A 
ATOM     69  C   UNL     1      16.153  -9.262  -2.218  1.00  0.00     0.049 A 
ATOM     70  H   UNL     1      14.362  -8.302  -1.644  1.00  0.00     0.167 HD
ATOM     71  C   UNL     1      14.385 -10.537  -3.404  1.00  0.00     0.074 A 
ATOM     72  C   UNL     1      13.926 -11.583  -4.294  1.00  0.00     0.031 C 
ATOM     73  C   UNL     1      15.686 -10.292  -3.112  1.00  0.00     0.037 A 
BRANCH  60  74
ATOM     74  C   UNL     1      16.600  -5.509   0.685  1.00  0.00     0.064 A 
ATOM     75  C   UNL     1      17.466  -4.683  -0.049  1.00  0.00     0.173 A 
ATOM     76  C   UNL     1      16.745  -5.530   2.081  1.00  0.00     0.173 A 
ATOM     77  F   UNL     1      17.381  -4.634  -1.387  1.00  0.00    -0.203 F 
ATOM     78  C   UNL     1      18.439  -3.916   0.587  1.00  0.00     0.198 A 
ATOM     79  C   UNL     1      17.700  -4.741   2.716  1.00  0.00     0.198 A 
ATOM     80  F   UNL     1      15.941  -6.300   2.830  1.00  0.00    -0.203 F 
ATOM     81  F   UNL     1      19.272  -3.156  -0.138  1.00  0.00    -0.200 F 
ATOM     82  C   UNL     1      18.552  -3.941   1.969  1.00  0.00     0.200 A 
ATOM     83  F   UNL     1      17.793  -4.750   4.053  1.00  0.00    -0.200 F 
ATOM     84  F   UNL     1      19.479  -3.191   2.581  1.00  0.00    -0.200 F 
ENDBRANCH  60  74
BRANCH  61  85
ATOM     85  C   UNL     1       9.741 -10.959  -4.100  1.00  0.00     0.064 A 
ATOM     86  C   UNL     1       8.972 -10.398  -5.131  1.00  0.00     0.173 A 
ATOM     87  C   UNL     1       9.466 -12.282  -3.728  1.00  0.00     0.173 A 
ATOM     88  F   UNL     1       9.191  -9.134  -5.519  1.00  0.00    -0.203 F 
ATOM     89  C   UNL     1       7.949 -11.121  -5.742  1.00  0.00     0.198 A 
ATOM     90  C   UNL     1       8.459 -13.013  -4.357  1.00  0.00     0.198 A 
ATOM     91  F   UNL     1      10.187 -12.869  -2.761  1.00  0.00    -0.203 F 
ATOM     92  F   UNL     1       7.200 -10.546  -6.692  1.00  0.00    -0.200 F 
ATOM     93  C   UNL     1       7.694 -12.428  -5.355  1.00  0.00     0.200 A 
ATOM     94  F   UNL     1       8.229 -14.282  -3.994  1.00  0.00    -0.200 F 
ATOM     95  F   UNL     1       6.710 -13.123  -5.942  1.00  0.00    -0.200 F 
ENDBRANCH  61  85
BRANCH  73  96
ATOM     96  C   UNL     1      16.721 -11.162  -3.764  1.00  0.00     0.064 A 
ATOM     97  C   UNL     1      17.459 -12.083  -3.006  1.00  0.00     0.173 A 
ATOM     98  C   UNL     1      17.046 -11.016  -5.120  1.00  0.00     0.173 A 
ATOM     99  F   UNL     1      17.191 -12.256  -1.703  1.00  0.00    -0.203 F 
ATOM    100  C   UNL     1      18.500 -12.810  -3.577  1.00  0.00     0.198 A 
ATOM    101  C   UNL     1      18.070 -11.764  -5.695  1.00  0.00     0.198 A 
ATOM    102  F   UNL     1      16.359 -10.158  -5.890  1.00  0.00    -0.203 F 
ATOM    103  F   UNL     1      19.219 -13.654  -2.824  1.00  0.00    -0.200 F 
ATOM    104  C   UNL     1      18.804 -12.650  -4.921  1.00  0.00     0.200 A 
ATOM    105  F   UNL     1      18.348 -11.625  -6.999  1.00  0.00    -0.200 F 
ATOM    106  F   UNL     1      19.805 -13.352  -5.471  1.00  0.00    -0.200 F 
ENDBRANCH  73  96
ENDBRANCH  47  48
ENDBRANCH  39  42
ENDBRANCH  37  38
ENDBRANCH  36  37
ENDBRANCH  35  36
ENDBRANCH   1  35
TORSDOF 17
