REMARK SMILES CCOC(=O)c1ccc(NC(=O)[C@@H]2[C@H]3c4ccccc4[C@H](c4ccccc43)[C@@H]2C(=O)NCCCCNC(=O)c2ccc(-c3c4nc(c(-c5c(F)c(F)c(F)c(F)c5F)c5ccc([nH]5)c(-c5c(F)c(F)c(F)c(F)c5F)c5nc(c(-c6c(F)c(F)c(F)c(F)c6F)c6ccc3[nH]6)C=C5)C=C4)cc2)cc1
REMARK SMILES IDX 32 1 31 2 29 3 30 4 28 6 13 7 14 8 15 9 27 10 21 11 16 12
REMARK SMILES IDX 20 13 22 14 26 15 17 16 19 17 23 18 25 19 18 20 24 21 11 22
REMARK SMILES IDX 10 23 12 25 9 26 6 27 7 28 103 29 8 30 102 31 4 32 5 33 3 34
REMARK SMILES IDX 2 35 1 36 33 37 34 38 35 39 36 40 37 41 38 43 39 44 40 45
REMARK SMILES IDX 101 46 41 47 100 48 42 49 43 50 44 51 94 52 45 53 99 54
REMARK SMILES IDX 93 55 95 56 46 57 98 58 92 59 91 60 47 62 79 63 59 64 78 65
REMARK SMILES IDX 60 66 63 67 77 68 96 69 61 70 62 71 76 73 97 74 64 75 48 76
REMARK SMILES IDX 49 77 57 78 50 79 51 80 55 81 58 82 52 83 53 84 56 85 54 86
REMARK SMILES IDX 80 87 81 88 89 89 82 90 83 91 87 92 90 93 84 94 85 95 88 96
REMARK SMILES IDX 86 97 65 98 66 99 74 100 67 101 68 102 72 103 75 104 69 105
REMARK SMILES IDX 70 106 73 107 71 108
REMARK H PARENT 31 5 10 24 36 42 95 61 63 72
REMARK Flexibility Score: inf
ROOT
ATOM      1  C   UNL     1       4.678  -3.508  -0.415  1.00  0.00     0.116 C 
ENDROOT
BRANCH   1   2
ATOM      2  N   UNL     1       3.622  -3.787  -1.374  1.00  0.00    -0.356 N 
ATOM      3  C   UNL     1       3.436  -4.915  -2.126  1.00  0.00     0.224 C 
ATOM      4  O   UNL     1       2.358  -5.072  -2.694  1.00  0.00    -0.275 OA
ATOM      5  H   UNL     1       2.956  -3.073  -1.499  1.00  0.00     0.163 HD
BRANCH   3   6
ATOM      6  C   UNL     1       4.577  -5.908  -2.213  1.00  0.00     0.104 C 
ATOM      7  C   UNL     1       4.412  -7.012  -3.300  1.00  0.00     0.104 C 
ATOM      8  C   UNL     1       3.973  -8.393  -2.586  1.00  0.00     0.063 C 
ATOM      9  C   UNL     1       5.280  -8.768  -1.854  1.00  0.00    -0.036 A 
ATOM     10  C   UNL     1       2.959  -8.179  -1.446  1.00  0.00    -0.036 A 
ATOM     11  C   UNL     1       4.729  -6.595  -0.834  1.00  0.00     0.063 C 
ATOM     12  C   UNL     1       6.028  -9.921  -2.009  1.00  0.00     0.004 A 
ATOM     13  C   UNL     1       5.728  -7.733  -0.990  1.00  0.00    -0.036 A 
ATOM     14  C   UNL     1       3.372  -7.203  -0.508  1.00  0.00    -0.036 A 
ATOM     15  C   UNL     1       1.837  -8.947  -1.157  1.00  0.00     0.004 A 
ATOM     16  C   UNL     1       7.268  -9.992  -1.366  1.00  0.00     0.000 A 
ATOM     17  C   UNL     1       6.974  -7.784  -0.391  1.00  0.00     0.004 A 
ATOM     18  C   UNL     1       2.607  -6.881   0.610  1.00  0.00     0.004 A 
ATOM     19  C   UNL     1       1.088  -8.660  -0.002  1.00  0.00     0.000 A 
ATOM     20  C   UNL     1       7.751  -8.921  -0.595  1.00  0.00     0.000 A 
ATOM     21  C   UNL     1       1.450  -7.612   0.855  1.00  0.00     0.000 A 
BRANCH   7  22
ATOM     22  C   UNL     1       3.806  -6.730  -4.683  1.00  0.00     0.229 C 
ATOM     23  N   UNL     1       4.191  -5.623  -5.438  1.00  0.00    -0.326 N 
ATOM     24  H   UNL     1       4.675  -5.792  -6.279  1.00  0.00     0.169 HD
ATOM     25  O   UNL     1       3.219  -7.629  -5.299  1.00  0.00    -0.274 OA
BRANCH  23  26
ATOM     26  C   UNL     1       3.939  -4.275  -5.088  1.00  0.00     0.041 A 
ATOM     27  C   UNL     1       3.196  -1.746  -4.115  1.00  0.00     0.060 A 
ATOM     28  C   UNL     1       4.514  -2.205  -3.961  1.00  0.00     0.018 A 
ATOM     29  C   UNL     1       2.312  -2.481  -4.910  1.00  0.00     0.018 A 
ATOM     30  C   UNL     1       4.887  -3.473  -4.450  1.00  0.00     0.027 A 
ATOM     31  C   UNL     1       2.692  -3.730  -5.414  1.00  0.00     0.027 A 
BRANCH  27  32
ATOM     32  C   UNL     1       2.741  -0.528  -3.372  1.00  0.00     0.338 C 
ATOM     33  O   UNL     1       3.474   0.368  -3.015  1.00  0.00    -0.246 OA
BRANCH  32  34
ATOM     34  O   UNL     1       1.415  -0.650  -3.079  1.00  0.00    -0.462 OA
BRANCH  34  35
ATOM     35  C   UNL     1       0.753   0.484  -2.485  1.00  0.00     0.230 C 
ATOM     36  C   UNL     1       0.750   0.427  -0.969  1.00  0.00     0.049 C 
ENDBRANCH  34  35
ENDBRANCH  32  34
ENDBRANCH  27  32
ENDBRANCH  23  26
ENDBRANCH   7  22
ENDBRANCH   3   6
ENDBRANCH   1   2
BRANCH   1  37
ATOM     37  C   UNL     1       4.806  -2.054   0.010  1.00  0.00     0.023 C 
BRANCH  37  38
ATOM     38  C   UNL     1       3.476  -1.362   0.281  1.00  0.00     0.023 C 
BRANCH  38  39
ATOM     39  C   UNL     1       2.539  -2.089   1.242  1.00  0.00     0.116 C 
BRANCH  39  40
ATOM     40  N   UNL     1       2.858  -1.801   2.624  1.00  0.00    -0.352 N 
ATOM     41  C   UNL     1       2.260  -0.935   3.504  1.00  0.00     0.251 C 
ATOM     42  H   UNL     1       3.621  -2.305   2.989  1.00  0.00     0.163 HD
ATOM     43  O   UNL     1       2.844  -0.654   4.549  1.00  0.00    -0.269 OA
BRANCH  41  44
ATOM     44  C   UNL     1       0.937  -0.319   3.224  1.00  0.00     0.039 A 
ATOM     45  C   UNL     1       0.719   0.995   3.651  1.00  0.00     0.014 A 
ATOM     46  C   UNL     1      -0.117  -1.028   2.641  1.00  0.00     0.014 A 
ATOM     47  C   UNL     1      -0.532   1.597   3.474  1.00  0.00     0.010 A 
ATOM     48  C   UNL     1      -1.336  -0.396   2.380  1.00  0.00     0.010 A 
ATOM     49  C   UNL     1      -1.570   0.916   2.817  1.00  0.00    -0.014 A 
BRANCH  49  50
ATOM     50  C   UNL     1      -2.902   1.559   2.623  1.00  0.00     0.031 A 
ATOM     51  C   UNL     1      -4.141   0.967   3.247  1.00  0.00     0.074 A 
ATOM     52  C   UNL     1      -3.011   2.667   1.863  1.00  0.00     0.049 A 
ATOM     53  N   UNL     1      -5.384   1.379   3.176  1.00  0.00    -0.248 NA
ATOM     54  C   UNL     1      -3.966  -0.264   4.032  1.00  0.00     0.031 C 
ATOM     55  C   UNL     1      -1.907   3.323   1.164  1.00  0.00     0.029 A 
ATOM     56  N   UNL     1      -4.106   3.435   1.548  1.00  0.00    -0.354 N 
ATOM     57  C   UNL     1      -6.135   0.450   3.888  1.00  0.00     0.074 A 
ATOM     58  C   UNL     1      -5.218  -0.575   4.335  1.00  0.00     0.031 C 
ATOM     59  C   UNL     1      -2.374   4.404   0.521  1.00  0.00     0.029 A 
ATOM     60  C   UNL     1      -3.816   4.500   0.730  1.00  0.00     0.049 A 
ATOM     61  H   UNL     1      -5.013   3.240   1.877  1.00  0.00     0.167 HD
ATOM     62  C   UNL     1      -7.462   0.461   4.165  1.00  0.00     0.037 A 
ATOM     63  C   UNL     1      -4.618   5.444   0.200  1.00  0.00     0.037 A 
ATOM     64  C   UNL     1      -8.373   1.496   3.748  1.00  0.00     0.049 A 
ATOM     65  C   UNL     1      -6.087   5.440   0.526  1.00  0.00     0.074 A 
ATOM     66  C   UNL     1      -9.717   1.635   4.050  1.00  0.00     0.029 A 
ATOM     67  N   UNL     1      -8.036   2.565   2.932  1.00  0.00    -0.354 N 
ATOM     68  N   UNL     1      -6.767   4.603   1.271  1.00  0.00    -0.248 NA
ATOM     69  C   UNL     1      -6.897   6.521  -0.052  1.00  0.00     0.031 C 
ATOM     70  C   UNL     1     -10.208   2.751   3.364  1.00  0.00     0.029 A 
ATOM     71  C   UNL     1      -9.155   3.348   2.691  1.00  0.00     0.049 A 
ATOM     72  H   UNL     1      -7.136   2.743   2.575  1.00  0.00     0.167 HD
ATOM     73  C   UNL     1      -8.076   5.069   1.272  1.00  0.00     0.074 A 
ATOM     74  C   UNL     1      -8.091   6.273   0.469  1.00  0.00     0.031 C 
ATOM     75  C   UNL     1      -9.165   4.545   1.887  1.00  0.00     0.037 A 
BRANCH  62  76
ATOM     76  C   UNL     1      -8.018  -0.694   4.954  1.00  0.00     0.064 A 
ATOM     77  C   UNL     1      -7.689  -0.899   6.303  1.00  0.00     0.173 A 
ATOM     78  C   UNL     1      -8.918  -1.591   4.358  1.00  0.00     0.173 A 
ATOM     79  F   UNL     1      -6.829  -0.076   6.921  1.00  0.00    -0.203 F 
ATOM     80  C   UNL     1      -8.207  -1.981   7.012  1.00  0.00     0.198 A 
ATOM     81  C   UNL     1      -9.462  -2.650   5.081  1.00  0.00     0.198 A 
ATOM     82  F   UNL     1      -9.278  -1.438   3.075  1.00  0.00    -0.203 F 
ATOM     83  F   UNL     1      -7.829  -2.190   8.281  1.00  0.00    -0.200 F 
ATOM     84  C   UNL     1      -9.097  -2.851   6.403  1.00  0.00     0.200 A 
ATOM     85  F   UNL     1     -10.337  -3.480   4.495  1.00  0.00    -0.200 F 
ATOM     86  F   UNL     1      -9.598  -3.888   7.088  1.00  0.00    -0.200 F 
ENDBRANCH  62  76
BRANCH  63  87
ATOM     87  C   UNL     1      -4.037   6.487  -0.687  1.00  0.00     0.064 A 
ATOM     88  C   UNL     1      -3.956   7.825  -0.277  1.00  0.00     0.173 A 
ATOM     89  C   UNL     1      -3.546   6.165  -1.961  1.00  0.00     0.173 A 
ATOM     90  F   UNL     1      -4.431   8.188   0.924  1.00  0.00    -0.203 F 
ATOM     91  C   UNL     1      -3.423   8.804  -1.114  1.00  0.00     0.198 A 
ATOM     92  C   UNL     1      -2.985   7.138  -2.784  1.00  0.00     0.198 A 
ATOM     93  F   UNL     1      -3.595   4.898  -2.398  1.00  0.00    -0.203 F 
ATOM     94  F   UNL     1      -3.399  10.083  -0.715  1.00  0.00    -0.200 F 
ATOM     95  C   UNL     1      -2.931   8.458  -2.363  1.00  0.00     0.200 A 
ATOM     96  F   UNL     1      -2.495   6.796  -3.984  1.00  0.00    -0.200 F 
ATOM     97  F   UNL     1      -2.410   9.398  -3.164  1.00  0.00    -0.200 F 
ENDBRANCH  63  87
BRANCH  75  98
ATOM     98  C   UNL     1     -10.465   5.287   1.744  1.00  0.00     0.064 A 
ATOM     99  C   UNL     1     -11.156   5.342   0.524  1.00  0.00     0.173 A 
ATOM    100  C   UNL     1     -11.046   5.922   2.853  1.00  0.00     0.173 A 
ATOM    101  F   UNL     1     -10.640   4.764  -0.571  1.00  0.00    -0.203 F 
ATOM    102  C   UNL     1     -12.362   6.031   0.413  1.00  0.00     0.198 A 
ATOM    103  C   UNL     1     -12.268   6.580   2.747  1.00  0.00     0.198 A 
ATOM    104  F   UNL     1     -10.432   5.895   4.046  1.00  0.00    -0.203 F 
ATOM    105  F   UNL     1     -12.976   6.116  -0.775  1.00  0.00    -0.200 F 
ATOM    106  C   UNL     1     -12.921   6.642   1.526  1.00  0.00     0.200 A 
ATOM    107  F   UNL     1     -12.814   7.156   3.828  1.00  0.00    -0.200 F 
ATOM    108  F   UNL     1     -14.084   7.298   1.419  1.00  0.00    -0.200 F 
ENDBRANCH  75  98
ENDBRANCH  49  50
ENDBRANCH  41  44
ENDBRANCH  39  40
ENDBRANCH  38  39
ENDBRANCH  37  38
ENDBRANCH   1  37
TORSDOF 16
