REMARK SMILES O=C(NCCCCNC(=O)[C@H]1C=C[C@@H](NS(=O)(=O)c2ccccc2)C1)c1ccc(-c2c3nc(c(-c4c(F)c(F)c(F)c(F)c4F)c4ccc([nH]4)c(-c4c(F)c(F)c(F)c(F)c4F)c4nc(c(-c5c(F)c(F)c(F)c(F)c5F)c5ccc2[nH]5)C=C4)C=C3)cc1
REMARK SMILES IDX 6 1 5 2 4 3 3 4 1 5 2 6 26 8 27 9 88 10 28 11 87 12 29 13
REMARK SMILES IDX 30 14 31 15 81 16 32 17 86 18 80 19 82 20 33 21 85 22 79 23
REMARK SMILES IDX 78 24 34 26 66 27 46 28 65 29 47 30 50 31 64 32 83 33 48 34
REMARK SMILES IDX 49 35 63 37 84 38 51 39 35 40 36 41 44 42 37 43 38 44 42 45
REMARK SMILES IDX 45 46 39 47 40 48 43 49 41 50 67 51 68 52 76 53 69 54 70 55
REMARK SMILES IDX 74 56 77 57 71 58 72 59 75 60 73 61 52 62 53 63 61 64 54 65
REMARK SMILES IDX 55 66 59 67 62 68 56 69 57 70 60 71 58 72 7 73 8 74 9 75
REMARK SMILES IDX 10 77 11 78 12 79 25 80 13 81 14 82 15 83 16 85 17 86 18 87
REMARK SMILES IDX 19 88 20 89 24 90 21 91 23 92 22 93
REMARK H PARENT 3 7 82 25 50 36 8 76 15 84
REMARK Flexibility Score: inf
ROOT
ATOM      1  C   UNL     1       4.455  -3.201  -2.090  1.00  0.00     0.023 C 
ENDROOT
BRANCH   1   2
ATOM      2  C   UNL     1       4.849  -2.639  -0.725  1.00  0.00     0.023 C 
BRANCH   2   3
ATOM      3  C   UNL     1       4.499  -1.176  -0.504  1.00  0.00     0.116 C 
BRANCH   3   4
ATOM      4  N   UNL     1       3.085  -0.872  -0.680  1.00  0.00    -0.352 N 
ATOM      5  O   UNL     1       1.132   0.179  -0.226  1.00  0.00    -0.269 OA
ATOM      6  C   UNL     1       2.338   0.085  -0.033  1.00  0.00     0.251 C 
ATOM      7  H   UNL     1       2.606  -1.419  -1.343  1.00  0.00     0.163 HD
BRANCH   6   8
ATOM      8  C   UNL     1       3.010   0.967   0.943  1.00  0.00     0.039 A 
ATOM      9  C   UNL     1       4.209   1.596   0.605  1.00  0.00     0.014 A 
ATOM     10  C   UNL     1       2.480   1.092   2.229  1.00  0.00     0.014 A 
ATOM     11  C   UNL     1       4.968   2.196   1.600  1.00  0.00     0.010 A 
ATOM     12  C   UNL     1       3.201   1.782   3.206  1.00  0.00     0.010 A 
ATOM     13  C   UNL     1       4.474   2.296   2.912  1.00  0.00    -0.014 A 
BRANCH  13  14
ATOM     14  C   UNL     1       5.309   2.960   3.944  1.00  0.00     0.031 A 
ATOM     15  C   UNL     1       5.839   2.197   5.127  1.00  0.00     0.074 A 
ATOM     16  C   UNL     1       5.636   4.255   3.771  1.00  0.00     0.049 A 
ATOM     17  N   UNL     1       6.621   2.612   6.093  1.00  0.00    -0.248 NA
ATOM     18  C   UNL     1       5.435   0.788   5.251  1.00  0.00     0.031 C 
ATOM     19  C   UNL     1       5.173   5.096   2.665  1.00  0.00     0.029 A 
ATOM     20  N   UNL     1       6.452   5.081   4.499  1.00  0.00    -0.354 N 
ATOM     21  C   UNL     1       6.777   1.531   6.951  1.00  0.00     0.074 A 
ATOM     22  C   UNL     1       5.994   0.444   6.403  1.00  0.00     0.031 C 
ATOM     23  C   UNL     1       5.761   6.298   2.752  1.00  0.00     0.029 A 
ATOM     24  C   UNL     1       6.588   6.333   3.952  1.00  0.00     0.049 A 
ATOM     25  H   UNL     1       6.896   4.804   5.332  1.00  0.00     0.167 HD
ATOM     26  C   UNL     1       7.511   1.455   8.087  1.00  0.00     0.037 A 
ATOM     27  C   UNL     1       7.295   7.396   4.375  1.00  0.00     0.037 A 
ATOM     28  C   UNL     1       8.315   2.533   8.608  1.00  0.00     0.049 A 
ATOM     29  C   UNL     1       8.101   7.280   5.635  1.00  0.00     0.074 A 
ATOM     30  C   UNL     1       9.127   2.541   9.729  1.00  0.00     0.029 A 
ATOM     31  N   UNL     1       8.406   3.796   8.041  1.00  0.00    -0.354 N 
ATOM     32  N   UNL     1       8.262   6.243   6.420  1.00  0.00    -0.248 NA
ATOM     33  C   UNL     1       8.822   8.483   6.068  1.00  0.00     0.031 C 
ATOM     34  C   UNL     1       9.676   3.821   9.865  1.00  0.00     0.029 A 
ATOM     35  C   UNL     1       9.246   4.596   8.800  1.00  0.00     0.049 A 
ATOM     36  H   UNL     1       7.943   4.082   7.221  1.00  0.00     0.167 HD
ATOM     37  C   UNL     1       9.118   6.660   7.429  1.00  0.00     0.074 A 
ATOM     38  C   UNL     1       9.457   8.040   7.144  1.00  0.00     0.031 C 
ATOM     39  C   UNL     1       9.578   5.965   8.498  1.00  0.00     0.037 A 
BRANCH  26  40
ATOM     40  C   UNL     1       7.467   0.170   8.864  1.00  0.00     0.064 A 
ATOM     41  C   UNL     1       8.097  -0.996   8.406  1.00  0.00     0.173 A 
ATOM     42  C   UNL     1       6.825   0.120  10.112  1.00  0.00     0.173 A 
ATOM     43  F   UNL     1       8.715  -1.006   7.216  1.00  0.00    -0.203 F 
ATOM     44  C   UNL     1       8.066  -2.170   9.156  1.00  0.00     0.198 A 
ATOM     45  C   UNL     1       6.819  -1.047  10.872  1.00  0.00     0.198 A 
ATOM     46  F   UNL     1       6.213   1.209  10.601  1.00  0.00    -0.203 F 
ATOM     47  F   UNL     1       8.639  -3.284   8.679  1.00  0.00    -0.200 F 
ATOM     48  C   UNL     1       7.434  -2.192  10.391  1.00  0.00     0.200 A 
ATOM     49  F   UNL     1       6.220  -1.062  12.070  1.00  0.00    -0.200 F 
ATOM     50  F   UNL     1       7.413  -3.320  11.115  1.00  0.00    -0.200 F 
ENDBRANCH  26  40
BRANCH  27  51
ATOM     51  C   UNL     1       7.275   8.654   3.586  1.00  0.00     0.064 A 
ATOM     52  C   UNL     1       8.416   9.093   2.902  1.00  0.00     0.173 A 
ATOM     53  C   UNL     1       6.112   9.431   3.484  1.00  0.00     0.173 A 
ATOM     54  F   UNL     1       9.557   8.392   2.983  1.00  0.00    -0.203 F 
ATOM     55  C   UNL     1       8.399  10.270   2.157  1.00  0.00     0.198 A 
ATOM     56  C   UNL     1       6.087  10.591   2.714  1.00  0.00     0.198 A 
ATOM     57  F   UNL     1       4.991   9.049   4.114  1.00  0.00    -0.203 F 
ATOM     58  F   UNL     1       9.515  10.689   1.544  1.00  0.00    -0.200 F 
ATOM     59  C   UNL     1       7.232  11.014   2.058  1.00  0.00     0.200 A 
ATOM     60  F   UNL     1       4.953  11.296   2.606  1.00  0.00    -0.200 F 
ATOM     61  F   UNL     1       7.214  12.140   1.333  1.00  0.00    -0.200 F 
ENDBRANCH  27  51
BRANCH  39  62
ATOM     62  C   UNL     1      10.528   6.679   9.413  1.00  0.00     0.064 A 
ATOM     63  C   UNL     1      10.097   7.702  10.271  1.00  0.00     0.173 A 
ATOM     64  C   UNL     1      11.886   6.325   9.440  1.00  0.00     0.173 A 
ATOM     65  F   UNL     1       8.812   8.088  10.268  1.00  0.00    -0.203 F 
ATOM     66  C   UNL     1      10.998   8.368  11.098  1.00  0.00     0.198 A 
ATOM     67  C   UNL     1      12.777   6.973  10.290  1.00  0.00     0.198 A 
ATOM     68  F   UNL     1      12.347   5.350   8.643  1.00  0.00    -0.203 F 
ATOM     69  F   UNL     1      10.575   9.380  11.867  1.00  0.00    -0.200 F 
ATOM     70  C   UNL     1      12.335   8.000  11.110  1.00  0.00     0.200 A 
ATOM     71  F   UNL     1      14.067   6.609  10.309  1.00  0.00    -0.200 F 
ATOM     72  F   UNL     1      13.200   8.643  11.906  1.00  0.00    -0.200 F 
ENDBRANCH  39  62
ENDBRANCH  13  14
ENDBRANCH   6   8
ENDBRANCH   3   4
ENDBRANCH   2   3
ENDBRANCH   1   2
BRANCH   1  73
ATOM     73  C   UNL     1       5.109  -2.504  -3.288  1.00  0.00     0.116 C 
BRANCH  73  74
ATOM     74  N   UNL     1       6.497  -2.884  -3.419  1.00  0.00    -0.356 N 
ATOM     75  C   UNL     1       7.119  -3.898  -4.067  1.00  0.00     0.226 C 
ATOM     76  H   UNL     1       7.115  -2.284  -2.942  1.00  0.00     0.163 HD
ATOM     77  O   UNL     1       8.351  -3.915  -3.935  1.00  0.00    -0.274 OA
BRANCH  75  78
ATOM     78  C   UNL     1       6.432  -4.936  -4.980  1.00  0.00     0.103 C 
ATOM     79  C   UNL     1       7.017  -6.285  -4.651  1.00  0.00    -0.016 C 
ATOM     80  C   UNL     1       4.929  -5.228  -4.929  1.00  0.00     0.042 C 
ATOM     81  C   UNL     1       6.097  -7.245  -4.539  1.00  0.00    -0.011 C 
ATOM     82  C   UNL     1       4.733  -6.753  -4.840  1.00  0.00     0.093 C 
BRANCH  82  83
ATOM     83  N   UNL     1       3.808  -7.035  -3.752  1.00  0.00    -0.204 NA
ATOM     84  H   UNL     1       3.043  -6.367  -3.844  1.00  0.00     0.142 HD
BRANCH  83  85
ATOM     85  S   UNL     1       3.098  -8.543  -3.575  1.00  0.00     0.241 S 
ATOM     86  O   UNL     1       4.158  -9.531  -3.604  1.00  0.00    -0.207 OA
ATOM     87  O   UNL     1       2.201  -8.432  -2.452  1.00  0.00    -0.207 OA
BRANCH  85  88
ATOM     88  C   UNL     1       2.109  -8.745  -5.030  1.00  0.00     0.082 A 
ATOM     89  C   UNL     1       1.432  -7.657  -5.587  1.00  0.00     0.022 A 
ATOM     90  C   UNL     1       2.080  -9.999  -5.649  1.00  0.00     0.022 A 
ATOM     91  C   UNL     1       0.735  -7.828  -6.784  1.00  0.00     0.001 A 
ATOM     92  C   UNL     1       1.372 -10.164  -6.837  1.00  0.00     0.001 A 
ATOM     93  C   UNL     1       0.707  -9.078  -7.407  1.00  0.00     0.000 A 
ENDBRANCH  85  88
ENDBRANCH  83  85
ENDBRANCH  82  83
ENDBRANCH  75  78
ENDBRANCH  73  74
ENDBRANCH   1  73
TORSDOF 14
