REMARK SMILES CC[C@@H]1SC[C@@H](C(=O)NCCCCNC(=O)c2ccc(-c3c4nc(c(-c5c(F)c(F)c(F)c(F)c5F)c5ccc([nH]5)c(-c5c(F)c(F)c(F)c(F)c5F)c5nc(c(-c6c(F)c(F)c(F)c(F)c6F)c6ccc3[nH]6)C=C5)C=C4)cc2)N1C(=O)NC1C(C)(C)C1(C)C
REMARK SMILES IDX 11 1 10 2 9 3 7 4 8 5 6 7 3 8 4 9 80 10 5 11 2 12 1 13 81 14
REMARK SMILES IDX 82 15 83 16 84 18 85 19 88 20 86 21 87 22 89 23 90 24 12 25
REMARK SMILES IDX 13 26 14 27 15 28 16 30 17 31 18 32 79 33 19 34 78 35 20 36
REMARK SMILES IDX 21 37 22 38 72 39 23 40 77 41 71 42 73 43 24 44 76 45 70 46
REMARK SMILES IDX 69 47 25 49 57 50 37 51 56 52 38 53 41 54 55 55 74 56 39 57
REMARK SMILES IDX 40 58 54 60 75 61 42 62 26 63 27 64 35 65 28 66 29 67 33 68
REMARK SMILES IDX 36 69 30 70 31 71 34 72 32 73 58 74 59 75 67 76 60 77 61 78
REMARK SMILES IDX 65 79 68 80 62 81 63 82 66 83 64 84 43 85 44 86 52 87 45 88
REMARK SMILES IDX 46 89 50 90 53 91 47 92 48 93 51 94 49 95
REMARK H PARENT 9 6 83 17 14 29 73 48 41 59
REMARK Flexibility Score: inf
ROOT
ATOM      1  C   UNL     1      -0.941   1.906  -1.110  1.00  0.00     0.023 C 
ENDROOT
BRANCH   1   2
ATOM      2  C   UNL     1      -2.100   1.024  -1.579  1.00  0.00     0.116 C 
BRANCH   2   3
ATOM      3  N   UNL     1      -2.363   1.144  -2.996  1.00  0.00    -0.354 N 
ATOM      4  C   UNL     1      -1.897   0.457  -4.079  1.00  0.00     0.243 C 
ATOM      5  O   UNL     1      -2.590   0.562  -5.100  1.00  0.00    -0.273 OA
ATOM      6  H   UNL     1      -3.001   1.859  -3.223  1.00  0.00     0.163 HD
BRANCH   4   7
ATOM      7  C   UNL     1      -0.724  -0.563  -4.045  1.00  0.00     0.187 C 
ATOM      8  C   UNL     1       0.752  -0.833  -2.143  1.00  0.00     0.145 C 
ATOM      9  S   UNL     1       0.161  -2.517  -2.461  1.00  0.00    -0.134 SA
ATOM     10  N   UNL     1       0.559  -0.130  -3.410  1.00  0.00    -0.300 N 
ATOM     11  C   UNL     1      -1.207  -1.901  -3.468  1.00  0.00     0.107 C 
BRANCH   8  12
ATOM     12  C   UNL     1       1.982  -0.738  -1.275  1.00  0.00     0.033 C 
ATOM     13  C   UNL     1       1.857  -1.343   0.119  1.00  0.00     0.007 C 
ENDBRANCH   8  12
BRANCH  10  14
ATOM     14  C   UNL     1       1.295   0.699  -4.209  1.00  0.00     0.319 C 
ATOM     15  O   UNL     1       0.769   1.207  -5.212  1.00  0.00    -0.249 OA
ATOM     16  N   UNL     1       2.587   1.049  -4.079  1.00  0.00    -0.334 N 
ATOM     17  H   UNL     1       2.867   1.646  -4.810  1.00  0.00     0.165 HD
BRANCH  16  18
ATOM     18  C   UNL     1       3.659   0.800  -3.186  1.00  0.00     0.096 C 
ATOM     19  C   UNL     1       4.743  -0.235  -3.472  1.00  0.00    -0.007 C 
ATOM     20  C   UNL     1       5.097   1.255  -3.435  1.00  0.00    -0.007 C 
ATOM     21  C   UNL     1       5.261  -1.116  -2.356  1.00  0.00     0.014 C 
ATOM     22  C   UNL     1       4.708  -0.975  -4.795  1.00  0.00     0.014 C 
ATOM     23  C   UNL     1       5.529   1.948  -4.704  1.00  0.00     0.014 C 
ATOM     24  C   UNL     1       5.832   1.806  -2.219  1.00  0.00     0.014 C 
ENDBRANCH  16  18
ENDBRANCH  10  14
ENDBRANCH   4   7
ENDBRANCH   2   3
ENDBRANCH   1   2
BRANCH   1  25
ATOM     25  C   UNL     1      -1.363   3.268  -0.561  1.00  0.00     0.023 C 
BRANCH  25  26
ATOM     26  C   UNL     1      -2.135   3.205   0.753  1.00  0.00     0.116 C 
BRANCH  26  27
ATOM     27  N   UNL     1      -1.381   2.629   1.858  1.00  0.00    -0.352 N 
ATOM     28  C   UNL     1      -1.553   2.855   3.207  1.00  0.00     0.251 C 
ATOM     29  H   UNL     1      -0.662   2.002   1.612  1.00  0.00     0.163 HD
ATOM     30  O   UNL     1      -0.795   2.362   4.029  1.00  0.00    -0.269 OA
BRANCH  28  31
ATOM     31  C   UNL     1      -2.640   3.758   3.639  1.00  0.00     0.039 A 
ATOM     32  C   UNL     1      -2.327   4.842   4.462  1.00  0.00     0.014 A 
ATOM     33  C   UNL     1      -3.942   3.578   3.165  1.00  0.00     0.014 A 
ATOM     34  C   UNL     1      -3.306   5.797   4.741  1.00  0.00     0.010 A 
ATOM     35  C   UNL     1      -4.893   4.567   3.381  1.00  0.00     0.010 A 
ATOM     36  C   UNL     1      -4.583   5.690   4.165  1.00  0.00    -0.014 A 
BRANCH  36  37
ATOM     37  C   UNL     1      -5.603   6.750   4.353  1.00  0.00     0.031 A 
ATOM     38  C   UNL     1      -6.883   6.443   5.074  1.00  0.00     0.074 A 
ATOM     39  C   UNL     1      -5.416   7.959   3.791  1.00  0.00     0.049 A 
ATOM     40  N   UNL     1      -7.925   7.210   5.275  1.00  0.00    -0.248 NA
ATOM     41  C   UNL     1      -7.028   5.081   5.610  1.00  0.00     0.031 C 
ATOM     42  C   UNL     1      -4.250   8.351   2.998  1.00  0.00     0.029 A 
ATOM     43  N   UNL     1      -6.214   9.076   3.783  1.00  0.00    -0.354 N 
ATOM     44  C   UNL     1      -8.854   6.418   5.935  1.00  0.00     0.074 A 
ATOM     45  C   UNL     1      -8.275   5.098   6.056  1.00  0.00     0.031 C 
ATOM     46  C   UNL     1      -4.401   9.622   2.592  1.00  0.00     0.029 A 
ATOM     47  C   UNL     1      -5.685  10.125   3.073  1.00  0.00     0.049 A 
ATOM     48  H   UNL     1      -7.083   9.120   4.243  1.00  0.00     0.167 HD
ATOM     49  C   UNL     1     -10.071   6.768   6.416  1.00  0.00     0.037 A 
ATOM     50  C   UNL     1      -6.181  11.353   2.833  1.00  0.00     0.037 A 
ATOM     51  C   UNL     1     -10.623   8.093   6.328  1.00  0.00     0.049 A 
ATOM     52  C   UNL     1      -7.513  11.733   3.417  1.00  0.00     0.074 A 
ATOM     53  C   UNL     1     -11.800   8.576   6.873  1.00  0.00     0.029 A 
ATOM     54  N   UNL     1     -10.036   9.148   5.645  1.00  0.00    -0.354 N 
ATOM     55  N   UNL     1      -8.341  11.006   4.127  1.00  0.00    -0.248 NA
ATOM     56  C   UNL     1      -7.975  13.108   3.178  1.00  0.00     0.031 C 
ATOM     57  C   UNL     1     -11.945   9.912   6.483  1.00  0.00     0.029 A 
ATOM     58  C   UNL     1     -10.838  10.274   5.733  1.00  0.00     0.049 A 
ATOM     59  H   UNL     1      -9.175   9.103   5.168  1.00  0.00     0.167 HD
ATOM     60  C   UNL     1      -9.411  11.835   4.435  1.00  0.00     0.074 A 
ATOM     61  C   UNL     1      -9.118  13.128   3.849  1.00  0.00     0.031 C 
ATOM     62  C   UNL     1     -10.533  11.552   5.140  1.00  0.00     0.037 A 
BRANCH  49  63
ATOM     63  C   UNL     1     -10.883   5.696   7.082  1.00  0.00     0.064 A 
ATOM     64  C   UNL     1     -10.514   5.154   8.323  1.00  0.00     0.173 A 
ATOM     65  C   UNL     1     -12.055   5.215   6.479  1.00  0.00     0.173 A 
ATOM     66  F   UNL     1      -9.396   5.571   8.935  1.00  0.00    -0.203 F 
ATOM     67  C   UNL     1     -11.267   4.144   8.916  1.00  0.00     0.198 A 
ATOM     68  C   UNL     1     -12.822   4.227   7.090  1.00  0.00     0.198 A 
ATOM     69  F   UNL     1     -12.456   5.702   5.295  1.00  0.00    -0.203 F 
ATOM     70  F   UNL     1     -10.862   3.601  10.072  1.00  0.00    -0.200 F 
ATOM     71  C   UNL     1     -12.422   3.685   8.302  1.00  0.00     0.200 A 
ATOM     72  F   UNL     1     -13.944   3.792   6.500  1.00  0.00    -0.200 F 
ATOM     73  F   UNL     1     -13.146   2.713   8.875  1.00  0.00    -0.200 F 
ENDBRANCH  49  63
BRANCH  50  74
ATOM     74  C   UNL     1      -5.393  12.319   2.026  1.00  0.00     0.064 A 
ATOM     75  C   UNL     1      -4.766  13.418   2.630  1.00  0.00     0.173 A 
ATOM     76  C   UNL     1      -5.230  12.152   0.643  1.00  0.00     0.173 A 
ATOM     77  F   UNL     1      -4.910  13.629   3.946  1.00  0.00    -0.203 F 
ATOM     78  C   UNL     1      -4.015  14.320   1.879  1.00  0.00     0.198 A 
ATOM     79  C   UNL     1      -4.459  13.040  -0.102  1.00  0.00     0.198 A 
ATOM     80  F   UNL     1      -5.803  11.111   0.021  1.00  0.00    -0.203 F 
ATOM     81  F   UNL     1      -3.453  15.380   2.476  1.00  0.00    -0.200 F 
ATOM     82  C   UNL     1      -3.856  14.127   0.515  1.00  0.00     0.200 A 
ATOM     83  F   UNL     1      -4.295  12.842  -1.417  1.00  0.00    -0.200 F 
ATOM     84  F   UNL     1      -3.125  14.989  -0.205  1.00  0.00    -0.200 F 
ENDBRANCH  50  74
BRANCH  62  85
ATOM     85  C   UNL     1     -11.523  12.662   5.331  1.00  0.00     0.064 A 
ATOM     86  C   UNL     1     -12.333  13.111   4.278  1.00  0.00     0.173 A 
ATOM     87  C   UNL     1     -11.694  13.253   6.592  1.00  0.00     0.173 A 
ATOM     88  F   UNL     1     -12.195  12.588   3.050  1.00  0.00    -0.203 F 
ATOM     89  C   UNL     1     -13.265  14.126   4.476  1.00  0.00     0.198 A 
ATOM     90  C   UNL     1     -12.646  14.249   6.792  1.00  0.00     0.198 A 
ATOM     91  F   UNL     1     -10.947  12.855   7.632  1.00  0.00    -0.203 F 
ATOM     92  F   UNL     1     -14.000  14.568   3.446  1.00  0.00    -0.200 F 
ATOM     93  C   UNL     1     -13.427  14.688   5.734  1.00  0.00     0.200 A 
ATOM     94  F   UNL     1     -12.809  14.782   8.011  1.00  0.00    -0.200 F 
ATOM     95  F   UNL     1     -14.330  15.659   5.924  1.00  0.00    -0.200 F 
ENDBRANCH  62  85
ENDBRANCH  36  37
ENDBRANCH  28  31
ENDBRANCH  26  27
ENDBRANCH  25  26
ENDBRANCH   1  25
TORSDOF 14
