REMARK SMILES COc1cccc(Cn2c(=O)c(=O)n(CC(=O)NCCCCNC(=O)c3ccc(-c4c5nc(c(-c6c(F)c(F)c(F)c(F)c6F)c6ccc([nH]6)c(-c6c(F)c(F)c(F)c(F)c6F)c6nc(c(-c7c(F)c(F)c(F)c(F)c7F)c7ccc4[nH]7)C=C6)C=C5)cc3)c3ccccc32)c1
REMARK SMILES IDX 19 1 18 2 16 3 17 4 15 6 14 7 9 8 10 9 94 10 11 11 12 12
REMARK SMILES IDX 89 13 93 14 13 15 90 16 92 17 91 18 8 19 7 20 3 21 4 22
REMARK SMILES IDX 95 23 5 24 6 25 2 26 1 27 20 28 21 29 22 30 23 31 24 32
REMARK SMILES IDX 25 34 26 35 27 36 88 37 28 38 87 39 29 40 30 41 31 42 81 43
REMARK SMILES IDX 32 44 86 45 80 46 82 47 33 48 85 49 79 50 78 51 34 53 66 54
REMARK SMILES IDX 46 55 65 56 47 57 50 58 64 59 83 60 48 61 49 62 63 64 84 65
REMARK SMILES IDX 51 66 35 67 36 68 44 69 37 70 38 71 42 72 45 73 39 74 40 75
REMARK SMILES IDX 43 76 41 77 67 78 68 79 76 80 69 81 70 82 74 83 77 84 71 85
REMARK SMILES IDX 72 86 75 87 73 88 52 89 53 90 61 91 54 92 55 93 59 94 62 95
REMARK SMILES IDX 56 96 57 97 60 98 58 99
REMARK H PARENT 18 5 23 33 82 52 50 63
REMARK Flexibility Score: inf
ROOT
ATOM      1  C   UNL     1       0.894  -2.952  -6.435  1.00  0.00     0.116 C 
ENDROOT
BRANCH   1   2
ATOM      2  N   UNL     1       1.138  -4.348  -6.727  1.00  0.00    -0.355 N 
ATOM      3  C   UNL     1       2.227  -5.127  -6.503  1.00  0.00     0.240 C 
ATOM      4  O   UNL     1       2.126  -6.311  -6.851  1.00  0.00    -0.273 OA
ATOM      5  H   UNL     1       0.387  -4.812  -7.162  1.00  0.00     0.163 HD
BRANCH   3   6
ATOM      6  C   UNL     1       3.450  -4.697  -5.681  1.00  0.00     0.226 C 
BRANCH   6   7
ATOM      7  N   UNL     1       4.030  -3.362  -5.677  1.00  0.00    -0.293 N 
ATOM      8  N   UNL     1       5.171  -0.804  -5.444  1.00  0.00    -0.298 N 
ATOM      9  C   UNL     1       4.977  -1.563  -4.307  1.00  0.00     0.317 A 
ATOM     10  C   UNL     1       5.392  -1.541  -6.637  1.00  0.00     0.068 A 
ATOM     11  O   UNL     1       5.536  -1.388  -3.223  1.00  0.00    -0.263 OA
ATOM     12  C   UNL     1       3.935  -2.656  -4.485  1.00  0.00     0.317 A 
ATOM     13  C   UNL     1       4.863  -2.861  -6.731  1.00  0.00     0.069 A 
ATOM     14  C   UNL     1       6.242  -1.056  -7.638  1.00  0.00     0.028 A 
ATOM     15  O   UNL     1       3.124  -2.886  -3.587  1.00  0.00    -0.263 OA
ATOM     16  C   UNL     1       5.163  -3.634  -7.858  1.00  0.00     0.028 A 
ATOM     17  C   UNL     1       6.586  -1.874  -8.717  1.00  0.00     0.002 A 
ATOM     18  C   UNL     1       6.038  -3.150  -8.833  1.00  0.00     0.002 A 
BRANCH   8  19
ATOM     19  C   UNL     1       5.229   0.652  -5.306  1.00  0.00     0.162 C 
BRANCH  19  20
ATOM     20  C   UNL     1       3.888   1.141  -4.740  1.00  0.00    -0.024 A 
ATOM     21  C   UNL     1       2.240   0.803  -2.986  1.00  0.00     0.119 A 
ATOM     22  C   UNL     1       1.230   1.254  -3.825  1.00  0.00     0.046 A 
ATOM     23  C   UNL     1       3.565   0.844  -3.403  1.00  0.00     0.052 A 
ATOM     24  C   UNL     1       1.555   1.721  -5.101  1.00  0.00     0.004 A 
ATOM     25  C   UNL     1       2.872   1.629  -5.574  1.00  0.00     0.006 A 
BRANCH  21  26
ATOM     26  O   UNL     1       1.950   0.018  -1.904  1.00  0.00    -0.497 OA
ATOM     27  C   UNL     1       1.555   0.746  -0.754  1.00  0.00     0.278 C 
ENDBRANCH  21  26
ENDBRANCH  19  20
ENDBRANCH   8  19
ENDBRANCH   6   7
ENDBRANCH   3   6
ENDBRANCH   1   2
BRANCH   1  28
ATOM     28  C   UNL     1       1.387  -2.050  -7.565  1.00  0.00     0.023 C 
BRANCH  28  29
ATOM     29  C   UNL     1       0.561  -2.114  -8.855  1.00  0.00     0.023 C 
BRANCH  29  30
ATOM     30  C   UNL     1      -0.844  -1.544  -8.732  1.00  0.00     0.116 C 
BRANCH  30  31
ATOM     31  N   UNL     1      -0.874  -0.128  -8.390  1.00  0.00    -0.352 N 
ATOM     32  C   UNL     1      -1.962   0.713  -8.458  1.00  0.00     0.251 C 
ATOM     33  H   UNL     1      -0.029   0.268  -8.078  1.00  0.00     0.163 HD
ATOM     34  O   UNL     1      -1.857   1.916  -8.256  1.00  0.00    -0.269 OA
BRANCH  32  35
ATOM     35  C   UNL     1      -3.261   0.121  -8.838  1.00  0.00     0.039 A 
ATOM     36  C   UNL     1      -3.896   0.553 -10.003  1.00  0.00     0.014 A 
ATOM     37  C   UNL     1      -3.770  -0.948  -8.099  1.00  0.00     0.014 A 
ATOM     38  C   UNL     1      -5.007  -0.149 -10.476  1.00  0.00     0.010 A 
ATOM     39  C   UNL     1      -4.824  -1.692  -8.613  1.00  0.00     0.010 A 
ATOM     40  C   UNL     1      -5.451  -1.303  -9.808  1.00  0.00    -0.014 A 
BRANCH  40  41
ATOM     41  C   UNL     1      -6.575  -2.120 -10.328  1.00  0.00     0.031 A 
ATOM     42  C   UNL     1      -7.829  -2.261  -9.512  1.00  0.00     0.074 A 
ATOM     43  C   UNL     1      -6.435  -2.807 -11.479  1.00  0.00     0.049 A 
ATOM     44  N   UNL     1      -8.879  -3.013  -9.726  1.00  0.00    -0.248 NA
ATOM     45  C   UNL     1      -7.894  -1.480  -8.268  1.00  0.00     0.031 C 
ATOM     46  C   UNL     1      -5.245  -2.801 -12.331  1.00  0.00     0.029 A 
ATOM     47  N   UNL     1      -7.299  -3.658 -12.122  1.00  0.00    -0.354 N 
ATOM     48  C   UNL     1      -9.710  -2.816  -8.632  1.00  0.00     0.074 A 
ATOM     49  C   UNL     1      -9.021  -1.919  -7.730  1.00  0.00     0.031 C 
ATOM     50  C   UNL     1      -5.463  -3.589 -13.396  1.00  0.00     0.029 A 
ATOM     51  C   UNL     1      -6.793  -4.183 -13.286  1.00  0.00     0.049 A 
ATOM     52  H   UNL     1      -8.197  -3.872 -11.781  1.00  0.00     0.167 HD
ATOM     53  C   UNL     1     -10.949  -3.315  -8.411  1.00  0.00     0.037 A 
ATOM     54  C   UNL     1      -7.341  -5.046 -14.163  1.00  0.00     0.037 A 
ATOM     55  C   UNL     1     -11.649  -4.171  -9.330  1.00  0.00     0.049 A 
ATOM     56  C   UNL     1      -8.730  -5.566 -13.909  1.00  0.00     0.074 A 
ATOM     57  C   UNL     1     -12.934  -4.675  -9.234  1.00  0.00     0.029 A 
ATOM     58  N   UNL     1     -11.120  -4.646 -10.521  1.00  0.00    -0.354 N 
ATOM     59  N   UNL     1      -9.535  -5.319 -12.905  1.00  0.00    -0.248 NA
ATOM     60  C   UNL     1      -9.289  -6.480 -14.915  1.00  0.00     0.031 C 
ATOM     61  C   UNL     1     -13.171  -5.481 -10.353  1.00  0.00     0.029 A 
ATOM     62  C   UNL     1     -12.049  -5.447 -11.165  1.00  0.00     0.049 A 
ATOM     63  H   UNL     1     -10.217  -4.444 -10.858  1.00  0.00     0.167 HD
ATOM     64  C   UNL     1     -10.704  -6.020 -13.171  1.00  0.00     0.074 A 
ATOM     65  C   UNL     1     -10.507  -6.696 -14.436  1.00  0.00     0.031 C 
ATOM     66  C   UNL     1     -11.838  -6.096 -12.433  1.00  0.00     0.037 A 
BRANCH  53  67
ATOM     67  C   UNL     1     -11.624  -2.934  -7.126  1.00  0.00     0.064 A 
ATOM     68  C   UNL     1     -12.070  -1.624  -6.892  1.00  0.00     0.173 A 
ATOM     69  C   UNL     1     -11.834  -3.888  -6.120  1.00  0.00     0.173 A 
ATOM     70  F   UNL     1     -11.880  -0.671  -7.817  1.00  0.00    -0.203 F 
ATOM     71  C   UNL     1     -12.666  -1.274  -5.683  1.00  0.00     0.198 A 
ATOM     72  C   UNL     1     -12.459  -3.542  -4.924  1.00  0.00     0.198 A 
ATOM     73  F   UNL     1     -11.432  -5.155  -6.294  1.00  0.00    -0.203 F 
ATOM     74  F   UNL     1     -13.027  -0.003  -5.460  1.00  0.00    -0.200 F 
ATOM     75  C   UNL     1     -12.864  -2.234  -4.703  1.00  0.00     0.200 A 
ATOM     76  F   UNL     1     -12.660  -4.473  -3.981  1.00  0.00    -0.200 F 
ATOM     77  F   UNL     1     -13.436  -1.896  -3.539  1.00  0.00    -0.200 F 
ENDBRANCH  53  67
BRANCH  54  78
ATOM     78  C   UNL     1      -6.593  -5.438 -15.385  1.00  0.00     0.064 A 
ATOM     79  C   UNL     1      -6.987  -4.966 -16.645  1.00  0.00     0.173 A 
ATOM     80  C   UNL     1      -5.476  -6.282 -15.324  1.00  0.00     0.173 A 
ATOM     81  F   UNL     1      -8.063  -4.172 -16.756  1.00  0.00    -0.203 F 
ATOM     82  C   UNL     1      -6.302  -5.338 -17.800  1.00  0.00     0.198 A 
ATOM     83  C   UNL     1      -4.777  -6.633 -16.477  1.00  0.00     0.198 A 
ATOM     84  F   UNL     1      -5.055  -6.755 -14.142  1.00  0.00    -0.203 F 
ATOM     85  F   UNL     1      -6.724  -4.903 -18.996  1.00  0.00    -0.200 F 
ATOM     86  C   UNL     1      -5.194  -6.167 -17.715  1.00  0.00     0.200 A 
ATOM     87  F   UNL     1      -3.699  -7.425 -16.390  1.00  0.00    -0.200 F 
ATOM     88  F   UNL     1      -4.532  -6.520 -18.825  1.00  0.00    -0.200 F 
ENDBRANCH  54  78
BRANCH  66  89
ATOM     89  C   UNL     1     -12.971  -6.904 -12.992  1.00  0.00     0.064 A 
ATOM     90  C   UNL     1     -12.941  -8.306 -12.999  1.00  0.00     0.173 A 
ATOM     91  C   UNL     1     -14.122  -6.266 -13.478  1.00  0.00     0.173 A 
ATOM     92  F   UNL     1     -11.855  -8.960 -12.559  1.00  0.00    -0.203 F 
ATOM     93  C   UNL     1     -14.017  -9.040 -13.489  1.00  0.00     0.198 A 
ATOM     94  C   UNL     1     -15.207  -7.004 -13.942  1.00  0.00     0.198 A 
ATOM     95  F   UNL     1     -14.200  -4.927 -13.487  1.00  0.00    -0.203 F 
ATOM     96  F   UNL     1     -13.954 -10.378 -13.521  1.00  0.00    -0.200 F 
ATOM     97  C   UNL     1     -15.152  -8.389 -13.952  1.00  0.00     0.200 A 
ATOM     98  F   UNL     1     -16.306  -6.374 -14.379  1.00  0.00    -0.200 F 
ATOM     99  F   UNL     1     -16.191  -9.099 -14.413  1.00  0.00    -0.200 F 
ENDBRANCH  66  89
ENDBRANCH  40  41
ENDBRANCH  32  35
ENDBRANCH  30  31
ENDBRANCH  29  30
ENDBRANCH  28  29
ENDBRANCH   1  28
TORSDOF 15
