REMARK SMILES Cc1ccc(C)c(OCCNC(=O)CCC(=O)NCCCCNC(=O)c2ccc(-c3c4nc(c(-c5c(F)c(F)c(F)c(F)c5F)c5ccc([nH]5)c(-c5c(F)c(F)c(F)c(F)c5F)c5nc(c(-c6c(F)c(F)c(F)c(F)c6F)c6ccc3[nH]6)C=C5)C=C4)cc2)c1
REMARK SMILES IDX 16 1 17 2 18 3 15 5 14 6 12 7 11 8 13 10 10 11 9 12 8 13
REMARK SMILES IDX 7 14 1 15 2 16 3 17 89 18 4 19 5 20 6 21 19 22 20 23 21 24
REMARK SMILES IDX 22 25 23 26 24 27 25 29 26 30 27 31 88 32 28 33 87 34 29 35
REMARK SMILES IDX 30 36 31 37 81 38 32 39 86 40 80 41 82 42 33 43 85 44 79 45
REMARK SMILES IDX 78 46 34 48 66 49 46 50 65 51 47 52 50 53 64 54 83 55 48 56
REMARK SMILES IDX 49 57 63 59 84 60 51 61 35 62 36 63 44 64 37 65 38 66 42 67
REMARK SMILES IDX 45 68 39 69 40 70 43 71 41 72 67 73 68 74 76 75 69 76 70 77
REMARK SMILES IDX 74 78 77 79 71 80 72 81 75 82 73 83 52 84 53 85 61 86 54 87
REMARK SMILES IDX 55 88 59 89 62 90 56 91 57 92 60 93 58 94
REMARK H PARENT 18 4 11 9 23 28 82 47 50 58
REMARK Flexibility Score: inf
ROOT
ATOM      1  C   UNL     1       2.783   4.310   0.274  1.00  0.00     0.220 C 
ATOM      2  O   UNL     1       2.404   4.890  -0.750  1.00  0.00    -0.275 OA
ATOM      3  N   UNL     1       2.211   3.128   0.659  1.00  0.00    -0.356 N 
ATOM      4  H   UNL     1       1.315   3.036   0.262  1.00  0.00     0.163 HD
ENDROOT
BRANCH   1   5
ATOM      5  C   UNL     1       3.690   5.044   1.192  1.00  0.00     0.110 C 
BRANCH   5   6
ATOM      6  C   UNL     1       2.842   5.727   2.262  1.00  0.00     0.110 C 
BRANCH   6   7
ATOM      7  C   UNL     1       1.900   4.775   2.965  1.00  0.00     0.220 C 
ATOM      8  N   UNL     1       0.645   4.528   2.483  1.00  0.00    -0.353 N 
ATOM      9  H   UNL     1       0.142   3.862   3.006  1.00  0.00     0.163 HD
ATOM     10  O   UNL     1       2.277   4.146   3.957  1.00  0.00    -0.275 OA
BRANCH   8  11
ATOM     11  C   UNL     1      -0.102   5.070   1.326  1.00  0.00     0.157 C 
BRANCH  11  12
ATOM     12  C   UNL     1      -0.719   3.976   0.408  1.00  0.00     0.250 C 
BRANCH  12  13
ATOM     13  O   UNL     1      -0.042   3.719  -0.861  1.00  0.00    -0.491 OA
BRANCH  13  14
ATOM     14  C   UNL     1       0.126   2.390  -1.232  1.00  0.00     0.122 A 
ATOM     15  C   UNL     1       3.287   0.245  -2.011  1.00  0.00     0.044 C 
ATOM     16  C   UNL     1       1.869   0.672  -1.789  1.00  0.00    -0.047 A 
ATOM     17  C   UNL     1       0.984  -0.285  -1.382  1.00  0.00     0.004 A 
ATOM     18  C   UNL     1       1.418   2.005  -1.763  1.00  0.00     0.050 A 
ATOM     19  C   UNL     1      -0.267   0.134  -0.938  1.00  0.00     0.007 A 
ATOM     20  C   UNL     1      -0.785   1.425  -0.914  1.00  0.00    -0.009 A 
ATOM     21  C   UNL     1      -2.218   1.716  -0.586  1.00  0.00     0.048 C 
ENDBRANCH  13  14
ENDBRANCH  12  13
ENDBRANCH  11  12
ENDBRANCH   8  11
ENDBRANCH   6   7
ENDBRANCH   5   6
ENDBRANCH   1   5
BRANCH   3  22
ATOM     22  C   UNL     1       2.528   1.959   1.482  1.00  0.00     0.116 C 
BRANCH  22  23
ATOM     23  C   UNL     1       1.518   0.680   1.709  1.00  0.00     0.023 C 
BRANCH  23  24
ATOM     24  C   UNL     1       0.052   0.585   2.337  1.00  0.00     0.023 C 
BRANCH  24  25
ATOM     25  C   UNL     1      -1.305  -0.274   1.881  1.00  0.00     0.116 C 
BRANCH  25  26
ATOM     26  N   UNL     1      -1.423  -1.682   1.315  1.00  0.00    -0.352 N 
ATOM     27  C   UNL     1      -2.361  -2.282   0.397  1.00  0.00     0.251 C 
ATOM     28  H   UNL     1      -0.728  -2.300   1.636  1.00  0.00     0.163 HD
ATOM     29  O   UNL     1      -2.892  -3.355   0.733  1.00  0.00    -0.269 OA
BRANCH  27  30
ATOM     30  C   UNL     1      -2.639  -1.829  -1.038  1.00  0.00     0.039 A 
ATOM     31  C   UNL     1      -1.740  -2.105  -2.094  1.00  0.00     0.014 A 
ATOM     32  C   UNL     1      -3.722  -1.026  -1.360  1.00  0.00     0.014 A 
ATOM     33  C   UNL     1      -1.687  -1.279  -3.266  1.00  0.00     0.010 A 
ATOM     34  C   UNL     1      -3.671  -0.222  -2.531  1.00  0.00     0.010 A 
ATOM     35  C   UNL     1      -2.578  -0.216  -3.436  1.00  0.00    -0.014 A 
BRANCH  35  36
ATOM     36  C   UNL     1      -2.517   0.800  -4.559  1.00  0.00     0.031 A 
ATOM     37  C   UNL     1      -3.733   0.827  -5.384  1.00  0.00     0.074 A 
ATOM     38  C   UNL     1      -1.711   1.847  -4.909  1.00  0.00     0.049 A 
ATOM     39  N   UNL     1      -3.914   0.195  -6.493  1.00  0.00    -0.248 NA
ATOM     40  C   UNL     1      -4.894   1.572  -4.890  1.00  0.00     0.031 C 
ATOM     41  C   UNL     1      -0.558   2.372  -4.225  1.00  0.00     0.029 A 
ATOM     42  N   UNL     1      -1.826   2.761  -5.947  1.00  0.00    -0.354 N 
ATOM     43  C   UNL     1      -5.179   0.560  -6.904  1.00  0.00     0.074 A 
ATOM     44  C   UNL     1      -5.818   1.170  -5.761  1.00  0.00     0.031 C 
ATOM     45  C   UNL     1      -0.240   3.623  -4.640  1.00  0.00     0.029 A 
ATOM     46  C   UNL     1      -1.024   3.905  -5.827  1.00  0.00     0.049 A 
ATOM     47  H   UNL     1      -2.428   2.617  -6.713  1.00  0.00     0.167 HD
ATOM     48  C   UNL     1      -5.537   0.581  -8.214  1.00  0.00     0.037 A 
ATOM     49  C   UNL     1      -0.933   4.972  -6.669  1.00  0.00     0.037 A 
ATOM     50  C   UNL     1      -4.501   0.074  -9.081  1.00  0.00     0.049 A 
ATOM     51  C   UNL     1      -1.399   4.516  -7.994  1.00  0.00     0.074 A 
ATOM     52  C   UNL     1      -3.762  -1.091  -9.166  1.00  0.00     0.029 A 
ATOM     53  N   UNL     1      -3.836   0.980  -9.872  1.00  0.00    -0.354 N 
ATOM     54  N   UNL     1      -0.721   3.729  -8.779  1.00  0.00    -0.248 NA
ATOM     55  C   UNL     1      -2.789   4.723  -8.361  1.00  0.00     0.031 C 
ATOM     56  C   UNL     1      -2.467  -0.693  -9.620  1.00  0.00     0.029 A 
ATOM     57  C   UNL     1      -2.497   0.688  -9.800  1.00  0.00     0.049 A 
ATOM     58  H   UNL     1      -4.245   1.707 -10.395  1.00  0.00     0.167 HD
ATOM     59  C   UNL     1      -1.689   2.994  -9.434  1.00  0.00     0.074 A 
ATOM     60  C   UNL     1      -2.918   3.759  -9.273  1.00  0.00     0.031 C 
ATOM     61  C   UNL     1      -1.459   1.691  -9.762  1.00  0.00     0.037 A 
BRANCH  48  62
ATOM     62  C   UNL     1      -6.712   1.352  -8.735  1.00  0.00     0.064 A 
ATOM     63  C   UNL     1      -7.291   0.972  -9.956  1.00  0.00     0.173 A 
ATOM     64  C   UNL     1      -7.185   2.558  -8.175  1.00  0.00     0.173 A 
ATOM     65  F   UNL     1      -6.861  -0.123 -10.601  1.00  0.00    -0.203 F 
ATOM     66  C   UNL     1      -8.277   1.744 -10.570  1.00  0.00     0.198 A 
ATOM     67  C   UNL     1      -8.226   3.283  -8.747  1.00  0.00     0.198 A 
ATOM     68  F   UNL     1      -6.593   3.128  -7.117  1.00  0.00    -0.203 F 
ATOM     69  F   UNL     1      -8.730   1.399 -11.782  1.00  0.00    -0.200 F 
ATOM     70  C   UNL     1      -8.758   2.887  -9.956  1.00  0.00     0.200 A 
ATOM     71  F   UNL     1      -8.662   4.398  -8.146  1.00  0.00    -0.200 F 
ATOM     72  F   UNL     1      -9.694   3.637 -10.552  1.00  0.00    -0.200 F 
ENDBRANCH  48  62
BRANCH  49  73
ATOM     73  C   UNL     1      -0.520   6.391  -6.485  1.00  0.00     0.064 A 
ATOM     74  C   UNL     1      -0.083   7.181  -7.570  1.00  0.00     0.173 A 
ATOM     75  C   UNL     1      -0.860   7.088  -5.313  1.00  0.00     0.173 A 
ATOM     76  F   UNL     1       0.232   6.612  -8.742  1.00  0.00    -0.203 F 
ATOM     77  C   UNL     1      -0.036   8.579  -7.500  1.00  0.00     0.198 A 
ATOM     78  C   UNL     1      -0.809   8.486  -5.244  1.00  0.00     0.198 A 
ATOM     79  F   UNL     1      -1.354   6.430  -4.254  1.00  0.00    -0.203 F 
ATOM     80  F   UNL     1       0.309   9.293  -8.582  1.00  0.00    -0.200 F 
ATOM     81  C   UNL     1      -0.416   9.231  -6.342  1.00  0.00     0.200 A 
ATOM     82  F   UNL     1      -1.219   9.114  -4.131  1.00  0.00    -0.200 F 
ATOM     83  F   UNL     1      -0.449  10.571  -6.299  1.00  0.00    -0.200 F 
ENDBRANCH  49  73
BRANCH  61  84
ATOM     84  C   UNL     1      -0.029   1.222  -9.794  1.00  0.00     0.064 A 
ATOM     85  C   UNL     1       0.834   1.220  -8.683  1.00  0.00     0.173 A 
ATOM     86  C   UNL     1       0.456   0.664 -10.985  1.00  0.00     0.173 A 
ATOM     87  F   UNL     1       0.418   1.643  -7.482  1.00  0.00    -0.203 F 
ATOM     88  C   UNL     1       2.136   0.731  -8.779  1.00  0.00     0.198 A 
ATOM     89  C   UNL     1       1.744   0.140 -11.067  1.00  0.00     0.198 A 
ATOM     90  F   UNL     1      -0.335   0.597 -12.067  1.00  0.00    -0.203 F 
ATOM     91  F   UNL     1       2.947   0.762  -7.711  1.00  0.00    -0.200 F 
ATOM     92  C   UNL     1       2.587   0.185  -9.969  1.00  0.00     0.200 A 
ATOM     93  F   UNL     1       2.160  -0.429 -12.207  1.00  0.00    -0.200 F 
ATOM     94  F   UNL     1       3.826  -0.320 -10.051  1.00  0.00    -0.200 F 
ENDBRANCH  61  84
ENDBRANCH  35  36
ENDBRANCH  27  30
ENDBRANCH  25  26
ENDBRANCH  24  25
ENDBRANCH  23  24
ENDBRANCH  22  23
ENDBRANCH   3  22
TORSDOF 17
