REMARK SMILES O=C(NCCCCNC(=O)c1ccc(-c2c3nc(c(-c4c(F)c(F)c(F)c(F)c4F)c4ccc([nH]4)c(-c4c(F)c(F)c(F)c(F)c4F)c4nc(c(-c5c(F)c(F)c(F)c(F)c5F)c5ccc2[nH]5)C=C4)C=C3)cc1)C1=C([O-])N(c2ccc3c(c2)OCCO3)CC1
REMARK SMILES IDX 6 1 5 2 4 3 3 4 1 5 2 6 74 8 75 9 89 10 76 11 77 12 88 13
REMARK SMILES IDX 78 14 79 15 83 16 80 17 82 18 81 19 84 20 87 21 85 22 86 23
REMARK SMILES IDX 7 24 8 25 9 26 10 28 11 29 12 30 73 31 13 32 72 33 14 34
REMARK SMILES IDX 15 35 16 36 66 37 17 38 71 39 65 40 67 41 18 42 70 43 64 44
REMARK SMILES IDX 63 45 19 47 51 48 31 49 50 50 32 51 35 52 49 53 68 54 33 55
REMARK SMILES IDX 34 56 48 58 69 59 36 60 20 61 21 62 29 63 22 64 23 65 27 66
REMARK SMILES IDX 30 67 24 68 25 69 28 70 26 71 52 72 53 73 61 74 54 75 55 76
REMARK SMILES IDX 59 77 62 78 56 79 57 80 60 81 58 82 37 83 38 84 46 85 39 86
REMARK SMILES IDX 40 87 44 88 47 89 41 90 42 91 45 92 43 93
REMARK H PARENT 3 7 8 27 67 46 35 57
REMARK Flexibility Score: inf
ROOT
ATOM      1  C   UNL     1       4.439   2.257   3.130  1.00  0.00     0.023 C 
ENDROOT
BRANCH   1   2
ATOM      2  C   UNL     1       4.891   2.044   1.689  1.00  0.00     0.023 C 
BRANCH   2   3
ATOM      3  C   UNL     1       4.582   0.676   1.095  1.00  0.00     0.116 C 
BRANCH   3   4
ATOM      4  N   UNL     1       3.170   0.332   1.124  1.00  0.00    -0.352 N 
ATOM      5  O   UNL     1       1.185  -0.375   0.318  1.00  0.00    -0.270 OA
ATOM      6  C   UNL     1       2.361  -0.068   0.099  1.00  0.00     0.248 C 
ATOM      7  H   UNL     1       2.736   0.395   2.005  1.00  0.00     0.163 HD
BRANCH   6   8
ATOM      8  C   UNL     1       2.954  -0.164  -1.227  1.00  0.00     0.027 C 
ATOM      9  C   UNL     1       2.647   0.581  -2.300  1.00  0.00    -0.028 C 
ATOM     10  C   UNL     1       4.041  -1.136  -1.574  1.00  0.00     0.064 C 
ATOM     11  O   UNL     1       1.682   1.527  -2.384  1.00  0.00    -0.860 OA
ATOM     12  N   UNL     1       3.541   0.374  -3.328  1.00  0.00    -0.354 N 
ATOM     13  C   UNL     1       4.629  -0.510  -2.849  1.00  0.00     0.126 C 
BRANCH  12  14
ATOM     14  C   UNL     1       3.245   0.189  -4.692  1.00  0.00     0.044 A 
ATOM     15  C   UNL     1       3.712   1.125  -5.625  1.00  0.00     0.030 A 
ATOM     16  C   UNL     1       2.780  -1.056  -5.136  1.00  0.00     0.076 A 
ATOM     17  C   UNL     1       3.851   0.768  -6.966  1.00  0.00     0.052 A 
ATOM     18  C   UNL     1       3.011  -1.445  -6.448  1.00  0.00     0.163 A 
ATOM     19  C   UNL     1       3.584  -0.543  -7.348  1.00  0.00     0.161 A 
ATOM     20  O   UNL     1       2.792  -2.769  -6.731  1.00  0.00    -0.486 OA
ATOM     21  O   UNL     1       4.014  -0.936  -8.591  1.00  0.00    -0.486 OA
ATOM     22  C   UNL     1       3.276  -3.164  -8.019  1.00  0.00     0.271 C 
ATOM     23  C   UNL     1       4.437  -2.303  -8.499  1.00  0.00     0.271 C 
ENDBRANCH  12  14
ENDBRANCH   6   8
ENDBRANCH   3   4
ENDBRANCH   2   3
ENDBRANCH   1   2
BRANCH   1  24
ATOM     24  C   UNL     1       4.831   1.165   4.118  1.00  0.00     0.116 C 
BRANCH  24  25
ATOM     25  N   UNL     1       6.268   0.965   4.224  1.00  0.00    -0.352 N 
ATOM     26  C   UNL     1       7.064   0.923   5.342  1.00  0.00     0.251 C 
ATOM     27  H   UNL     1       6.739   0.842   3.369  1.00  0.00     0.163 HD
ATOM     28  O   UNL     1       8.287   0.833   5.222  1.00  0.00    -0.269 OA
BRANCH  26  29
ATOM     29  C   UNL     1       6.468   1.029   6.690  1.00  0.00     0.039 A 
ATOM     30  C   UNL     1       7.051   1.898   7.616  1.00  0.00     0.014 A 
ATOM     31  C   UNL     1       5.333   0.292   7.042  1.00  0.00     0.014 A 
ATOM     32  C   UNL     1       6.451   2.091   8.863  1.00  0.00     0.010 A 
ATOM     33  C   UNL     1       4.694   0.540   8.254  1.00  0.00     0.010 A 
ATOM     34  C   UNL     1       5.244   1.445   9.175  1.00  0.00    -0.014 A 
BRANCH  34  35
ATOM     35  C   UNL     1       4.538   1.710  10.454  1.00  0.00     0.031 A 
ATOM     36  C   UNL     1       4.366   0.612  11.465  1.00  0.00     0.074 A 
ATOM     37  C   UNL     1       3.987   2.919  10.674  1.00  0.00     0.049 A 
ATOM     38  N   UNL     1       3.719   0.626  12.603  1.00  0.00    -0.248 NA
ATOM     39  C   UNL     1       4.980  -0.685  11.140  1.00  0.00     0.031 C 
ATOM     40  C   UNL     1       4.041   4.055   9.752  1.00  0.00     0.029 A 
ATOM     41  N   UNL     1       3.264   3.392  11.741  1.00  0.00    -0.354 N 
ATOM     42  C   UNL     1       3.829  -0.658  13.117  1.00  0.00     0.074 A 
ATOM     43  C   UNL     1       4.567  -1.440  12.147  1.00  0.00     0.031 C 
ATOM     44  C   UNL     1       3.404   5.100  10.305  1.00  0.00     0.029 A 
ATOM     45  C   UNL     1       2.867   4.699  11.601  1.00  0.00     0.049 A 
ATOM     46  H   UNL     1       3.050   2.845  12.531  1.00  0.00     0.167 HD
ATOM     47  C   UNL     1       3.375  -1.139  14.299  1.00  0.00     0.037 A 
ATOM     48  C   UNL     1       2.150   5.485  12.426  1.00  0.00     0.037 A 
ATOM     49  C   UNL     1       2.674  -0.353  15.280  1.00  0.00     0.049 A 
ATOM     50  C   UNL     1       1.662   4.929  13.735  1.00  0.00     0.074 A 
ATOM     51  C   UNL     1       2.241  -0.728  16.539  1.00  0.00     0.029 A 
ATOM     52  N   UNL     1       2.303   0.973  15.108  1.00  0.00    -0.354 N 
ATOM     53  N   UNL     1       1.832   3.732  14.242  1.00  0.00    -0.248 NA
ATOM     54  C   UNL     1       0.882   5.837  14.589  1.00  0.00     0.031 C 
ATOM     55  C   UNL     1       1.577   0.359  17.116  1.00  0.00     0.029 A 
ATOM     56  C   UNL     1       1.629   1.424  16.232  1.00  0.00     0.049 A 
ATOM     57  H   UNL     1       2.491   1.513  14.307  1.00  0.00     0.167 HD
ATOM     58  C   UNL     1       1.209   3.750  15.482  1.00  0.00     0.074 A 
ATOM     59  C   UNL     1       0.663   5.081  15.656  1.00  0.00     0.031 C 
ATOM     60  C   UNL     1       1.101   2.754  16.394  1.00  0.00     0.037 A 
BRANCH  47  61
ATOM     61  C   UNL     1       3.628  -2.587  14.596  1.00  0.00     0.064 A 
ATOM     62  C   UNL     1       4.915  -3.063  14.889  1.00  0.00     0.173 A 
ATOM     63  C   UNL     1       2.569  -3.507  14.607  1.00  0.00     0.173 A 
ATOM     64  F   UNL     1       5.963  -2.225  14.878  1.00  0.00    -0.203 F 
ATOM     65  C   UNL     1       5.138  -4.412  15.149  1.00  0.00     0.198 A 
ATOM     66  C   UNL     1       2.792  -4.851  14.896  1.00  0.00     0.198 A 
ATOM     67  F   UNL     1       1.319  -3.103  14.339  1.00  0.00    -0.203 F 
ATOM     68  F   UNL     1       6.384  -4.853  15.375  1.00  0.00    -0.200 F 
ATOM     69  C   UNL     1       4.076  -5.304  15.158  1.00  0.00     0.200 A 
ATOM     70  F   UNL     1       1.763  -5.710  14.914  1.00  0.00    -0.200 F 
ATOM     71  F   UNL     1       4.292  -6.602  15.409  1.00  0.00    -0.200 F 
ENDBRANCH  47  61
BRANCH  48  72
ATOM     72  C   UNL     1       1.884   6.898  12.058  1.00  0.00     0.064 A 
ATOM     73  C   UNL     1       2.536   7.943  12.727  1.00  0.00     0.173 A 
ATOM     74  C   UNL     1       0.983   7.234  11.039  1.00  0.00     0.173 A 
ATOM     75  F   UNL     1       3.390   7.669  13.724  1.00  0.00    -0.203 F 
ATOM     76  C   UNL     1       2.285   9.274  12.401  1.00  0.00     0.198 A 
ATOM     77  C   UNL     1       0.749   8.565  10.697  1.00  0.00     0.198 A 
ATOM     78  F   UNL     1       0.337   6.270  10.368  1.00  0.00    -0.203 F 
ATOM     79  F   UNL     1       2.893  10.255  13.082  1.00  0.00    -0.200 F 
ATOM     80  C   UNL     1       1.396   9.584  11.383  1.00  0.00     0.200 A 
ATOM     81  F   UNL     1      -0.102   8.861   9.706  1.00  0.00    -0.200 F 
ATOM     82  F   UNL     1       1.157  10.864  11.066  1.00  0.00    -0.200 F 
ENDBRANCH  48  72
BRANCH  60  83
ATOM     83  C   UNL     1       0.397   3.076  17.678  1.00  0.00     0.064 A 
ATOM     84  C   UNL     1      -0.997   3.220  17.735  1.00  0.00     0.173 A 
ATOM     85  C   UNL     1       1.123   3.210  18.871  1.00  0.00     0.173 A 
ATOM     86  F   UNL     1      -1.732   3.118  16.618  1.00  0.00    -0.203 F 
ATOM     87  C   UNL     1      -1.636   3.509  18.938  1.00  0.00     0.198 A 
ATOM     88  C   UNL     1       0.478   3.474  20.076  1.00  0.00     0.198 A 
ATOM     89  F   UNL     1       2.458   3.077  18.868  1.00  0.00    -0.203 F 
ATOM     90  F   UNL     1      -2.965   3.685  18.963  1.00  0.00    -0.200 F 
ATOM     91  C   UNL     1      -0.900   3.629  20.107  1.00  0.00     0.200 A 
ATOM     92  F   UNL     1       1.190   3.580  21.206  1.00  0.00    -0.200 F 
ATOM     93  F   UNL     1      -1.518   3.903  21.264  1.00  0.00    -0.200 F 
ENDBRANCH  60  83
ENDBRANCH  34  35
ENDBRANCH  26  29
ENDBRANCH  24  25
ENDBRANCH   1  24
TORSDOF 12
