REMARK SMILES COc1ccc(CC(=O)Nc2ccc(N3CC[NH+](C)CC3)cc2C(=O)NCCCCNC(=O)c2ccc(-c3c4nc(c(-c5c(F)c(F)c(F)c(F)c5F)c5ccc([nH]5)c(-c5c(F)c(F)c(F)c(F)c5F)c5nc(c(-c6c(F)c(F)c(F)c(F)c6F)c6ccc3[nH]6)C=C5)C=C4)cc2)cc1
REMARK SMILES IDX 27 1 26 2 24 3 25 4 23 6 11 7 12 8 13 9 22 10 14 11 10 12
REMARK SMILES IDX 8 13 9 14 7 16 6 17 3 18 4 19 98 20 5 21 97 22 2 23 1 24
REMARK SMILES IDX 15 25 16 26 21 27 17 28 20 29 18 30 19 31 28 33 29 34 30 35
REMARK SMILES IDX 31 36 32 37 33 39 34 40 35 41 96 42 36 43 95 44 37 45 38 46
REMARK SMILES IDX 39 47 89 48 40 49 94 50 88 51 90 52 41 53 93 54 87 55 86 56
REMARK SMILES IDX 42 58 74 59 54 60 73 61 55 62 58 63 72 64 91 65 56 66 57 67
REMARK SMILES IDX 71 69 92 70 59 71 43 72 44 73 52 74 45 75 46 76 50 77 53 78
REMARK SMILES IDX 47 79 48 80 51 81 49 82 75 83 76 84 84 85 77 86 78 87 82 88
REMARK SMILES IDX 85 89 79 90 80 91 83 92 81 93 60 94 61 95 69 96 62 97 63 98
REMARK SMILES IDX 67 99 70 100 64 101 65 102 68 103 66 104
REMARK H PARENT 26 5 10 15 18 32 31 38 90 57 58 68
REMARK Flexibility Score: inf
ROOT
ATOM      1  C   UNL     1       0.862   6.903  -3.449  1.00  0.00     0.116 C 
ENDROOT
BRANCH   1   2
ATOM      2  N   UNL     1       0.755   5.507  -3.079  1.00  0.00    -0.352 N 
ATOM      3  C   UNL     1       1.696   4.531  -2.834  1.00  0.00     0.253 C 
ATOM      4  O   UNL     1       1.257   3.376  -2.817  1.00  0.00    -0.269 OA
ATOM      5  H   UNL     1      -0.173   5.194  -2.984  1.00  0.00     0.163 HD
BRANCH   3   6
ATOM      6  C   UNL     1       3.180   4.740  -2.690  1.00  0.00     0.065 A 
ATOM      7  C   UNL     1       3.860   5.936  -2.447  1.00  0.00     0.054 A 
ATOM      8  C   UNL     1       5.214   6.015  -2.770  1.00  0.00     0.029 A 
ATOM      9  C   UNL     1       5.950   4.856  -3.008  1.00  0.00     0.028 A 
ATOM     10  C   UNL     1       3.971   3.567  -2.863  1.00  0.00     0.042 A 
ATOM     11  C   UNL     1       5.373   3.586  -2.914  1.00  0.00     0.038 A 
BRANCH   7  12
ATOM     12  N   UNL     1       3.341   7.101  -1.875  1.00  0.00    -0.325 N 
ATOM     13  C   UNL     1       2.724   7.298  -0.667  1.00  0.00     0.228 C 
ATOM     14  O   UNL     1       2.230   8.416  -0.474  1.00  0.00    -0.274 OA
ATOM     15  H   UNL     1       3.434   7.910  -2.428  1.00  0.00     0.169 HD
BRANCH  13  16
ATOM     16  C   UNL     1       2.840   6.318   0.483  1.00  0.00     0.135 C 
BRANCH  16  17
ATOM     17  C   UNL     1       2.158   4.982   0.397  1.00  0.00    -0.038 A 
ATOM     18  C   UNL     1       0.948   2.434   0.310  1.00  0.00     0.118 A 
ATOM     19  C   UNL     1       0.174   3.595   0.234  1.00  0.00     0.047 A 
ATOM     20  C   UNL     1       2.329   2.550   0.455  1.00  0.00     0.047 A 
ATOM     21  C   UNL     1       0.768   4.863   0.285  1.00  0.00     0.008 A 
ATOM     22  C   UNL     1       2.925   3.813   0.505  1.00  0.00     0.008 A 
BRANCH  18  23
ATOM     23  O   UNL     1       0.248   1.262   0.221  1.00  0.00    -0.497 OA
ATOM     24  C   UNL     1       1.000   0.058   0.321  1.00  0.00     0.278 C 
ENDBRANCH  18  23
ENDBRANCH  16  17
ENDBRANCH  13  16
ENDBRANCH   7  12
BRANCH  11  25
ATOM     25  N   UNL     1       6.154   2.450  -2.801  1.00  0.00    -0.360 N 
ATOM     26  C   UNL     1       5.758   1.119  -3.298  1.00  0.00     0.178 C 
ATOM     27  C   UNL     1       7.576   2.554  -2.414  1.00  0.00     0.178 C 
ATOM     28  C   UNL     1       6.269  -0.013  -2.364  1.00  0.00     0.283 C 
ATOM     29  C   UNL     1       7.994   1.400  -1.482  1.00  0.00     0.283 C 
ATOM     30  N   UNL     1       7.716   0.075  -2.063  1.00  0.00    -0.334 N 
ATOM     31  C   UNL     1       8.129  -0.979  -1.138  1.00  0.00     0.332 C 
ATOM     32  H   UNL     1       8.245  -0.050  -2.926  1.00  0.00     0.347 HD
ENDBRANCH  11  25
ENDBRANCH   3   6
ENDBRANCH   1   2
BRANCH   1  33
ATOM     33  C   UNL     1      -0.456   7.522  -3.912  1.00  0.00     0.023 C 
BRANCH  33  34
ATOM     34  C   UNL     1      -1.510   7.712  -2.811  1.00  0.00     0.023 C 
BRANCH  34  35
ATOM     35  C   UNL     1      -1.093   8.546  -1.594  1.00  0.00     0.116 C 
BRANCH  35  36
ATOM     36  N   UNL     1      -0.620   9.880  -1.938  1.00  0.00    -0.352 N 
ATOM     37  C   UNL     1      -1.180  11.115  -1.726  1.00  0.00     0.251 C 
ATOM     38  H   UNL     1       0.248   9.899  -2.401  1.00  0.00     0.163 HD
ATOM     39  O   UNL     1      -0.678  12.115  -2.237  1.00  0.00    -0.269 OA
BRANCH  37  40
ATOM     40  C   UNL     1      -2.401  11.260  -0.905  1.00  0.00     0.039 A 
ATOM     41  C   UNL     1      -3.445  12.060  -1.381  1.00  0.00     0.014 A 
ATOM     42  C   UNL     1      -2.510  10.640   0.341  1.00  0.00     0.014 A 
ATOM     43  C   UNL     1      -4.632  12.162  -0.650  1.00  0.00     0.010 A 
ATOM     44  C   UNL     1      -3.717  10.688   1.037  1.00  0.00     0.010 A 
ATOM     45  C   UNL     1      -4.795  11.439   0.543  1.00  0.00    -0.014 A 
BRANCH  45  46
ATOM     46  C   UNL     1      -6.095  11.424   1.263  1.00  0.00     0.031 A 
ATOM     47  C   UNL     1      -6.212  11.989   2.650  1.00  0.00     0.074 A 
ATOM     48  C   UNL     1      -7.154  10.811   0.699  1.00  0.00     0.049 A 
ATOM     49  N   UNL     1      -7.240  11.989   3.461  1.00  0.00    -0.248 NA
ATOM     50  C   UNL     1      -5.003  12.609   3.211  1.00  0.00     0.031 C 
ATOM     51  C   UNL     1      -7.154  10.163  -0.613  1.00  0.00     0.029 A 
ATOM     52  N   UNL     1      -8.430  10.614   1.167  1.00  0.00    -0.354 N 
ATOM     53  C   UNL     1      -6.797  12.584   4.634  1.00  0.00     0.074 A 
ATOM     54  C   UNL     1      -5.396  12.895   4.444  1.00  0.00     0.031 C 
ATOM     55  C   UNL     1      -8.371   9.650  -0.850  1.00  0.00     0.029 A 
ATOM     56  C   UNL     1      -9.228   9.905   0.304  1.00  0.00     0.049 A 
ATOM     57  H   UNL     1      -8.743  10.950   2.038  1.00  0.00     0.167 HD
ATOM     58  C   UNL     1      -7.499  12.860   5.760  1.00  0.00     0.037 A 
ATOM     59  C   UNL     1     -10.505   9.497   0.429  1.00  0.00     0.037 A 
ATOM     60  C   UNL     1      -8.900  12.579   5.934  1.00  0.00     0.049 A 
ATOM     61  C   UNL     1     -11.273   9.843   1.673  1.00  0.00     0.074 A 
ATOM     62  C   UNL     1      -9.721  12.907   7.000  1.00  0.00     0.029 A 
ATOM     63  N   UNL     1      -9.688  11.896   5.020  1.00  0.00    -0.354 N 
ATOM     64  N   UNL     1     -10.869  10.485   2.741  1.00  0.00    -0.248 NA
ATOM     65  C   UNL     1     -12.678   9.416   1.725  1.00  0.00     0.031 C 
ATOM     66  C   UNL     1     -10.995  12.384   6.749  1.00  0.00     0.029 A 
ATOM     67  C   UNL     1     -10.980  11.769   5.508  1.00  0.00     0.049 A 
ATOM     68  H   UNL     1      -9.377  11.551   4.152  1.00  0.00     0.167 HD
ATOM     69  C   UNL     1     -11.969  10.556   3.584  1.00  0.00     0.074 A 
ATOM     70  C   UNL     1     -13.065   9.904   2.896  1.00  0.00     0.031 C 
ATOM     71  C   UNL     1     -12.061  11.113   4.816  1.00  0.00     0.037 A 
BRANCH  58  72
ATOM     72  C   UNL     1      -6.754  13.499   6.896  1.00  0.00     0.064 A 
ATOM     73  C   UNL     1      -6.295  14.823   6.826  1.00  0.00     0.173 A 
ATOM     74  C   UNL     1      -6.509  12.782   8.077  1.00  0.00     0.173 A 
ATOM     75  F   UNL     1      -6.497  15.549   5.716  1.00  0.00    -0.203 F 
ATOM     76  C   UNL     1      -5.584  15.392   7.879  1.00  0.00     0.198 A 
ATOM     77  C   UNL     1      -5.823  13.364   9.140  1.00  0.00     0.198 A 
ATOM     78  F   UNL     1      -6.934  11.516   8.201  1.00  0.00    -0.203 F 
ATOM     79  F   UNL     1      -5.106  16.639   7.766  1.00  0.00    -0.200 F 
ATOM     80  C   UNL     1      -5.352  14.664   9.037  1.00  0.00     0.200 A 
ATOM     81  F   UNL     1      -5.611  12.664  10.264  1.00  0.00    -0.200 F 
ATOM     82  F   UNL     1      -4.666  15.213  10.049  1.00  0.00    -0.200 F 
ENDBRANCH  58  72
BRANCH  59  83
ATOM     83  C   UNL     1     -11.140   8.738  -0.678  1.00  0.00     0.064 A 
ATOM     84  C   UNL     1     -12.095   9.341  -1.506  1.00  0.00     0.173 A 
ATOM     85  C   UNL     1     -10.781   7.410  -0.951  1.00  0.00     0.173 A 
ATOM     86  F   UNL     1     -12.483  10.603  -1.270  1.00  0.00    -0.203 F 
ATOM     87  C   UNL     1     -12.674   8.643  -2.563  1.00  0.00     0.198 A 
ATOM     88  C   UNL     1     -11.343   6.720  -2.023  1.00  0.00     0.198 A 
ATOM     89  F   UNL     1      -9.866   6.792  -0.190  1.00  0.00    -0.203 F 
ATOM     90  F   UNL     1     -13.606   9.234  -3.323  1.00  0.00    -0.200 F 
ATOM     91  C   UNL     1     -12.292   7.335  -2.825  1.00  0.00     0.200 A 
ATOM     92  F   UNL     1     -10.962   5.462  -2.281  1.00  0.00    -0.200 F 
ATOM     93  F   UNL     1     -12.840   6.668  -3.850  1.00  0.00    -0.200 F 
ENDBRANCH  59  83
BRANCH  71  94
ATOM     94  C   UNL     1     -13.397  11.058   5.497  1.00  0.00     0.064 A 
ATOM     95  C   UNL     1     -13.898   9.864   6.035  1.00  0.00     0.173 A 
ATOM     96  C   UNL     1     -14.167  12.222   5.647  1.00  0.00     0.173 A 
ATOM     97  F   UNL     1     -13.207   8.722   5.902  1.00  0.00    -0.203 F 
ATOM     98  C   UNL     1     -15.130   9.833   6.683  1.00  0.00     0.198 A 
ATOM     99  C   UNL     1     -15.386  12.192   6.318  1.00  0.00     0.198 A 
ATOM    100  F   UNL     1     -13.731  13.390   5.153  1.00  0.00    -0.203 F 
ATOM    101  F   UNL     1     -15.608   8.673   7.154  1.00  0.00    -0.200 F 
ATOM    102  C   UNL     1     -15.869  10.997   6.830  1.00  0.00     0.200 A 
ATOM    103  F   UNL     1     -16.095  13.319   6.469  1.00  0.00    -0.200 F 
ATOM    104  F   UNL     1     -17.052  10.966   7.460  1.00  0.00    -0.200 F 
ENDBRANCH  71  94
ENDBRANCH  45  46
ENDBRANCH  37  40
ENDBRANCH  35  36
ENDBRANCH  34  35
ENDBRANCH  33  34
ENDBRANCH   1  33
TORSDOF 16
