REMARK SMILES O=C(NCCCCNC(=O)c1ccc2c(=O)n(CCc3c[nH]c4ccccc34)c(=O)[nH]c2c1)c1ccc(-c2c3nc(c(-c4c(F)c(F)c(F)c(F)c4F)c4ccc([nH]4)c(-c4c(F)c(F)c(F)c(F)c4F)c4nc(c(-c5c(F)c(F)c(F)c(F)c5F)c5ccc2[nH]5)C=C4)C=C3)cc1
REMARK SMILES IDX 6 1 5 2 4 3 3 4 1 5 2 6 34 8 35 9 96 10 36 11 95 12 37 13
REMARK SMILES IDX 38 14 39 15 89 16 40 17 94 18 88 19 90 20 41 21 93 22 87 23
REMARK SMILES IDX 86 24 42 26 74 27 54 28 73 29 55 30 58 31 72 32 91 33 56 34
REMARK SMILES IDX 57 35 71 37 92 38 59 39 43 40 44 41 52 42 45 43 46 44 50 45
REMARK SMILES IDX 53 46 47 47 48 48 51 49 49 50 75 51 76 52 84 53 77 54 78 55
REMARK SMILES IDX 82 56 85 57 79 58 80 59 83 60 81 61 60 62 61 63 69 64 62 65
REMARK SMILES IDX 63 66 67 67 70 68 64 69 65 70 68 71 66 72 7 73 8 74 9 75
REMARK SMILES IDX 10 77 11 78 12 79 33 80 13 81 32 82 14 83 31 84 15 85 29 86
REMARK SMILES IDX 16 88 17 89 30 90 18 91 19 92 20 93 21 94 28 95 22 96 23 97
REMARK SMILES IDX 27 98 24 100 26 101 25 102
REMARK H PARENT 3 7 90 25 58 36 8 76 31 87 22 99
REMARK Flexibility Score: inf
ROOT
ATOM      1  C   UNL     1       5.175  -3.607   0.774  1.00  0.00     0.023 C 
ENDROOT
BRANCH   1   2
ATOM      2  C   UNL     1       5.403  -2.104   0.892  1.00  0.00     0.023 C 
BRANCH   2   3
ATOM      3  C   UNL     1       4.840  -1.243  -0.234  1.00  0.00     0.116 C 
BRANCH   3   4
ATOM      4  N   UNL     1       3.389  -1.134  -0.225  1.00  0.00    -0.352 N 
ATOM      5  O   UNL     1       1.349  -0.224   0.027  1.00  0.00    -0.269 OA
ATOM      6  C   UNL     1       2.556  -0.050  -0.025  1.00  0.00     0.251 C 
ATOM      7  H   UNL     1       2.917  -1.983  -0.391  1.00  0.00     0.163 HD
BRANCH   6   8
ATOM      8  C   UNL     1       3.100   1.322   0.155  1.00  0.00     0.039 A 
ATOM      9  C   UNL     1       2.480   2.176   1.077  1.00  0.00     0.014 A 
ATOM     10  C   UNL     1       4.168   1.800  -0.604  1.00  0.00     0.014 A 
ATOM     11  C   UNL     1       2.966   3.475   1.272  1.00  0.00     0.010 A 
ATOM     12  C   UNL     1       4.716   3.053  -0.336  1.00  0.00     0.010 A 
ATOM     13  C   UNL     1       4.106   3.918   0.585  1.00  0.00    -0.014 A 
BRANCH  13  14
ATOM     14  C   UNL     1       4.629   5.303   0.746  1.00  0.00     0.031 A 
ATOM     15  C   UNL     1       4.655   6.231  -0.441  1.00  0.00     0.074 A 
ATOM     16  C   UNL     1       5.117   5.720   1.931  1.00  0.00     0.049 A 
ATOM     17  N   UNL     1       5.145   7.442  -0.540  1.00  0.00    -0.248 NA
ATOM     18  C   UNL     1       4.078   5.718  -1.694  1.00  0.00     0.031 C 
ATOM     19  C   UNL     1       5.173   4.917   3.152  1.00  0.00     0.029 A 
ATOM     20  N   UNL     1       5.662   6.926   2.301  1.00  0.00    -0.354 N 
ATOM     21  C   UNL     1       4.950   7.821  -1.862  1.00  0.00     0.074 A 
ATOM     22  C   UNL     1       4.364   6.690  -2.546  1.00  0.00     0.031 C 
ATOM     23  C   UNL     1       5.687   5.662   4.144  1.00  0.00     0.029 A 
ATOM     24  C   UNL     1       6.040   6.980   3.621  1.00  0.00     0.049 A 
ATOM     25  H   UNL     1       5.772   7.681   1.678  1.00  0.00     0.167 HD
ATOM     26  C   UNL     1       5.200   9.015  -2.449  1.00  0.00     0.037 A 
ATOM     27  C   UNL     1       6.608   7.977   4.328  1.00  0.00     0.037 A 
ATOM     28  C   UNL     1       5.746  10.153  -1.760  1.00  0.00     0.049 A 
ATOM     29  C   UNL     1       6.908   9.287   3.648  1.00  0.00     0.074 A 
ATOM     30  C   UNL     1       5.991  11.422  -2.254  1.00  0.00     0.029 A 
ATOM     31  N   UNL     1       6.128  10.161  -0.426  1.00  0.00    -0.354 N 
ATOM     32  N   UNL     1       6.678   9.647   2.409  1.00  0.00    -0.248 NA
ATOM     33  C   UNL     1       7.546  10.329   4.466  1.00  0.00     0.031 C 
ATOM     34  C   UNL     1       6.569  12.183  -1.234  1.00  0.00     0.029 A 
ATOM     35  C   UNL     1       6.631  11.406  -0.087  1.00  0.00     0.049 A 
ATOM     36  H   UNL     1       6.052   9.396   0.188  1.00  0.00     0.167 HD
ATOM     37  C   UNL     1       7.121  10.959   2.303  1.00  0.00     0.074 A 
ATOM     38  C   UNL     1       7.617  11.339   3.609  1.00  0.00     0.031 C 
ATOM     39  C   UNL     1       7.119  11.773   1.218  1.00  0.00     0.037 A 
BRANCH  26  40
ATOM     40  C   UNL     1       4.869   9.160  -3.907  1.00  0.00     0.064 A 
ATOM     41  C   UNL     1       3.541   9.166  -4.362  1.00  0.00     0.173 A 
ATOM     42  C   UNL     1       5.887   9.339  -4.856  1.00  0.00     0.173 A 
ATOM     43  F   UNL     1       2.530   8.986  -3.498  1.00  0.00    -0.203 F 
ATOM     44  C   UNL     1       3.246   9.319  -5.714  1.00  0.00     0.198 A 
ATOM     45  C   UNL     1       5.586   9.527  -6.203  1.00  0.00     0.198 A 
ATOM     46  F   UNL     1       7.173   9.347  -4.477  1.00  0.00    -0.203 F 
ATOM     47  F   UNL     1       1.973   9.269  -6.130  1.00  0.00    -0.200 F 
ATOM     48  C   UNL     1       4.268   9.509  -6.632  1.00  0.00     0.200 A 
ATOM     49  F   UNL     1       6.574   9.726  -7.087  1.00  0.00    -0.200 F 
ATOM     50  F   UNL     1       3.982   9.668  -7.931  1.00  0.00    -0.200 F 
ENDBRANCH  26  40
BRANCH  27  51
ATOM     51  C   UNL     1       6.891   7.782   5.776  1.00  0.00     0.064 A 
ATOM     52  C   UNL     1       6.150   8.468   6.749  1.00  0.00     0.173 A 
ATOM     53  C   UNL     1       7.879   6.891   6.219  1.00  0.00     0.173 A 
ATOM     54  F   UNL     1       5.211   9.350   6.376  1.00  0.00    -0.203 F 
ATOM     55  C   UNL     1       6.387   8.271   8.108  1.00  0.00     0.198 A 
ATOM     56  C   UNL     1       8.096   6.673   7.578  1.00  0.00     0.198 A 
ATOM     57  F   UNL     1       8.616   6.209   5.330  1.00  0.00    -0.203 F 
ATOM     58  F   UNL     1       5.684   8.961   9.015  1.00  0.00    -0.200 F 
ATOM     59  C   UNL     1       7.352   7.366   8.521  1.00  0.00     0.200 A 
ATOM     60  F   UNL     1       9.019   5.786   7.974  1.00  0.00    -0.200 F 
ATOM     61  F   UNL     1       7.567   7.163   9.828  1.00  0.00    -0.200 F 
ENDBRANCH  27  51
BRANCH  39  62
ATOM     62  C   UNL     1       7.655  13.166   1.387  1.00  0.00     0.064 A 
ATOM     63  C   UNL     1       9.027  13.409   1.542  1.00  0.00     0.173 A 
ATOM     64  C   UNL     1       6.797  14.274   1.301  1.00  0.00     0.173 A 
ATOM     65  F   UNL     1       9.887  12.384   1.640  1.00  0.00    -0.203 F 
ATOM     66  C   UNL     1       9.519  14.709   1.617  1.00  0.00     0.198 A 
ATOM     67  C   UNL     1       7.296  15.572   1.344  1.00  0.00     0.198 A 
ATOM     68  F   UNL     1       5.477  14.097   1.142  1.00  0.00    -0.203 F 
ATOM     69  F   UNL     1      10.831  14.917   1.798  1.00  0.00    -0.200 F 
ATOM     70  C   UNL     1       8.656  15.789   1.506  1.00  0.00     0.200 A 
ATOM     71  F   UNL     1       6.463  16.614   1.216  1.00  0.00    -0.200 F 
ATOM     72  F   UNL     1       9.136  17.039   1.555  1.00  0.00    -0.200 F 
ENDBRANCH  39  62
ENDBRANCH  13  14
ENDBRANCH   6   8
ENDBRANCH   3   4
ENDBRANCH   2   3
ENDBRANCH   1   2
BRANCH   1  73
ATOM     73  C   UNL     1       5.762  -4.321  -0.446  1.00  0.00     0.116 C 
BRANCH  73  74
ATOM     74  N   UNL     1       7.186  -4.183  -0.676  1.00  0.00    -0.352 N 
ATOM     75  C   UNL     1       8.031  -5.018  -1.383  1.00  0.00     0.251 C 
ATOM     76  H   UNL     1       7.608  -3.389  -0.276  1.00  0.00     0.163 HD
ATOM     77  O   UNL     1       9.204  -4.707  -1.560  1.00  0.00    -0.269 OA
BRANCH  75  78
ATOM     78  C   UNL     1       7.561  -6.315  -1.922  1.00  0.00     0.041 A 
ATOM     79  C   UNL     1       7.024  -6.396  -3.216  1.00  0.00     0.015 A 
ATOM     80  C   UNL     1       7.711  -7.472  -1.145  1.00  0.00     0.040 A 
ATOM     81  C   UNL     1       6.539  -7.621  -3.694  1.00  0.00     0.017 A 
ATOM     82  C   UNL     1       7.189  -8.680  -1.613  1.00  0.00     0.056 A 
ATOM     83  C   UNL     1       6.583  -8.749  -2.868  1.00  0.00     0.064 A 
ATOM     84  N   UNL     1       7.142  -9.793  -0.773  1.00  0.00    -0.307 N 
ATOM     85  C   UNL     1       5.801  -9.960  -3.204  1.00  0.00     0.264 A 
ATOM     86  C   UNL     1       6.302 -10.854  -0.985  1.00  0.00     0.328 A 
ATOM     87  H   UNL     1       7.741  -9.817   0.008  1.00  0.00     0.171 HD
ATOM     88  O   UNL     1       5.397 -10.126  -4.348  1.00  0.00    -0.268 OA
ATOM     89  N   UNL     1       5.528 -10.806  -2.134  1.00  0.00    -0.260 N 
ATOM     90  O   UNL     1       6.232 -11.747  -0.141  1.00  0.00    -0.248 OA
BRANCH  89  91
ATOM     91  C   UNL     1       4.392 -11.715  -2.237  1.00  0.00     0.136 C 
BRANCH  91  92
ATOM     92  C   UNL     1       3.243 -11.321  -1.297  1.00  0.00     0.060 C 
BRANCH  92  93
ATOM     93  C   UNL     1       2.397 -10.137  -1.675  1.00  0.00    -0.021 A 
ATOM     94  C   UNL     1       1.144 -10.221  -2.256  1.00  0.00     0.087 A 
ATOM     95  C   UNL     1       2.646  -8.725  -1.584  1.00  0.00     0.003 A 
ATOM     96  N   UNL     1       0.516  -9.067  -1.874  1.00  0.00    -0.361 N 
ATOM     97  C   UNL     1       1.445  -8.066  -1.856  1.00  0.00     0.046 A 
ATOM     98  C   UNL     1       3.758  -7.926  -1.330  1.00  0.00     0.010 A 
ATOM     99  H   UNL     1      -0.439  -8.975  -1.652  1.00  0.00     0.166 HD
ATOM    100  C   UNL     1       1.311  -6.679  -1.990  1.00  0.00     0.026 A 
ATOM    101  C   UNL     1       3.692  -6.587  -1.724  1.00  0.00     0.001 A 
ATOM    102  C   UNL     1       2.494  -5.955  -2.022  1.00  0.00     0.002 A 
ENDBRANCH  92  93
ENDBRANCH  91  92
ENDBRANCH  89  91
ENDBRANCH  75  78
ENDBRANCH  73  74
ENDBRANCH   1  73
TORSDOF 14
