REMARK SMILES CC(C)C[C@@H](C(=O)NCCCCNC(=O)c1ccc(-c2c3nc(c(-c4c(F)c(F)c(F)c(F)c4F)c4ccc([nH]4)c(-c4c(F)c(F)c(F)c(F)c4F)c4nc(c(-c5c(F)c(F)c(F)c(F)c5F)c5ccc2[nH]5)C=C4)C=C3)cc1)[C@@H]1CCC[C@@H](C)C1
REMARK SMILES IDX 10 1 9 2 8 3 6 4 7 5 5 7 4 8 2 9 1 10 3 11 79 12 80 13 85 14
REMARK SMILES IDX 81 15 83 16 82 17 84 18 11 19 12 20 13 21 14 22 15 24 16 25
REMARK SMILES IDX 17 26 78 27 18 28 77 29 19 30 20 31 21 32 71 33 22 34 76 35
REMARK SMILES IDX 70 36 72 37 23 38 75 39 69 40 68 41 24 43 56 44 36 45 55 46
REMARK SMILES IDX 37 47 40 48 54 49 73 50 38 51 39 52 53 54 74 55 41 56 25 57
REMARK SMILES IDX 26 58 34 59 27 60 28 61 32 62 35 63 29 64 30 65 33 66 31 67
REMARK SMILES IDX 57 68 58 69 66 70 59 71 60 72 64 73 67 74 61 75 62 76 65 77
REMARK SMILES IDX 63 78 42 79 43 80 51 81 44 82 45 83 49 84 52 85 46 86 47 87
REMARK SMILES IDX 50 88 48 89
REMARK H PARENT 8 6 13 23 72 42 40 53
REMARK Flexibility Score: inf
ROOT
ATOM      1  C   UNL     1      -1.201   5.187   1.111  1.00  0.00     0.023 C 
ENDROOT
BRANCH   1   2
ATOM      2  C   UNL     1      -0.002   4.876   0.212  1.00  0.00     0.116 C 
BRANCH   2   3
ATOM      3  N   UNL     1       0.439   3.506   0.344  1.00  0.00    -0.356 N 
ATOM      4  C   UNL     1       0.640   2.514  -0.553  1.00  0.00     0.223 C 
ATOM      5  O   UNL     1       1.189   1.498  -0.104  1.00  0.00    -0.275 OA
ATOM      6  H   UNL     1       0.631   3.242   1.273  1.00  0.00     0.163 HD
BRANCH   4   7
ATOM      7  C   UNL     1       0.236   2.560  -2.038  1.00  0.00     0.082 C 
BRANCH   7   8
ATOM      8  C   UNL     1       1.225   3.268  -3.000  1.00  0.00     0.016 C 
BRANCH   8   9
ATOM      9  C   UNL     1       1.471   4.784  -2.930  1.00  0.00    -0.017 C 
ATOM     10  C   UNL     1       2.672   5.129  -2.046  1.00  0.00     0.007 C 
ATOM     11  C   UNL     1       1.717   5.354  -4.333  1.00  0.00     0.007 C 
ENDBRANCH   8   9
ENDBRANCH   7   8
BRANCH   7  12
ATOM     12  C   UNL     1      -1.303   2.453  -2.329  1.00  0.00     0.002 C 
ATOM     13  C   UNL     1      -1.641   1.975  -3.761  1.00  0.00     0.004 C 
ATOM     14  C   UNL     1      -2.251   3.591  -1.945  1.00  0.00     0.007 C 
ATOM     15  C   UNL     1      -1.826   3.089  -4.792  1.00  0.00     0.001 C 
ATOM     16  C   UNL     1      -2.305   4.739  -2.953  1.00  0.00    -0.014 C 
ATOM     17  C   UNL     1      -2.752   4.202  -4.312  1.00  0.00     0.003 C 
ATOM     18  C   UNL     1      -3.223   5.859  -2.468  1.00  0.00     0.007 C 
ENDBRANCH   7  12
ENDBRANCH   4   7
ENDBRANCH   2   3
ENDBRANCH   1   2
BRANCH   1  19
ATOM     19  C   UNL     1      -0.928   6.210   2.204  1.00  0.00     0.023 C 
BRANCH  19  20
ATOM     20  C   UNL     1      -0.353   7.538   1.732  1.00  0.00     0.116 C 
BRANCH  20  21
ATOM     21  N   UNL     1      -1.173   8.259   0.768  1.00  0.00    -0.352 N 
ATOM     22  C   UNL     1      -1.388   9.622   0.695  1.00  0.00     0.251 C 
ATOM     23  H   UNL     1      -1.628   7.711   0.088  1.00  0.00     0.163 HD
ATOM     24  O   UNL     1      -2.123  10.105  -0.154  1.00  0.00    -0.269 OA
BRANCH  22  25
ATOM     25  C   UNL     1      -0.757  10.481   1.719  1.00  0.00     0.039 A 
ATOM     26  C   UNL     1      -1.575  11.274   2.526  1.00  0.00     0.014 A 
ATOM     27  C   UNL     1       0.610  10.369   1.981  1.00  0.00     0.014 A 
ATOM     28  C   UNL     1      -1.039  11.863   3.672  1.00  0.00     0.010 A 
ATOM     29  C   UNL     1       1.116  10.874   3.172  1.00  0.00     0.010 A 
ATOM     30  C   UNL     1       0.293  11.612   4.039  1.00  0.00    -0.014 A 
BRANCH  30  31
ATOM     31  C   UNL     1       0.842  12.084   5.337  1.00  0.00     0.031 A 
ATOM     32  C   UNL     1       2.016  13.021   5.358  1.00  0.00     0.074 A 
ATOM     33  C   UNL     1       0.346  11.597   6.492  1.00  0.00     0.049 A 
ATOM     34  N   UNL     1       2.700  13.468   6.380  1.00  0.00    -0.248 NA
ATOM     35  C   UNL     1       2.515  13.483   4.053  1.00  0.00     0.031 C 
ATOM     36  C   UNL     1      -0.738  10.619   6.607  1.00  0.00     0.029 A 
ATOM     37  N   UNL     1       0.700  11.849   7.795  1.00  0.00    -0.354 N 
ATOM     38  C   UNL     1       3.725  14.233   5.840  1.00  0.00     0.074 A 
ATOM     39  C   UNL     1       3.606  14.147   4.401  1.00  0.00     0.031 C 
ATOM     40  C   UNL     1      -0.982  10.380   7.906  1.00  0.00     0.029 A 
ATOM     41  C   UNL     1      -0.052  11.160   8.716  1.00  0.00     0.049 A 
ATOM     42  H   UNL     1       1.425  12.466   8.046  1.00  0.00     0.167 HD
ATOM     43  C   UNL     1       4.663  14.966   6.484  1.00  0.00     0.037 A 
ATOM     44  C   UNL     1       0.002  11.162  10.062  1.00  0.00     0.037 A 
ATOM     45  C   UNL     1       4.745  15.097   7.914  1.00  0.00     0.049 A 
ATOM     46  C   UNL     1       1.011  12.035  10.755  1.00  0.00     0.074 A 
ATOM     47  C   UNL     1       5.607  15.879   8.661  1.00  0.00     0.029 A 
ATOM     48  N   UNL     1       3.922  14.434   8.812  1.00  0.00    -0.354 N 
ATOM     49  N   UNL     1       1.928  12.813  10.233  1.00  0.00    -0.248 NA
ATOM     50  C   UNL     1       0.988  12.039  12.225  1.00  0.00     0.031 C 
ATOM     51  C   UNL     1       5.323  15.670  10.015  1.00  0.00     0.029 A 
ATOM     52  C   UNL     1       4.261  14.785  10.109  1.00  0.00     0.049 A 
ATOM     53  H   UNL     1       3.205  13.807   8.565  1.00  0.00     0.167 HD
ATOM     54  C   UNL     1       2.572  13.416  11.304  1.00  0.00     0.074 A 
ATOM     55  C   UNL     1       1.933  12.925  12.507  1.00  0.00     0.031 C 
ATOM     56  C   UNL     1       3.603  14.295  11.292  1.00  0.00     0.037 A 
BRANCH  43  57
ATOM     57  C   UNL     1       5.665  15.696   5.641  1.00  0.00     0.064 A 
ATOM     58  C   UNL     1       5.301  16.810   4.868  1.00  0.00     0.173 A 
ATOM     59  C   UNL     1       7.008  15.290   5.617  1.00  0.00     0.173 A 
ATOM     60  F   UNL     1       4.026  17.227   4.846  1.00  0.00    -0.203 F 
ATOM     61  C   UNL     1       6.237  17.469   4.077  1.00  0.00     0.198 A 
ATOM     62  C   UNL     1       7.947  15.971   4.846  1.00  0.00     0.198 A 
ATOM     63  F   UNL     1       7.409  14.234   6.340  1.00  0.00    -0.203 F 
ATOM     64  F   UNL     1       5.853  18.495   3.305  1.00  0.00    -0.200 F 
ATOM     65  C   UNL     1       7.559  17.053   4.071  1.00  0.00     0.200 A 
ATOM     66  F   UNL     1       9.227  15.574   4.848  1.00  0.00    -0.200 F 
ATOM     67  F   UNL     1       8.459  17.690   3.309  1.00  0.00    -0.200 F 
ENDBRANCH  43  57
BRANCH  44  68
ATOM     68  C   UNL     1      -0.960  10.344  10.845  1.00  0.00     0.064 A 
ATOM     69  C   UNL     1      -2.002  10.954  11.559  1.00  0.00     0.173 A 
ATOM     70  C   UNL     1      -0.859   8.947  10.902  1.00  0.00     0.173 A 
ATOM     71  F   UNL     1      -2.126  12.289  11.552  1.00  0.00    -0.203 F 
ATOM     72  C   UNL     1      -2.895  10.198  12.315  1.00  0.00     0.198 A 
ATOM     73  C   UNL     1      -1.768   8.191  11.640  1.00  0.00     0.198 A 
ATOM     74  F   UNL     1       0.116   8.317  10.232  1.00  0.00    -0.203 F 
ATOM     75  F   UNL     1      -3.857  10.809  13.021  1.00  0.00    -0.200 F 
ATOM     76  C   UNL     1      -2.781   8.817  12.351  1.00  0.00     0.200 A 
ATOM     77  F   UNL     1      -1.662   6.855  11.663  1.00  0.00    -0.200 F 
ATOM     78  F   UNL     1      -3.641   8.090  13.077  1.00  0.00    -0.200 F 
ENDBRANCH  44  68
BRANCH  56  79
ATOM     79  C   UNL     1       4.082  14.809  12.616  1.00  0.00     0.064 A 
ATOM     80  C   UNL     1       4.844  14.010  13.479  1.00  0.00     0.173 A 
ATOM     81  C   UNL     1       3.816  16.131  13.001  1.00  0.00     0.173 A 
ATOM     82  F   UNL     1       5.111  12.735  13.159  1.00  0.00    -0.203 F 
ATOM     83  C   UNL     1       5.306  14.511  14.693  1.00  0.00     0.198 A 
ATOM     84  C   UNL     1       4.300  16.636  14.204  1.00  0.00     0.198 A 
ATOM     85  F   UNL     1       3.095  16.936  12.206  1.00  0.00    -0.203 F 
ATOM     86  F   UNL     1       6.000  13.719  15.522  1.00  0.00    -0.200 F 
ATOM     87  C   UNL     1       5.040  15.824  15.051  1.00  0.00     0.200 A 
ATOM     88  F   UNL     1       4.051  17.908  14.544  1.00  0.00    -0.200 F 
ATOM     89  F   UNL     1       5.493  16.307  16.216  1.00  0.00    -0.200 F 
ENDBRANCH  56  79
ENDBRANCH  30  31
ENDBRANCH  22  25
ENDBRANCH  20  21
ENDBRANCH  19  20
ENDBRANCH   1  19
TORSDOF 14
