REMARK SMILES C[C@@H]1Cc2ccccc2N1C(=O)CSc1ncc(C(=O)NCCCCNC(=O)c2ccc(-c3c4nc(c(-c5c(F)c(F)c(F)c(F)c5F)c5ccc([nH]5)c(-c5c(F)c(F)c(F)c(F)c5F)c5nc(c(-c6c(F)c(F)c(F)c(F)c6F)c6ccc3[nH]6)C=C5)C=C4)cc2)n1-c1ccc(F)cc1
REMARK SMILES IDX 22 1 21 2 19 3 20 4 18 6 15 7 16 8 92 9 17 10 14 11 13 12
REMARK SMILES IDX 11 13 12 14 10 15 1 16 2 17 3 18 4 19 9 20 5 21 8 22 6 23
REMARK SMILES IDX 7 24 93 25 94 26 99 27 95 28 98 29 96 30 97 31 23 32 24 33
REMARK SMILES IDX 25 34 26 35 27 36 28 38 29 39 30 40 91 41 31 42 90 43 32 44
REMARK SMILES IDX 33 45 34 46 84 47 35 48 89 49 83 50 85 51 36 52 88 53 82 54
REMARK SMILES IDX 81 55 37 57 69 58 49 59 68 60 50 61 53 62 67 63 86 64 51 65
REMARK SMILES IDX 52 66 66 68 87 69 54 70 38 71 39 72 47 73 40 74 41 75 45 76
REMARK SMILES IDX 48 77 42 78 43 79 46 80 44 81 70 82 71 83 79 84 72 85 73 86
REMARK SMILES IDX 77 87 80 88 74 89 75 90 78 91 76 92 55 93 56 94 64 95 57 96
REMARK SMILES IDX 58 97 62 98 65 99 59 100 60 101 63 102 61 103
REMARK H PARENT 21 5 26 37 85 56 53 67
REMARK Flexibility Score: inf
ROOT
ATOM      1  C   UNL     1      -3.197   2.719  -8.298  1.00  0.00     0.116 C 
ENDROOT
BRANCH   1   2
ATOM      2  N   UNL     1      -2.777   1.339  -8.422  1.00  0.00    -0.351 N 
ATOM      3  C   UNL     1      -2.684   0.298  -7.528  1.00  0.00     0.269 C 
ATOM      4  O   UNL     1      -2.428  -0.780  -8.043  1.00  0.00    -0.268 OA
ATOM      5  H   UNL     1      -2.501   1.095  -9.335  1.00  0.00     0.163 HD
BRANCH   3   6
ATOM      6  C   UNL     1      -2.925   0.486  -6.110  1.00  0.00     0.132 A 
ATOM      7  C   UNL     1      -3.680   0.107  -4.051  1.00  0.00     0.173 A 
ATOM      8  N   UNL     1      -3.474   1.399  -4.095  1.00  0.00    -0.230 NA
ATOM      9  N   UNL     1      -3.221  -0.538  -5.194  1.00  0.00    -0.283 N 
ATOM     10  C   UNL     1      -2.949   1.627  -5.330  1.00  0.00     0.146 A 
BRANCH   7  11
ATOM     11  S   UNL     1      -4.347  -0.672  -2.663  1.00  0.00    -0.078 SA
BRANCH  11  12
ATOM     12  C   UNL     1      -3.562   0.208  -1.289  1.00  0.00     0.178 C 
BRANCH  12  13
ATOM     13  C   UNL     1      -2.044   0.169  -1.264  1.00  0.00     0.237 C 
ATOM     14  O   UNL     1      -1.445   1.254  -1.218  1.00  0.00    -0.274 OA
BRANCH  13  15
ATOM     15  N   UNL     1      -1.325  -1.014  -1.227  1.00  0.00    -0.308 N 
ATOM     16  C   UNL     1       0.720  -0.227  -2.521  1.00  0.00     0.032 C 
ATOM     17  C   UNL     1       0.164  -0.994  -1.318  1.00  0.00     0.092 C 
ATOM     18  C   UNL     1       0.634  -2.461  -1.374  1.00  0.00     0.063 C 
ATOM     19  C   UNL     1      -0.643  -3.212  -1.202  1.00  0.00    -0.022 A 
ATOM     20  C   UNL     1      -1.733  -2.355  -1.044  1.00  0.00     0.047 A 
ATOM     21  C   UNL     1      -0.779  -4.595  -1.187  1.00  0.00     0.006 A 
ATOM     22  C   UNL     1      -2.968  -2.899  -0.732  1.00  0.00     0.026 A 
ATOM     23  C   UNL     1      -2.042  -5.135  -0.970  1.00  0.00     0.000 A 
ATOM     24  C   UNL     1      -3.127  -4.291  -0.721  1.00  0.00     0.002 A 
ENDBRANCH  13  15
ENDBRANCH  12  13
ENDBRANCH  11  12
ENDBRANCH   7  11
BRANCH   9  25
ATOM     25  C   UNL     1      -2.966  -1.934  -5.348  1.00  0.00     0.049 A 
ATOM     26  C   UNL     1      -3.925  -2.896  -5.000  1.00  0.00     0.030 A 
ATOM     27  C   UNL     1      -1.704  -2.346  -5.806  1.00  0.00     0.030 A 
ATOM     28  C   UNL     1      -3.618  -4.256  -5.113  1.00  0.00     0.041 A 
ATOM     29  C   UNL     1      -1.406  -3.705  -5.919  1.00  0.00     0.041 A 
ATOM     30  C   UNL     1      -2.364  -4.647  -5.569  1.00  0.00     0.123 A 
ATOM     31  F   UNL     1      -2.077  -5.951  -5.676  1.00  0.00    -0.207 F 
ENDBRANCH   9  25
ENDBRANCH   3   6
ENDBRANCH   1   2
BRANCH   1  32
ATOM     32  C   UNL     1      -2.017   3.672  -8.480  1.00  0.00     0.023 C 
BRANCH  32  33
ATOM     33  C   UNL     1      -1.524   3.800  -9.932  1.00  0.00     0.023 C 
BRANCH  33  34
ATOM     34  C   UNL     1      -2.603   4.208 -10.941  1.00  0.00     0.116 C 
BRANCH  34  35
ATOM     35  N   UNL     1      -3.331   5.398 -10.546  1.00  0.00    -0.352 N 
ATOM     36  C   UNL     1      -3.202   6.738 -10.778  1.00  0.00     0.251 C 
ATOM     37  H   UNL     1      -4.104   5.190  -9.973  1.00  0.00     0.163 HD
ATOM     38  O   UNL     1      -4.106   7.449 -10.333  1.00  0.00    -0.269 OA
BRANCH  36  39
ATOM     39  C   UNL     1      -2.064   7.391 -11.480  1.00  0.00     0.039 A 
ATOM     40  C   UNL     1      -0.931   6.742 -11.967  1.00  0.00     0.014 A 
ATOM     41  C   UNL     1      -2.133   8.795 -11.600  1.00  0.00     0.014 A 
ATOM     42  C   UNL     1       0.124   7.474 -12.503  1.00  0.00     0.010 A 
ATOM     43  C   UNL     1      -1.082   9.532 -12.140  1.00  0.00     0.010 A 
ATOM     44  C   UNL     1       0.065   8.871 -12.560  1.00  0.00    -0.014 A 
BRANCH  44  45
ATOM     45  C   UNL     1       1.223   9.564 -13.120  1.00  0.00     0.031 A 
ATOM     46  C   UNL     1       1.588   9.179 -14.513  1.00  0.00     0.074 A 
ATOM     47  C   UNL     1       1.923  10.517 -12.475  1.00  0.00     0.049 A 
ATOM     48  N   UNL     1       2.674   8.605 -14.922  1.00  0.00    -0.248 NA
ATOM     49  C   UNL     1       0.583   9.379 -15.566  1.00  0.00     0.031 C 
ATOM     50  C   UNL     1       1.584  11.213 -11.232  1.00  0.00     0.029 A 
ATOM     51  N   UNL     1       3.087  11.120 -12.861  1.00  0.00    -0.354 N 
ATOM     52  C   UNL     1       2.560   8.494 -16.307  1.00  0.00     0.074 A 
ATOM     53  C   UNL     1       1.215   8.891 -16.636  1.00  0.00     0.031 C 
ATOM     54  C   UNL     1       2.404  12.277 -11.079  1.00  0.00     0.029 A 
ATOM     55  C   UNL     1       3.411  12.249 -12.126  1.00  0.00     0.049 A 
ATOM     56  H   UNL     1       3.646  10.781 -13.597  1.00  0.00     0.167 HD
ATOM     57  C   UNL     1       3.644   8.245 -17.094  1.00  0.00     0.037 A 
ATOM     58  C   UNL     1       4.406  13.127 -12.393  1.00  0.00     0.037 A 
ATOM     59  C   UNL     1       4.733   7.701 -16.329  1.00  0.00     0.049 A 
ATOM     60  C   UNL     1       5.411  12.430 -13.229  1.00  0.00     0.074 A 
ATOM     61  C   UNL     1       4.949   6.538 -15.618  1.00  0.00     0.029 A 
ATOM     62  N   UNL     1       5.752   8.548 -15.981  1.00  0.00    -0.354 N 
ATOM     63  N   UNL     1       6.172  11.459 -12.807  1.00  0.00    -0.248 NA
ATOM     64  C   UNL     1       5.320  12.569 -14.675  1.00  0.00     0.031 C 
ATOM     65  C   UNL     1       5.814   6.911 -14.548  1.00  0.00     0.029 A 
ATOM     66  C   UNL     1       6.095   8.271 -14.686  1.00  0.00     0.049 A 
ATOM     67  H   UNL     1       6.163   9.232 -16.558  1.00  0.00     0.167 HD
ATOM     68  C   UNL     1       6.308  10.620 -13.901  1.00  0.00     0.074 A 
ATOM     69  C   UNL     1       5.874  11.413 -15.045  1.00  0.00     0.031 C 
ATOM     70  C   UNL     1       6.496   9.280 -13.734  1.00  0.00     0.037 A 
BRANCH  57  71
ATOM     71  C   UNL     1       3.865   8.820 -18.476  1.00  0.00     0.064 A 
ATOM     72  C   UNL     1       5.016   8.435 -19.200  1.00  0.00     0.173 A 
ATOM     73  C   UNL     1       3.197   9.961 -18.964  1.00  0.00     0.173 A 
ATOM     74  F   UNL     1       5.731   7.361 -18.831  1.00  0.00    -0.203 F 
ATOM     75  C   UNL     1       5.521   9.204 -20.251  1.00  0.00     0.198 A 
ATOM     76  C   UNL     1       3.677  10.697 -20.048  1.00  0.00     0.198 A 
ATOM     77  F   UNL     1       2.126  10.476 -18.352  1.00  0.00    -0.203 F 
ATOM     78  F   UNL     1       6.696   8.879 -20.809  1.00  0.00    -0.200 F 
ATOM     79  C   UNL     1       4.859  10.343 -20.665  1.00  0.00     0.200 A 
ATOM     80  F   UNL     1       3.027  11.806 -20.429  1.00  0.00    -0.200 F 
ATOM     81  F   UNL     1       5.379  11.124 -21.620  1.00  0.00    -0.200 F 
ENDBRANCH  57  71
BRANCH  58  82
ATOM     82  C   UNL     1       4.387  14.600 -12.233  1.00  0.00     0.064 A 
ATOM     83  C   UNL     1       5.572  15.352 -12.282  1.00  0.00     0.173 A 
ATOM     84  C   UNL     1       3.181  15.325 -12.317  1.00  0.00     0.173 A 
ATOM     85  F   UNL     1       6.763  14.737 -12.255  1.00  0.00    -0.203 F 
ATOM     86  C   UNL     1       5.552  16.743 -12.438  1.00  0.00     0.198 A 
ATOM     87  C   UNL     1       3.163  16.712 -12.463  1.00  0.00     0.198 A 
ATOM     88  F   UNL     1       2.000  14.693 -12.361  1.00  0.00    -0.203 F 
ATOM     89  F   UNL     1       6.703  17.419 -12.551  1.00  0.00    -0.200 F 
ATOM     90  C   UNL     1       4.347  17.419 -12.539  1.00  0.00     0.200 A 
ATOM     91  F   UNL     1       1.991  17.349 -12.598  1.00  0.00    -0.200 F 
ATOM     92  F   UNL     1       4.328  18.742 -12.754  1.00  0.00    -0.200 F 
ENDBRANCH  58  82
BRANCH  70  93
ATOM     93  C   UNL     1       6.891   8.786 -12.375  1.00  0.00     0.064 A 
ATOM     94  C   UNL     1       6.058   8.853 -11.246  1.00  0.00     0.173 A 
ATOM     95  C   UNL     1       8.083   8.055 -12.262  1.00  0.00     0.173 A 
ATOM     96  F   UNL     1       4.863   9.454 -11.306  1.00  0.00    -0.203 F 
ATOM     97  C   UNL     1       6.417   8.231 -10.052  1.00  0.00     0.198 A 
ATOM     98  C   UNL     1       8.421   7.406 -11.080  1.00  0.00     0.198 A 
ATOM     99  F   UNL     1       8.888   7.916 -13.327  1.00  0.00    -0.203 F 
ATOM    100  F   UNL     1       5.605   8.301  -8.987  1.00  0.00    -0.200 F 
ATOM    101  C   UNL     1       7.591   7.499  -9.974  1.00  0.00     0.200 A 
ATOM    102  F   UNL     1       9.530   6.657 -11.025  1.00  0.00    -0.200 F 
ATOM    103  F   UNL     1       7.907   6.852  -8.843  1.00  0.00    -0.200 F 
ENDBRANCH  70  93
ENDBRANCH  44  45
ENDBRANCH  36  39
ENDBRANCH  34  35
ENDBRANCH  33  34
ENDBRANCH  32  33
ENDBRANCH   1  32
TORSDOF 16
