REMARK SMILES O=C(NCCCCNC(=O)c1ccc(-c2cccc(F)c2)o1)c1ccc(-c2c3nc(c(-c4c(F)c(F)c(F)c(F)c4F)c4ccc([nH]4)c(-c4c(F)c(F)c(F)c(F)c4F)c4nc(c(-c5c(F)c(F)c(F)c(F)c5F)c5ccc2[nH]5)C=C4)C=C3)cc1
REMARK SMILES IDX 5 1 4 2 3 3 1 4 2 5 23 7 24 8 85 9 25 10 84 11 26 12 27 13
REMARK SMILES IDX 28 14 78 15 29 16 83 17 77 18 79 19 30 20 82 21 76 22 75 23
REMARK SMILES IDX 31 25 63 26 43 27 62 28 44 29 47 30 61 31 80 32 45 33 46 34
REMARK SMILES IDX 60 36 81 37 48 38 32 39 33 40 41 41 34 42 35 43 39 44 42 45
REMARK SMILES IDX 36 46 37 47 40 48 38 49 64 50 65 51 73 52 66 53 67 54 71 55
REMARK SMILES IDX 74 56 68 57 69 58 72 59 70 60 49 61 50 62 58 63 51 64 52 65
REMARK SMILES IDX 56 66 59 67 53 68 54 69 57 70 55 71 6 72 7 73 8 74 9 75
REMARK SMILES IDX 10 77 11 78 12 79 22 80 13 81 14 82 15 83 16 84 21 85 17 86
REMARK SMILES IDX 19 87 18 88 20 89
REMARK H PARENT 3 6 79 24 47 35 8 76
REMARK Flexibility Score: inf
ROOT
ATOM      1  C   UNL     1       4.871  -2.688  -0.001  1.00  0.00     0.023 C 
ENDROOT
BRANCH   1   2
ATOM      2  C   UNL     1       4.631  -1.231  -0.378  1.00  0.00     0.116 C 
BRANCH   2   3
ATOM      3  N   UNL     1       3.223  -0.906  -0.550  1.00  0.00    -0.352 N 
ATOM      4  O   UNL     1       1.269   0.156  -0.163  1.00  0.00    -0.269 OA
ATOM      5  C   UNL     1       2.483   0.108   0.011  1.00  0.00     0.251 C 
ATOM      6  H   UNL     1       2.727  -1.500  -1.159  1.00  0.00     0.163 HD
BRANCH   5   7
ATOM      7  C   UNL     1       3.145   1.121   0.862  1.00  0.00     0.039 A 
ATOM      8  C   UNL     1       4.344   1.714   0.464  1.00  0.00     0.014 A 
ATOM      9  C   UNL     1       2.566   1.463   2.087  1.00  0.00     0.014 A 
ATOM     10  C   UNL     1       5.048   2.509   1.361  1.00  0.00     0.010 A 
ATOM     11  C   UNL     1       3.236   2.330   2.955  1.00  0.00     0.010 A 
ATOM     12  C   UNL     1       4.507   2.819   2.620  1.00  0.00    -0.014 A 
BRANCH  12  13
ATOM     13  C   UNL     1       5.297   3.655   3.560  1.00  0.00     0.031 A 
ATOM     14  C   UNL     1       5.831   3.081   4.844  1.00  0.00     0.074 A 
ATOM     15  C   UNL     1       5.595   4.921   3.213  1.00  0.00     0.049 A 
ATOM     16  N   UNL     1       6.596   3.648   5.744  1.00  0.00    -0.248 NA
ATOM     17  C   UNL     1       5.455   1.696   5.166  1.00  0.00     0.031 C 
ATOM     18  C   UNL     1       5.130   5.588   1.997  1.00  0.00     0.029 A 
ATOM     19  N   UNL     1       6.386   5.858   3.827  1.00  0.00    -0.354 N 
ATOM     20  C   UNL     1       6.777   2.700   6.742  1.00  0.00     0.074 A 
ATOM     21  C   UNL     1       6.023   1.528   6.353  1.00  0.00     0.031 C 
ATOM     22  C   UNL     1       5.694   6.802   1.920  1.00  0.00     0.029 A 
ATOM     23  C   UNL     1       6.522   7.016   3.103  1.00  0.00     0.049 A 
ATOM     24  H   UNL     1       6.814   5.714   4.702  1.00  0.00     0.167 HD
ATOM     25  C   UNL     1       7.513   2.797   7.875  1.00  0.00     0.037 A 
ATOM     26  C   UNL     1       7.239   8.126   3.358  1.00  0.00     0.037 A 
ATOM     27  C   UNL     1       8.285   3.953   8.250  1.00  0.00     0.049 A 
ATOM     28  C   UNL     1       8.061   8.201   4.611  1.00  0.00     0.074 A 
ATOM     29  C   UNL     1       9.067   4.141   9.377  1.00  0.00     0.029 A 
ATOM     30  N   UNL     1       8.378   5.116   7.500  1.00  0.00    -0.354 N 
ATOM     31  N   UNL     1       8.221   7.297   5.546  1.00  0.00    -0.248 NA
ATOM     32  C   UNL     1       8.798   9.449   4.847  1.00  0.00     0.031 C 
ATOM     33  C   UNL     1       9.613   5.428   9.322  1.00  0.00     0.029 A 
ATOM     34  C   UNL     1       9.201   6.028   8.143  1.00  0.00     0.049 A 
ATOM     35  H   UNL     1       7.927   5.272   6.639  1.00  0.00     0.167 HD
ATOM     36  C   UNL     1       9.080   7.861   6.477  1.00  0.00     0.074 A 
ATOM     37  C   UNL     1       9.425   9.179   5.984  1.00  0.00     0.031 C 
ATOM     38  C   UNL     1       9.536   7.334   7.639  1.00  0.00     0.037 A 
BRANCH  25  39
ATOM     39  C   UNL     1       7.521   1.619   8.805  1.00  0.00     0.064 A 
ATOM     40  C   UNL     1       6.848   1.680  10.034  1.00  0.00     0.173 A 
ATOM     41  C   UNL     1       8.243   0.455   8.507  1.00  0.00     0.173 A 
ATOM     42  F   UNL     1       6.147   2.774  10.368  1.00  0.00    -0.203 F 
ATOM     43  C   UNL     1       6.906   0.621  10.936  1.00  0.00     0.198 A 
ATOM     44  C   UNL     1       8.281  -0.612   9.402  1.00  0.00     0.198 A 
ATOM     45  F   UNL     1       8.893   0.344   7.339  1.00  0.00    -0.203 F 
ATOM     46  F   UNL     1       6.276   0.710  12.116  1.00  0.00    -0.200 F 
ATOM     47  C   UNL     1       7.620  -0.525  10.618  1.00  0.00     0.200 A 
ATOM     48  F   UNL     1       8.953  -1.727   9.085  1.00  0.00    -0.200 F 
ATOM     49  F   UNL     1       7.667  -1.548  11.483  1.00  0.00    -0.200 F 
ENDBRANCH  25  39
BRANCH  26  50
ATOM     50  C   UNL     1       7.228   9.237   2.375  1.00  0.00     0.064 A 
ATOM     51  C   UNL     1       6.086  10.029   2.186  1.00  0.00     0.173 A 
ATOM     52  C   UNL     1       8.342   9.488   1.564  1.00  0.00     0.173 A 
ATOM     53  F   UNL     1       4.993   9.819   2.934  1.00  0.00    -0.203 F 
ATOM     54  C   UNL     1       6.052  11.016   1.204  1.00  0.00     0.198 A 
ATOM     55  C   UNL     1       8.315  10.492   0.599  1.00  0.00     0.198 A 
ATOM     56  F   UNL     1       9.461   8.766   1.721  1.00  0.00    -0.203 F 
ATOM     57  F   UNL     1       4.935  11.732   1.017  1.00  0.00    -0.200 F 
ATOM     58  C   UNL     1       7.166  11.248   0.413  1.00  0.00     0.200 A 
ATOM     59  F   UNL     1       9.399  10.725  -0.153  1.00  0.00    -0.200 F 
ATOM     60  F   UNL     1       7.134  12.199  -0.530  1.00  0.00    -0.200 F 
ENDBRANCH  26  50
BRANCH  38  61
ATOM     61  C   UNL     1      10.469   8.175   8.456  1.00  0.00     0.064 A 
ATOM     62  C   UNL     1      11.834   7.860   8.525  1.00  0.00     0.173 A 
ATOM     63  C   UNL     1      10.001   9.257   9.214  1.00  0.00     0.173 A 
ATOM     64  F   UNL     1      12.327   6.830   7.820  1.00  0.00    -0.203 F 
ATOM     65  C   UNL     1      12.697   8.596   9.332  1.00  0.00     0.198 A 
ATOM     66  C   UNL     1      10.870  10.003  10.004  1.00  0.00     0.198 A 
ATOM     67  F   UNL     1       8.706   9.602   9.169  1.00  0.00    -0.203 F 
ATOM     68  F   UNL     1      13.994   8.266   9.399  1.00  0.00    -0.200 F 
ATOM     69  C   UNL     1      12.215   9.668  10.067  1.00  0.00     0.200 A 
ATOM     70  F   UNL     1      10.409  11.053  10.698  1.00  0.00    -0.200 F 
ATOM     71  F   UNL     1      13.049  10.384  10.835  1.00  0.00    -0.200 F 
ENDBRANCH  38  61
ENDBRANCH  12  13
ENDBRANCH   5   7
ENDBRANCH   2   3
ENDBRANCH   1   2
BRANCH   1  72
ATOM     72  C   UNL     1       4.365  -3.717  -1.012  1.00  0.00     0.023 C 
BRANCH  72  73
ATOM     73  C   UNL     1       4.872  -3.527  -2.439  1.00  0.00     0.116 C 
BRANCH  73  74
ATOM     74  N   UNL     1       6.312  -3.691  -2.529  1.00  0.00    -0.349 N 
ATOM     75  C   UNL     1       7.016  -4.596  -3.290  1.00  0.00     0.287 C 
ATOM     76  H   UNL     1       6.851  -3.079  -1.977  1.00  0.00     0.163 HD
ATOM     77  O   UNL     1       8.225  -4.702  -3.090  1.00  0.00    -0.266 OA
BRANCH  75  78
ATOM     78  C   UNL     1       6.294  -5.347  -4.287  1.00  0.00     0.192 A 
ATOM     79  C   UNL     1       5.553  -4.947  -5.383  1.00  0.00     0.057 A 
ATOM     80  O   UNL     1       6.274  -6.710  -4.191  1.00  0.00    -0.451 OA
ATOM     81  C   UNL     1       5.055  -6.126  -5.986  1.00  0.00     0.052 A 
ATOM     82  C   UNL     1       5.512  -7.179  -5.221  1.00  0.00     0.135 A 
BRANCH  82  83
ATOM     83  C   UNL     1       5.355  -8.623  -5.297  1.00  0.00     0.020 A 
ATOM     84  C   UNL     1       5.316  -9.265  -6.544  1.00  0.00     0.012 A 
ATOM     85  C   UNL     1       5.216  -9.391  -4.135  1.00  0.00     0.051 A 
ATOM     86  C   UNL     1       5.140 -10.649  -6.630  1.00  0.00     0.004 A 
ATOM     87  C   UNL     1       5.029 -10.765  -4.231  1.00  0.00     0.123 A 
ATOM     88  C   UNL     1       4.991 -11.401  -5.467  1.00  0.00     0.039 A 
ATOM     89  F   UNL     1       4.874 -11.489  -3.115  1.00  0.00    -0.207 F 
ENDBRANCH  82  83
ENDBRANCH  75  78
ENDBRANCH  73  74
ENDBRANCH  72  73
ENDBRANCH   1  72
TORSDOF 12
