REMARK SMILES CCCC(=O)N(c1cc2sc(=O)oc2c2ccccc12)S(=O)(=O)c1ccc(C(=O)NCCCCNC(=O)c2ccc(-c3c4nc(c(-c5c(F)c(F)c(F)c(F)c5F)c5ccc([nH]5)c(-c5c(F)c(F)c(F)c(F)c5F)c5nc(c(-c6c(F)c(F)c(F)c(F)c6F)c6ccc3[nH]6)C=C5)C=C4)cc2)cc1
REMARK SMILES IDX 31 1 30 2 28 3 29 4 27 6 24 7 25 8 102 9 26 10 101 11 21 12
REMARK SMILES IDX 22 13 23 14 6 15 4 16 5 17 3 18 2 19 1 20 7 21 8 22 20 23
REMARK SMILES IDX 9 24 15 25 19 26 10 27 14 28 16 29 18 30 11 31 13 32 17 33
REMARK SMILES IDX 12 34 32 35 33 36 34 37 35 38 36 39 37 41 38 42 39 43 100 44
REMARK SMILES IDX 40 45 99 46 41 47 42 48 43 49 93 50 44 51 98 52 92 53 94 54
REMARK SMILES IDX 45 55 97 56 91 57 90 58 46 60 78 61 58 62 77 63 59 64 62 65
REMARK SMILES IDX 76 66 95 67 60 68 61 69 75 71 96 72 63 73 47 74 48 75 56 76
REMARK SMILES IDX 49 77 50 78 54 79 57 80 51 81 52 82 55 83 53 84 79 85 80 86
REMARK SMILES IDX 88 87 81 88 82 89 86 90 89 91 83 92 84 93 87 94 85 95 64 96
REMARK SMILES IDX 65 97 73 98 66 99 67 100 71 101 74 102 68 103 69 104 72 105
REMARK SMILES IDX 70 106
REMARK H PARENT 30 5 35 40 94 59 62 70
REMARK Flexibility Score: inf
ROOT
ATOM      1  C   UNL     1       3.438  -6.121   6.398  1.00  0.00     0.116 C 
ENDROOT
BRANCH   1   2
ATOM      2  N   UNL     1       3.293  -4.802   6.986  1.00  0.00    -0.352 N 
ATOM      3  C   UNL     1       2.455  -3.763   6.646  1.00  0.00     0.251 C 
ATOM      4  O   UNL     1       2.497  -2.739   7.328  1.00  0.00    -0.269 OA
ATOM      5  H   UNL     1       3.889  -4.621   7.749  1.00  0.00     0.163 HD
BRANCH   3   6
ATOM      6  C   UNL     1       1.578  -3.799   5.437  1.00  0.00     0.039 A 
ATOM      7  C   UNL     1       0.353  -3.706   2.916  1.00  0.00     0.088 A 
ATOM      8  C   UNL     1       0.510  -2.534   3.659  1.00  0.00     0.023 A 
ATOM      9  C   UNL     1       0.609  -4.934   3.520  1.00  0.00     0.023 A 
ATOM     10  C   UNL     1       1.183  -2.574   4.883  1.00  0.00     0.015 A 
ATOM     11  C   UNL     1       1.153  -4.971   4.806  1.00  0.00     0.015 A 
BRANCH   7  12
ATOM     12  S   UNL     1      -0.281  -3.656   1.240  1.00  0.00     0.270 S 
ATOM     13  O   UNL     1      -1.546  -2.966   1.333  1.00  0.00    -0.201 OA
ATOM     14  O   UNL     1      -0.194  -5.026   0.758  1.00  0.00    -0.201 OA
BRANCH  12  15
ATOM     15  N   UNL     1       0.816  -2.746   0.284  1.00  0.00    -0.202 N 
BRANCH  15  16
ATOM     16  C   UNL     1       0.504  -2.603  -1.115  1.00  0.00     0.241 C 
ATOM     17  O   UNL     1      -0.543  -3.034  -1.591  1.00  0.00    -0.273 OA
BRANCH  16  18
ATOM     18  C   UNL     1       1.522  -1.957  -2.053  1.00  0.00     0.101 C 
BRANCH  18  19
ATOM     19  C   UNL     1       1.247  -0.485  -2.367  1.00  0.00     0.006 C 
ATOM     20  C   UNL     1       2.391   0.425  -1.940  1.00  0.00     0.004 C 
ENDBRANCH  18  19
ENDBRANCH  16  18
ENDBRANCH  15  16
BRANCH  15  21
ATOM     21  C   UNL     1       1.546  -1.673   0.907  1.00  0.00     0.070 A 
ATOM     22  C   UNL     1       2.794  -2.027   1.451  1.00  0.00     0.051 A 
ATOM     23  C   UNL     1       1.033  -0.342   1.047  1.00  0.00     0.010 A 
ATOM     24  C   UNL     1       3.515  -1.076   2.147  1.00  0.00     0.080 A 
ATOM     25  C   UNL     1       1.855   0.642   1.662  1.00  0.00     0.028 A 
ATOM     26  C   UNL     1      -0.241   0.073   0.593  1.00  0.00     0.011 A 
ATOM     27  S   UNL     1       5.013  -1.296   3.028  1.00  0.00    -0.052 S 
ATOM     28  C   UNL     1       3.064   0.233   2.240  1.00  0.00     0.157 A 
ATOM     29  C   UNL     1       1.454   1.993   1.664  1.00  0.00     0.013 A 
ATOM     30  C   UNL     1      -0.619   1.418   0.594  1.00  0.00     0.001 A 
ATOM     31  C   UNL     1       4.938   0.407   3.494  1.00  0.00     0.396 A 
ATOM     32  O   UNL     1       3.862   1.121   2.973  1.00  0.00    -0.413 OA
ATOM     33  C   UNL     1       0.243   2.381   1.099  1.00  0.00     0.001 A 
ATOM     34  O   UNL     1       5.782   0.920   4.217  1.00  0.00    -0.233 OA
ENDBRANCH  15  21
ENDBRANCH  12  15
ENDBRANCH   7  12
ENDBRANCH   3   6
ENDBRANCH   1   2
BRANCH   1  35
ATOM     35  C   UNL     1       4.757  -6.829   6.679  1.00  0.00     0.023 C 
BRANCH  35  36
ATOM     36  C   UNL     1       5.151  -6.944   8.147  1.00  0.00     0.023 C 
BRANCH  36  37
ATOM     37  C   UNL     1       4.044  -7.465   9.065  1.00  0.00     0.116 C 
BRANCH  37  38
ATOM     38  N   UNL     1       3.861  -8.912   9.034  1.00  0.00    -0.352 N 
ATOM     39  C   UNL     1       4.604  -9.899   9.647  1.00  0.00     0.251 C 
ATOM     40  H   UNL     1       3.098  -9.230   8.500  1.00  0.00     0.163 HD
ATOM     41  O   UNL     1       4.315 -11.083   9.534  1.00  0.00    -0.269 OA
BRANCH  39  42
ATOM     42  C   UNL     1       5.826  -9.495  10.358  1.00  0.00     0.039 A 
ATOM     43  C   UNL     1       5.760  -8.522  11.355  1.00  0.00     0.014 A 
ATOM     44  C   UNL     1       7.050  -9.955   9.867  1.00  0.00     0.014 A 
ATOM     45  C   UNL     1       6.908  -7.837  11.697  1.00  0.00     0.010 A 
ATOM     46  C   UNL     1       8.213  -9.314  10.265  1.00  0.00     0.010 A 
ATOM     47  C   UNL     1       8.128  -8.214  11.128  1.00  0.00    -0.014 A 
BRANCH  47  48
ATOM     48  C   UNL     1       9.292  -7.479  11.619  1.00  0.00     0.031 A 
ATOM     49  C   UNL     1      10.175  -8.378  12.429  1.00  0.00     0.074 A 
ATOM     50  C   UNL     1       9.888  -6.537  10.864  1.00  0.00     0.049 A 
ATOM     51  N   UNL     1      11.039  -9.206  11.921  1.00  0.00    -0.248 NA
ATOM     52  C   UNL     1       9.880  -8.621  13.842  1.00  0.00     0.031 C 
ATOM     53  C   UNL     1      10.149  -6.574   9.428  1.00  0.00     0.029 A 
ATOM     54  N   UNL     1      10.456  -5.356  11.304  1.00  0.00    -0.354 N 
ATOM     55  C   UNL     1      11.378 -10.100  12.921  1.00  0.00     0.074 A 
ATOM     56  C   UNL     1      10.628  -9.706  14.091  1.00  0.00     0.031 C 
ATOM     57  C   UNL     1      10.980  -5.559   9.118  1.00  0.00     0.029 A 
ATOM     58  C   UNL     1      11.237  -4.751  10.310  1.00  0.00     0.049 A 
ATOM     59  H   UNL     1      10.326  -4.984  12.206  1.00  0.00     0.167 HD
ATOM     60  C   UNL     1      12.265 -11.110  12.733  1.00  0.00     0.037 A 
ATOM     61  C   UNL     1      12.432  -4.172  10.633  1.00  0.00     0.037 A 
ATOM     62  C   UNL     1      12.876 -11.156  11.440  1.00  0.00     0.049 A 
ATOM     63  C   UNL     1      13.322  -5.398  10.740  1.00  0.00     0.074 A 
ATOM     64  C   UNL     1      12.742 -11.873  10.273  1.00  0.00     0.029 A 
ATOM     65  N   UNL     1      13.860 -10.232  11.178  1.00  0.00    -0.354 N 
ATOM     66  N   UNL     1      13.798  -6.098   9.739  1.00  0.00    -0.248 NA
ATOM     67  C   UNL     1      13.345  -6.098  12.027  1.00  0.00     0.031 C 
ATOM     68  C   UNL     1      13.314 -11.046   9.255  1.00  0.00     0.029 A 
ATOM     69  C   UNL     1      13.730  -9.862   9.865  1.00  0.00     0.049 A 
ATOM     70  H   UNL     1      14.532  -9.897  11.815  1.00  0.00     0.167 HD
ATOM     71  C   UNL     1      13.900  -7.409  10.219  1.00  0.00     0.074 A 
ATOM     72  C   UNL     1      13.652  -7.329  11.642  1.00  0.00     0.031 C 
ATOM     73  C   UNL     1      13.975  -8.510   9.414  1.00  0.00     0.037 A 
BRANCH  60  74
ATOM     74  C   UNL     1      12.788 -11.978  13.801  1.00  0.00     0.064 A 
ATOM     75  C   UNL     1      14.066 -11.687  14.300  1.00  0.00     0.173 A 
ATOM     76  C   UNL     1      12.185 -13.179  14.181  1.00  0.00     0.173 A 
ATOM     77  F   UNL     1      14.672 -10.538  13.954  1.00  0.00    -0.203 F 
ATOM     78  C   UNL     1      14.747 -12.589  15.103  1.00  0.00     0.198 A 
ATOM     79  C   UNL     1      12.866 -14.080  15.001  1.00  0.00     0.198 A 
ATOM     80  F   UNL     1      10.966 -13.502  13.723  1.00  0.00    -0.203 F 
ATOM     81  F   UNL     1      15.991 -12.307  15.513  1.00  0.00    -0.200 F 
ATOM     82  C   UNL     1      14.151 -13.792  15.445  1.00  0.00     0.200 A 
ATOM     83  F   UNL     1      12.294 -15.245  15.337  1.00  0.00    -0.200 F 
ATOM     84  F   UNL     1      14.822 -14.679  16.192  1.00  0.00    -0.200 F 
ENDBRANCH  60  74
BRANCH  61  85
ATOM     85  C   UNL     1      12.297  -3.108  11.690  1.00  0.00     0.064 A 
ATOM     86  C   UNL     1      11.285  -2.135  11.519  1.00  0.00     0.173 A 
ATOM     87  C   UNL     1      13.010  -3.041  12.894  1.00  0.00     0.173 A 
ATOM     88  F   UNL     1      10.627  -2.046  10.352  1.00  0.00    -0.203 F 
ATOM     89  C   UNL     1      10.884  -1.292  12.554  1.00  0.00     0.198 A 
ATOM     90  C   UNL     1      12.597  -2.208  13.940  1.00  0.00     0.198 A 
ATOM     91  F   UNL     1      14.096  -3.797  13.101  1.00  0.00    -0.203 F 
ATOM     92  F   UNL     1       9.851  -0.457  12.373  1.00  0.00    -0.200 F 
ATOM     93  C   UNL     1      11.513  -1.361  13.781  1.00  0.00     0.200 A 
ATOM     94  F   UNL     1      13.224  -2.267  15.123  1.00  0.00    -0.200 F 
ATOM     95  F   UNL     1      11.074  -0.621  14.808  1.00  0.00    -0.200 F 
ENDBRANCH  61  85
BRANCH  73  96
ATOM     96  C   UNL     1      14.104  -8.246   7.955  1.00  0.00     0.064 A 
ATOM     97  C   UNL     1      15.294  -7.723   7.437  1.00  0.00     0.173 A 
ATOM     98  C   UNL     1      13.084  -8.590   7.053  1.00  0.00     0.173 A 
ATOM     99  F   UNL     1      16.301  -7.388   8.259  1.00  0.00    -0.203 F 
ATOM    100  C   UNL     1      15.472  -7.582   6.065  1.00  0.00     0.198 A 
ATOM    101  C   UNL     1      13.279  -8.479   5.680  1.00  0.00     0.198 A 
ATOM    102  F   UNL     1      11.908  -9.068   7.492  1.00  0.00    -0.203 F 
ATOM    103  F   UNL     1      16.624  -7.090   5.588  1.00  0.00    -0.200 F 
ATOM    104  C   UNL     1      14.473  -7.979   5.188  1.00  0.00     0.200 A 
ATOM    105  F   UNL     1      12.320  -8.882   4.833  1.00  0.00    -0.200 F 
ATOM    106  F   UNL     1      14.669  -7.893   3.864  1.00  0.00    -0.200 F 
ENDBRANCH  73  96
ENDBRANCH  47  48
ENDBRANCH  39  42
ENDBRANCH  37  38
ENDBRANCH  36  37
ENDBRANCH  35  36
ENDBRANCH   1  35
TORSDOF 17
