REMARK SMILES O=C(NCCCCNC(=O)c1ccc(-c2c3nc(c(-c4c(F)c(F)c(F)c(F)c4F)c4ccc([nH]4)c(-c4c(F)c(F)c(F)c(F)c4F)c4nc(c(-c5c(F)c(F)c(F)c(F)c5F)c5ccc2[nH]5)C=C4)C=C3)cc1)C1=Cc2cc(Cl)ccc2O[C@@H]1C(F)(F)F
REMARK SMILES IDX 6 1 5 2 4 3 3 4 1 5 2 6 74 8 75 9 84 10 76 11 83 12 77 13
REMARK SMILES IDX 82 14 78 15 81 16 79 17 80 18 85 19 86 20 87 21 88 22 7 23
REMARK SMILES IDX 8 24 9 25 10 27 11 28 12 29 73 30 13 31 72 32 14 33 15 34
REMARK SMILES IDX 16 35 66 36 17 37 71 38 65 39 67 40 18 41 70 42 64 43 63 44
REMARK SMILES IDX 19 46 51 47 31 48 50 49 32 50 35 51 49 52 68 53 33 54 34 55
REMARK SMILES IDX 48 57 69 58 36 59 20 60 21 61 29 62 22 63 23 64 27 65 30 66
REMARK SMILES IDX 24 67 25 68 28 69 26 70 52 71 53 72 61 73 54 74 55 75 59 76
REMARK SMILES IDX 62 77 56 78 57 79 60 80 58 81 37 82 38 83 46 84 39 85 40 86
REMARK SMILES IDX 44 87 47 88 41 89 42 90 45 91 43 92
REMARK H PARENT 3 7 8 26 67 45 35 56
REMARK Flexibility Score: inf
ROOT
ATOM      1  C   UNL     1       4.111   3.113  -3.171  1.00  0.00     0.023 C 
ENDROOT
BRANCH   1   2
ATOM      2  C   UNL     1       4.152   1.667  -2.666  1.00  0.00     0.023 C 
BRANCH   2   3
ATOM      3  C   UNL     1       3.372   1.444  -1.364  1.00  0.00     0.116 C 
BRANCH   3   4
ATOM      4  N   UNL     1       2.379   0.369  -1.460  1.00  0.00    -0.352 N 
ATOM      5  O   UNL     1       1.153  -1.393  -0.729  1.00  0.00    -0.270 OA
ATOM      6  C   UNL     1       2.188  -0.744  -0.676  1.00  0.00     0.251 C 
ATOM      7  H   UNL     1       1.746   0.459  -2.208  1.00  0.00     0.163 HD
BRANCH   6   8
ATOM      8  C   UNL     1       3.250  -1.085   0.284  1.00  0.00     0.067 C 
ATOM      9  C   UNL     1       4.452  -1.385  -0.221  1.00  0.00     0.025 C 
ATOM     10  C   UNL     1       3.031  -0.736   1.724  1.00  0.00     0.314 C 
ATOM     11  C   UNL     1       5.546  -0.698   0.470  1.00  0.00     0.019 A 
ATOM     12  O   UNL     1       4.063   0.146   2.235  1.00  0.00    -0.475 OA
ATOM     13  C   UNL     1       6.747  -0.538  -0.227  1.00  0.00     0.032 A 
ATOM     14  C   UNL     1       5.271   0.122   1.582  1.00  0.00     0.128 A 
ATOM     15  C   UNL     1       7.620   0.486   0.133  1.00  0.00     0.041 A 
ATOM     16  C   UNL     1       6.174   1.113   1.963  1.00  0.00     0.048 A 
ATOM     17  Cl  UNL     1       8.992   0.805  -0.852  1.00  0.00    -0.084 Cl
ATOM     18  C   UNL     1       7.336   1.316   1.217  1.00  0.00     0.024 A 
BRANCH  10  19
ATOM     19  C   UNL     1       2.909  -1.994   2.602  1.00  0.00     0.429 C 
ATOM     20  F   UNL     1       2.594  -1.665   3.879  1.00  0.00    -0.167 F 
ATOM     21  F   UNL     1       1.937  -2.826   2.163  1.00  0.00    -0.167 F 
ATOM     22  F   UNL     1       4.059  -2.706   2.646  1.00  0.00    -0.167 F 
ENDBRANCH  10  19
ENDBRANCH   6   8
ENDBRANCH   3   4
ENDBRANCH   2   3
ENDBRANCH   1   2
BRANCH   1  23
ATOM     23  C   UNL     1       4.651   4.183  -2.224  1.00  0.00     0.116 C 
BRANCH  23  24
ATOM     24  N   UNL     1       6.085   4.122  -1.988  1.00  0.00    -0.352 N 
ATOM     25  C   UNL     1       6.991   5.167  -1.910  1.00  0.00     0.251 C 
ATOM     26  H   UNL     1       6.461   3.220  -1.869  1.00  0.00     0.163 HD
ATOM     27  O   UNL     1       8.174   4.958  -1.719  1.00  0.00    -0.269 OA
BRANCH  25  28
ATOM     28  C   UNL     1       6.508   6.552  -2.129  1.00  0.00     0.039 A 
ATOM     29  C   UNL     1       7.104   7.316  -3.137  1.00  0.00     0.014 A 
ATOM     30  C   UNL     1       5.414   7.052  -1.419  1.00  0.00     0.014 A 
ATOM     31  C   UNL     1       6.521   8.526  -3.521  1.00  0.00     0.010 A 
ATOM     32  C   UNL     1       4.794   8.223  -1.850  1.00  0.00     0.010 A 
ATOM     33  C   UNL     1       5.320   8.951  -2.928  1.00  0.00    -0.014 A 
BRANCH  33  34
ATOM     34  C   UNL     1       4.556  10.099  -3.483  1.00  0.00     0.031 A 
ATOM     35  C   UNL     1       4.319  11.334  -2.665  1.00  0.00     0.074 A 
ATOM     36  C   UNL     1       3.985   9.982  -4.699  1.00  0.00     0.049 A 
ATOM     37  N   UNL     1       3.617  12.399  -2.959  1.00  0.00    -0.248 NA
ATOM     38  C   UNL     1       4.924  11.362  -1.326  1.00  0.00     0.031 C 
ATOM     39  C   UNL     1       4.073   8.804  -5.564  1.00  0.00     0.029 A 
ATOM     40  N   UNL     1       3.202  10.857  -5.412  1.00  0.00    -0.354 N 
ATOM     41  C   UNL     1       3.687  13.218  -1.842  1.00  0.00     0.074 A 
ATOM     42  C   UNL     1       4.454  12.503  -0.843  1.00  0.00     0.031 C 
ATOM     43  C   UNL     1       3.388   9.035  -6.694  1.00  0.00     0.029 A 
ATOM     44  C   UNL     1       2.786  10.363  -6.623  1.00  0.00     0.049 A 
ATOM     45  H   UNL     1       2.962  11.754  -5.085  1.00  0.00     0.167 HD
ATOM     46  C   UNL     1       3.178  14.462  -1.672  1.00  0.00     0.037 A 
ATOM     47  C   UNL     1       2.002  10.912  -7.571  1.00  0.00     0.037 A 
ATOM     48  C   UNL     1       2.431  15.180  -2.672  1.00  0.00     0.049 A 
ATOM     49  C   UNL     1       1.458  12.297  -7.366  1.00  0.00     0.074 A 
ATOM     50  C   UNL     1       1.950  16.477  -2.626  1.00  0.00     0.029 A 
ATOM     51  N   UNL     1       2.049  14.656  -3.898  1.00  0.00    -0.354 N 
ATOM     52  N   UNL     1       1.608  13.099  -6.341  1.00  0.00    -0.248 NA
ATOM     53  C   UNL     1       0.639  12.855  -8.451  1.00  0.00     0.031 C 
ATOM     54  C   UNL     1       1.240  16.723  -3.807  1.00  0.00     0.029 A 
ATOM     55  C   UNL     1       1.312  15.594  -4.606  1.00  0.00     0.049 A 
ATOM     56  H   UNL     1       2.268  13.752  -4.219  1.00  0.00     0.167 HD
ATOM     57  C   UNL     1       0.914  14.258  -6.657  1.00  0.00     0.074 A 
ATOM     58  C   UNL     1       0.358  14.063  -7.981  1.00  0.00     0.031 C 
ATOM     59  C   UNL     1       0.750  15.380  -5.915  1.00  0.00     0.037 A 
BRANCH  46  60
ATOM     60  C   UNL     1       3.420  15.126  -0.347  1.00  0.00     0.064 A 
ATOM     61  C   UNL     1       4.699  15.566   0.029  1.00  0.00     0.173 A 
ATOM     62  C   UNL     1       2.364  15.331   0.552  1.00  0.00     0.173 A 
ATOM     63  F   UNL     1       5.744  15.382  -0.792  1.00  0.00    -0.203 F 
ATOM     64  C   UNL     1       4.918  16.150   1.273  1.00  0.00     0.198 A 
ATOM     65  C   UNL     1       2.582  15.942   1.784  1.00  0.00     0.198 A 
ATOM     66  F   UNL     1       1.121  14.934   0.239  1.00  0.00    -0.203 F 
ATOM     67  F   UNL     1       6.158  16.508   1.634  1.00  0.00    -0.200 F 
ATOM     68  C   UNL     1       3.859  16.341   2.148  1.00  0.00     0.200 A 
ATOM     69  F   UNL     1       1.556  16.135   2.626  1.00  0.00    -0.200 F 
ATOM     70  F   UNL     1       4.072  16.900   3.348  1.00  0.00    -0.200 F 
ENDBRANCH  46  60
BRANCH  47  71
ATOM     71  C   UNL     1       1.708  10.149  -8.810  1.00  0.00     0.064 A 
ATOM     72  C   UNL     1       2.306  10.500 -10.028  1.00  0.00     0.173 A 
ATOM     73  C   UNL     1       0.851   9.040  -8.798  1.00  0.00     0.173 A 
ATOM     74  F   UNL     1       3.118  11.566 -10.092  1.00  0.00    -0.203 F 
ATOM     75  C   UNL     1       2.052   9.774 -11.190  1.00  0.00     0.198 A 
ATOM     76  C   UNL     1       0.615   8.301  -9.955  1.00  0.00     0.198 A 
ATOM     77  F   UNL     1       0.260   8.661  -7.655  1.00  0.00    -0.203 F 
ATOM     78  F   UNL     1       2.615  10.146 -12.347  1.00  0.00    -0.200 F 
ATOM     79  C   UNL     1       1.213   8.670 -11.150  1.00  0.00     0.200 A 
ATOM     80  F   UNL     1      -0.185   7.227  -9.910  1.00  0.00    -0.200 F 
ATOM     81  F   UNL     1       0.979   7.964 -12.265  1.00  0.00    -0.200 F 
ENDBRANCH  47  71
BRANCH  59  82
ATOM     82  C   UNL     1      -0.068  16.484  -6.517  1.00  0.00     0.064 A 
ATOM     83  C   UNL     1      -1.463  16.388  -6.615  1.00  0.00     0.173 A 
ATOM     84  C   UNL     1       0.544  17.665  -6.964  1.00  0.00     0.173 A 
ATOM     85  F   UNL     1      -2.092  15.272  -6.217  1.00  0.00    -0.203 F 
ATOM     86  C   UNL     1      -2.216  17.427  -7.156  1.00  0.00     0.198 A 
ATOM     87  C   UNL     1      -0.213  18.712  -7.482  1.00  0.00     0.198 A 
ATOM     88  F   UNL     1       1.876  17.806  -6.889  1.00  0.00    -0.203 F 
ATOM     89  F   UNL     1      -3.544  17.298  -7.277  1.00  0.00    -0.200 F 
ATOM     90  C   UNL     1      -1.591  18.590  -7.582  1.00  0.00     0.200 A 
ATOM     91  F   UNL     1       0.390  19.838  -7.885  1.00  0.00    -0.200 F 
ATOM     92  F   UNL     1      -2.318  19.592  -8.097  1.00  0.00    -0.200 F 
ENDBRANCH  59  82
ENDBRANCH  33  34
ENDBRANCH  25  28
ENDBRANCH  23  24
ENDBRANCH   1  23
TORSDOF 12
