REMARK SMILES CC1(C)[C@H](C(=O)NCCCCNC(=O)c2ccc(-c3c4nc(c(-c5c(F)c(F)c(F)c(F)c5F)c5ccc([nH]5)c(-c5c(F)c(F)c(F)c(F)c5F)c5nc(c(-c6c(F)c(F)c(F)c(F)c6F)c6ccc3[nH]6)C=C5)C=C4)cc2)[C@@H]1C(=O)Nc1ccon1
REMARK SMILES IDX 9 1 8 2 7 3 5 4 6 5 4 7 1 8 2 9 3 10 78 11 79 12 80 13 81 14
REMARK SMILES IDX 82 16 83 17 86 18 84 19 85 20 10 21 11 22 12 23 13 24 14 26
REMARK SMILES IDX 15 27 16 28 77 29 17 30 76 31 18 32 19 33 20 34 70 35 21 36
REMARK SMILES IDX 75 37 69 38 71 39 22 40 74 41 68 42 67 43 23 45 55 46 35 47
REMARK SMILES IDX 54 48 36 49 39 50 53 51 72 52 37 53 38 54 52 56 73 57 40 58
REMARK SMILES IDX 24 59 25 60 33 61 26 62 27 63 31 64 34 65 28 66 29 67 32 68
REMARK SMILES IDX 30 69 56 70 57 71 65 72 58 73 59 74 63 75 66 76 60 77 61 78
REMARK SMILES IDX 64 79 62 80 41 81 42 82 50 83 43 84 44 85 48 86 51 87 45 88
REMARK SMILES IDX 46 89 49 90 47 91
REMARK H PARENT 7 6 81 15 12 25 71 44 39 55
REMARK Flexibility Score: inf
ROOT
ATOM      1  C   UNL     1       0.244   4.120  -0.844  1.00  0.00     0.023 C 
ENDROOT
BRANCH   1   2
ATOM      2  C   UNL     1      -0.828   3.101  -0.472  1.00  0.00     0.116 C 
BRANCH   2   3
ATOM      3  N   UNL     1      -1.150   2.235  -1.583  1.00  0.00    -0.356 N 
ATOM      4  C   UNL     1      -1.130   0.889  -1.795  1.00  0.00     0.224 C 
ATOM      5  O   UNL     1      -1.458   0.529  -2.927  1.00  0.00    -0.275 OA
ATOM      6  H   UNL     1      -1.457   2.735  -2.373  1.00  0.00     0.163 HD
BRANCH   4   7
ATOM      7  C   UNL     1      -0.820  -0.196  -0.827  1.00  0.00     0.098 C 
ATOM      8  C   UNL     1       1.029  -1.677   0.166  1.00  0.00     0.013 C 
ATOM      9  C   UNL     1       0.337  -0.327   0.140  1.00  0.00    -0.011 C 
ATOM     10  C   UNL     1       1.319   0.804   0.313  1.00  0.00     0.013 C 
ATOM     11  C   UNL     1      -1.130  -0.288   0.639  1.00  0.00     0.098 C 
BRANCH  11  12
ATOM     12  C   UNL     1      -1.677   0.778   1.502  1.00  0.00     0.230 C 
ATOM     13  O   UNL     1      -1.037   1.142   2.485  1.00  0.00    -0.274 OA
ATOM     14  N   UNL     1      -2.885   1.360   1.235  1.00  0.00    -0.308 N 
ATOM     15  H   UNL     1      -3.118   2.104   1.837  1.00  0.00     0.171 HD
BRANCH  14  16
ATOM     16  C   UNL     1      -3.831   1.092   0.276  1.00  0.00     0.175 A 
ATOM     17  C   UNL     1      -4.027  -0.047  -0.532  1.00  0.00     0.092 A 
ATOM     18  N   UNL     1      -4.762   2.019   0.017  1.00  0.00    -0.062 NA
ATOM     19  C   UNL     1      -5.067   0.292  -1.359  1.00  0.00     0.233 A 
ATOM     20  O   UNL     1      -5.512   1.527  -1.034  1.00  0.00    -0.363 OA
ENDBRANCH  14  16
ENDBRANCH  11  12
ENDBRANCH   4   7
ENDBRANCH   2   3
ENDBRANCH   1   2
BRANCH   1  21
ATOM     21  C   UNL     1      -0.267   5.288  -1.684  1.00  0.00     0.023 C 
BRANCH  21  22
ATOM     22  C   UNL     1      -1.379   6.110  -1.039  1.00  0.00     0.116 C 
BRANCH  22  23
ATOM     23  N   UNL     1      -1.023   6.631   0.275  1.00  0.00    -0.352 N 
ATOM     24  C   UNL     1      -1.117   7.918   0.749  1.00  0.00     0.251 C 
ATOM     25  H   UNL     1      -0.667   5.969   0.911  1.00  0.00     0.163 HD
ATOM     26  O   UNL     1      -0.669   8.221   1.849  1.00  0.00    -0.269 OA
BRANCH  24  27
ATOM     27  C   UNL     1      -1.730   8.946  -0.111  1.00  0.00     0.039 A 
ATOM     28  C   UNL     1      -0.996  10.093  -0.420  1.00  0.00     0.014 A 
ATOM     29  C   UNL     1      -2.987   8.723  -0.678  1.00  0.00     0.014 A 
ATOM     30  C   UNL     1      -1.480  10.973  -1.388  1.00  0.00     0.010 A 
ATOM     31  C   UNL     1      -3.436   9.566  -1.687  1.00  0.00     0.010 A 
ATOM     32  C   UNL     1      -2.675  10.683  -2.067  1.00  0.00    -0.014 A 
BRANCH  32  33
ATOM     33  C   UNL     1      -3.126  11.498  -3.221  1.00  0.00     0.031 A 
ATOM     34  C   UNL     1      -4.409  12.269  -3.140  1.00  0.00     0.074 A 
ATOM     35  C   UNL     1      -2.431  11.451  -4.374  1.00  0.00     0.049 A 
ATOM     36  N   UNL     1      -5.038  12.927  -4.080  1.00  0.00    -0.248 NA
ATOM     37  C   UNL     1      -5.089  12.279  -1.836  1.00  0.00     0.031 C 
ATOM     38  C   UNL     1      -1.193  10.698  -4.587  1.00  0.00     0.029 A 
ATOM     39  N   UNL     1      -2.680  12.030  -5.593  1.00  0.00    -0.354 N 
ATOM     40  C   UNL     1      -6.194  13.414  -3.487  1.00  0.00     0.074 A 
ATOM     41  C   UNL     1      -6.202  12.941  -2.119  1.00  0.00     0.031 C 
ATOM     42  C   UNL     1      -0.785  10.871  -5.854  1.00  0.00     0.029 A 
ATOM     43  C   UNL     1      -1.752  11.709  -6.554  1.00  0.00     0.049 A 
ATOM     44  H   UNL     1      -3.450  12.619  -5.763  1.00  0.00     0.167 HD
ATOM     45  C   UNL     1      -7.152  14.200  -4.032  1.00  0.00     0.037 A 
ATOM     46  C   UNL     1      -1.700  12.037  -7.859  1.00  0.00     0.037 A 
ATOM     47  C   UNL     1      -7.125  14.689  -5.384  1.00  0.00     0.049 A 
ATOM     48  C   UNL     1      -2.791  12.889  -8.446  1.00  0.00     0.074 A 
ATOM     49  C   UNL     1      -8.003  15.560  -6.004  1.00  0.00     0.029 A 
ATOM     50  N   UNL     1      -6.170  14.342  -6.328  1.00  0.00    -0.354 N 
ATOM     51  N   UNL     1      -3.845  13.401  -7.859  1.00  0.00    -0.248 NA
ATOM     52  C   UNL     1      -2.689  13.202  -9.878  1.00  0.00     0.031 C 
ATOM     53  C   UNL     1      -7.603  15.708  -7.337  1.00  0.00     0.029 A 
ATOM     54  C   UNL     1      -6.455  14.959  -7.536  1.00  0.00     0.049 A 
ATOM     55  H   UNL     1      -5.403  13.747  -6.165  1.00  0.00     0.167 HD
ATOM     56  C   UNL     1      -4.523  14.108  -8.841  1.00  0.00     0.074 A 
ATOM     57  C   UNL     1      -3.754  13.971 -10.061  1.00  0.00     0.031 C 
ATOM     58  C   UNL     1      -5.680  14.805  -8.741  1.00  0.00     0.037 A 
BRANCH  45  59
ATOM     59  C   UNL     1      -8.309  14.583  -3.159  1.00  0.00     0.064 A 
ATOM     60  C   UNL     1      -8.160  15.498  -2.106  1.00  0.00     0.173 A 
ATOM     61  C   UNL     1      -9.586  14.054  -3.396  1.00  0.00     0.173 A 
ATOM     62  F   UNL     1      -6.956  16.022  -1.831  1.00  0.00    -0.203 F 
ATOM     63  C   UNL     1      -9.243  15.848  -1.304  1.00  0.00     0.198 A 
ATOM     64  C   UNL     1     -10.672  14.426  -2.608  1.00  0.00     0.198 A 
ATOM     65  F   UNL     1      -9.781  13.178  -4.393  1.00  0.00    -0.203 F 
ATOM     66  F   UNL     1      -9.069  16.689  -0.275  1.00  0.00    -0.200 F 
ATOM     67  C   UNL     1     -10.499  15.317  -1.560  1.00  0.00     0.200 A 
ATOM     68  F   UNL     1     -11.886  13.920  -2.862  1.00  0.00    -0.200 F 
ATOM     69  F   UNL     1     -11.541  15.658  -0.790  1.00  0.00    -0.200 F 
ENDBRANCH  45  59
BRANCH  46  70
ATOM     70  C   UNL     1      -0.569  11.563  -8.696  1.00  0.00     0.064 A 
ATOM     71  C   UNL     1       0.416  12.456  -9.138  1.00  0.00     0.173 A 
ATOM     72  C   UNL     1      -0.444  10.216  -9.063  1.00  0.00     0.173 A 
ATOM     73  F   UNL     1       0.326  13.758  -8.830  1.00  0.00    -0.203 F 
ATOM     74  C   UNL     1       1.480  12.021  -9.925  1.00  0.00     0.198 A 
ATOM     75  C   UNL     1       0.633   9.777  -9.831  1.00  0.00     0.198 A 
ATOM     76  F   UNL     1      -1.361   9.323  -8.662  1.00  0.00    -0.203 F 
ATOM     77  F   UNL     1       2.391  12.900 -10.363  1.00  0.00    -0.200 F 
ATOM     78  C   UNL     1       1.591  10.681 -10.266  1.00  0.00     0.200 A 
ATOM     79  F   UNL     1       0.742   8.480 -10.149  1.00  0.00    -0.200 F 
ATOM     80  F   UNL     1       2.617  10.261 -11.018  1.00  0.00    -0.200 F 
ENDBRANCH  46  70
BRANCH  58  81
ATOM     81  C   UNL     1      -6.182  15.482  -9.981  1.00  0.00     0.064 A 
ATOM     82  C   UNL     1      -6.785  14.752 -11.015  1.00  0.00     0.173 A 
ATOM     83  C   UNL     1      -6.107  16.876 -10.112  1.00  0.00     0.173 A 
ATOM     84  F   UNL     1      -6.862  13.415 -10.942  1.00  0.00    -0.203 F 
ATOM     85  C   UNL     1      -7.286  15.395 -12.143  1.00  0.00     0.198 A 
ATOM     86  C   UNL     1      -6.631  17.517 -11.231  1.00  0.00     0.198 A 
ATOM     87  F   UNL     1      -5.542  17.617  -9.147  1.00  0.00    -0.203 F 
ATOM     88  F   UNL     1      -7.829  14.677 -13.136  1.00  0.00    -0.200 F 
ATOM     89  C   UNL     1      -7.216  16.777 -12.246  1.00  0.00     0.200 A 
ATOM     90  F   UNL     1      -6.571  18.853 -11.325  1.00  0.00    -0.200 F 
ATOM     91  F   UNL     1      -7.708  17.395 -13.329  1.00  0.00    -0.200 F 
ENDBRANCH  58  81
ENDBRANCH  32  33
ENDBRANCH  24  27
ENDBRANCH  22  23
ENDBRANCH  21  22
ENDBRANCH   1  21
TORSDOF 13
