REMARK SMILES [NH3+][C@H](CS[C@@H]1CC(=O)N(c2ccc3ccccc3c2)C1=O)C(=O)NCCCCNC(=O)c1ccc(-c2c3nc(c(-c4c(F)c(F)c(F)c(F)c4F)c4ccc([nH]4)c(-c4c(F)c(F)c(F)c(F)c4F)c4nc(c(-c5c(F)c(F)c(F)c(F)c5F)c5ccc2[nH]5)C=C4)C=C3)cc1
REMARK SMILES IDX 25 1 24 2 22 3 23 4 2 6 1 7 3 11 4 12 5 13 6 14 20 15 7 16
REMARK SMILES IDX 9 17 21 18 8 19 10 20 11 21 19 22 12 23 18 24 13 25 17 26
REMARK SMILES IDX 14 27 16 28 15 29 26 30 27 31 28 32 29 33 30 34 31 36 32 37
REMARK SMILES IDX 33 38 94 39 34 40 93 41 35 42 36 43 37 44 87 45 38 46 92 47
REMARK SMILES IDX 86 48 88 49 39 50 91 51 85 52 84 53 40 55 72 56 52 57 71 58
REMARK SMILES IDX 53 59 56 60 70 61 89 62 54 63 55 64 69 66 90 67 57 68 41 69
REMARK SMILES IDX 42 70 50 71 43 72 44 73 48 74 51 75 45 76 46 77 49 78 47 79
REMARK SMILES IDX 73 80 74 81 82 82 75 83 76 84 80 85 83 86 77 87 78 88 81 89
REMARK SMILES IDX 79 90 58 91 59 92 67 93 60 94 61 95 65 96 68 97 62 98 63 99
REMARK SMILES IDX 66 100 64 101
REMARK H PARENT 24 5 1 8 1 9 1 10 29 35 88 54 56 65
REMARK Flexibility Score: inf
ROOT
ATOM      1  C   UNL     1      -1.594  -1.274   1.724  1.00  0.00     0.116 C 
ENDROOT
BRANCH   1   2
ATOM      2  N   UNL     1      -0.781  -1.161  -0.211  1.00  0.00    -0.351 N 
ATOM      3  C   UNL     1       0.069  -1.139  -1.309  1.00  0.00     0.279 C 
ATOM      4  O   UNL     1      -0.561  -0.984  -2.369  1.00  0.00    -0.268 OA
ATOM      5  H   UNL     1      -1.625  -1.017  -0.697  1.00  0.00     0.163 HD
BRANCH   3   6
ATOM      6  C   UNL     1       1.586  -1.172  -1.375  1.00  0.00     0.280 C 
BRANCH   6   7
ATOM      7  N   UNL     1       2.138  -2.513  -1.102  1.00  0.00    -0.347 N 
ATOM      8  H   UNL     1       1.701  -3.194  -1.723  1.00  0.00     0.345 HD
ATOM      9  H   UNL     1       1.950  -2.767  -0.132  1.00  0.00     0.345 HD
ATOM     10  H   UNL     1       3.145  -2.505  -1.262  1.00  0.00     0.345 HD
ENDBRANCH   6   7
BRANCH   6  11
ATOM     11  C   UNL     1       2.136  -0.043  -0.530  1.00  0.00     0.145 C 
BRANCH  11  12
ATOM     12  S   UNL     1       2.096  -0.559   1.190  1.00  0.00    -0.141 SA
BRANCH  12  13
ATOM     13  C   UNL     1       0.333  -1.039   1.321  1.00  0.00     0.146 C 
ATOM     14  C   UNL     1      -0.591  -2.770   0.745  1.00  0.00     0.125 C 
ATOM     15  C   UNL     1      -0.909   0.458   0.745  1.00  0.00     0.247 C 
ATOM     16  C   UNL     1      -2.400  -2.213   0.035  1.00  0.00     0.235 C 
ATOM     17  N   UNL     1      -2.431  -0.381   0.166  1.00  0.00    -0.250 N 
ATOM     18  O   UNL     1      -0.651   1.652   0.677  1.00  0.00    -0.273 OA
ATOM     19  O   UNL     1      -3.315  -2.924  -0.347  1.00  0.00    -0.274 OA
BRANCH  17  20
ATOM     20  C   UNL     1      -3.415   0.364  -0.553  1.00  0.00     0.052 A 
ATOM     21  C   UNL     1      -4.714  -0.100  -0.740  1.00  0.00     0.027 A 
ATOM     22  C   UNL     1      -3.006   1.528  -1.212  1.00  0.00     0.035 A 
ATOM     23  C   UNL     1      -5.599   0.617  -1.561  1.00  0.00     0.011 A 
ATOM     24  C   UNL     1      -3.852   2.213  -2.085  1.00  0.00    -0.016 A 
ATOM     25  C   UNL     1      -5.176   1.768  -2.257  1.00  0.00    -0.018 A 
ATOM     26  C   UNL     1      -3.369   3.309  -2.814  1.00  0.00     0.009 A 
ATOM     27  C   UNL     1      -6.007   2.476  -3.143  1.00  0.00     0.009 A 
ATOM     28  C   UNL     1      -4.197   3.981  -3.707  1.00  0.00     0.001 A 
ATOM     29  C   UNL     1      -5.517   3.572  -3.863  1.00  0.00     0.001 A 
ENDBRANCH  17  20
ENDBRANCH  12  13
ENDBRANCH  11  12
ENDBRANCH   6  11
ENDBRANCH   3   6
ENDBRANCH   1   2
BRANCH   1  30
ATOM     30  C   UNL     1      -1.824  -0.069   2.898  1.00  0.00     0.023 C 
BRANCH  30  31
ATOM     31  C   UNL     1      -3.262  -0.028   3.437  1.00  0.00     0.023 C 
BRANCH  31  32
ATOM     32  C   UNL     1      -3.809  -1.330   4.000  1.00  0.00     0.116 C 
BRANCH  32  33
ATOM     33  N   UNL     1      -2.953  -1.954   4.998  1.00  0.00    -0.352 N 
ATOM     34  C   UNL     1      -3.369  -2.683   6.090  1.00  0.00     0.251 C 
ATOM     35  H   UNL     1      -1.981  -1.843   4.882  1.00  0.00     0.163 HD
ATOM     36  O   UNL     1      -2.581  -3.112   6.920  1.00  0.00    -0.269 OA
BRANCH  34  37
ATOM     37  C   UNL     1      -4.819  -2.889   6.233  1.00  0.00     0.039 A 
ATOM     38  C   UNL     1      -5.487  -2.269   7.288  1.00  0.00     0.014 A 
ATOM     39  C   UNL     1      -5.514  -3.509   5.191  1.00  0.00     0.014 A 
ATOM     40  C   UNL     1      -6.879  -2.219   7.267  1.00  0.00     0.010 A 
ATOM     41  C   UNL     1      -6.892  -3.372   5.127  1.00  0.00     0.010 A 
ATOM     42  C   UNL     1      -7.588  -2.734   6.167  1.00  0.00    -0.014 A 
BRANCH  42  43
ATOM     43  C   UNL     1      -9.066  -2.644   6.098  1.00  0.00     0.031 A 
ATOM     44  C   UNL     1      -9.878  -3.908   6.079  1.00  0.00     0.074 A 
ATOM     45  C   UNL     1      -9.666  -1.442   6.000  1.00  0.00     0.049 A 
ATOM     46  N   UNL     1     -11.173  -4.059   5.977  1.00  0.00    -0.248 NA
ATOM     47  C   UNL     1      -9.131  -5.176   6.149  1.00  0.00     0.031 C 
ATOM     48  C   UNL     1      -8.978  -0.150   5.956  1.00  0.00     0.029 A 
ATOM     49  N   UNL     1     -10.995  -1.111   5.923  1.00  0.00    -0.354 N 
ATOM     50  C   UNL     1     -11.388  -5.429   5.950  1.00  0.00     0.074 A 
ATOM     51  C   UNL     1     -10.093  -6.068   5.977  1.00  0.00     0.031 C 
ATOM     52  C   UNL     1      -9.891   0.833   5.906  1.00  0.00     0.029 A 
ATOM     53  C   UNL     1     -11.225   0.243   5.876  1.00  0.00     0.049 A 
ATOM     54  H   UNL     1     -11.717  -1.780   5.903  1.00  0.00     0.167 HD
ATOM     55  C   UNL     1     -12.565  -6.097   5.937  1.00  0.00     0.037 A 
ATOM     56  C   UNL     1     -12.385   0.925   5.823  1.00  0.00     0.037 A 
ATOM     57  C   UNL     1     -13.850  -5.453   5.952  1.00  0.00     0.049 A 
ATOM     58  C   UNL     1     -13.681   0.158   5.814  1.00  0.00     0.074 A 
ATOM     59  C   UNL     1     -15.103  -6.034   6.009  1.00  0.00     0.029 A 
ATOM     60  N   UNL     1     -14.043  -4.080   5.910  1.00  0.00    -0.354 N 
ATOM     61  N   UNL     1     -13.877  -1.137   5.858  1.00  0.00    -0.248 NA
ATOM     62  C   UNL     1     -14.918   0.950   5.754  1.00  0.00     0.031 C 
ATOM     63  C   UNL     1     -16.057  -5.015   5.947  1.00  0.00     0.029 A 
ATOM     64  C   UNL     1     -15.398  -3.795   5.915  1.00  0.00     0.049 A 
ATOM     65  H   UNL     1     -13.324  -3.408   5.880  1.00  0.00     0.167 HD
ATOM     66  C   UNL     1     -15.254  -1.317   5.864  1.00  0.00     0.074 A 
ATOM     67  C   UNL     1     -15.845   0.005   5.832  1.00  0.00     0.031 C 
ATOM     68  C   UNL     1     -15.965  -2.471   5.894  1.00  0.00     0.037 A 
BRANCH  55  69
ATOM     69  C   UNL     1     -12.515  -7.596   5.915  1.00  0.00     0.064 A 
ATOM     70  C   UNL     1     -12.063  -8.337   7.018  1.00  0.00     0.173 A 
ATOM     71  C   UNL     1     -12.958  -8.304   4.787  1.00  0.00     0.173 A 
ATOM     72  F   UNL     1     -11.611  -7.708   8.114  1.00  0.00    -0.203 F 
ATOM     73  C   UNL     1     -12.033  -9.728   6.984  1.00  0.00     0.198 A 
ATOM     74  C   UNL     1     -12.959  -9.696   4.770  1.00  0.00     0.198 A 
ATOM     75  F   UNL     1     -13.399  -7.646   3.705  1.00  0.00    -0.203 F 
ATOM     76  F   UNL     1     -11.550 -10.412   8.031  1.00  0.00    -0.200 F 
ATOM     77  C   UNL     1     -12.490 -10.407   5.865  1.00  0.00     0.200 A 
ATOM     78  F   UNL     1     -13.412 -10.351   3.692  1.00  0.00    -0.200 F 
ATOM     79  F   UNL     1     -12.474 -11.746   5.839  1.00  0.00    -0.200 F 
ENDBRANCH  55  69
BRANCH  56  80
ATOM     80  C   UNL     1     -12.378   2.413   5.827  1.00  0.00     0.064 A 
ATOM     81  C   UNL     1     -12.846   3.128   6.939  1.00  0.00     0.173 A 
ATOM     82  C   UNL     1     -11.906   3.149   4.732  1.00  0.00     0.173 A 
ATOM     83  F   UNL     1     -13.326   2.470   8.004  1.00  0.00    -0.203 F 
ATOM     84  C   UNL     1     -12.858   4.522   6.948  1.00  0.00     0.198 A 
ATOM     85  C   UNL     1     -11.893   4.543   4.752  1.00  0.00     0.198 A 
ATOM     86  F   UNL     1     -11.443   2.514   3.645  1.00  0.00    -0.203 F 
ATOM     87  F   UNL     1     -13.351   5.178   8.007  1.00  0.00    -0.200 F 
ATOM     88  C   UNL     1     -12.376   5.228   5.857  1.00  0.00     0.200 A 
ATOM     89  F   UNL     1     -11.412   5.222   3.702  1.00  0.00    -0.200 F 
ATOM     90  F   UNL     1     -12.381   6.568   5.868  1.00  0.00    -0.200 F 
ENDBRANCH  56  80
BRANCH  68  91
ATOM     91  C   UNL     1     -17.461  -2.360   5.935  1.00  0.00     0.064 A 
ATOM     92  C   UNL     1     -18.201  -1.935   4.822  1.00  0.00     0.173 A 
ATOM     93  C   UNL     1     -18.166  -2.740   7.087  1.00  0.00     0.173 A 
ATOM     94  F   UNL     1     -17.573  -1.550   3.701  1.00  0.00    -0.203 F 
ATOM     95  C   UNL     1     -19.590  -1.870   4.870  1.00  0.00     0.198 A 
ATOM     96  C   UNL     1     -19.557  -2.707   7.120  1.00  0.00     0.198 A 
ATOM     97  F   UNL     1     -17.506  -3.165   8.175  1.00  0.00    -0.203 F 
ATOM     98  F   UNL     1     -20.275  -1.414   3.812  1.00  0.00    -0.200 F 
ATOM     99  C   UNL     1     -20.267  -2.264   6.015  1.00  0.00     0.200 A 
ATOM    100  F   UNL     1     -20.209  -3.107   8.220  1.00  0.00    -0.200 F 
ATOM    101  F   UNL     1     -21.606  -2.213   6.055  1.00  0.00    -0.200 F 
ENDBRANCH  68  91
ENDBRANCH  42  43
ENDBRANCH  34  37
ENDBRANCH  32  33
ENDBRANCH  31  32
ENDBRANCH  30  31
ENDBRANCH   1  30
TORSDOF 16
