REMARK SMILES Cc1c(NC(=O)[C@@H]2CC=CC[C@@H]2C(=O)NCCCCNC(=O)c2ccc(-c3c4nc(c(-c5c(F)c(F)c(F)c(F)c5F)c5ccc([nH]5)c(-c5c(F)c(F)c(F)c(F)c5F)c5nc(c(-c6c(F)c(F)c(F)c(F)c6F)c6ccc3[nH]6)C=C5)C=C4)cc2)cccc1C(=O)N1CCOCC1
REMARK SMILES IDX 17 1 16 2 15 3 13 4 14 5 12 7 7 8 8 9 9 10 11 11 10 12 5 13
REMARK SMILES IDX 4 14 6 16 3 17 1 18 2 19 89 20 86 21 88 22 87 23 90 24 91 25
REMARK SMILES IDX 92 26 93 27 97 28 94 29 96 30 95 31 18 32 19 33 20 34 21 35
REMARK SMILES IDX 22 37 23 38 24 39 85 40 25 41 84 42 26 43 27 44 28 45 78 46
REMARK SMILES IDX 29 47 83 48 77 49 79 50 30 51 82 52 76 53 75 54 31 56 63 57
REMARK SMILES IDX 43 58 62 59 44 60 47 61 61 62 80 63 45 64 46 65 60 67 81 68
REMARK SMILES IDX 48 69 32 70 33 71 41 72 34 73 35 74 39 75 42 76 36 77 37 78
REMARK SMILES IDX 40 79 38 80 64 81 65 82 73 83 66 84 67 85 71 86 74 87 68 88
REMARK SMILES IDX 69 89 72 90 70 91 49 92 50 93 58 94 51 95 52 96 56 97 59 98
REMARK SMILES IDX 53 99 54 100 57 101 55 102
REMARK H PARENT 15 6 4 15 20 36 79 55 47 66
REMARK Flexibility Score: inf
ROOT
ATOM      1  C   UNL     1      -4.163  -4.321   2.372  1.00  0.00     0.023 C 
ENDROOT
BRANCH   1   2
ATOM      2  C   UNL     1      -3.928  -4.580   0.872  1.00  0.00     0.116 C 
BRANCH   2   3
ATOM      3  N   UNL     1      -4.173  -3.413   0.041  1.00  0.00    -0.356 N 
ATOM      4  C   UNL     1      -3.465  -2.583  -0.754  1.00  0.00     0.224 C 
ATOM      5  O   UNL     1      -4.197  -1.806  -1.394  1.00  0.00    -0.275 OA
ATOM      6  H   UNL     1      -5.122  -3.154   0.065  1.00  0.00     0.163 HD
BRANCH   4   7
ATOM      7  C   UNL     1      -1.939  -2.495  -1.001  1.00  0.00     0.095 C 
ATOM      8  C   UNL     1      -0.874  -3.271  -0.193  1.00  0.00     0.095 C 
ATOM      9  C   UNL     1      -0.953  -2.898   1.287  1.00  0.00     0.041 C 
ATOM     10  C   UNL     1      -1.006  -1.408   1.485  1.00  0.00    -0.030 C 
ATOM     11  C   UNL     1      -1.543  -0.993  -0.924  1.00  0.00     0.041 C 
ATOM     12  C   UNL     1      -1.236  -0.548   0.482  1.00  0.00    -0.030 C 
BRANCH   8  13
ATOM     13  C   UNL     1      -0.871  -4.738  -0.559  1.00  0.00     0.228 C 
ATOM     14  N   UNL     1      -0.036  -5.662  -0.029  1.00  0.00    -0.326 N 
ATOM     15  H   UNL     1      -0.285  -6.569  -0.320  1.00  0.00     0.169 HD
ATOM     16  O   UNL     1      -1.677  -5.182  -1.388  1.00  0.00    -0.274 OA
BRANCH  14  17
ATOM     17  C   UNL     1       1.088  -5.697   0.822  1.00  0.00     0.044 A 
ATOM     18  C   UNL     1       0.282  -7.976   1.443  1.00  0.00     0.047 C 
ATOM     19  C   UNL     1       1.362  -6.943   1.458  1.00  0.00    -0.015 A 
ATOM     20  C   UNL     1       2.544  -7.145   2.196  1.00  0.00     0.045 A 
ATOM     21  C   UNL     1       1.938  -4.624   1.054  1.00  0.00     0.026 A 
ATOM     22  C   UNL     1       3.359  -6.032   2.437  1.00  0.00     0.014 A 
ATOM     23  C   UNL     1       3.047  -4.782   1.892  1.00  0.00     0.003 A 
BRANCH  20  24
ATOM     24  C   UNL     1       2.858  -8.409   2.942  1.00  0.00     0.254 C 
ATOM     25  O   UNL     1       3.338  -8.287   4.069  1.00  0.00    -0.269 OA
ATOM     26  N   UNL     1       2.524  -9.666   2.432  1.00  0.00    -0.334 N 
ATOM     27  C   UNL     1       2.595 -10.101   1.030  1.00  0.00     0.148 C 
ATOM     28  C   UNL     1       2.333 -10.765   3.380  1.00  0.00     0.148 C 
ATOM     29  C   UNL     1       1.469 -11.097   0.672  1.00  0.00     0.181 C 
ATOM     30  C   UNL     1       1.126 -11.609   2.959  1.00  0.00     0.181 C 
ATOM     31  O   UNL     1       1.322 -12.145   1.641  1.00  0.00    -0.378 OA
ENDBRANCH  20  24
ENDBRANCH  14  17
ENDBRANCH   8  13
ENDBRANCH   4   7
ENDBRANCH   2   3
ENDBRANCH   1   2
BRANCH   1  32
ATOM     32  C   UNL     1      -5.611  -4.075   2.795  1.00  0.00     0.023 C 
BRANCH  32  33
ATOM     33  C   UNL     1      -6.497  -5.309   2.740  1.00  0.00     0.116 C 
BRANCH  33  34
ATOM     34  N   UNL     1      -6.612  -6.064   3.985  1.00  0.00    -0.352 N 
ATOM     35  C   UNL     1      -7.295  -7.254   4.204  1.00  0.00     0.251 C 
ATOM     36  H   UNL     1      -6.148  -5.683   4.766  1.00  0.00     0.163 HD
ATOM     37  O   UNL     1      -7.348  -7.757   5.322  1.00  0.00    -0.269 OA
BRANCH  35  38
ATOM     38  C   UNL     1      -7.839  -7.983   3.032  1.00  0.00     0.039 A 
ATOM     39  C   UNL     1      -7.422  -9.302   2.833  1.00  0.00     0.014 A 
ATOM     40  C   UNL     1      -8.469  -7.283   2.009  1.00  0.00     0.014 A 
ATOM     41  C   UNL     1      -7.360  -9.801   1.534  1.00  0.00     0.010 A 
ATOM     42  C   UNL     1      -8.294  -7.722   0.713  1.00  0.00     0.010 A 
ATOM     43  C   UNL     1      -7.675  -8.952   0.473  1.00  0.00    -0.014 A 
BRANCH  43  44
ATOM     44  C   UNL     1      -7.354  -9.260  -0.915  1.00  0.00     0.031 A 
ATOM     45  C   UNL     1      -8.402  -9.785  -1.803  1.00  0.00     0.074 A 
ATOM     46  C   UNL     1      -6.113  -9.056  -1.410  1.00  0.00     0.049 A 
ATOM     47  N   UNL     1      -8.188 -10.606  -2.775  1.00  0.00    -0.248 NA
ATOM     48  C   UNL     1      -9.803  -9.432  -1.633  1.00  0.00     0.031 C 
ATOM     49  C   UNL     1      -5.677  -9.180  -2.799  1.00  0.00     0.029 A 
ATOM     50  N   UNL     1      -4.920  -8.935  -0.688  1.00  0.00    -0.354 N 
ATOM     51  C   UNL     1      -9.334 -10.647  -3.533  1.00  0.00     0.074 A 
ATOM     52  C   UNL     1     -10.332  -9.969  -2.735  1.00  0.00     0.031 C 
ATOM     53  C   UNL     1      -4.373  -9.503  -2.811  1.00  0.00     0.029 A 
ATOM     54  C   UNL     1      -3.971  -9.682  -1.430  1.00  0.00     0.049 A 
ATOM     55  H   UNL     1      -4.772  -8.440   0.150  1.00  0.00     0.167 HD
ATOM     56  C   UNL     1      -9.268 -11.106  -4.817  1.00  0.00     0.037 A 
ATOM     57  C   UNL     1      -3.331 -10.762  -0.895  1.00  0.00     0.037 A 
ATOM     58  C   UNL     1      -7.923 -11.585  -5.143  1.00  0.00     0.049 A 
ATOM     59  C   UNL     1      -3.476 -12.010  -1.714  1.00  0.00     0.074 A 
ATOM     60  C   UNL     1      -6.858 -10.990  -5.801  1.00  0.00     0.029 A 
ATOM     61  N   UNL     1      -7.408 -12.708  -4.500  1.00  0.00    -0.354 N 
ATOM     62  N   UNL     1      -4.418 -12.157  -2.601  1.00  0.00    -0.248 NA
ATOM     63  C   UNL     1      -2.626 -13.190  -1.591  1.00  0.00     0.031 C 
ATOM     64  C   UNL     1      -5.689 -11.732  -5.511  1.00  0.00     0.029 A 
ATOM     65  C   UNL     1      -6.039 -12.785  -4.685  1.00  0.00     0.049 A 
ATOM     66  H   UNL     1      -7.942 -13.356  -3.987  1.00  0.00     0.167 HD
ATOM     67  C   UNL     1      -4.338 -13.408  -3.142  1.00  0.00     0.074 A 
ATOM     68  C   UNL     1      -3.189 -14.013  -2.494  1.00  0.00     0.031 C 
ATOM     69  C   UNL     1      -5.244 -13.837  -4.068  1.00  0.00     0.037 A 
BRANCH  56  70
ATOM     70  C   UNL     1     -10.325 -10.791  -5.856  1.00  0.00     0.064 A 
ATOM     71  C   UNL     1      -9.980 -10.604  -7.212  1.00  0.00     0.173 A 
ATOM     72  C   UNL     1     -11.687 -10.588  -5.567  1.00  0.00     0.173 A 
ATOM     73  F   UNL     1      -8.755 -10.886  -7.671  1.00  0.00    -0.203 F 
ATOM     74  C   UNL     1     -10.887 -10.118  -8.159  1.00  0.00     0.198 A 
ATOM     75  C   UNL     1     -12.579 -10.041  -6.495  1.00  0.00     0.198 A 
ATOM     76  F   UNL     1     -12.211 -10.970  -4.396  1.00  0.00    -0.203 F 
ATOM     77  F   UNL     1     -10.495  -9.952  -9.430  1.00  0.00    -0.200 F 
ATOM     78  C   UNL     1     -12.175  -9.792  -7.790  1.00  0.00     0.200 A 
ATOM     79  F   UNL     1     -13.836  -9.760  -6.123  1.00  0.00    -0.200 F 
ATOM     80  F   UNL     1     -13.029  -9.276  -8.683  1.00  0.00    -0.200 F 
ENDBRANCH  56  70
BRANCH  57  81
ATOM     81  C   UNL     1      -3.223 -10.676   0.585  1.00  0.00     0.064 A 
ATOM     82  C   UNL     1      -2.682  -9.477   1.085  1.00  0.00     0.173 A 
ATOM     83  C   UNL     1      -3.979 -11.454   1.461  1.00  0.00     0.173 A 
ATOM     84  F   UNL     1      -1.992  -8.682   0.250  1.00  0.00    -0.203 F 
ATOM     85  C   UNL     1      -3.025  -8.984   2.338  1.00  0.00     0.198 A 
ATOM     86  C   UNL     1      -4.283 -10.979   2.742  1.00  0.00     0.198 A 
ATOM     87  F   UNL     1      -4.534 -12.601   1.048  1.00  0.00    -0.203 F 
ATOM     88  F   UNL     1      -2.655  -7.746   2.695  1.00  0.00    -0.200 F 
ATOM     89  C   UNL     1      -3.845  -9.728   3.159  1.00  0.00     0.200 A 
ATOM     90  F   UNL     1      -5.104 -11.682   3.534  1.00  0.00    -0.200 F 
ATOM     91  F   UNL     1      -4.264  -9.209   4.321  1.00  0.00    -0.200 F 
ENDBRANCH  57  81
BRANCH  69  92
ATOM     92  C   UNL     1      -5.370 -15.253  -4.549  1.00  0.00     0.064 A 
ATOM     93  C   UNL     1      -5.088 -16.371  -3.746  1.00  0.00     0.173 A 
ATOM     94  C   UNL     1      -5.907 -15.531  -5.825  1.00  0.00     0.173 A 
ATOM     95  F   UNL     1      -4.702 -16.231  -2.470  1.00  0.00    -0.203 F 
ATOM     96  C   UNL     1      -5.244 -17.675  -4.219  1.00  0.00     0.198 A 
ATOM     97  C   UNL     1      -6.114 -16.834  -6.274  1.00  0.00     0.198 A 
ATOM     98  F   UNL     1      -6.263 -14.546  -6.663  1.00  0.00    -0.203 F 
ATOM     99  F   UNL     1      -4.908 -18.709  -3.434  1.00  0.00    -0.200 F 
ATOM    100  C   UNL     1      -5.761 -17.906  -5.479  1.00  0.00     0.200 A 
ATOM    101  F   UNL     1      -6.670 -17.044  -7.476  1.00  0.00    -0.200 F 
ATOM    102  F   UNL     1      -5.938 -19.159  -5.918  1.00  0.00    -0.200 F 
ENDBRANCH  69  92
ENDBRANCH  43  44
ENDBRANCH  35  38
ENDBRANCH  33  34
ENDBRANCH  32  33
ENDBRANCH   1  32
TORSDOF 14
