REMARK SMILES O=C(NCCCCNC(=O)C1CCN(C(=O)COc2ccc(Cl)cc2Cl)CC1)c1ccc(-c2c3nc(c(-c4c(F)c(F)c(F)c(F)c4F)c4ccc([nH]4)c(-c4c(F)c(F)c(F)c(F)c4F)c4nc(c(-c5c(F)c(F)c(F)c(F)c5F)c5ccc2[nH]5)C=C4)C=C3)cc1
REMARK SMILES IDX 6 1 5 2 4 3 3 4 1 5 2 6 29 8 30 9 91 10 31 11 90 12 32 13
REMARK SMILES IDX 33 14 34 15 84 16 35 17 89 18 83 19 85 20 36 21 88 22 82 23
REMARK SMILES IDX 81 24 37 26 69 27 49 28 68 29 50 30 53 31 67 32 86 33 51 34
REMARK SMILES IDX 52 35 66 37 87 38 54 39 38 40 39 41 47 42 40 43 41 44 45 45
REMARK SMILES IDX 48 46 42 47 43 48 46 49 44 50 70 51 71 52 79 53 72 54 73 55
REMARK SMILES IDX 77 56 80 57 74 58 75 59 78 60 76 61 55 62 56 63 64 64 57 65
REMARK SMILES IDX 58 66 62 67 65 68 59 69 60 70 63 71 61 72 7 73 8 74 9 75
REMARK SMILES IDX 10 77 11 78 12 79 28 80 13 81 27 82 14 83 15 84 16 85 17 86
REMARK SMILES IDX 18 87 19 88 20 89 25 90 21 91 24 92 26 93 22 94 23 95
REMARK H PARENT 3 7 85 25 53 36 8 76
REMARK Flexibility Score: inf
ROOT
ATOM      1  C   UNL     1       4.336  -3.664  -1.201  1.00  0.00     0.023 C 
ENDROOT
BRANCH   1   2
ATOM      2  C   UNL     1       4.833  -2.636  -0.190  1.00  0.00     0.023 C 
BRANCH   2   3
ATOM      3  C   UNL     1       4.536  -1.188  -0.546  1.00  0.00     0.116 C 
BRANCH   3   4
ATOM      4  N   UNL     1       3.115  -0.914  -0.705  1.00  0.00    -0.352 N 
ATOM      5  O   UNL     1       1.142   0.115  -0.315  1.00  0.00    -0.269 OA
ATOM      6  C   UNL     1       2.360   0.102  -0.167  1.00  0.00     0.251 C 
ATOM      7  H   UNL     1       2.624  -1.546  -1.278  1.00  0.00     0.163 HD
BRANCH   6   8
ATOM      8  C   UNL     1       3.021   1.157   0.629  1.00  0.00     0.039 A 
ATOM      9  C   UNL     1       4.208   1.741   0.184  1.00  0.00     0.014 A 
ATOM     10  C   UNL     1       2.468   1.533   1.856  1.00  0.00     0.014 A 
ATOM     11  C   UNL     1       4.935   2.554   1.044  1.00  0.00     0.010 A 
ATOM     12  C   UNL     1       3.155   2.430   2.679  1.00  0.00     0.010 A 
ATOM     13  C   UNL     1       4.420   2.905   2.302  1.00  0.00    -0.014 A 
BRANCH  13  14
ATOM     14  C   UNL     1       5.226   3.778   3.193  1.00  0.00     0.031 A 
ATOM     15  C   UNL     1       5.755   3.270   4.506  1.00  0.00     0.074 A 
ATOM     16  C   UNL     1       5.530   5.023   2.778  1.00  0.00     0.049 A 
ATOM     17  N   UNL     1       6.522   3.879   5.378  1.00  0.00    -0.248 NA
ATOM     18  C   UNL     1       5.369   1.908   4.902  1.00  0.00     0.031 C 
ATOM     19  C   UNL     1       5.066   5.629   1.528  1.00  0.00     0.029 A 
ATOM     20  N   UNL     1       6.322   5.989   3.343  1.00  0.00    -0.354 N 
ATOM     21  C   UNL     1       6.684   2.990   6.432  1.00  0.00     0.074 A 
ATOM     22  C   UNL     1       5.920   1.805   6.104  1.00  0.00     0.031 C 
ATOM     23  C   UNL     1       5.630   6.837   1.391  1.00  0.00     0.029 A 
ATOM     24  C   UNL     1       6.447   7.114   2.566  1.00  0.00     0.049 A 
ATOM     25  H   UNL     1       6.757   5.886   4.220  1.00  0.00     0.167 HD
ATOM     26  C   UNL     1       7.409   3.146   7.566  1.00  0.00     0.037 A 
ATOM     27  C   UNL     1       7.144   8.246   2.777  1.00  0.00     0.037 A 
ATOM     28  C   UNL     1       8.197   4.312   7.873  1.00  0.00     0.049 A 
ATOM     29  C   UNL     1       7.949   8.385   4.037  1.00  0.00     0.074 A 
ATOM     30  C   UNL     1       8.999   4.547   8.977  1.00  0.00     0.029 A 
ATOM     31  N   UNL     1       8.283   5.440   7.070  1.00  0.00    -0.354 N 
ATOM     32  N   UNL     1       8.117   7.524   5.009  1.00  0.00    -0.248 NA
ATOM     33  C   UNL     1       8.660   9.656   4.226  1.00  0.00     0.031 C 
ATOM     34  C   UNL     1       9.541   5.832   8.860  1.00  0.00     0.029 A 
ATOM     35  C   UNL     1       9.113   6.380   7.662  1.00  0.00     0.049 A 
ATOM     36  H   UNL     1       7.823   5.556   6.208  1.00  0.00     0.167 HD
ATOM     37  C   UNL     1       8.969   8.137   5.916  1.00  0.00     0.074 A 
ATOM     38  C   UNL     1       9.296   9.437   5.368  1.00  0.00     0.031 C 
ATOM     39  C   UNL     1       9.435   7.665   7.098  1.00  0.00     0.037 A 
BRANCH  26  40
ATOM     40  C   UNL     1       7.372   2.036   8.576  1.00  0.00     0.064 A 
ATOM     41  C   UNL     1       8.035   0.819   8.362  1.00  0.00     0.173 A 
ATOM     42  C   UNL     1       6.702   2.211   9.797  1.00  0.00     0.173 A 
ATOM     43  F   UNL     1       8.681   0.596   7.207  1.00  0.00    -0.203 F 
ATOM     44  C   UNL     1       8.010  -0.190   9.323  1.00  0.00     0.198 A 
ATOM     45  C   UNL     1       6.699   1.211  10.765  1.00  0.00     0.198 A 
ATOM     46  F   UNL     1       6.056   3.359  10.054  1.00  0.00    -0.203 F 
ATOM     47  F   UNL     1       8.616  -1.360   9.080  1.00  0.00    -0.200 F 
ATOM     48  C   UNL     1       7.348   0.009  10.525  1.00  0.00     0.200 A 
ATOM     49  F   UNL     1       6.069   1.410  11.931  1.00  0.00    -0.200 F 
ATOM     50  F   UNL     1       7.330  -0.960  11.451  1.00  0.00    -0.200 F 
ENDBRANCH  26  40
BRANCH  27  51
ATOM     51  C   UNL     1       7.122   9.323   1.757  1.00  0.00     0.064 A 
ATOM     52  C   UNL     1       8.260   9.612   0.992  1.00  0.00     0.173 A 
ATOM     53  C   UNL     1       5.962  10.072   1.512  1.00  0.00     0.173 A 
ATOM     54  F   UNL     1       9.398   8.933   1.202  1.00  0.00    -0.203 F 
ATOM     55  C   UNL     1       8.242  10.618   0.029  1.00  0.00     0.198 A 
ATOM     56  C   UNL     1       5.936  11.058   0.530  1.00  0.00     0.198 A 
ATOM     57  F   UNL     1       4.845   9.828   2.214  1.00  0.00    -0.203 F 
ATOM     58  F   UNL     1       9.354  10.898  -0.664  1.00  0.00    -0.200 F 
ATOM     59  C   UNL     1       7.078  11.335  -0.206  1.00  0.00     0.200 A 
ATOM     60  F   UNL     1       4.806  11.737   0.294  1.00  0.00    -0.200 F 
ATOM     61  F   UNL     1       7.059  12.296  -1.140  1.00  0.00    -0.200 F 
ENDBRANCH  27  51
BRANCH  39  62
ATOM     62  C   UNL     1      10.380   8.549   7.857  1.00  0.00     0.064 A 
ATOM     63  C   UNL     1       9.936   9.702   8.520  1.00  0.00     0.173 A 
ATOM     64  C   UNL     1      11.743   8.228   7.934  1.00  0.00     0.173 A 
ATOM     65  F   UNL     1       8.644  10.060   8.460  1.00  0.00    -0.203 F 
ATOM     66  C   UNL     1      10.829  10.519   9.208  1.00  0.00     0.198 A 
ATOM     67  C   UNL     1      12.628   9.031   8.646  1.00  0.00     0.198 A 
ATOM     68  F   UNL     1      12.215   7.132   7.320  1.00  0.00    -0.203 F 
ATOM     69  F   UNL     1      10.392  11.643   9.791  1.00  0.00    -0.200 F 
ATOM     70  C   UNL     1      12.172  10.180   9.275  1.00  0.00     0.200 A 
ATOM     71  F   UNL     1      13.925   8.698   8.717  1.00  0.00    -0.200 F 
ATOM     72  F   UNL     1      13.031  10.968   9.938  1.00  0.00    -0.200 F 
ENDBRANCH  39  62
ENDBRANCH  13  14
ENDBRANCH   6   8
ENDBRANCH   3   4
ENDBRANCH   2   3
ENDBRANCH   1   2
BRANCH   1  73
ATOM     73  C   UNL     1       4.866  -3.486  -2.624  1.00  0.00     0.116 C 
BRANCH  73  74
ATOM     74  N   UNL     1       6.307  -3.656  -2.714  1.00  0.00    -0.356 N 
ATOM     75  C   UNL     1       7.032  -4.653  -3.306  1.00  0.00     0.223 C 
ATOM     76  H   UNL     1       6.841  -2.948  -2.285  1.00  0.00     0.163 HD
ATOM     77  O   UNL     1       8.258  -4.556  -3.320  1.00  0.00    -0.275 OA
BRANCH  75  78
ATOM     78  C   UNL     1       6.299  -5.852  -3.901  1.00  0.00     0.082 C 
ATOM     79  C   UNL     1       5.726  -6.733  -2.780  1.00  0.00     0.035 C 
ATOM     80  C   UNL     1       7.187  -6.668  -4.864  1.00  0.00     0.035 C 
ATOM     81  C   UNL     1       6.812  -7.564  -2.105  1.00  0.00     0.120 C 
ATOM     82  C   UNL     1       8.141  -7.633  -4.154  1.00  0.00     0.120 C 
ATOM     83  N   UNL     1       7.433  -8.389  -3.124  1.00  0.00    -0.340 N 
ATOM     84  C   UNL     1       7.143  -9.745  -3.148  1.00  0.00     0.260 C 
ATOM     85  O   UNL     1       6.615 -10.316  -2.189  1.00  0.00    -0.271 OA
BRANCH  84  86
ATOM     86  C   UNL     1       7.416 -10.532  -4.433  1.00  0.00     0.329 C 
BRANCH  86  87
ATOM     87  O   UNL     1       6.881  -9.985  -5.633  1.00  0.00    -0.482 OA
BRANCH  87  88
ATOM     88  C   UNL     1       5.551 -10.220  -5.868  1.00  0.00     0.138 A 
ATOM     89  C   UNL     1       4.555  -9.905  -4.939  1.00  0.00     0.049 A 
ATOM     90  C   UNL     1       5.171 -10.660  -7.145  1.00  0.00     0.084 A 
ATOM     91  C   UNL     1       3.204 -10.025  -5.277  1.00  0.00     0.024 A 
ATOM     92  C   UNL     1       3.821 -10.795  -7.482  1.00  0.00     0.045 A 
ATOM     93  Cl  UNL     1       6.354 -11.059  -8.340  1.00  0.00    -0.080 Cl
ATOM     94  C   UNL     1       2.844 -10.467  -6.547  1.00  0.00     0.042 A 
ATOM     95  Cl  UNL     1       1.180 -10.588  -6.964  1.00  0.00    -0.084 Cl
ENDBRANCH  87  88
ENDBRANCH  86  87
ENDBRANCH  84  86
ENDBRANCH  75  78
ENDBRANCH  73  74
ENDBRANCH   1  73
TORSDOF 14
