REMARK SMILES COC[C@@H](C)N(C)c1nc(C(C)C)c(C(=O)NCCCCNC(=O)c2ccc(-c3c4nc(c(-c5c(F)c(F)c(F)c(F)c5F)c5ccc([nH]5)c(-c5c(F)c(F)c(F)c(F)c5F)c5nc(c(-c6c(F)c(F)c(F)c(F)c6F)c6ccc3[nH]6)C=C5)C=C4)cc2)s1
REMARK SMILES IDX 18 1 17 2 15 3 16 4 14 6 8 7 9 8 88 9 10 10 6 11 7 12 4 13
REMARK SMILES IDX 5 14 3 15 2 16 1 17 11 18 12 19 13 20 19 21 20 22 21 23
REMARK SMILES IDX 22 24 23 25 24 27 25 28 26 29 87 30 27 31 86 32 28 33 29 34
REMARK SMILES IDX 30 35 80 36 31 37 85 38 79 39 81 40 32 41 84 42 78 43 77 44
REMARK SMILES IDX 33 46 65 47 45 48 64 49 46 50 49 51 63 52 82 53 47 54 48 55
REMARK SMILES IDX 62 57 83 58 50 59 34 60 35 61 43 62 36 63 37 64 41 65 44 66
REMARK SMILES IDX 38 67 39 68 42 69 40 70 66 71 67 72 75 73 68 74 69 75 73 76
REMARK SMILES IDX 76 77 70 78 71 79 74 80 72 81 51 82 52 83 60 84 53 85 54 86
REMARK SMILES IDX 58 87 61 88 55 89 56 90 59 91 57 92
REMARK H PARENT 17 5 22 26 81 45 49 56
REMARK Flexibility Score: inf
ROOT
ATOM      1  C   UNL     1       7.786   3.522   3.903  1.00  0.00     0.116 C 
ENDROOT
BRANCH   1   2
ATOM      2  N   UNL     1       6.979   3.445   5.087  1.00  0.00    -0.351 N 
ATOM      3  C   UNL     1       5.660   3.221   5.373  1.00  0.00     0.263 C 
ATOM      4  O   UNL     1       5.477   3.254   6.600  1.00  0.00    -0.268 OA
ATOM      5  H   UNL     1       7.510   3.592   5.903  1.00  0.00     0.163 HD
BRANCH   3   6
ATOM      6  C   UNL     1       4.566   2.949   4.435  1.00  0.00     0.117 A 
ATOM      7  C   UNL     1       2.198   2.451   3.803  1.00  0.00     0.186 A 
ATOM      8  N   UNL     1       3.006   2.389   2.784  1.00  0.00    -0.224 NA
ATOM      9  S   UNL     1       3.008   2.812   5.258  1.00  0.00    -0.091 S 
ATOM     10  C   UNL     1       4.301   2.801   3.071  1.00  0.00     0.069 A 
BRANCH   7  11
ATOM     11  N   UNL     1       0.859   2.232   3.685  1.00  0.00    -0.346 N 
ATOM     12  C   UNL     1      -0.077   2.805   4.635  1.00  0.00     0.146 C 
BRANCH  11  13
ATOM     13  C   UNL     1       0.340   1.359   2.611  1.00  0.00     0.107 C 
ATOM     14  C   UNL     1       0.832  -0.075   2.836  1.00  0.00     0.033 C 
BRANCH  13  15
ATOM     15  C   UNL     1       0.639   1.905   1.193  1.00  0.00     0.184 C 
BRANCH  15  16
ATOM     16  O   UNL     1      -0.058   1.206   0.152  1.00  0.00    -0.383 OA
ATOM     17  C   UNL     1       0.705   0.157  -0.435  1.00  0.00     0.194 C 
ENDBRANCH  15  16
ENDBRANCH  13  15
ENDBRANCH  11  13
ENDBRANCH   7  11
BRANCH  10  18
ATOM     18  C   UNL     1       5.062   3.019   1.789  1.00  0.00     0.034 C 
ATOM     19  C   UNL     1       5.508   4.470   1.619  1.00  0.00     0.014 C 
ATOM     20  C   UNL     1       6.065   1.917   1.449  1.00  0.00     0.014 C 
ENDBRANCH  10  18
ENDBRANCH   3   6
ENDBRANCH   1   2
BRANCH   1  21
ATOM     21  C   UNL     1       8.236   4.951   3.606  1.00  0.00     0.023 C 
BRANCH  21  22
ATOM     22  C   UNL     1       9.717   5.207   3.842  1.00  0.00     0.023 C 
BRANCH  22  23
ATOM     23  C   UNL     1      10.660   4.318   3.039  1.00  0.00     0.116 C 
BRANCH  23  24
ATOM     24  N   UNL     1      10.460   4.359   1.595  1.00  0.00    -0.352 N 
ATOM     25  C   UNL     1      11.422   4.284   0.611  1.00  0.00     0.251 C 
ATOM     26  H   UNL     1       9.529   4.451   1.288  1.00  0.00     0.163 HD
ATOM     27  O   UNL     1      11.128   4.366  -0.575  1.00  0.00    -0.269 OA
BRANCH  25  28
ATOM     28  C   UNL     1      12.833   4.164   1.028  1.00  0.00     0.039 A 
ATOM     29  C   UNL     1      13.736   5.152   0.634  1.00  0.00     0.014 A 
ATOM     30  C   UNL     1      13.209   3.167   1.931  1.00  0.00     0.014 A 
ATOM     31  C   UNL     1      14.994   5.205   1.236  1.00  0.00     0.010 A 
ATOM     32  C   UNL     1      14.427   3.275   2.591  1.00  0.00     0.010 A 
ATOM     33  C   UNL     1      15.324   4.304   2.263  1.00  0.00    -0.014 A 
BRANCH  33  34
ATOM     34  C   UNL     1      16.593   4.426   3.024  1.00  0.00     0.031 A 
ATOM     35  C   UNL     1      17.590   3.303   2.996  1.00  0.00     0.074 A 
ATOM     36  C   UNL     1      16.806   5.502   3.808  1.00  0.00     0.049 A 
ATOM     37  N   UNL     1      18.694   3.158   3.683  1.00  0.00    -0.248 NA
ATOM     38  C   UNL     1      17.284   2.174   2.103  1.00  0.00     0.031 C 
ATOM     39  C   UNL     1      15.889   6.632   3.971  1.00  0.00     0.029 A 
ATOM     40  N   UNL     1      17.862   5.815   4.629  1.00  0.00    -0.354 N 
ATOM     41  C   UNL     1      19.200   1.917   3.322  1.00  0.00     0.074 A 
ATOM     42  C   UNL     1      18.254   1.324   2.401  1.00  0.00     0.031 C 
ATOM     43  C   UNL     1      16.434   7.525   4.814  1.00  0.00     0.029 A 
ATOM     44  C   UNL     1      17.720   7.016   5.279  1.00  0.00     0.049 A 
ATOM     45  H   UNL     1      18.648   5.232   4.740  1.00  0.00     0.167 HD
ATOM     46  C   UNL     1      20.363   1.335   3.699  1.00  0.00     0.037 A 
ATOM     47  C   UNL     1      18.535   7.634   6.155  1.00  0.00     0.037 A 
ATOM     48  C   UNL     1      21.322   1.941   4.582  1.00  0.00     0.049 A 
ATOM     49  C   UNL     1      19.835   6.978   6.536  1.00  0.00     0.074 A 
ATOM     50  C   UNL     1      22.548   1.451   4.995  1.00  0.00     0.029 A 
ATOM     51  N   UNL     1      21.165   3.184   5.178  1.00  0.00    -0.354 N 
ATOM     52  N   UNL     1      20.324   5.825   6.150  1.00  0.00    -0.248 NA
ATOM     53  C   UNL     1      20.700   7.713   7.470  1.00  0.00     0.031 C 
ATOM     54  C   UNL     1      23.126   2.389   5.857  1.00  0.00     0.029 A 
ATOM     55  C   UNL     1      22.273   3.477   5.955  1.00  0.00     0.049 A 
ATOM     56  H   UNL     1      20.382   3.770   5.066  1.00  0.00     0.167 HD
ATOM     57  C   UNL     1      21.561   5.710   6.767  1.00  0.00     0.074 A 
ATOM     58  C   UNL     1      21.756   6.915   7.545  1.00  0.00     0.031 C 
ATOM     59  C   UNL     1      22.456   4.694   6.700  1.00  0.00     0.037 A 
BRANCH  46  60
ATOM     60  C   UNL     1      20.668  -0.019   3.133  1.00  0.00     0.064 A 
ATOM     61  C   UNL     1      21.004  -0.185   1.780  1.00  0.00     0.173 A 
ATOM     62  C   UNL     1      20.644  -1.159   3.949  1.00  0.00     0.173 A 
ATOM     63  F   UNL     1      21.023   0.874   0.956  1.00  0.00    -0.203 F 
ATOM     64  C   UNL     1      21.275  -1.446   1.259  1.00  0.00     0.198 A 
ATOM     65  C   UNL     1      20.944  -2.416   3.430  1.00  0.00     0.198 A 
ATOM     66  F   UNL     1      20.330  -1.055   5.249  1.00  0.00    -0.203 F 
ATOM     67  F   UNL     1      21.543  -1.585  -0.047  1.00  0.00    -0.200 F 
ATOM     68  C   UNL     1      21.252  -2.559   2.085  1.00  0.00     0.200 A 
ATOM     69  F   UNL     1      20.930  -3.491   4.230  1.00  0.00    -0.200 F 
ATOM     70  F   UNL     1      21.516  -3.773   1.582  1.00  0.00    -0.200 F 
ENDBRANCH  46  60
BRANCH  47  71
ATOM     71  C   UNL     1      18.171   8.964   6.709  1.00  0.00     0.064 A 
ATOM     72  C   UNL     1      18.873  10.116   6.324  1.00  0.00     0.173 A 
ATOM     73  C   UNL     1      17.140   9.111   7.646  1.00  0.00     0.173 A 
ATOM     74  F   UNL     1      19.882  10.021   5.445  1.00  0.00    -0.203 F 
ATOM     75  C   UNL     1      18.574  11.360   6.875  1.00  0.00     0.198 A 
ATOM     76  C   UNL     1      16.825  10.360   8.179  1.00  0.00     0.198 A 
ATOM     77  F   UNL     1      16.436   8.041   8.044  1.00  0.00    -0.203 F 
ATOM     78  F   UNL     1      19.294  12.435   6.527  1.00  0.00    -0.200 F 
ATOM     79  C   UNL     1      17.549  11.482   7.800  1.00  0.00     0.200 A 
ATOM     80  F   UNL     1      15.827  10.476   9.065  1.00  0.00    -0.200 F 
ATOM     81  F   UNL     1      17.265  12.677   8.334  1.00  0.00    -0.200 F 
ENDBRANCH  47  71
BRANCH  59  82
ATOM     82  C   UNL     1      23.743   4.864   7.449  1.00  0.00     0.064 A 
ATOM     83  C   UNL     1      23.800   4.748   8.845  1.00  0.00     0.173 A 
ATOM     84  C   UNL     1      24.939   5.101   6.756  1.00  0.00     0.173 A 
ATOM     85  F   UNL     1      22.680   4.537   9.551  1.00  0.00    -0.203 F 
ATOM     86  C   UNL     1      25.008   4.885   9.523  1.00  0.00     0.198 A 
ATOM     87  C   UNL     1      26.148   5.213   7.435  1.00  0.00     0.198 A 
ATOM     88  F   UNL     1      24.934   5.215   5.419  1.00  0.00    -0.203 F 
ATOM     89  F   UNL     1      25.036   4.810  10.861  1.00  0.00    -0.200 F 
ATOM     90  C   UNL     1      26.181   5.110   8.817  1.00  0.00     0.200 A 
ATOM     91  F   UNL     1      27.282   5.421   6.751  1.00  0.00    -0.200 F 
ATOM     92  F   UNL     1      27.344   5.235   9.472  1.00  0.00    -0.200 F 
ENDBRANCH  59  82
ENDBRANCH  33  34
ENDBRANCH  25  28
ENDBRANCH  23  24
ENDBRANCH  22  23
ENDBRANCH  21  22
ENDBRANCH   1  21
TORSDOF 16
