REMARK SMILES Cc1cc(C(=O)NCCCCNC(=O)c2ccc(-c3c4nc(c(-c5c(F)c(F)c(F)c(F)c5F)c5ccc([nH]5)c(-c5c(F)c(F)c(F)c(F)c5F)c5nc(c(-c6c(F)c(F)c(F)c(F)c6F)c6ccc3[nH]6)C=C5)C=C4)cc2)ccc1NS(=O)(=O)c1ccc(C#N)cc1C
REMARK SMILES IDX 8 1 7 2 5 3 6 4 4 6 1 7 2 8 3 9 80 10 79 11 78 12 81 13
REMARK SMILES IDX 82 15 83 16 84 17 85 18 86 19 92 20 87 21 91 22 93 23 88 24
REMARK SMILES IDX 89 25 90 26 9 27 10 28 11 29 12 30 13 31 14 33 15 34 16 35
REMARK SMILES IDX 77 36 17 37 76 38 18 39 19 40 20 41 70 42 21 43 75 44 69 45
REMARK SMILES IDX 71 46 22 47 74 48 68 49 67 50 23 52 55 53 35 54 54 55 36 56
REMARK SMILES IDX 39 57 53 58 72 59 37 60 38 61 52 63 73 64 40 65 24 66 25 67
REMARK SMILES IDX 33 68 26 69 27 70 31 71 34 72 28 73 29 74 32 75 30 76 56 77
REMARK SMILES IDX 57 78 65 79 58 80 59 81 63 82 66 83 60 84 61 85 64 86 62 87
REMARK SMILES IDX 41 88 42 89 50 90 43 91 44 92 48 93 51 94 45 95 46 96 49 97
REMARK SMILES IDX 47 98
REMARK H PARENT 7 5 81 14 12 32 71 51 39 62
REMARK Flexibility Score: inf
ROOT
ATOM      1  C   UNL     1      -3.889  -1.431  -0.018  1.00  0.00     0.116 C 
ENDROOT
BRANCH   1   2
ATOM      2  N   UNL     1      -2.934  -2.518  -0.157  1.00  0.00    -0.352 N 
ATOM      3  C   UNL     1      -1.567  -2.513  -0.321  1.00  0.00     0.251 C 
ATOM      4  O   UNL     1      -0.967  -3.583  -0.230  1.00  0.00    -0.269 OA
ATOM      5  H   UNL     1      -3.336  -3.417  -0.131  1.00  0.00     0.163 HD
BRANCH   3   6
ATOM      6  C   UNL     1      -0.793  -1.256  -0.513  1.00  0.00     0.040 A 
ATOM      7  C   UNL     1       2.665   0.019   0.350  1.00  0.00     0.046 C 
ATOM      8  C   UNL     1       1.196   0.041   0.026  1.00  0.00    -0.026 A 
ATOM      9  C   UNL     1       0.506  -1.186  -0.006  1.00  0.00     0.019 A 
ATOM     10  C   UNL     1       0.524   1.213  -0.358  1.00  0.00     0.052 A 
ATOM     11  C   UNL     1      -0.621   1.084  -1.131  1.00  0.00     0.028 A 
ATOM     12  C   UNL     1      -1.274  -0.147  -1.202  1.00  0.00     0.016 A 
BRANCH  10  13
ATOM     13  N   UNL     1       0.780   2.403   0.390  1.00  0.00    -0.279 N 
ATOM     14  H   UNL     1       1.417   2.314   1.136  1.00  0.00     0.180 HD
BRANCH  13  15
ATOM     15  S   UNL     1       0.133   3.928   0.159  1.00  0.00     0.262 S 
ATOM     16  O   UNL     1       0.686   4.733   1.228  1.00  0.00    -0.201 OA
ATOM     17  O   UNL     1       0.333   4.276  -1.232  1.00  0.00    -0.201 OA
BRANCH  15  18
ATOM     18  C   UNL     1      -1.651   3.902   0.428  1.00  0.00     0.090 A 
ATOM     19  C   UNL     1      -2.304   2.719   0.791  1.00  0.00     0.024 A 
ATOM     20  C   UNL     1      -2.409   5.010  -0.010  1.00  0.00    -0.029 A 
ATOM     21  C   UNL     1      -3.658   2.550   0.471  1.00  0.00     0.021 A 
ATOM     22  C   UNL     1      -3.771   4.825  -0.311  1.00  0.00     0.024 A 
ATOM     23  C   UNL     1      -1.863   6.408  -0.120  1.00  0.00     0.046 C 
ATOM     24  C   UNL     1      -4.365   3.573  -0.163  1.00  0.00     0.052 A 
BRANCH  24  25
ATOM     25  C   UNL     1      -5.639   3.306  -0.768  1.00  0.00     0.099 C 
ATOM     26  N   UNL     1      -6.606   3.042  -1.345  1.00  0.00    -0.192 NA
ENDBRANCH  24  25
ENDBRANCH  15  18
ENDBRANCH  13  15
ENDBRANCH  10  13
ENDBRANCH   3   6
ENDBRANCH   1   2
BRANCH   1  27
ATOM     27  C   UNL     1      -4.619  -1.101  -1.327  1.00  0.00     0.023 C 
BRANCH  27  28
ATOM     28  C   UNL     1      -5.540  -2.195  -1.847  1.00  0.00     0.023 C 
BRANCH  28  29
ATOM     29  C   UNL     1      -6.798  -2.383  -1.030  1.00  0.00     0.116 C 
BRANCH  29  30
ATOM     30  N   UNL     1      -7.860  -1.436  -1.328  1.00  0.00    -0.352 N 
ATOM     31  C   UNL     1      -9.209  -1.499  -1.020  1.00  0.00     0.251 C 
ATOM     32  H   UNL     1      -7.579  -0.632  -1.823  1.00  0.00     0.163 HD
ATOM     33  O   UNL     1      -9.990  -0.731  -1.572  1.00  0.00    -0.269 OA
BRANCH  31  34
ATOM     34  C   UNL     1      -9.687  -2.321   0.130  1.00  0.00     0.039 A 
ATOM     35  C   UNL     1     -10.617  -1.684   0.969  1.00  0.00     0.014 A 
ATOM     36  C   UNL     1      -8.893  -3.337   0.633  1.00  0.00     0.014 A 
ATOM     37  C   UNL     1     -10.456  -1.778   2.340  1.00  0.00     0.010 A 
ATOM     38  C   UNL     1      -8.575  -3.265   1.957  1.00  0.00     0.010 A 
ATOM     39  C   UNL     1      -9.322  -2.429   2.788  1.00  0.00    -0.014 A 
BRANCH  39  40
ATOM     40  C   UNL     1      -8.816  -2.382   4.135  1.00  0.00     0.031 A 
ATOM     41  C   UNL     1      -9.140  -3.546   4.968  1.00  0.00     0.074 A 
ATOM     42  C   UNL     1      -7.866  -1.450   4.370  1.00  0.00     0.049 A 
ATOM     43  N   UNL     1      -8.989  -3.602   6.237  1.00  0.00    -0.248 NA
ATOM     44  C   UNL     1      -9.733  -4.768   4.416  1.00  0.00     0.031 C 
ATOM     45  C   UNL     1      -6.846  -1.401   5.409  1.00  0.00     0.029 A 
ATOM     46  N   UNL     1      -7.750  -0.203   3.727  1.00  0.00    -0.354 N 
ATOM     47  C   UNL     1      -9.088  -4.932   6.596  1.00  0.00     0.074 A 
ATOM     48  C   UNL     1      -9.706  -5.580   5.473  1.00  0.00     0.031 C 
ATOM     49  C   UNL     1      -6.437  -0.125   5.556  1.00  0.00     0.029 A 
ATOM     50  C   UNL     1      -7.306   0.695   4.723  1.00  0.00     0.049 A 
ATOM     51  H   UNL     1      -7.939   0.001   2.782  1.00  0.00     0.167 HD
ATOM     52  C   UNL     1      -8.444  -5.320   7.733  1.00  0.00     0.037 A 
ATOM     53  C   UNL     1      -8.173   1.637   5.207  1.00  0.00     0.037 A 
ATOM     54  C   UNL     1      -7.901  -4.129   8.393  1.00  0.00     0.049 A 
ATOM     55  C   UNL     1      -8.527   1.383   6.654  1.00  0.00     0.074 A 
ATOM     56  C   UNL     1      -6.642  -3.552   8.373  1.00  0.00     0.029 A 
ATOM     57  N   UNL     1      -8.783  -3.145   8.829  1.00  0.00    -0.354 N 
ATOM     58  N   UNL     1      -8.536   0.199   7.204  1.00  0.00    -0.248 NA
ATOM     59  C   UNL     1      -8.841   2.449   7.599  1.00  0.00     0.031 C 
ATOM     60  C   UNL     1      -6.791  -2.181   8.715  1.00  0.00     0.029 A 
ATOM     61  C   UNL     1      -8.133  -1.933   8.961  1.00  0.00     0.049 A 
ATOM     62  H   UNL     1      -9.738  -3.292   9.018  1.00  0.00     0.167 HD
ATOM     63  C   UNL     1      -8.815   0.322   8.539  1.00  0.00     0.074 A 
ATOM     64  C   UNL     1      -9.001   1.749   8.736  1.00  0.00     0.031 C 
ATOM     65  C   UNL     1      -8.861  -0.748   9.388  1.00  0.00     0.037 A 
BRANCH  52  66
ATOM     66  C   UNL     1      -8.028  -6.729   8.109  1.00  0.00     0.064 A 
ATOM     67  C   UNL     1      -7.068  -6.918   9.131  1.00  0.00     0.173 A 
ATOM     68  C   UNL     1      -8.454  -7.922   7.492  1.00  0.00     0.173 A 
ATOM     69  F   UNL     1      -6.609  -5.890   9.858  1.00  0.00    -0.203 F 
ATOM     70  C   UNL     1      -6.533  -8.169   9.449  1.00  0.00     0.198 A 
ATOM     71  C   UNL     1      -7.914  -9.175   7.807  1.00  0.00     0.198 A 
ATOM     72  F   UNL     1      -9.424  -7.948   6.577  1.00  0.00    -0.203 F 
ATOM     73  F   UNL     1      -5.603  -8.267  10.410  1.00  0.00    -0.200 F 
ATOM     74  C   UNL     1      -6.946  -9.298   8.778  1.00  0.00     0.200 A 
ATOM     75  F   UNL     1      -8.345 -10.264   7.153  1.00  0.00    -0.200 F 
ATOM     76  F   UNL     1      -6.428 -10.497   9.075  1.00  0.00    -0.200 F 
ENDBRANCH  52  66
BRANCH  53  77
ATOM     77  C   UNL     1      -9.115   2.120   4.151  1.00  0.00     0.064 A 
ATOM     78  C   UNL     1      -8.554   2.756   3.024  1.00  0.00     0.173 A 
ATOM     79  C   UNL     1     -10.403   1.587   4.009  1.00  0.00     0.173 A 
ATOM     80  F   UNL     1      -7.329   3.302   3.104  1.00  0.00    -0.203 F 
ATOM     81  C   UNL     1      -9.174   2.703   1.778  1.00  0.00     0.198 A 
ATOM     82  C   UNL     1     -11.031   1.561   2.759  1.00  0.00     0.198 A 
ATOM     83  F   UNL     1     -11.002   0.975   5.039  1.00  0.00    -0.203 F 
ATOM     84  F   UNL     1      -8.547   3.202   0.706  1.00  0.00    -0.200 F 
ATOM     85  C   UNL     1     -10.393   2.067   1.637  1.00  0.00     0.200 A 
ATOM     86  F   UNL     1     -12.215   0.945   2.620  1.00  0.00    -0.200 F 
ATOM     87  F   UNL     1     -10.935   1.907   0.421  1.00  0.00    -0.200 F 
ENDBRANCH  53  77
BRANCH  65  88
ATOM     88  C   UNL     1      -9.523  -0.756  10.746  1.00  0.00     0.064 A 
ATOM     89  C   UNL     1     -10.534   0.141  11.124  1.00  0.00     0.173 A 
ATOM     90  C   UNL     1      -9.265  -1.801  11.670  1.00  0.00     0.173 A 
ATOM     91  F   UNL     1     -10.988   1.083  10.287  1.00  0.00    -0.203 F 
ATOM     92  C   UNL     1     -11.167   0.061  12.366  1.00  0.00     0.198 A 
ATOM     93  C   UNL     1      -9.963  -1.929  12.867  1.00  0.00     0.198 A 
ATOM     94  F   UNL     1      -8.353  -2.753  11.428  1.00  0.00    -0.203 F 
ATOM     95  F   UNL     1     -12.072   0.989  12.706  1.00  0.00    -0.200 F 
ATOM     96  C   UNL     1     -10.892  -0.980  13.231  1.00  0.00     0.200 A 
ATOM     97  F   UNL     1      -9.740  -2.991  13.654  1.00  0.00    -0.200 F 
ATOM     98  F   UNL     1     -11.538  -1.081  14.399  1.00  0.00    -0.200 F 
ENDBRANCH  65  88
ENDBRANCH  39  40
ENDBRANCH  31  34
ENDBRANCH  29  30
ENDBRANCH  28  29
ENDBRANCH  27  28
ENDBRANCH   1  27
TORSDOF 15
