REMARK SMILES O=C(CSc1cc(-c2ccccc2)nc(-c2ccccc2F)n1)NCCCCNC(=O)c1ccc(-c2c3nc(c(-c4c(F)c(F)c(F)c(F)c4F)c4ccc([nH]4)c(-c4c(F)c(F)c(F)c(F)c4F)c4nc(c(-c5c(F)c(F)c(F)c(F)c5F)c5ccc2[nH]5)C=C4)C=C3)cc1
REMARK SMILES IDX 26 1 25 2 24 3 1 4 2 5 3 7 4 8 5 9 6 10 23 11 7 12 15 13
REMARK SMILES IDX 14 14 8 15 9 16 13 17 10 18 12 19 11 20 16 21 17 22 21 23
REMARK SMILES IDX 18 24 20 25 22 26 19 27 27 28 28 29 29 30 30 31 31 33 32 34
REMARK SMILES IDX 33 35 94 36 34 37 93 38 35 39 36 40 37 41 87 42 38 43 92 44
REMARK SMILES IDX 86 45 88 46 39 47 91 48 85 49 84 50 40 52 72 53 52 54 71 55
REMARK SMILES IDX 53 56 56 57 70 58 89 59 54 60 55 61 69 63 90 64 57 65 41 66
REMARK SMILES IDX 42 67 50 68 43 69 44 70 48 71 51 72 45 73 46 74 49 75 47 76
REMARK SMILES IDX 73 77 74 78 82 79 75 80 76 81 80 82 83 83 77 84 78 85 81 86
REMARK SMILES IDX 79 87 58 88 59 89 67 90 60 91 61 92 65 93 68 94 62 95 63 96
REMARK SMILES IDX 66 97 64 98
REMARK H PARENT 24 6 29 32 88 51 56 62
REMARK Flexibility Score: inf
ROOT
ATOM      1  C   UNL     1       2.494   0.428   3.320  1.00  0.00     0.023 C 
ENDROOT
BRANCH   1   2
ATOM      2  C   UNL     1       2.131   1.118   2.005  1.00  0.00     0.116 C 
BRANCH   2   3
ATOM      3  N   UNL     1       2.819   0.531   0.871  1.00  0.00    -0.355 N 
ATOM      4  O   UNL     1       0.929  -0.014  -0.323  1.00  0.00    -0.274 OA
ATOM      5  C   UNL     1       2.152   0.004  -0.214  1.00  0.00     0.230 C 
ATOM      6  H   UNL     1       3.803   0.509   0.877  1.00  0.00     0.163 HD
BRANCH   5   7
ATOM      7  C   UNL     1       3.047  -0.633  -1.261  1.00  0.00     0.176 C 
BRANCH   7   8
ATOM      8  S   UNL     1       4.217   0.554  -1.987  1.00  0.00    -0.096 SA
BRANCH   8   9
ATOM      9  C   UNL     1       3.128   1.811  -2.629  1.00  0.00     0.101 A 
ATOM     10  C   UNL     1       1.961   1.527  -3.301  1.00  0.00     0.064 A 
ATOM     11  N   UNL     1       3.568   3.066  -2.440  1.00  0.00    -0.222 NA
ATOM     12  C   UNL     1       1.243   2.608  -3.775  1.00  0.00     0.075 A 
ATOM     13  C   UNL     1       2.796   4.056  -2.919  1.00  0.00     0.163 A 
ATOM     14  N   UNL     1       1.657   3.878  -3.604  1.00  0.00    -0.228 NA
BRANCH  12  15
ATOM     15  C   UNL     1      -0.020   2.441  -4.506  1.00  0.00     0.000 A 
ATOM     16  C   UNL     1      -0.185   2.982  -5.792  1.00  0.00     0.010 A 
ATOM     17  C   UNL     1      -1.101   1.743  -3.939  1.00  0.00     0.010 A 
ATOM     18  C   UNL     1      -1.382   2.820  -6.494  1.00  0.00     0.001 A 
ATOM     19  C   UNL     1      -2.302   1.589  -4.636  1.00  0.00     0.001 A 
ATOM     20  C   UNL     1      -2.441   2.124  -5.915  1.00  0.00     0.000 A 
ENDBRANCH  12  15
BRANCH  13  21
ATOM     21  C   UNL     1       3.250   5.421  -2.684  1.00  0.00     0.055 A 
ATOM     22  C   UNL     1       4.536   5.838  -3.075  1.00  0.00     0.015 A 
ATOM     23  C   UNL     1       2.434   6.353  -2.033  1.00  0.00     0.134 A 
ATOM     24  C   UNL     1       4.980   7.141  -2.824  1.00  0.00     0.001 A 
ATOM     25  C   UNL     1       2.873   7.651  -1.771  1.00  0.00     0.040 A 
ATOM     26  F   UNL     1       1.212   6.003  -1.603  1.00  0.00    -0.206 F 
ATOM     27  C   UNL     1       4.148   8.047  -2.168  1.00  0.00     0.003 A 
ENDBRANCH  13  21
ENDBRANCH   8   9
ENDBRANCH   7   8
ENDBRANCH   5   7
ENDBRANCH   2   3
ENDBRANCH   1   2
BRANCH   1  28
ATOM     28  C   UNL     1       3.975   0.494   3.704  1.00  0.00     0.023 C 
BRANCH  28  29
ATOM     29  C   UNL     1       4.562   1.897   3.824  1.00  0.00     0.116 C 
BRANCH  29  30
ATOM     30  N   UNL     1       3.960   2.678   4.894  1.00  0.00    -0.352 N 
ATOM     31  C   UNL     1       4.559   3.383   5.910  1.00  0.00     0.251 C 
ATOM     32  H   UNL     1       2.976   2.705   4.889  1.00  0.00     0.163 HD
ATOM     33  O   UNL     1       3.872   3.873   6.803  1.00  0.00    -0.269 OA
BRANCH  31  34
ATOM     34  C   UNL     1       6.032   3.528   5.961  1.00  0.00     0.039 A 
ATOM     35  C   UNL     1       6.681   3.367   7.189  1.00  0.00     0.014 A 
ATOM     36  C   UNL     1       6.775   3.827   4.816  1.00  0.00     0.014 A 
ATOM     37  C   UNL     1       8.076   3.430   7.253  1.00  0.00     0.010 A 
ATOM     38  C   UNL     1       8.168   3.812   4.867  1.00  0.00     0.010 A 
ATOM     39  C   UNL     1       8.835   3.609   6.086  1.00  0.00    -0.014 A 
BRANCH  39  40
ATOM     40  C   UNL     1      10.322   3.573   6.119  1.00  0.00     0.031 A 
ATOM     41  C   UNL     1      11.123   4.786   5.731  1.00  0.00     0.074 A 
ATOM     42  C   UNL     1      10.954   2.426   6.437  1.00  0.00     0.049 A 
ATOM     43  N   UNL     1      12.422   4.926   5.634  1.00  0.00    -0.248 NA
ATOM     44  C   UNL     1      10.364   5.997   5.383  1.00  0.00     0.031 C 
ATOM     45  C   UNL     1      10.295   1.168   6.791  1.00  0.00     0.029 A 
ATOM     46  N   UNL     1      12.294   2.128   6.504  1.00  0.00    -0.354 N 
ATOM     47  C   UNL     1      12.632   6.228   5.202  1.00  0.00     0.074 A 
ATOM     48  C   UNL     1      11.328   6.822   5.004  1.00  0.00     0.031 C 
ATOM     49  C   UNL     1      11.229   0.243   7.062  1.00  0.00     0.029 A 
ATOM     50  C   UNL     1      12.552   0.825   6.857  1.00  0.00     0.049 A 
ATOM     51  H   UNL     1      13.002   2.786   6.316  1.00  0.00     0.167 HD
ATOM     52  C   UNL     1      13.806   6.877   5.008  1.00  0.00     0.037 A 
ATOM     53  C   UNL     1      13.722   0.171   6.990  1.00  0.00     0.037 A 
ATOM     54  C   UNL     1      15.103   6.290   5.224  1.00  0.00     0.049 A 
ATOM     55  C   UNL     1      15.011   0.909   6.745  1.00  0.00     0.074 A 
ATOM     56  C   UNL     1      16.348   6.885   5.115  1.00  0.00     0.029 A 
ATOM     57  N   UNL     1      15.324   4.969   5.587  1.00  0.00    -0.354 N 
ATOM     58  N   UNL     1      15.197   2.162   6.408  1.00  0.00    -0.248 NA
ATOM     59  C   UNL     1      16.254   0.141   6.905  1.00  0.00     0.031 C 
ATOM     60  C   UNL     1      17.323   5.910   5.352  1.00  0.00     0.029 A 
ATOM     61  C   UNL     1      16.686   4.723   5.674  1.00  0.00     0.049 A 
ATOM     62  H   UNL     1      14.618   4.304   5.756  1.00  0.00     0.167 HD
ATOM     63  C   UNL     1      16.573   2.341   6.350  1.00  0.00     0.074 A 
ATOM     64  C   UNL     1      17.174   1.072   6.700  1.00  0.00     0.031 C 
ATOM     65  C   UNL     1      17.274   3.458   6.034  1.00  0.00     0.037 A 
BRANCH  52  66
ATOM     66  C   UNL     1      13.746   8.301   4.532  1.00  0.00     0.064 A 
ATOM     67  C   UNL     1      13.269   9.335   5.352  1.00  0.00     0.173 A 
ATOM     68  C   UNL     1      14.213   8.644   3.254  1.00  0.00     0.173 A 
ATOM     69  F   UNL     1      12.802   9.062   6.580  1.00  0.00    -0.203 F 
ATOM     70  C   UNL     1      13.233  10.652   4.900  1.00  0.00     0.198 A 
ATOM     71  C   UNL     1      14.208   9.967   2.818  1.00  0.00     0.198 A 
ATOM     72  F   UNL     1      14.688   7.698   2.430  1.00  0.00    -0.203 F 
ATOM     73  F   UNL     1      12.724  11.614   5.683  1.00  0.00    -0.200 F 
ATOM     74  C   UNL     1      13.710  10.968   3.637  1.00  0.00     0.200 A 
ATOM     75  F   UNL     1      14.685  10.272   1.603  1.00  0.00    -0.200 F 
ATOM     76  F   UNL     1      13.684  12.237   3.207  1.00  0.00    -0.200 F 
ENDBRANCH  52  66
BRANCH  53  77
ATOM     77  C   UNL     1      13.733  -1.262   7.392  1.00  0.00     0.064 A 
ATOM     78  C   UNL     1      14.243  -1.656   8.638  1.00  0.00     0.173 A 
ATOM     79  C   UNL     1      13.255  -2.266   6.538  1.00  0.00     0.173 A 
ATOM     80  F   UNL     1      14.733  -0.735   9.482  1.00  0.00    -0.203 F 
ATOM     81  C   UNL     1      14.297  -2.999   9.003  1.00  0.00     0.198 A 
ATOM     82  C   UNL     1      13.280  -3.607   6.917  1.00  0.00     0.198 A 
ATOM     83  F   UNL     1      12.754  -1.944   5.336  1.00  0.00    -0.203 F 
ATOM     84  F   UNL     1      14.840  -3.351  10.176  1.00  0.00    -0.200 F 
ATOM     85  C   UNL     1      13.810  -3.973   8.144  1.00  0.00     0.200 A 
ATOM     86  F   UNL     1      12.794  -4.543   6.091  1.00  0.00    -0.200 F 
ATOM     87  F   UNL     1      13.861  -5.265   8.496  1.00  0.00    -0.200 F 
ENDBRANCH  53  77
BRANCH  65  88
ATOM     88  C   UNL     1      18.773   3.374   6.096  1.00  0.00     0.064 A 
ATOM     89  C   UNL     1      19.513   2.632   5.163  1.00  0.00     0.173 A 
ATOM     90  C   UNL     1      19.481   4.079   7.082  1.00  0.00     0.173 A 
ATOM     91  F   UNL     1      18.885   1.928   4.210  1.00  0.00    -0.203 F 
ATOM     92  C   UNL     1      20.903   2.575   5.234  1.00  0.00     0.198 A 
ATOM     93  C   UNL     1      20.872   4.049   7.128  1.00  0.00     0.198 A 
ATOM     94  F   UNL     1      18.824   4.811   7.995  1.00  0.00    -0.203 F 
ATOM     95  F   UNL     1      21.585   1.817   4.364  1.00  0.00    -0.200 F 
ATOM     96  C   UNL     1      21.581   3.290   6.209  1.00  0.00     0.200 A 
ATOM     97  F   UNL     1      21.526   4.754   8.061  1.00  0.00    -0.200 F 
ATOM     98  F   UNL     1      22.919   3.241   6.269  1.00  0.00    -0.200 F 
ENDBRANCH  65  88
ENDBRANCH  39  40
ENDBRANCH  31  34
ENDBRANCH  29  30
ENDBRANCH  28  29
ENDBRANCH   1  28
TORSDOF 15
