REMARK SMILES CC(C)C[C@H](NC(=O)[C@@H](NC(=O)[C@H](C)NC(=O)CNC(=O)OCc1ccccc1)C(C)C)C(=O)NCCCCNC(=O)c1ccc(-c2c3nc(c(-c4c(F)c(F)c(F)c(F)c4F)c4ccc([nH]4)c(-c4c(F)c(F)c(F)c(F)c4F)c4nc(c(-c5c(F)c(F)c(F)c(F)c5F)c5ccc2[nH]5)C=C4)C=C3)cc1
REMARK SMILES IDX 6 1 7 2 8 3 5 5 4 6 2 7 1 8 3 9 33 10 34 11 35 12 36 14
REMARK SMILES IDX 37 15 38 16 39 17 40 18 41 19 42 21 43 22 44 23 105 24 45 25
REMARK SMILES IDX 104 26 46 27 47 28 48 29 98 30 49 31 103 32 97 33 99 34
REMARK SMILES IDX 50 35 102 36 96 37 95 38 51 40 83 41 63 42 82 43 64 44 67 45
REMARK SMILES IDX 81 46 100 47 65 48 66 49 80 51 101 52 68 53 52 54 53 55
REMARK SMILES IDX 61 56 54 57 55 58 59 59 62 60 56 61 57 62 60 63 58 64 84 65
REMARK SMILES IDX 85 66 93 67 86 68 87 69 91 70 94 71 88 72 89 73 92 74 90 75
REMARK SMILES IDX 69 76 70 77 78 78 71 79 72 80 76 81 79 82 73 83 74 84 77 85
REMARK SMILES IDX 75 86 9 87 10 88 11 89 12 91 13 92 14 93 15 94 16 95 17 97
REMARK SMILES IDX 18 98 19 99 20 100 21 102 22 103 23 104 24 105 25 106 29 107
REMARK SMILES IDX 26 108 28 109 27 110 30 111 31 112 32 113
REMARK H PARENT 6 4 35 13 40 20 99 39 67 50 10 90 15 96 19 101
REMARK Flexibility Score: inf
ROOT
ATOM      1  N   UNL     1      -1.072  -1.270   2.730  1.00  0.00    -0.343 N 
ATOM      2  C   UNL     1      -1.996  -2.196   2.413  1.00  0.00     0.243 C 
ATOM      3  O   UNL     1      -3.074  -2.048   3.012  1.00  0.00    -0.273 OA
ATOM      4  H   UNL     1      -1.381  -0.743   3.502  1.00  0.00     0.164 HD
ENDROOT
BRANCH   1   5
ATOM      5  C   UNL     1       0.261  -0.785   2.295  1.00  0.00     0.171 C 
BRANCH   5   6
ATOM      6  C   UNL     1       0.495  -0.740   0.782  1.00  0.00     0.038 C 
BRANCH   6   7
ATOM      7  C   UNL     1       1.507   0.237   0.158  1.00  0.00    -0.015 C 
ATOM      8  C   UNL     1       2.929  -0.014   0.655  1.00  0.00     0.007 C 
ATOM      9  C   UNL     1       1.466   0.062  -1.369  1.00  0.00     0.007 C 
ENDBRANCH   6   7
ENDBRANCH   5   6
BRANCH   5  10
ATOM     10  C   UNL     1       0.392   0.630   2.872  1.00  0.00     0.242 C 
ATOM     11  O   UNL     1       1.319   0.952   3.613  1.00  0.00    -0.273 OA
ATOM     12  N   UNL     1      -0.516   1.577   2.495  1.00  0.00    -0.354 N 
ATOM     13  H   UNL     1      -0.375   2.475   2.874  1.00  0.00     0.163 HD
BRANCH  12  14
ATOM     14  C   UNL     1      -1.663   1.441   1.611  1.00  0.00     0.116 C 
BRANCH  14  15
ATOM     15  C   UNL     1      -2.883   2.123   2.202  1.00  0.00     0.023 C 
BRANCH  15  16
ATOM     16  C   UNL     1      -2.715   3.632   2.313  1.00  0.00     0.023 C 
BRANCH  16  17
ATOM     17  C   UNL     1      -2.266   4.287   1.015  1.00  0.00     0.116 C 
BRANCH  17  18
ATOM     18  N   UNL     1      -3.203   4.041  -0.074  1.00  0.00    -0.352 N 
ATOM     19  C   UNL     1      -3.848   4.968  -0.853  1.00  0.00     0.251 C 
ATOM     20  H   UNL     1      -3.396   3.096  -0.274  1.00  0.00     0.163 HD
ATOM     21  O   UNL     1      -4.770   4.651  -1.591  1.00  0.00    -0.269 OA
BRANCH  19  22
ATOM     22  C   UNL     1      -3.409   6.369  -0.749  1.00  0.00     0.039 A 
ATOM     23  C   UNL     1      -4.346   7.355  -0.448  1.00  0.00     0.014 A 
ATOM     24  C   UNL     1      -2.046   6.669  -0.837  1.00  0.00     0.014 A 
ATOM     25  C   UNL     1      -3.903   8.648  -0.176  1.00  0.00     0.010 A 
ATOM     26  C   UNL     1      -1.602   7.929  -0.467  1.00  0.00     0.010 A 
ATOM     27  C   UNL     1      -2.527   8.934  -0.144  1.00  0.00    -0.014 A 
BRANCH  27  28
ATOM     28  C   UNL     1      -2.033  10.286   0.208  1.00  0.00     0.031 A 
ATOM     29  C   UNL     1      -1.248  11.077  -0.800  1.00  0.00     0.074 A 
ATOM     30  C   UNL     1      -2.243  10.775   1.445  1.00  0.00     0.049 A 
ATOM     31  N   UNL     1      -0.685  12.252  -0.674  1.00  0.00    -0.248 NA
ATOM     32  C   UNL     1      -1.040  10.452  -2.116  1.00  0.00     0.031 C 
ATOM     33  C   UNL     1      -2.944  10.077   2.524  1.00  0.00     0.029 A 
ATOM     34  N   UNL     1      -1.880  11.973   2.007  1.00  0.00    -0.354 N 
ATOM     35  C   UNL     1      -0.054  12.498  -1.885  1.00  0.00     0.074 A 
ATOM     36  C   UNL     1      -0.239  11.323  -2.708  1.00  0.00     0.031 C 
ATOM     37  C   UNL     1      -2.988  10.870   3.606  1.00  0.00     0.029 A 
ATOM     38  C   UNL     1      -2.279  12.113   3.313  1.00  0.00     0.049 A 
ATOM     39  H   UNL     1      -1.380  12.667   1.519  1.00  0.00     0.167 HD
ATOM     40  C   UNL     1       0.595  13.615  -2.287  1.00  0.00     0.037 A 
ATOM     41  C   UNL     1      -2.087  13.127   4.178  1.00  0.00     0.037 A 
ATOM     42  C   UNL     1       0.761  14.786  -1.468  1.00  0.00     0.049 A 
ATOM     43  C   UNL     1      -1.342  14.350   3.713  1.00  0.00     0.074 A 
ATOM     44  C   UNL     1       1.355  15.991  -1.797  1.00  0.00     0.029 A 
ATOM     45  N   UNL     1       0.335  14.895  -0.152  1.00  0.00    -0.354 N 
ATOM     46  N   UNL     1      -0.815  14.604   2.540  1.00  0.00    -0.248 NA
ATOM     47  C   UNL     1      -1.173  15.432   4.692  1.00  0.00     0.031 C 
ATOM     48  C   UNL     1       1.345  16.806  -0.661  1.00  0.00     0.029 A 
ATOM     49  C   UNL     1       0.681  16.137   0.355  1.00  0.00     0.049 A 
ATOM     50  H   UNL     1      -0.142  14.193   0.348  1.00  0.00     0.167 HD
ATOM     51  C   UNL     1      -0.280  15.882   2.629  1.00  0.00     0.074 A 
ATOM     52  C   UNL     1      -0.563  16.359   3.967  1.00  0.00     0.031 C 
ATOM     53  C   UNL     1       0.385  16.598   1.688  1.00  0.00     0.037 A 
BRANCH  40  54
ATOM     54  C   UNL     1       1.172  13.622  -3.674  1.00  0.00     0.064 A 
ATOM     55  C   UNL     1       0.353  13.613  -4.815  1.00  0.00     0.173 A 
ATOM     56  C   UNL     1       2.561  13.666  -3.867  1.00  0.00     0.173 A 
ATOM     57  F   UNL     1      -0.981  13.558  -4.689  1.00  0.00    -0.203 F 
ATOM     58  C   UNL     1       0.904  13.614  -6.094  1.00  0.00     0.198 A 
ATOM     59  C   UNL     1       3.107  13.704  -5.147  1.00  0.00     0.198 A 
ATOM     60  F   UNL     1       3.391  13.678  -2.813  1.00  0.00    -0.203 F 
ATOM     61  F   UNL     1       0.103  13.546  -7.166  1.00  0.00    -0.200 F 
ATOM     62  C   UNL     1       2.279  13.668  -6.259  1.00  0.00     0.200 A 
ATOM     63  F   UNL     1       4.436  13.771  -5.304  1.00  0.00    -0.200 F 
ATOM     64  F   UNL     1       2.808  13.678  -7.490  1.00  0.00    -0.200 F 
ENDBRANCH  40  54
BRANCH  41  65
ATOM     65  C   UNL     1      -2.622  13.037   5.563  1.00  0.00     0.064 A 
ATOM     66  C   UNL     1      -3.657  13.879   5.994  1.00  0.00     0.173 A 
ATOM     67  C   UNL     1      -2.103  12.119   6.488  1.00  0.00     0.173 A 
ATOM     68  F   UNL     1      -4.176  14.787   5.154  1.00  0.00    -0.203 F 
ATOM     69  C   UNL     1      -4.134  13.825   7.303  1.00  0.00     0.198 A 
ATOM     70  C   UNL     1      -2.603  12.042   7.786  1.00  0.00     0.198 A 
ATOM     71  F   UNL     1      -1.117  11.286   6.126  1.00  0.00    -0.203 F 
ATOM     72  F   UNL     1      -5.086  14.678   7.702  1.00  0.00    -0.200 F 
ATOM     73  C   UNL     1      -3.610  12.902   8.196  1.00  0.00     0.200 A 
ATOM     74  F   UNL     1      -2.107  11.137   8.640  1.00  0.00    -0.200 F 
ATOM     75  F   UNL     1      -4.071  12.848   9.453  1.00  0.00    -0.200 F 
ENDBRANCH  41  65
BRANCH  53  76
ATOM     76  C   UNL     1       0.817  17.989   2.057  1.00  0.00     0.064 A 
ATOM     77  C   UNL     1       1.839  18.226   2.987  1.00  0.00     0.173 A 
ATOM     78  C   UNL     1       0.224  19.100   1.436  1.00  0.00     0.173 A 
ATOM     79  F   UNL     1       2.429  17.199   3.618  1.00  0.00    -0.203 F 
ATOM     80  C   UNL     1       2.232  19.523   3.304  1.00  0.00     0.198 A 
ATOM     81  C   UNL     1       0.645  20.394   1.728  1.00  0.00     0.198 A 
ATOM     82  F   UNL     1      -0.752  18.930   0.532  1.00  0.00    -0.203 F 
ATOM     83  F   UNL     1       3.172  19.727   4.237  1.00  0.00    -0.200 F 
ATOM     84  C   UNL     1       1.641  20.605   2.669  1.00  0.00     0.200 A 
ATOM     85  F   UNL     1       0.086  21.437   1.099  1.00  0.00    -0.200 F 
ATOM     86  F   UNL     1       2.027  21.853   2.969  1.00  0.00    -0.200 F 
ENDBRANCH  53  76
ENDBRANCH  27  28
ENDBRANCH  19  22
ENDBRANCH  17  18
ENDBRANCH  16  17
ENDBRANCH  15  16
ENDBRANCH  14  15
ENDBRANCH  12  14
ENDBRANCH   5  10
ENDBRANCH   1   5
BRANCH   2  87
ATOM     87  C   UNL     1      -1.821  -3.450   1.521  1.00  0.00     0.174 C 
BRANCH  87  88
ATOM     88  N   UNL     1      -1.222  -3.200   0.192  1.00  0.00    -0.342 N 
ATOM     89  C   UNL     1      -0.079  -3.424  -0.503  1.00  0.00     0.242 C 
ATOM     90  H   UNL     1      -1.863  -2.712  -0.373  1.00  0.00     0.164 HD
ATOM     91  O   UNL     1      -0.102  -3.001  -1.669  1.00  0.00    -0.273 OA
BRANCH  89  92
ATOM     92  C   UNL     1       1.163  -4.197   0.018  1.00  0.00     0.168 C 
ATOM     93  C   UNL     1       1.659  -3.930   1.432  1.00  0.00     0.041 C 
BRANCH  92  94
ATOM     94  N   UNL     1       2.328  -3.985  -0.849  1.00  0.00    -0.343 N 
ATOM     95  C   UNL     1       3.179  -4.910  -1.373  1.00  0.00     0.240 C 
ATOM     96  H   UNL     1       2.520  -3.048  -1.083  1.00  0.00     0.164 HD
ATOM     97  O   UNL     1       4.347  -4.570  -1.578  1.00  0.00    -0.273 OA
BRANCH  95  98
ATOM     98  C   UNL     1       2.651  -6.263  -1.855  1.00  0.00     0.219 C 
BRANCH  98  99
ATOM     99  N   UNL     1       2.054  -7.091  -0.831  1.00  0.00    -0.312 N 
ATOM    100  C   UNL     1       0.762  -7.530  -0.810  1.00  0.00     0.407 C 
ATOM    101  H   UNL     1       2.631  -7.362  -0.082  1.00  0.00     0.167 HD
ATOM    102  O   UNL     1       0.310  -8.054   0.192  1.00  0.00    -0.225 OA
BRANCH 100 103
ATOM    103  O   UNL     1       0.091  -7.264  -1.954  1.00  0.00    -0.445 OA
BRANCH 103 104
ATOM    104  C   UNL     1      -1.347  -7.361  -1.970  1.00  0.00     0.270 C 
BRANCH 104 105
ATOM    105  C   UNL     1      -1.990  -8.715  -1.776  1.00  0.00    -0.011 A 
ATOM    106  C   UNL     1      -3.392  -8.803  -1.828  1.00  0.00     0.007 A 
ATOM    107  C   UNL     1      -1.262  -9.876  -1.496  1.00  0.00     0.007 A 
ATOM    108  C   UNL     1      -4.041 -10.011  -1.563  1.00  0.00     0.000 A 
ATOM    109  C   UNL     1      -1.911 -11.072  -1.195  1.00  0.00     0.000 A 
ATOM    110  C   UNL     1      -3.299 -11.140  -1.228  1.00  0.00     0.000 A 
ENDBRANCH 104 105
ENDBRANCH 103 104
ENDBRANCH 100 103
ENDBRANCH  98  99
ENDBRANCH  95  98
ENDBRANCH  92  94
ENDBRANCH  89  92
ENDBRANCH  87  88
BRANCH  87 111
ATOM    111  C   UNL     1      -1.371  -4.672   2.351  1.00  0.00     0.015 C 
ATOM    112  C   UNL     1      -2.301  -5.003   3.527  1.00  0.00     0.010 C 
ATOM    113  C   UNL     1      -1.256  -5.936   1.516  1.00  0.00     0.010 C 
ENDBRANCH  87 111
ENDBRANCH   2  87
TORSDOF 24
