REMARK SMILES CCC(CC)NC(=O)NC[C@H]1CC[C@H](C(=O)NCCCCNC(=O)c2ccc(-c3c4nc(c(-c5c(F)c(F)c(F)c(F)c5F)c5ccc([nH]5)c(-c5c(F)c(F)c(F)c(F)c5F)c5nc(c(-c6c(F)c(F)c(F)c(F)c6F)c6ccc3[nH]6)C=C5)C=C4)cc2)O1
REMARK SMILES IDX 18 1 17 2 15 3 16 4 14 6 11 7 12 8 88 9 13 10 10 11 9 12
REMARK SMILES IDX 6 13 7 14 8 16 3 18 2 19 1 20 4 21 5 22 19 23 20 24 21 25
REMARK SMILES IDX 22 26 23 27 24 29 25 30 26 31 87 32 27 33 86 34 28 35 29 36
REMARK SMILES IDX 30 37 80 38 31 39 85 40 79 41 81 42 32 43 84 44 78 45 77 46
REMARK SMILES IDX 33 48 65 49 45 50 64 51 46 52 49 53 63 54 82 55 47 56 48 57
REMARK SMILES IDX 62 59 83 60 50 61 34 62 35 63 43 64 36 65 37 66 41 67 44 68
REMARK SMILES IDX 38 69 39 70 42 71 40 72 66 73 67 74 75 75 68 76 69 77 73 78
REMARK SMILES IDX 76 79 70 80 71 81 74 82 72 83 51 84 52 85 60 86 53 87 54 88
REMARK SMILES IDX 58 89 61 90 55 91 56 92 59 93 57 94
REMARK H PARENT 17 5 6 15 9 17 22 28 81 47 49 58
REMARK Flexibility Score: inf
ROOT
ATOM      1  C   UNL     1       1.016   3.852  -1.892  1.00  0.00     0.116 C 
ENDROOT
BRANCH   1   2
ATOM      2  N   UNL     1       1.234   3.319  -3.216  1.00  0.00    -0.354 N 
ATOM      3  C   UNL     1       2.407   3.032  -3.853  1.00  0.00     0.249 C 
ATOM      4  O   UNL     1       2.332   2.601  -5.008  1.00  0.00    -0.272 OA
ATOM      5  H   UNL     1       0.418   3.137  -3.736  1.00  0.00     0.163 HD
BRANCH   3   6
ATOM      6  C   UNL     1       3.782   3.309  -3.199  1.00  0.00     0.207 C 
ATOM      7  C   UNL     1       4.472   3.839  -1.014  1.00  0.00     0.138 C 
ATOM      8  C   UNL     1       4.399   5.155  -1.770  1.00  0.00     0.037 C 
ATOM      9  O   UNL     1       3.975   2.810  -1.880  1.00  0.00    -0.363 OA
ATOM     10  C   UNL     1       4.143   4.784  -3.212  1.00  0.00     0.045 C 
BRANCH   7  11
ATOM     11  C   UNL     1       5.861   3.525  -0.413  1.00  0.00     0.149 C 
BRANCH  11  12
ATOM     12  N   UNL     1       6.315   2.162  -0.603  1.00  0.00    -0.336 N 
ATOM     13  N   UNL     1       7.865   2.218  -2.385  1.00  0.00    -0.335 N 
ATOM     14  C   UNL     1       7.238   1.589  -1.383  1.00  0.00     0.315 C 
ATOM     15  H   UNL     1       8.614   1.700  -2.760  1.00  0.00     0.165 HD
ATOM     16  O   UNL     1       7.537   0.414  -1.161  1.00  0.00    -0.249 OA
ATOM     17  H   UNL     1       5.839   1.516  -0.033  1.00  0.00     0.165 HD
BRANCH  13  18
ATOM     18  C   UNL     1       7.675   3.505  -3.039  1.00  0.00     0.083 C 
BRANCH  18  19
ATOM     19  C   UNL     1       8.792   4.475  -2.628  1.00  0.00     0.021 C 
ATOM     20  C   UNL     1       8.497   5.919  -3.009  1.00  0.00     0.006 C 
ENDBRANCH  18  19
BRANCH  18  21
ATOM     21  C   UNL     1       7.489   3.325  -4.557  1.00  0.00     0.021 C 
ATOM     22  C   UNL     1       8.721   2.872  -5.323  1.00  0.00     0.006 C 
ENDBRANCH  18  21
ENDBRANCH  13  18
ENDBRANCH  11  12
ENDBRANCH   7  11
ENDBRANCH   3   6
ENDBRANCH   1   2
BRANCH   1  23
ATOM     23  C   UNL     1       0.848   5.370  -1.911  1.00  0.00     0.023 C 
BRANCH  23  24
ATOM     24  C   UNL     1      -0.585   5.850  -2.133  1.00  0.00     0.023 C 
BRANCH  24  25
ATOM     25  C   UNL     1      -1.575   5.410  -1.063  1.00  0.00     0.116 C 
BRANCH  25  26
ATOM     26  N   UNL     1      -1.185   5.778   0.290  1.00  0.00    -0.352 N 
ATOM     27  C   UNL     1      -2.001   5.975   1.379  1.00  0.00     0.251 C 
ATOM     28  H   UNL     1      -0.220   5.900   0.444  1.00  0.00     0.163 HD
ATOM     29  O   UNL     1      -1.546   6.360   2.447  1.00  0.00    -0.269 OA
BRANCH  27  30
ATOM     30  C   UNL     1      -3.453   5.766   1.214  1.00  0.00     0.039 A 
ATOM     31  C   UNL     1      -4.323   6.805   1.548  1.00  0.00     0.014 A 
ATOM     32  C   UNL     1      -3.935   4.581   0.654  1.00  0.00     0.014 A 
ATOM     33  C   UNL     1      -5.678   6.686   1.244  1.00  0.00     0.010 A 
ATOM     34  C   UNL     1      -5.272   4.493   0.286  1.00  0.00     0.010 A 
ATOM     35  C   UNL     1      -6.153   5.547   0.573  1.00  0.00    -0.014 A 
BRANCH  35  36
ATOM     36  C   UNL     1      -7.569   5.436   0.155  1.00  0.00     0.031 A 
ATOM     37  C   UNL     1      -8.446   4.379   0.758  1.00  0.00     0.074 A 
ATOM     38  C   UNL     1      -8.036   6.227  -0.830  1.00  0.00     0.049 A 
ATOM     39  N   UNL     1      -9.681   4.060   0.464  1.00  0.00    -0.248 NA
ATOM     40  C   UNL     1      -7.842   3.544   1.808  1.00  0.00     0.031 C 
ATOM     41  C   UNL     1      -7.257   7.243  -1.540  1.00  0.00     0.029 A 
ATOM     42  N   UNL     1      -9.274   6.286  -1.417  1.00  0.00    -0.354 N 
ATOM     43  C   UNL     1      -9.992   2.980   1.278  1.00  0.00     0.074 A 
ATOM     44  C   UNL     1      -8.803   2.663   2.037  1.00  0.00     0.031 C 
ATOM     45  C   UNL     1      -8.038   7.832  -2.459  1.00  0.00     0.029 A 
ATOM     46  C   UNL     1      -9.363   7.218  -2.420  1.00  0.00     0.049 A 
ATOM     47  H   UNL     1     -10.027   5.714  -1.144  1.00  0.00     0.167 HD
ATOM     48  C   UNL     1     -11.173   2.328   1.399  1.00  0.00     0.037 A 
ATOM     49  C   UNL     1     -10.396   7.538  -3.220  1.00  0.00     0.037 A 
ATOM     50  C   UNL     1     -12.361   2.666   0.662  1.00  0.00     0.049 A 
ATOM     51  C   UNL     1     -11.709   6.828  -3.042  1.00  0.00     0.074 A 
ATOM     52  C   UNL     1     -13.624   2.110   0.756  1.00  0.00     0.029 A 
ATOM     53  N   UNL     1     -12.429   3.655  -0.309  1.00  0.00    -0.354 N 
ATOM     54  N   UNL     1     -12.015   5.854  -2.219  1.00  0.00    -0.248 NA
ATOM     55  C   UNL     1     -12.822   7.267  -3.895  1.00  0.00     0.031 C 
ATOM     56  C   UNL     1     -14.451   2.744  -0.179  1.00  0.00     0.029 A 
ATOM     57  C   UNL     1     -13.711   3.719  -0.830  1.00  0.00     0.049 A 
ATOM     58  H   UNL     1     -11.678   4.227  -0.586  1.00  0.00     0.167 HD
ATOM     59  C   UNL     1     -13.356   5.575  -2.440  1.00  0.00     0.074 A 
ATOM     60  C   UNL     1     -13.810   6.494  -3.465  1.00  0.00     0.031 C 
ATOM     61  C   UNL     1     -14.141   4.642  -1.849  1.00  0.00     0.037 A 
BRANCH  48  62
ATOM     62  C   UNL     1     -11.228   1.190   2.374  1.00  0.00     0.064 A 
ATOM     63  C   UNL     1     -11.175   1.410   3.759  1.00  0.00     0.173 A 
ATOM     64  C   UNL     1     -11.335  -0.133   1.922  1.00  0.00     0.173 A 
ATOM     65  F   UNL     1     -11.056   2.656   4.240  1.00  0.00    -0.203 F 
ATOM     66  C   UNL     1     -11.188   0.344   4.654  1.00  0.00     0.198 A 
ATOM     67  C   UNL     1     -11.377  -1.195   2.822  1.00  0.00     0.198 A 
ATOM     68  F   UNL     1     -11.392  -0.398   0.608  1.00  0.00    -0.203 F 
ATOM     69  F   UNL     1     -11.075   0.576   5.970  1.00  0.00    -0.200 F 
ATOM     70  C   UNL     1     -11.294  -0.957   4.186  1.00  0.00     0.200 A 
ATOM     71  F   UNL     1     -11.488  -2.452   2.369  1.00  0.00    -0.200 F 
ATOM     72  F   UNL     1     -11.303  -1.982   5.049  1.00  0.00    -0.200 F 
ENDBRANCH  48  62
BRANCH  49  73
ATOM     73  C   UNL     1     -10.233   8.607  -4.237  1.00  0.00     0.064 A 
ATOM     74  C   UNL     1     -10.822   9.866  -4.056  1.00  0.00     0.173 A 
ATOM     75  C   UNL     1      -9.467   8.402  -5.393  1.00  0.00     0.173 A 
ATOM     76  F   UNL     1     -11.578  10.101  -2.973  1.00  0.00    -0.203 F 
ATOM     77  C   UNL     1     -10.660  10.878  -4.999  1.00  0.00     0.198 A 
ATOM     78  C   UNL     1      -9.288   9.422  -6.325  1.00  0.00     0.198 A 
ATOM     79  F   UNL     1      -8.877   7.217  -5.606  1.00  0.00    -0.203 F 
ATOM     80  F   UNL     1     -11.258  12.063  -4.817  1.00  0.00    -0.200 F 
ATOM     81  C   UNL     1      -9.888  10.657  -6.130  1.00  0.00     0.200 A 
ATOM     82  F   UNL     1      -8.530   9.210  -7.410  1.00  0.00    -0.200 F 
ATOM     83  F   UNL     1      -9.724  11.634  -7.033  1.00  0.00    -0.200 F 
ENDBRANCH  49  73
BRANCH  61  84
ATOM     84  C   UNL     1     -15.575   4.579  -2.283  1.00  0.00     0.064 A 
ATOM     85  C   UNL     1     -15.941   4.028  -3.519  1.00  0.00     0.173 A 
ATOM     86  C   UNL     1     -16.594   5.035  -1.434  1.00  0.00     0.173 A 
ATOM     87  F   UNL     1     -14.999   3.594  -4.370  1.00  0.00    -0.203 F 
ATOM     88  C   UNL     1     -17.278   3.952  -3.898  1.00  0.00     0.198 A 
ATOM     89  C   UNL     1     -17.931   4.935  -1.806  1.00  0.00     0.198 A 
ATOM     90  F   UNL     1     -16.293   5.566  -0.240  1.00  0.00    -0.203 F 
ATOM     91  F   UNL     1     -17.605   3.456  -5.099  1.00  0.00    -0.200 F 
ATOM     92  C   UNL     1     -18.272   4.398  -3.039  1.00  0.00     0.200 A 
ATOM     93  F   UNL     1     -18.891   5.359  -0.972  1.00  0.00    -0.200 F 
ATOM     94  F   UNL     1     -19.559   4.318  -3.403  1.00  0.00    -0.200 F 
ENDBRANCH  61  84
ENDBRANCH  35  36
ENDBRANCH  27  30
ENDBRANCH  25  26
ENDBRANCH  24  25
ENDBRANCH  23  24
ENDBRANCH   1  23
TORSDOF 16
