REMARK SMILES Cn1cc(C(=O)NCCCCNC(=O)c2ccc(-c3c4nc(c(-c5c(F)c(F)c(F)c(F)c5F)c5ccc([nH]5)c(-c5c(F)c(F)c(F)c(F)c5F)c5nc(c(-c6c(F)c(F)c(F)c(F)c6F)c6ccc3[nH]6)C=C5)C=C4)cc2)c(C(=O)Nc2ccc(-c3nc4cc(Cl)ccc4o3)cc2)n1
REMARK SMILES IDX 9 1 8 2 7 3 5 4 6 5 4 7 1 8 2 9 3 10 98 11 78 12 79 13 80 14
REMARK SMILES IDX 81 15 82 17 83 18 97 19 84 20 96 21 85 22 86 23 87 24 95 25
REMARK SMILES IDX 88 26 94 27 89 28 93 29 90 30 92 31 91 32 10 33 11 34 12 35
REMARK SMILES IDX 13 36 14 38 15 39 16 40 77 41 17 42 76 43 18 44 19 45 20 46
REMARK SMILES IDX 70 47 21 48 75 49 69 50 71 51 22 52 74 53 68 54 67 55 23 57
REMARK SMILES IDX 55 58 35 59 54 60 36 61 39 62 53 63 72 64 37 65 38 66 52 68
REMARK SMILES IDX 73 69 40 70 24 71 25 72 33 73 26 74 27 75 31 76 34 77 28 78
REMARK SMILES IDX 29 79 32 80 30 81 56 82 57 83 65 84 58 85 59 86 63 87 66 88
REMARK SMILES IDX 60 89 61 90 64 91 62 92 41 93 42 94 50 95 43 96 44 97 48 98
REMARK SMILES IDX 51 99 45 100 46 101 49 102 47 103
REMARK H PARENT 7 6 81 16 12 37 71 56 39 67
REMARK Flexibility Score: inf
ROOT
ATOM      1  C   UNL     1       0.610  -4.400  -0.657  1.00  0.00     0.023 C 
ENDROOT
BRANCH   1   2
ATOM      2  C   UNL     1       0.522  -4.002   0.814  1.00  0.00     0.116 C 
BRANCH   2   3
ATOM      3  N   UNL     1       1.600  -3.154   1.285  1.00  0.00    -0.352 N 
ATOM      4  C   UNL     1       1.765  -1.792   1.369  1.00  0.00     0.255 C 
ATOM      5  O   UNL     1       2.692  -1.413   2.090  1.00  0.00    -0.269 OA
ATOM      6  H   UNL     1       2.377  -3.660   1.615  1.00  0.00     0.163 HD
BRANCH   4   7
ATOM      7  C   UNL     1       0.925  -0.836   0.658  1.00  0.00     0.090 A 
ATOM      8  C   UNL     1      -2.092   0.643  -0.664  1.00  0.00     0.173 C 
ATOM      9  N   UNL     1      -0.762   0.250  -0.262  1.00  0.00    -0.274 N 
ATOM     10  C   UNL     1      -0.369  -0.975   0.187  1.00  0.00     0.123 A 
ATOM     11  N   UNL     1       0.206   1.165  -0.233  1.00  0.00    -0.167 NA
ATOM     12  C   UNL     1       1.243   0.551   0.374  1.00  0.00     0.163 A 
BRANCH  12  13
ATOM     13  C   UNL     1       2.438   1.353   0.725  1.00  0.00     0.276 C 
ATOM     14  O   UNL     1       2.331   2.461   1.262  1.00  0.00    -0.267 OA
ATOM     15  N   UNL     1       3.719   0.876   0.535  1.00  0.00    -0.321 N 
ATOM     16  H   UNL     1       4.417   1.380   1.012  1.00  0.00     0.170 HD
BRANCH  15  17
ATOM     17  C   UNL     1       4.194  -0.200  -0.218  1.00  0.00     0.041 A 
ATOM     18  C   UNL     1       5.351  -0.843   0.238  1.00  0.00     0.027 A 
ATOM     19  C   UNL     1       3.552  -0.662  -1.363  1.00  0.00     0.027 A 
ATOM     20  C   UNL     1       5.774  -2.035  -0.354  1.00  0.00     0.016 A 
ATOM     21  C   UNL     1       3.996  -1.832  -1.974  1.00  0.00     0.016 A 
ATOM     22  C   UNL     1       5.074  -2.558  -1.444  1.00  0.00     0.037 A 
BRANCH  22  23
ATOM     23  C   UNL     1       5.342  -3.879  -1.988  1.00  0.00     0.227 A 
ATOM     24  N   UNL     1       4.945  -4.362  -3.151  1.00  0.00    -0.209 NA
ATOM     25  O   UNL     1       5.818  -4.821  -1.107  1.00  0.00    -0.436 OA
ATOM     26  C   UNL     1       5.103  -5.709  -3.013  1.00  0.00     0.111 A 
ATOM     27  C   UNL     1       5.636  -6.001  -1.769  1.00  0.00     0.155 A 
ATOM     28  C   UNL     1       4.758  -6.745  -3.881  1.00  0.00     0.053 A 
ATOM     29  C   UNL     1       5.870  -7.285  -1.295  1.00  0.00     0.051 A 
ATOM     30  C   UNL     1       4.949  -8.051  -3.428  1.00  0.00     0.043 A 
ATOM     31  C   UNL     1       5.498  -8.319  -2.166  1.00  0.00     0.024 A 
ATOM     32  Cl  UNL     1       4.454  -9.337  -4.458  1.00  0.00    -0.084 Cl
ENDBRANCH  22  23
ENDBRANCH  15  17
ENDBRANCH  12  13
ENDBRANCH   4   7
ENDBRANCH   2   3
ENDBRANCH   1   2
BRANCH   1  33
ATOM     33  C   UNL     1       1.767  -5.334  -1.036  1.00  0.00     0.023 C 
BRANCH  33  34
ATOM     34  C   UNL     1       1.966  -6.599  -0.197  1.00  0.00     0.116 C 
BRANCH  34  35
ATOM     35  N   UNL     1       0.792  -7.446  -0.096  1.00  0.00    -0.352 N 
ATOM     36  C   UNL     1       0.679  -8.809   0.056  1.00  0.00     0.251 C 
ATOM     37  H   UNL     1      -0.066  -6.966  -0.145  1.00  0.00     0.163 HD
ATOM     38  O   UNL     1      -0.448  -9.302   0.090  1.00  0.00    -0.269 OA
BRANCH  36  39
ATOM     39  C   UNL     1       1.861  -9.710   0.138  1.00  0.00     0.039 A 
ATOM     40  C   UNL     1       1.762 -10.979  -0.452  1.00  0.00     0.014 A 
ATOM     41  C   UNL     1       3.036  -9.372   0.810  1.00  0.00     0.014 A 
ATOM     42  C   UNL     1       2.848 -11.866  -0.437  1.00  0.00     0.010 A 
ATOM     43  C   UNL     1       4.138 -10.236   0.781  1.00  0.00     0.010 A 
ATOM     44  C   UNL     1       4.065 -11.485   0.141  1.00  0.00    -0.014 A 
BRANCH  44  45
ATOM     45  C   UNL     1       5.289 -12.332   0.039  1.00  0.00     0.031 A 
ATOM     46  C   UNL     1       5.966 -12.866   1.270  1.00  0.00     0.074 A 
ATOM     47  C   UNL     1       5.881 -12.515  -1.158  1.00  0.00     0.049 A 
ATOM     48  N   UNL     1       7.125 -13.467   1.379  1.00  0.00    -0.248 NA
ATOM     49  C   UNL     1       5.251 -12.697   2.542  1.00  0.00     0.031 C 
ATOM     50  C   UNL     1       5.354 -12.055  -2.439  1.00  0.00     0.029 A 
ATOM     51  N   UNL     1       7.090 -13.082  -1.486  1.00  0.00    -0.354 N 
ATOM     52  C   UNL     1       7.280 -13.748   2.728  1.00  0.00     0.074 A 
ATOM     53  C   UNL     1       6.119 -13.207   3.406  1.00  0.00     0.031 C 
ATOM     54  C   UNL     1       6.265 -12.274  -3.399  1.00  0.00     0.029 A 
ATOM     55  C   UNL     1       7.436 -12.902  -2.804  1.00  0.00     0.049 A 
ATOM     56  H   UNL     1       7.652 -13.569  -0.841  1.00  0.00     0.167 HD
ATOM     57  C   UNL     1       8.280 -14.425   3.343  1.00  0.00     0.037 A 
ATOM     58  C   UNL     1       8.573 -13.186  -3.466  1.00  0.00     0.037 A 
ATOM     59  C   UNL     1       9.414 -15.009   2.676  1.00  0.00     0.049 A 
ATOM     60  C   UNL     1       9.685 -13.903  -2.764  1.00  0.00     0.074 A 
ATOM     61  C   UNL     1      10.410 -15.812   3.207  1.00  0.00     0.029 A 
ATOM     62  N   UNL     1       9.707 -14.849   1.331  1.00  0.00    -0.354 N 
ATOM     63  N   UNL     1       9.775 -14.242  -1.503  1.00  0.00    -0.248 NA
ATOM     64  C   UNL     1      10.833 -14.314  -3.584  1.00  0.00     0.031 C 
ATOM     65  C   UNL     1      11.319 -16.119   2.187  1.00  0.00     0.029 A 
ATOM     66  C   UNL     1      10.877 -15.525   1.018  1.00  0.00     0.049 A 
ATOM     67  H   UNL     1       9.165 -14.333   0.692  1.00  0.00     0.167 HD
ATOM     68  C   UNL     1      10.960 -14.954  -1.388  1.00  0.00     0.074 A 
ATOM     69  C   UNL     1      11.571 -14.973  -2.700  1.00  0.00     0.031 C 
ATOM     70  C   UNL     1      11.474 -15.559  -0.291  1.00  0.00     0.037 A 
BRANCH  57  71
ATOM     71  C   UNL     1       8.175 -14.601   4.826  1.00  0.00     0.064 A 
ATOM     72  C   UNL     1       7.287 -15.532   5.385  1.00  0.00     0.173 A 
ATOM     73  C   UNL     1       8.991 -13.862   5.692  1.00  0.00     0.173 A 
ATOM     74  F   UNL     1       6.480 -16.254   4.594  1.00  0.00    -0.203 F 
ATOM     75  C   UNL     1       7.204 -15.700   6.764  1.00  0.00     0.198 A 
ATOM     76  C   UNL     1       8.919 -14.045   7.070  1.00  0.00     0.198 A 
ATOM     77  F   UNL     1       9.858 -12.963   5.202  1.00  0.00    -0.203 F 
ATOM     78  F   UNL     1       6.324 -16.568   7.280  1.00  0.00    -0.200 F 
ATOM     79  C   UNL     1       8.023 -14.960   7.605  1.00  0.00     0.200 A 
ATOM     80  F   UNL     1       9.713 -13.334   7.883  1.00  0.00    -0.200 F 
ATOM     81  F   UNL     1       7.941 -15.122   8.933  1.00  0.00    -0.200 F 
ENDBRANCH  57  71
BRANCH  58  82
ATOM     82  C   UNL     1       8.702 -12.804  -4.892  1.00  0.00     0.064 A 
ATOM     83  C   UNL     1       8.502 -13.743  -5.911  1.00  0.00     0.173 A 
ATOM     84  C   UNL     1       9.016 -11.488  -5.257  1.00  0.00     0.173 A 
ATOM     85  F   UNL     1       8.217 -15.016  -5.600  1.00  0.00    -0.203 F 
ATOM     86  C   UNL     1       8.622 -13.381  -7.250  1.00  0.00     0.198 A 
ATOM     87  C   UNL     1       9.125 -11.125  -6.597  1.00  0.00     0.198 A 
ATOM     88  F   UNL     1       9.215 -10.558  -4.312  1.00  0.00    -0.203 F 
ATOM     89  F   UNL     1       8.451 -14.302  -8.208  1.00  0.00    -0.200 F 
ATOM     90  C   UNL     1       8.931 -12.072  -7.592  1.00  0.00     0.200 A 
ATOM     91  F   UNL     1       9.423  -9.860  -6.926  1.00  0.00    -0.200 F 
ATOM     92  F   UNL     1       9.050 -11.726  -8.881  1.00  0.00    -0.200 F 
ENDBRANCH  58  82
BRANCH  70  93
ATOM     93  C   UNL     1      12.728 -16.354  -0.477  1.00  0.00     0.064 A 
ATOM     94  C   UNL     1      13.983 -15.739  -0.567  1.00  0.00     0.173 A 
ATOM     95  C   UNL     1      12.669 -17.754  -0.549  1.00  0.00     0.173 A 
ATOM     96  F   UNL     1      14.084 -14.402  -0.524  1.00  0.00    -0.203 F 
ATOM     97  C   UNL     1      15.138 -16.499  -0.735  1.00  0.00     0.198 A 
ATOM     98  C   UNL     1      13.827 -18.511  -0.702  1.00  0.00     0.198 A 
ATOM     99  F   UNL     1      11.488 -18.385  -0.473  1.00  0.00    -0.203 F 
ATOM    100  F   UNL     1      16.327 -15.891  -0.852  1.00  0.00    -0.200 F 
ATOM    101  C   UNL     1      15.059 -17.883  -0.798  1.00  0.00     0.200 A 
ATOM    102  F   UNL     1      13.749 -19.847  -0.762  1.00  0.00    -0.200 F 
ATOM    103  F   UNL     1      16.172 -18.611  -0.962  1.00  0.00    -0.200 F 
ENDBRANCH  70  93
ENDBRANCH  44  45
ENDBRANCH  36  39
ENDBRANCH  34  35
ENDBRANCH  33  34
ENDBRANCH   1  33
TORSDOF 14
