REMARK SMILES COc1ccc([C@H]2CC(c3ccc(S(C)(=O)=O)cc3)=NN2c2ccc(C(=O)NCCCCNC(=O)c3ccc(-c4c5nc(c(-c6c(F)c(F)c(F)c(F)c6F)c6ccc([nH]6)c(-c6c(F)c(F)c(F)c(F)c6F)c6nc(c(-c7c(F)c(F)c(F)c(F)c7F)c7ccc4[nH]7)C=C6)C=C5)cc3)cc2)cc1
REMARK SMILES IDX 30 1 29 2 28 3 26 4 27 5 25 7 22 8 23 9 100 10 24 11 99 12
REMARK SMILES IDX 21 13 7 14 8 15 9 16 20 17 6 18 3 19 4 20 102 21 5 22 101 23
REMARK SMILES IDX 2 24 1 25 10 26 11 27 19 28 12 29 18 30 13 31 14 32 15 33
REMARK SMILES IDX 16 34 17 35 31 36 32 37 33 38 34 39 35 41 36 42 37 43 98 44
REMARK SMILES IDX 38 45 97 46 39 47 40 48 41 49 91 50 42 51 96 52 90 53 92 54
REMARK SMILES IDX 43 55 95 56 89 57 88 58 44 60 76 61 56 62 75 63 57 64 60 65
REMARK SMILES IDX 74 66 93 67 58 68 59 69 73 71 94 72 61 73 45 74 46 75 54 76
REMARK SMILES IDX 47 77 48 78 52 79 55 80 49 81 50 82 53 83 51 84 77 85 78 86
REMARK SMILES IDX 86 87 79 88 80 89 84 90 87 91 81 92 82 93 85 94 83 95 62 96
REMARK SMILES IDX 63 97 71 98 64 99 65 100 69 101 72 102 66 103 67 104 70 105
REMARK SMILES IDX 68 106
REMARK H PARENT 28 6 33 40 92 59 60 70
REMARK Flexibility Score: inf
ROOT
ATOM      1  C   UNL     1       1.083  11.475  -2.433  1.00  0.00     0.023 C 
ENDROOT
BRANCH   1   2
ATOM      2  C   UNL     1       1.187  10.056  -2.997  1.00  0.00     0.116 C 
BRANCH   2   3
ATOM      3  N   UNL     1       2.531   9.796  -3.467  1.00  0.00    -0.352 N 
ATOM      4  C   UNL     1       3.604   9.171  -2.883  1.00  0.00     0.251 C 
ATOM      5  O   UNL     1       4.637   9.089  -3.549  1.00  0.00    -0.269 OA
ATOM      6  H   UNL     1       2.709  10.130  -4.376  1.00  0.00     0.163 HD
BRANCH   4   7
ATOM      7  C   UNL     1       3.559   8.550  -1.528  1.00  0.00     0.039 A 
ATOM      8  C   UNL     1       3.563   7.194   0.962  1.00  0.00     0.060 A 
ATOM      9  C   UNL     1       4.457   6.837  -0.052  1.00  0.00     0.029 A 
ATOM     10  C   UNL     1       2.713   8.278   0.736  1.00  0.00     0.029 A 
ATOM     11  C   UNL     1       4.444   7.491  -1.288  1.00  0.00     0.016 A 
ATOM     12  C   UNL     1       2.736   8.971  -0.481  1.00  0.00     0.016 A 
BRANCH   8  13
ATOM     13  N   UNL     1       3.561   6.494   2.157  1.00  0.00    -0.257 N 
ATOM     14  C   UNL     1       2.360   5.920   2.765  1.00  0.00     0.144 C 
ATOM     15  C   UNL     1       2.837   5.555   4.177  1.00  0.00     0.091 C 
ATOM     16  C   UNL     1       4.204   6.173   4.153  1.00  0.00     0.071 C 
ATOM     17  N   UNL     1       4.584   6.692   3.029  1.00  0.00    -0.176 NA
BRANCH  14  18
ATOM     18  C   UNL     1       1.861   4.714   1.989  1.00  0.00    -0.023 A 
ATOM     19  C   UNL     1       0.909   2.460   0.581  1.00  0.00     0.118 A 
ATOM     20  C   UNL     1       0.069   3.545   0.838  1.00  0.00     0.047 A 
ATOM     21  C   UNL     1       2.237   2.513   1.000  1.00  0.00     0.047 A 
ATOM     22  C   UNL     1       0.534   4.659   1.542  1.00  0.00     0.010 A 
ATOM     23  C   UNL     1       2.708   3.632   1.695  1.00  0.00     0.010 A 
BRANCH  19  24
ATOM     24  O   UNL     1       0.333   1.429  -0.108  1.00  0.00    -0.497 OA
ATOM     25  C   UNL     1       0.982   0.167  -0.004  1.00  0.00     0.278 C 
ENDBRANCH  19  24
ENDBRANCH  14  18
BRANCH  16  26
ATOM     26  C   UNL     1       5.034   6.203   5.357  1.00  0.00    -0.002 A 
ATOM     27  C   UNL     1       5.388   7.442   5.899  1.00  0.00     0.011 A 
ATOM     28  C   UNL     1       5.479   5.009   5.926  1.00  0.00     0.011 A 
ATOM     29  C   UNL     1       6.189   7.488   7.040  1.00  0.00     0.021 A 
ATOM     30  C   UNL     1       6.301   5.054   7.053  1.00  0.00     0.021 A 
ATOM     31  C   UNL     1       6.654   6.293   7.600  1.00  0.00     0.067 A 
BRANCH  31  32
ATOM     32  S   UNL     1       7.696   6.362   9.038  1.00  0.00     0.175 S 
ATOM     33  C   UNL     1       9.145   7.221   8.480  1.00  0.00     0.163 C 
ATOM     34  O   UNL     1       7.012   7.194  10.009  1.00  0.00    -0.224 OA
ATOM     35  O   UNL     1       8.089   5.003   9.361  1.00  0.00    -0.224 OA
ENDBRANCH  31  32
ENDBRANCH  16  26
ENDBRANCH   8  13
ENDBRANCH   4   7
ENDBRANCH   2   3
ENDBRANCH   1   2
BRANCH   1  36
ATOM     36  C   UNL     1       1.006  12.570  -3.501  1.00  0.00     0.023 C 
BRANCH  36  37
ATOM     37  C   UNL     1      -0.236  12.517  -4.383  1.00  0.00     0.116 C 
BRANCH  37  38
ATOM     38  N   UNL     1      -1.477  12.609  -3.631  1.00  0.00    -0.352 N 
ATOM     39  C   UNL     1      -2.677  13.152  -4.022  1.00  0.00     0.251 C 
ATOM     40  H   UNL     1      -1.455  12.233  -2.721  1.00  0.00     0.163 HD
ATOM     41  O   UNL     1      -3.606  13.245  -3.227  1.00  0.00    -0.269 OA
BRANCH  39  42
ATOM     42  C   UNL     1      -2.825  13.665  -5.398  1.00  0.00     0.039 A 
ATOM     43  C   UNL     1      -3.345  14.948  -5.582  1.00  0.00     0.014 A 
ATOM     44  C   UNL     1      -2.429  12.897  -6.496  1.00  0.00     0.014 A 
ATOM     45  C   UNL     1      -3.407  15.490  -6.866  1.00  0.00     0.010 A 
ATOM     46  C   UNL     1      -2.434  13.460  -7.768  1.00  0.00     0.010 A 
ATOM     47  C   UNL     1      -2.920  14.762  -7.964  1.00  0.00    -0.014 A 
BRANCH  47  48
ATOM     48  C   UNL     1      -2.901  15.351  -9.325  1.00  0.00     0.031 A 
ATOM     49  C   UNL     1      -3.757  14.765 -10.411  1.00  0.00     0.074 A 
ATOM     50  C   UNL     1      -2.056  16.363  -9.598  1.00  0.00     0.049 A 
ATOM     51  N   UNL     1      -3.824  15.089 -11.677  1.00  0.00    -0.248 NA
ATOM     52  C   UNL     1      -4.634  13.647 -10.029  1.00  0.00     0.031 C 
ATOM     53  C   UNL     1      -1.135  16.977  -8.640  1.00  0.00     0.029 A 
ATOM     54  N   UNL     1      -1.823  17.043 -10.767  1.00  0.00    -0.354 N 
ATOM     55  C   UNL     1      -4.731  14.205 -12.245  1.00  0.00     0.074 A 
ATOM     56  C   UNL     1      -5.157  13.303 -11.197  1.00  0.00     0.031 C 
ATOM     57  C   UNL     1      -0.445  17.951  -9.256  1.00  0.00     0.029 A 
ATOM     58  C   UNL     1      -0.853  18.009 -10.657  1.00  0.00     0.049 A 
ATOM     59  H   UNL     1      -2.305  16.856 -11.605  1.00  0.00     0.167 HD
ATOM     60  C   UNL     1      -5.183  14.165 -13.521  1.00  0.00     0.037 A 
ATOM     61  C   UNL     1      -0.347  18.844 -11.584  1.00  0.00     0.037 A 
ATOM     62  C   UNL     1      -4.782  15.086 -14.551  1.00  0.00     0.049 A 
ATOM     63  C   UNL     1      -0.882  18.792 -12.989  1.00  0.00     0.074 A 
ATOM     64  C   UNL     1      -5.241  15.178 -15.853  1.00  0.00     0.029 A 
ATOM     65  N   UNL     1      -3.825  16.078 -14.393  1.00  0.00    -0.354 N 
ATOM     66  N   UNL     1      -1.799  18.004 -13.495  1.00  0.00    -0.248 NA
ATOM     67  C   UNL     1      -0.319  19.751 -13.949  1.00  0.00     0.031 C 
ATOM     68  C   UNL     1      -4.534  16.199 -16.495  1.00  0.00     0.029 A 
ATOM     69  C   UNL     1      -3.664  16.773 -15.581  1.00  0.00     0.049 A 
ATOM     70  H   UNL     1      -3.332  16.260 -13.560  1.00  0.00     0.167 HD
ATOM     71  C   UNL     1      -1.940  18.387 -14.822  1.00  0.00     0.074 A 
ATOM     72  C   UNL     1      -1.025  19.488 -15.039  1.00  0.00     0.031 C 
ATOM     73  C   UNL     1      -2.753  17.871 -15.776  1.00  0.00     0.037 A 
BRANCH  60  74
ATOM     74  C   UNL     1      -6.168  13.091 -13.874  1.00  0.00     0.064 A 
ATOM     75  C   UNL     1      -7.490  13.123 -13.405  1.00  0.00     0.173 A 
ATOM     76  C   UNL     1      -5.798  12.038 -14.725  1.00  0.00     0.173 A 
ATOM     77  F   UNL     1      -7.889  14.102 -12.580  1.00  0.00    -0.203 F 
ATOM     78  C   UNL     1      -8.398  12.126 -13.753  1.00  0.00     0.198 A 
ATOM     79  C   UNL     1      -6.717  11.058 -15.093  1.00  0.00     0.198 A 
ATOM     80  F   UNL     1      -4.548  11.963 -15.205  1.00  0.00    -0.203 F 
ATOM     81  F   UNL     1      -9.642  12.153 -13.256  1.00  0.00    -0.200 F 
ATOM     82  C   UNL     1      -8.013  11.099 -14.601  1.00  0.00     0.200 A 
ATOM     83  F   UNL     1      -6.347  10.072 -15.922  1.00  0.00    -0.200 F 
ATOM     84  F   UNL     1      -8.890  10.144 -14.941  1.00  0.00    -0.200 F 
ENDBRANCH  60  74
BRANCH  61  85
ATOM     85  C   UNL     1       0.711  19.816 -11.208  1.00  0.00     0.064 A 
ATOM     86  C   UNL     1       0.433  21.188 -11.139  1.00  0.00     0.173 A 
ATOM     87  C   UNL     1       2.016  19.397 -10.912  1.00  0.00     0.173 A 
ATOM     88  F   UNL     1      -0.796  21.638 -11.433  1.00  0.00    -0.203 F 
ATOM     89  C   UNL     1       1.427  22.108 -10.809  1.00  0.00     0.198 A 
ATOM     90  C   UNL     1       3.002  20.315 -10.557  1.00  0.00     0.198 A 
ATOM     91  F   UNL     1       2.330  18.094 -10.958  1.00  0.00    -0.203 F 
ATOM     92  F   UNL     1       1.145  23.418 -10.793  1.00  0.00    -0.200 F 
ATOM     93  C   UNL     1       2.709  21.670 -10.513  1.00  0.00     0.200 A 
ATOM     94  F   UNL     1       4.236  19.887 -10.259  1.00  0.00    -0.200 F 
ATOM     95  F   UNL     1       3.663  22.554 -10.193  1.00  0.00    -0.200 F 
ENDBRANCH  61  85
BRANCH  73  96
ATOM     96  C   UNL     1      -2.711  18.510 -17.132  1.00  0.00     0.064 A 
ATOM     97  C   UNL     1      -1.627  18.319 -18.000  1.00  0.00     0.173 A 
ATOM     98  C   UNL     1      -3.788  19.288 -17.584  1.00  0.00     0.173 A 
ATOM     99  F   UNL     1      -0.567  17.596 -17.607  1.00  0.00    -0.203 F 
ATOM    100  C   UNL     1      -1.612  18.901 -19.264  1.00  0.00     0.198 A 
ATOM    101  C   UNL     1      -3.782  19.846 -18.858  1.00  0.00     0.198 A 
ATOM    102  F   UNL     1      -4.851  19.495 -16.793  1.00  0.00    -0.203 F 
ATOM    103  F   UNL     1      -0.546  18.741 -20.061  1.00  0.00    -0.200 F 
ATOM    104  C   UNL     1      -2.692  19.658 -19.695  1.00  0.00     0.200 A 
ATOM    105  F   UNL     1      -4.831  20.567 -19.278  1.00  0.00    -0.200 F 
ATOM    106  F   UNL     1      -2.679  20.212 -20.915  1.00  0.00    -0.200 F 
ENDBRANCH  73  96
ENDBRANCH  47  48
ENDBRANCH  39  42
ENDBRANCH  37  38
ENDBRANCH  36  37
ENDBRANCH   1  36
TORSDOF 16
