REMARK SMILES O=C(NCCCCNC(=O)c1ccncc1-c1ccc(F)cc1F)c1ccc(-c2c3nc(c(-c4c(F)c(F)c(F)c(F)c4F)c4ccc([nH]4)c(-c4c(F)c(F)c(F)c(F)c4F)c4nc(c(-c5c(F)c(F)c(F)c(F)c5F)c5ccc2[nH]5)C=C4)C=C3)cc1
REMARK SMILES IDX 5 1 4 2 3 3 1 4 2 5 25 7 26 8 87 9 27 10 86 11 28 12 29 13
REMARK SMILES IDX 30 14 80 15 31 16 85 17 79 18 81 19 32 20 84 21 78 22 77 23
REMARK SMILES IDX 33 25 65 26 45 27 64 28 46 29 49 30 63 31 82 32 47 33 48 34
REMARK SMILES IDX 62 36 83 37 50 38 34 39 35 40 43 41 36 42 37 43 41 44 44 45
REMARK SMILES IDX 38 46 39 47 42 48 40 49 66 50 67 51 75 52 68 53 69 54 73 55
REMARK SMILES IDX 76 56 70 57 71 58 74 59 72 60 51 61 52 62 60 63 53 64 54 65
REMARK SMILES IDX 58 66 61 67 55 68 56 69 59 70 57 71 6 72 7 73 8 74 9 75
REMARK SMILES IDX 10 77 11 78 12 79 16 80 13 81 15 82 14 83 17 84 18 85 23 86
REMARK SMILES IDX 19 87 22 88 24 89 20 90 21 91
REMARK H PARENT 3 6 81 24 49 35 8 76
REMARK Flexibility Score: inf
ROOT
ATOM      1  C   UNL     1       4.923  -1.232  -2.500  1.00  0.00     0.023 C 
ENDROOT
BRANCH   1   2
ATOM      2  C   UNL     1       4.586  -0.185  -1.447  1.00  0.00     0.116 C 
BRANCH   2   3
ATOM      3  N   UNL     1       3.156  -0.009  -1.247  1.00  0.00    -0.352 N 
ATOM      4  O   UNL     1       1.193  -0.021  -0.134  1.00  0.00    -0.269 OA
ATOM      5  C   UNL     1       2.418  -0.087  -0.089  1.00  0.00     0.251 C 
ATOM      6  H   UNL     1       2.640   0.196  -2.060  1.00  0.00     0.163 HD
BRANCH   5   7
ATOM      7  C   UNL     1       3.096  -0.285   1.211  1.00  0.00     0.039 A 
ATOM      8  C   UNL     1       4.237   0.448   1.542  1.00  0.00     0.014 A 
ATOM      9  C   UNL     1       2.580  -1.222   2.111  1.00  0.00     0.014 A 
ATOM     10  C   UNL     1       4.949   0.132   2.694  1.00  0.00     0.010 A 
ATOM     11  C   UNL     1       3.248  -1.475   3.313  1.00  0.00     0.010 A 
ATOM     12  C   UNL     1       4.459  -0.825   3.597  1.00  0.00    -0.014 A 
BRANCH  12  13
ATOM     13  C   UNL     1       5.202  -1.078   4.857  1.00  0.00     0.031 A 
ATOM     14  C   UNL     1       5.846  -2.406   5.134  1.00  0.00     0.074 A 
ATOM     15  C   UNL     1       5.324  -0.071   5.743  1.00  0.00     0.049 A 
ATOM     16  N   UNL     1       6.568  -2.771   6.164  1.00  0.00    -0.248 NA
ATOM     17  C   UNL     1       5.650  -3.468   4.135  1.00  0.00     0.031 C 
ATOM     18  C   UNL     1       4.724   1.255   5.589  1.00  0.00     0.029 A 
ATOM     19  N   UNL     1       6.004   0.006   6.931  1.00  0.00    -0.354 N 
ATOM     20  C   UNL     1       6.894  -4.104   5.950  1.00  0.00     0.074 A 
ATOM     21  C   UNL     1       6.274  -4.493   4.701  1.00  0.00     0.031 C 
ATOM     22  C   UNL     1       5.106   2.031   6.612  1.00  0.00     0.029 A 
ATOM     23  C   UNL     1       5.928   1.242   7.524  1.00  0.00     0.049 A 
ATOM     24  H   UNL     1       6.499  -0.750   7.321  1.00  0.00     0.167 HD
ATOM     25  C   UNL     1       7.649  -4.920   6.723  1.00  0.00     0.037 A 
ATOM     26  C   UNL     1       6.453   1.693   8.678  1.00  0.00     0.037 A 
ATOM     27  C   UNL     1       8.287  -4.517   7.950  1.00  0.00     0.049 A 
ATOM     28  C   UNL     1       7.284   0.768   9.516  1.00  0.00     0.074 A 
ATOM     29  C   UNL     1       9.125  -5.255   8.768  1.00  0.00     0.029 A 
ATOM     30  N   UNL     1       8.156  -3.267   8.538  1.00  0.00    -0.354 N 
ATOM     31  N   UNL     1       7.618  -0.477   9.280  1.00  0.00    -0.248 NA
ATOM     32  C   UNL     1       7.804   1.303  10.780  1.00  0.00     0.031 C 
ATOM     33  C   UNL     1       9.461  -4.470   9.875  1.00  0.00     0.029 A 
ATOM     34  C   UNL     1       8.872  -3.225   9.724  1.00  0.00     0.049 A 
ATOM     35  H   UNL     1       7.632  -2.520   8.168  1.00  0.00     0.167 HD
ATOM     36  C   UNL     1       8.389  -0.876  10.362  1.00  0.00     0.074 A 
ATOM     37  C   UNL     1       8.491   0.268  11.246  1.00  0.00     0.031 C 
ATOM     38  C   UNL     1       8.954  -2.083  10.601  1.00  0.00     0.037 A 
BRANCH  25  39
ATOM     39  C   UNL     1       7.826  -6.344   6.281  1.00  0.00     0.064 A 
ATOM     40  C   UNL     1       7.223  -7.388   6.999  1.00  0.00     0.173 A 
ATOM     41  C   UNL     1       8.648  -6.683   5.197  1.00  0.00     0.173 A 
ATOM     42  F   UNL     1       6.433  -7.118   8.049  1.00  0.00    -0.203 F 
ATOM     43  C   UNL     1       7.445  -8.719   6.654  1.00  0.00     0.198 A 
ATOM     44  C   UNL     1       8.848  -8.014   4.839  1.00  0.00     0.198 A 
ATOM     45  F   UNL     1       9.241  -5.722   4.473  1.00  0.00    -0.203 F 
ATOM     46  F   UNL     1       6.880  -9.699   7.372  1.00  0.00    -0.200 F 
ATOM     47  C   UNL     1       8.254  -9.031   5.573  1.00  0.00     0.200 A 
ATOM     48  F   UNL     1       9.615  -8.314   3.781  1.00  0.00    -0.200 F 
ATOM     49  F   UNL     1       8.460 -10.311   5.236  1.00  0.00    -0.200 F 
ENDBRANCH  25  39
BRANCH  26  50
ATOM     50  C   UNL     1       6.203   3.099   9.081  1.00  0.00     0.064 A 
ATOM     51  C   UNL     1       4.923   3.525   9.468  1.00  0.00     0.173 A 
ATOM     52  C   UNL     1       7.219   4.060   9.010  1.00  0.00     0.173 A 
ATOM     53  F   UNL     1       3.916   2.642   9.541  1.00  0.00    -0.203 F 
ATOM     54  C   UNL     1       4.663   4.866   9.736  1.00  0.00     0.198 A 
ATOM     55  C   UNL     1       6.963   5.397   9.304  1.00  0.00     0.198 A 
ATOM     56  F   UNL     1       8.461   3.696   8.659  1.00  0.00    -0.203 F 
ATOM     57  F   UNL     1       3.420   5.254  10.054  1.00  0.00    -0.200 F 
ATOM     58  C   UNL     1       5.683   5.801   9.655  1.00  0.00     0.200 A 
ATOM     59  F   UNL     1       7.955   6.296   9.240  1.00  0.00    -0.200 F 
ATOM     60  F   UNL     1       5.432   7.092   9.910  1.00  0.00    -0.200 F 
ENDBRANCH  26  50
BRANCH  38  61
ATOM     61  C   UNL     1       9.734  -2.240  11.871  1.00  0.00     0.064 A 
ATOM     62  C   UNL     1      11.133  -2.343  11.842  1.00  0.00     0.173 A 
ATOM     63  C   UNL     1       9.090  -2.357  13.111  1.00  0.00     0.173 A 
ATOM     64  F   UNL     1      11.794  -2.243  10.679  1.00  0.00    -0.203 F 
ATOM     65  C   UNL     1      11.857  -2.573  13.008  1.00  0.00     0.198 A 
ATOM     66  C   UNL     1       9.820  -2.563  14.278  1.00  0.00     0.198 A 
ATOM     67  F   UNL     1       7.755  -2.251  13.190  1.00  0.00    -0.203 F 
ATOM     68  F   UNL     1      13.191  -2.698  12.953  1.00  0.00    -0.200 F 
ATOM     69  C   UNL     1      11.201  -2.680  14.225  1.00  0.00     0.200 A 
ATOM     70  F   UNL     1       9.186  -2.643  15.457  1.00  0.00    -0.200 F 
ATOM     71  F   UNL     1      11.900  -2.893  15.348  1.00  0.00    -0.200 F 
ENDBRANCH  38  61
ENDBRANCH  12  13
ENDBRANCH   5   7
ENDBRANCH   2   3
ENDBRANCH   1   2
BRANCH   1  72
ATOM     72  C   UNL     1       4.427  -0.933  -3.912  1.00  0.00     0.023 C 
BRANCH  72  73
ATOM     73  C   UNL     1       4.784   0.446  -4.458  1.00  0.00     0.116 C 
BRANCH  73  74
ATOM     74  N   UNL     1       6.216   0.696  -4.481  1.00  0.00    -0.352 N 
ATOM     75  C   UNL     1       7.025   1.053  -5.533  1.00  0.00     0.252 C 
ATOM     76  H   UNL     1       6.674   0.594  -3.615  1.00  0.00     0.163 HD
ATOM     77  O   UNL     1       8.229   1.203  -5.359  1.00  0.00    -0.269 OA
BRANCH  75  78
ATOM     78  C   UNL     1       6.430   1.254  -6.870  1.00  0.00     0.050 A 
ATOM     79  C   UNL     1       5.454   2.249  -7.005  1.00  0.00     0.034 A 
ATOM     80  C   UNL     1       6.858   0.507  -7.978  1.00  0.00     0.016 A 
ATOM     81  C   UNL     1       4.856   2.411  -8.237  1.00  0.00     0.112 A 
ATOM     82  C   UNL     1       6.179   0.769  -9.168  1.00  0.00     0.120 A 
ATOM     83  N   UNL     1       5.181   1.677  -9.317  1.00  0.00    -0.264 NA
BRANCH  80  84
ATOM     84  C   UNL     1       7.957  -0.470  -7.955  1.00  0.00     0.020 A 
ATOM     85  C   UNL     1       7.908  -1.629  -7.160  1.00  0.00     0.015 A 
ATOM     86  C   UNL     1       9.106  -0.267  -8.742  1.00  0.00     0.134 A 
ATOM     87  C   UNL     1       8.974  -2.534  -7.155  1.00  0.00     0.040 A 
ATOM     88  C   UNL     1      10.169  -1.163  -8.745  1.00  0.00     0.079 A 
ATOM     89  F   UNL     1       9.194   0.819  -9.527  1.00  0.00    -0.206 F 
ATOM     90  C   UNL     1      10.093  -2.291  -7.946  1.00  0.00     0.126 A 
ATOM     91  F   UNL     1      11.108  -3.165  -7.939  1.00  0.00    -0.207 F 
ENDBRANCH  80  84
ENDBRANCH  75  78
ENDBRANCH  73  74
ENDBRANCH  72  73
ENDBRANCH   1  72
TORSDOF 12
