REMARK SMILES Cc1csc(C[NH2+]C[C@H]2CCC[C@H]2C(=O)NCCCCNC(=O)c2ccc(-c3c4nc(c(-c5c(F)c(F)c(F)c(F)c5F)c5ccc([nH]5)c(-c5c(F)c(F)c(F)c(F)c5F)c5nc(c(-c6c(F)c(F)c(F)c(F)c6F)c6ccc3[nH]6)C=C5)C=C4)cc2)n1
REMARK SMILES IDX 17 1 16 2 14 3 15 4 13 6 9 7 10 8 11 9 12 10 8 11 7 12 6 15
REMARK SMILES IDX 5 16 1 17 2 18 3 19 87 20 4 21 18 22 19 23 20 24 21 25 22 26
REMARK SMILES IDX 23 28 24 29 25 30 86 31 26 32 85 33 27 34 28 35 29 36 79 37
REMARK SMILES IDX 30 38 84 39 78 40 80 41 31 42 83 43 77 44 76 45 32 47 64 48
REMARK SMILES IDX 44 49 63 50 45 51 48 52 62 53 81 54 46 55 47 56 61 58 82 59
REMARK SMILES IDX 49 60 33 61 34 62 42 63 35 64 36 65 40 66 43 67 37 68 38 69
REMARK SMILES IDX 41 70 39 71 65 72 66 73 74 74 67 75 68 76 72 77 75 78 69 79
REMARK SMILES IDX 70 80 73 81 71 82 50 83 51 84 59 85 52 86 53 87 57 88 60 89
REMARK SMILES IDX 54 90 55 91 58 92 56 93
REMARK H PARENT 16 5 7 13 7 14 21 27 80 46 48 57
REMARK Flexibility Score: inf
ROOT
ATOM      1  C   UNL     1       5.008   2.132   0.726  1.00  0.00     0.116 C 
ENDROOT
BRANCH   1   2
ATOM      2  N   UNL     1       3.893   1.573  -0.014  1.00  0.00    -0.356 N 
ATOM      3  C   UNL     1       3.234   1.947  -1.139  1.00  0.00     0.223 C 
ATOM      4  O   UNL     1       2.226   1.284  -1.414  1.00  0.00    -0.275 OA
ATOM      5  H   UNL     1       3.538   0.746   0.386  1.00  0.00     0.163 HD
BRANCH   3   6
ATOM      6  C   UNL     1       3.638   3.096  -2.066  1.00  0.00     0.087 C 
ATOM      7  C   UNL     1       3.251   4.555  -1.699  1.00  0.00     0.057 C 
ATOM      8  C   UNL     1       4.166   5.354  -2.635  1.00  0.00     0.010 C 
ATOM      9  C   UNL     1       5.489   4.603  -2.589  1.00  0.00     0.001 C 
ATOM     10  C   UNL     1       5.098   3.128  -2.542  1.00  0.00     0.014 C 
BRANCH   7  11
ATOM     11  C   UNL     1       3.447   4.885  -0.221  1.00  0.00     0.265 C 
BRANCH  11  12
ATOM     12  N   UNL     1       3.444   6.267   0.203  1.00  0.00    -0.340 N 
ATOM     13  H   UNL     1       3.958   6.326   1.082  1.00  0.00     0.346 HD
ATOM     14  H   UNL     1       3.868   6.793  -0.561  1.00  0.00     0.346 HD
BRANCH  12  15
ATOM     15  C   UNL     1       2.129   6.861   0.413  1.00  0.00     0.329 C 
BRANCH  15  16
ATOM     16  C   UNL     1       2.305   8.213   1.058  1.00  0.00     0.147 A 
ATOM     17  C   UNL     1       3.374  10.136   3.905  1.00  0.00     0.067 C 
ATOM     18  C   UNL     1       2.897   9.738   2.557  1.00  0.00     0.049 A 
ATOM     19  C   UNL     1       2.691  10.564   1.470  1.00  0.00     0.090 A 
ATOM     20  N   UNL     1       2.643   8.399   2.319  1.00  0.00    -0.241 NA
ATOM     21  S   UNL     1       2.192   9.646   0.112  1.00  0.00    -0.121 S 
ENDBRANCH  15  16
ENDBRANCH  12  15
ENDBRANCH  11  12
ENDBRANCH   7  11
ENDBRANCH   3   6
ENDBRANCH   1   2
BRANCH   1  22
ATOM     22  C   UNL     1       4.531   2.810   2.016  1.00  0.00     0.023 C 
BRANCH  22  23
ATOM     23  C   UNL     1       4.288   1.880   3.194  1.00  0.00     0.023 C 
BRANCH  23  24
ATOM     24  C   UNL     1       5.534   1.189   3.711  1.00  0.00     0.116 C 
BRANCH  24  25
ATOM     25  N   UNL     1       6.596   2.109   4.091  1.00  0.00    -0.352 N 
ATOM     26  C   UNL     1       7.459   2.028   5.158  1.00  0.00     0.251 C 
ATOM     27  H   UNL     1       6.712   2.892   3.506  1.00  0.00     0.163 HD
ATOM     28  O   UNL     1       8.242   2.934   5.401  1.00  0.00    -0.269 OA
BRANCH  26  29
ATOM     29  C   UNL     1       7.396   0.840   6.033  1.00  0.00     0.039 A 
ATOM     30  C   UNL     1       7.380   1.023   7.417  1.00  0.00     0.014 A 
ATOM     31  C   UNL     1       7.298  -0.440   5.484  1.00  0.00     0.014 A 
ATOM     32  C   UNL     1       7.213  -0.082   8.249  1.00  0.00     0.010 A 
ATOM     33  C   UNL     1       7.020  -1.521   6.307  1.00  0.00     0.010 A 
ATOM     34  C   UNL     1       7.002  -1.357   7.699  1.00  0.00    -0.014 A 
BRANCH  34  35
ATOM     35  C   UNL     1       6.817  -2.545   8.565  1.00  0.00     0.031 A 
ATOM     36  C   UNL     1       7.823  -3.662   8.514  1.00  0.00     0.074 A 
ATOM     37  C   UNL     1       5.731  -2.635   9.355  1.00  0.00     0.049 A 
ATOM     38  N   UNL     1       7.833  -4.798   9.163  1.00  0.00    -0.248 NA
ATOM     39  C   UNL     1       8.950  -3.499   7.579  1.00  0.00     0.031 C 
ATOM     40  C   UNL     1       4.656  -1.644   9.436  1.00  0.00     0.029 A 
ATOM     41  N   UNL     1       5.352  -3.610  10.243  1.00  0.00    -0.354 N 
ATOM     42  C   UNL     1       8.950  -5.483   8.703  1.00  0.00     0.074 A 
ATOM     43  C   UNL     1       9.551  -4.674   7.668  1.00  0.00     0.031 C 
ATOM     44  C   UNL     1       3.760  -2.042  10.354  1.00  0.00     0.029 A 
ATOM     45  C   UNL     1       4.181  -3.328  10.902  1.00  0.00     0.049 A 
ATOM     46  H   UNL     1       5.870  -4.433  10.393  1.00  0.00     0.167 HD
ATOM     47  C   UNL     1       9.454  -6.662   9.135  1.00  0.00     0.037 A 
ATOM     48  C   UNL     1       3.529  -4.029  11.848  1.00  0.00     0.037 A 
ATOM     49  C   UNL     1       8.874  -7.440  10.195  1.00  0.00     0.049 A 
ATOM     50  C   UNL     1       4.120  -5.330  12.324  1.00  0.00     0.074 A 
ATOM     51  C   UNL     1       9.336  -8.616  10.757  1.00  0.00     0.029 A 
ATOM     52  N   UNL     1       7.699  -7.112  10.857  1.00  0.00    -0.354 N 
ATOM     53  N   UNL     1       5.222  -5.929  11.940  1.00  0.00    -0.248 NA
ATOM     54  C   UNL     1       3.382  -6.046  13.372  1.00  0.00     0.031 C 
ATOM     55  C   UNL     1       8.419  -9.021  11.733  1.00  0.00     0.029 A 
ATOM     56  C   UNL     1       7.411  -8.073  11.811  1.00  0.00     0.049 A 
ATOM     57  H   UNL     1       7.152  -6.314  10.675  1.00  0.00     0.167 HD
ATOM     58  C   UNL     1       5.323  -7.076  12.715  1.00  0.00     0.074 A 
ATOM     59  C   UNL     1       4.181  -7.077  13.606  1.00  0.00     0.031 C 
ATOM     60  C   UNL     1       6.271  -8.046  12.690  1.00  0.00     0.037 A 
BRANCH  47  61
ATOM     61  C   UNL     1      10.702  -7.167   8.470  1.00  0.00     0.064 A 
ATOM     62  C   UNL     1      11.938  -6.522   8.642  1.00  0.00     0.173 A 
ATOM     63  C   UNL     1      10.669  -8.317   7.669  1.00  0.00     0.173 A 
ATOM     64  F   UNL     1      12.021  -5.409   9.386  1.00  0.00    -0.203 F 
ATOM     65  C   UNL     1      13.086  -6.991   8.009  1.00  0.00     0.198 A 
ATOM     66  C   UNL     1      11.826  -8.802   7.064  1.00  0.00     0.198 A 
ATOM     67  F   UNL     1       9.516  -8.972   7.472  1.00  0.00    -0.203 F 
ATOM     68  F   UNL     1      14.242  -6.326   8.142  1.00  0.00    -0.200 F 
ATOM     69  C   UNL     1      13.031  -8.134   7.227  1.00  0.00     0.200 A 
ATOM     70  F   UNL     1      11.774  -9.914   6.317  1.00  0.00    -0.200 F 
ATOM     71  F   UNL     1      14.138  -8.588   6.623  1.00  0.00    -0.200 F 
ENDBRANCH  47  61
BRANCH  48  72
ATOM     72  C   UNL     1       2.273  -3.499  12.440  1.00  0.00     0.064 A 
ATOM     73  C   UNL     1       2.234  -3.064  13.772  1.00  0.00     0.173 A 
ATOM     74  C   UNL     1       1.087  -3.427  11.695  1.00  0.00     0.173 A 
ATOM     75  F   UNL     1       3.338  -3.130  14.530  1.00  0.00    -0.203 F 
ATOM     76  C   UNL     1       1.051  -2.600  14.344  1.00  0.00     0.198 A 
ATOM     77  C   UNL     1      -0.089  -2.936  12.261  1.00  0.00     0.198 A 
ATOM     78  F   UNL     1       1.072  -3.825  10.415  1.00  0.00    -0.203 F 
ATOM     79  F   UNL     1       1.031  -2.238  15.634  1.00  0.00    -0.200 F 
ATOM     80  C   UNL     1      -0.108  -2.533  13.587  1.00  0.00     0.200 A 
ATOM     81  F   UNL     1      -1.204  -2.859  11.521  1.00  0.00    -0.200 F 
ATOM     82  F   UNL     1      -1.246  -2.087  14.138  1.00  0.00    -0.200 F 
ENDBRANCH  48  72
BRANCH  60  83
ATOM     83  C   UNL     1       6.124  -9.170  13.673  1.00  0.00     0.064 A 
ATOM     84  C   UNL     1       5.126 -10.144  13.530  1.00  0.00     0.173 A 
ATOM     85  C   UNL     1       7.017  -9.294  14.748  1.00  0.00     0.173 A 
ATOM     86  F   UNL     1       4.240 -10.061  12.525  1.00  0.00    -0.203 F 
ATOM     87  C   UNL     1       5.008 -11.186  14.445  1.00  0.00     0.198 A 
ATOM     88  C   UNL     1       6.916 -10.354  15.643  1.00  0.00     0.198 A 
ATOM     89  F   UNL     1       7.995  -8.392  14.923  1.00  0.00    -0.203 F 
ATOM     90  F   UNL     1       4.016 -12.077  14.318  1.00  0.00    -0.200 F 
ATOM     91  C   UNL     1       5.907 -11.294  15.495  1.00  0.00     0.200 A 
ATOM     92  F   UNL     1       7.795 -10.466  16.648  1.00  0.00    -0.200 F 
ATOM     93  F   UNL     1       5.797 -12.302  16.372  1.00  0.00    -0.200 F 
ENDBRANCH  60  83
ENDBRANCH  34  35
ENDBRANCH  26  29
ENDBRANCH  24  25
ENDBRANCH  23  24
ENDBRANCH  22  23
ENDBRANCH   1  22
TORSDOF 15
