REMARK SMILES CCc1c([N+](=O)[O-])cc(C(=O)NCCCCNC(=O)c2ccc(-c3c4nc(c(-c5c(F)c(F)c(F)c(F)c5F)c5ccc([nH]5)c(-c5c(F)c(F)c(F)c(F)c5F)c5nc(c(-c6c(F)c(F)c(F)c(F)c6F)c6ccc3[nH]6)C=C5)C=C4)cc2)n1C
REMARK SMILES IDX 15 1 14 2 13 3 12 4 10 5 11 6 9 8 3 9 4 10 83 11 8 12 84 13
REMARK SMILES IDX 2 14 1 15 5 16 6 17 7 18 16 19 17 20 18 21 19 23 20 24 21 25
REMARK SMILES IDX 82 26 22 27 81 28 23 29 24 30 25 31 75 32 26 33 80 34 74 35
REMARK SMILES IDX 76 36 27 37 79 38 73 39 72 40 28 42 60 43 40 44 59 45 41 46
REMARK SMILES IDX 44 47 58 48 77 49 42 50 43 51 57 53 78 54 45 55 29 56 30 57
REMARK SMILES IDX 38 58 31 59 32 60 36 61 39 62 33 63 34 64 37 65 35 66 61 67
REMARK SMILES IDX 62 68 70 69 63 70 64 71 68 72 71 73 65 74 66 75 69 76 67 77
REMARK SMILES IDX 46 78 47 79 55 80 48 81 49 82 53 83 56 84 50 85 51 86 54 87
REMARK SMILES IDX 52 88
REMARK H PARENT 12 7 17 22 76 41 44 52
REMARK Flexibility Score: inf
ROOT
ATOM      1  C   UNL     1      -2.404   6.614   1.442  1.00  0.00     0.023 C 
ENDROOT
BRANCH   1   2
ATOM      2  C   UNL     1      -2.409   5.108   1.702  1.00  0.00     0.023 C 
BRANCH   2   3
ATOM      3  C   UNL     1      -1.057   4.405   1.652  1.00  0.00     0.116 C 
BRANCH   3   4
ATOM      4  N   UNL     1      -0.078   4.894   2.598  1.00  0.00    -0.351 N 
ATOM      5  C   UNL     1       0.967   4.244   3.215  1.00  0.00     0.268 C 
ATOM      6  O   UNL     1       1.641   4.911   3.999  1.00  0.00    -0.268 OA
ATOM      7  H   UNL     1      -0.174   5.843   2.840  1.00  0.00     0.163 HD
BRANCH   5   8
ATOM      8  C   UNL     1       1.205   2.825   3.009  1.00  0.00     0.114 A 
ATOM      9  C   UNL     1       1.101   0.710   2.189  1.00  0.00     0.096 A 
ATOM     10  C   UNL     1       1.694   0.635   3.450  1.00  0.00     0.290 A 
ATOM     11  N   UNL     1       1.095   2.060   1.862  1.00  0.00    -0.338 N 
ATOM     12  C   UNL     1       1.740   1.962   3.958  1.00  0.00     0.119 A 
ATOM     13  C   UNL     1       1.157   2.575   0.509  1.00  0.00     0.150 C 
BRANCH   9  14
ATOM     14  C   UNL     1       0.503  -0.365   1.319  1.00  0.00     0.058 C 
ATOM     15  C   UNL     1       1.145  -0.547  -0.043  1.00  0.00     0.011 C 
ENDBRANCH   9  14
BRANCH  10  16
ATOM     16  N   UNL     1       2.116  -0.549   4.170  1.00  0.00     0.064 N 
ATOM     17  O   UNL     1       2.171  -1.617   3.546  1.00  0.00    -0.258 OA
ATOM     18  O   UNL     1       2.424  -0.396   5.359  1.00  0.00    -0.258 OA
ENDBRANCH  10  16
ENDBRANCH   5   8
ENDBRANCH   3   4
ENDBRANCH   2   3
ENDBRANCH   1   2
BRANCH   1  19
ATOM     19  C   UNL     1      -1.597   7.099   0.241  1.00  0.00     0.116 C 
BRANCH  19  20
ATOM     20  N   UNL     1      -2.051   6.561  -1.034  1.00  0.00    -0.352 N 
ATOM     21  C   UNL     1      -2.545   7.201  -2.148  1.00  0.00     0.251 C 
ATOM     22  H   UNL     1      -1.996   5.582  -1.111  1.00  0.00     0.163 HD
ATOM     23  O   UNL     1      -2.950   6.540  -3.100  1.00  0.00    -0.269 OA
BRANCH  21  24
ATOM     24  C   UNL     1      -2.640   8.677  -2.189  1.00  0.00     0.039 A 
ATOM     25  C   UNL     1      -3.827   9.262  -2.640  1.00  0.00     0.014 A 
ATOM     26  C   UNL     1      -1.584   9.486  -1.766  1.00  0.00     0.014 A 
ATOM     27  C   UNL     1      -3.990  10.649  -2.566  1.00  0.00     0.010 A 
ATOM     28  C   UNL     1      -1.782  10.855  -1.604  1.00  0.00     0.010 A 
ATOM     29  C   UNL     1      -2.991  11.452  -1.993  1.00  0.00    -0.014 A 
BRANCH  29  30
ATOM     30  C   UNL     1      -3.205  12.908  -1.769  1.00  0.00     0.031 A 
ATOM     31  C   UNL     1      -2.314  13.922  -2.432  1.00  0.00     0.074 A 
ATOM     32  C   UNL     1      -4.161  13.316  -0.910  1.00  0.00     0.049 A 
ATOM     33  N   UNL     1      -2.312  15.227  -2.313  1.00  0.00    -0.248 NA
ATOM     34  C   UNL     1      -1.265  13.402  -3.323  1.00  0.00     0.031 C 
ATOM     35  C   UNL     1      -5.051  12.433  -0.153  1.00  0.00     0.029 A 
ATOM     36  N   UNL     1      -4.540  14.577  -0.520  1.00  0.00    -0.354 N 
ATOM     37  C   UNL     1      -1.260  15.678  -3.100  1.00  0.00     0.074 A 
ATOM     38  C   UNL     1      -0.607  14.506  -3.643  1.00  0.00     0.031 C 
ATOM     39  C   UNL     1      -5.889  13.178   0.585  1.00  0.00     0.029 A 
ATOM     40  C   UNL     1      -5.573  14.589   0.387  1.00  0.00     0.049 A 
ATOM     41  H   UNL     1      -4.111  15.397  -0.858  1.00  0.00     0.167 HD
ATOM     42  C   UNL     1      -0.889  16.952  -3.368  1.00  0.00     0.037 A 
ATOM     43  C   UNL     1      -6.192  15.620   0.995  1.00  0.00     0.037 A 
ATOM     44  C   UNL     1      -1.556  18.117  -2.849  1.00  0.00     0.049 A 
ATOM     45  C   UNL     1      -5.760  17.026   0.678  1.00  0.00     0.074 A 
ATOM     46  C   UNL     1      -1.297  19.451  -3.116  1.00  0.00     0.029 A 
ATOM     47  N   UNL     1      -2.613  18.088  -1.951  1.00  0.00    -0.354 N 
ATOM     48  N   UNL     1      -4.818  17.440  -0.134  1.00  0.00    -0.248 NA
ATOM     49  C   UNL     1      -6.485  18.110   1.356  1.00  0.00     0.031 C 
ATOM     50  C   UNL     1      -2.162  20.229  -2.341  1.00  0.00     0.029 A 
ATOM     51  C   UNL     1      -3.000  19.381  -1.635  1.00  0.00     0.049 A 
ATOM     52  H   UNL     1      -3.026  17.270  -1.591  1.00  0.00     0.167 HD
ATOM     53  C   UNL     1      -4.856  18.828  -0.088  1.00  0.00     0.074 A 
ATOM     54  C   UNL     1      -5.927  19.186   0.819  1.00  0.00     0.031 C 
ATOM     55  C   UNL     1      -4.074  19.724  -0.738  1.00  0.00     0.037 A 
BRANCH  42  56
ATOM     56  C   UNL     1       0.292  17.157  -4.275  1.00  0.00     0.064 A 
ATOM     57  C   UNL     1       0.232  16.847  -5.642  1.00  0.00     0.173 A 
ATOM     58  C   UNL     1       1.482  17.712  -3.781  1.00  0.00     0.173 A 
ATOM     59  F   UNL     1      -0.878  16.305  -6.164  1.00  0.00    -0.203 F 
ATOM     60  C   UNL     1       1.330  17.055  -6.474  1.00  0.00     0.198 A 
ATOM     61  C   UNL     1       2.567  17.949  -4.622  1.00  0.00     0.198 A 
ATOM     62  F   UNL     1       1.592  18.034  -2.483  1.00  0.00    -0.203 F 
ATOM     63  F   UNL     1       1.266  16.702  -7.765  1.00  0.00    -0.200 F 
ATOM     64  C   UNL     1       2.493  17.613  -5.965  1.00  0.00     0.200 A 
ATOM     65  F   UNL     1       3.684  18.503  -4.132  1.00  0.00    -0.200 F 
ATOM     66  F   UNL     1       3.545  17.821  -6.769  1.00  0.00    -0.200 F 
ENDBRANCH  42  56
BRANCH  43  67
ATOM     67  C   UNL     1      -7.307  15.364   1.946  1.00  0.00     0.064 A 
ATOM     68  C   UNL     1      -8.623  15.732   1.629  1.00  0.00     0.173 A 
ATOM     69  C   UNL     1      -7.082  14.763   3.193  1.00  0.00     0.173 A 
ATOM     70  F   UNL     1      -8.887  16.328   0.457  1.00  0.00    -0.203 F 
ATOM     71  C   UNL     1      -9.665  15.532   2.532  1.00  0.00     0.198 A 
ATOM     72  C   UNL     1      -8.130  14.535   4.082  1.00  0.00     0.198 A 
ATOM     73  F   UNL     1      -5.844  14.387   3.544  1.00  0.00    -0.203 F 
ATOM     74  F   UNL     1     -10.903  15.940   2.223  1.00  0.00    -0.200 F 
ATOM     75  C   UNL     1      -9.419  14.928   3.756  1.00  0.00     0.200 A 
ATOM     76  F   UNL     1      -7.891  13.937   5.257  1.00  0.00    -0.200 F 
ATOM     77  F   UNL     1     -10.422  14.734   4.623  1.00  0.00    -0.200 F 
ENDBRANCH  43  67
BRANCH  55  78
ATOM     78  C   UNL     1      -4.371  21.181  -0.525  1.00  0.00     0.064 A 
ATOM     79  C   UNL     1      -4.098  21.820   0.693  1.00  0.00     0.173 A 
ATOM     80  C   UNL     1      -4.899  21.956  -1.569  1.00  0.00     0.173 A 
ATOM     81  F   UNL     1      -3.606  21.121   1.727  1.00  0.00    -0.203 F 
ATOM     82  C   UNL     1      -4.369  23.175   0.867  1.00  0.00     0.198 A 
ATOM     83  C   UNL     1      -5.137  23.317  -1.402  1.00  0.00     0.198 A 
ATOM     84  F   UNL     1      -5.171  21.396  -2.757  1.00  0.00    -0.203 F 
ATOM     85  F   UNL     1      -4.148  23.753   2.056  1.00  0.00    -0.200 F 
ATOM     86  C   UNL     1      -4.880  23.924  -0.182  1.00  0.00     0.200 A 
ATOM     87  F   UNL     1      -5.617  24.042  -2.422  1.00  0.00    -0.200 F 
ATOM     88  F   UNL     1      -5.132  25.229  -0.015  1.00  0.00    -0.200 F 
ENDBRANCH  55  78
ENDBRANCH  29  30
ENDBRANCH  21  24
ENDBRANCH  19  20
ENDBRANCH   1  19
TORSDOF 13
