REMARK SMILES O=C(NCCCCNC(=O)[C@@H]1[C@@H](C(=O)NCCCn2ccnc2)[C@@H]2C=C[C@H]1C2)c1ccc(-c2c3nc(c(-c4c(F)c(F)c(F)c(F)c4F)c4ccc([nH]4)c(-c4c(F)c(F)c(F)c(F)c4F)c4nc(c(-c5c(F)c(F)c(F)c(F)c5F)c5ccc2[nH]5)C=C4)C=C3)cc1
REMARK SMILES IDX 7 1 6 2 5 3 4 4 3 5 1 6 2 7 29 9 30 10 91 11 31 12 90 13
REMARK SMILES IDX 32 14 33 15 34 16 84 17 35 18 89 19 83 20 85 21 36 22 88 23
REMARK SMILES IDX 82 24 81 25 37 27 69 28 49 29 68 30 50 31 53 32 67 33 86 34
REMARK SMILES IDX 51 35 52 36 66 38 87 39 54 40 38 41 39 42 47 43 40 44 41 45
REMARK SMILES IDX 45 46 48 47 42 48 43 49 46 50 44 51 70 52 71 53 79 54 72 55
REMARK SMILES IDX 73 56 77 57 80 58 74 59 75 60 78 61 76 62 55 63 56 64 64 65
REMARK SMILES IDX 57 66 58 67 62 68 65 69 59 70 60 71 63 72 61 73 8 74 9 75
REMARK SMILES IDX 10 77 11 78 12 79 27 80 24 81 26 82 28 83 25 84 13 85 14 86
REMARK SMILES IDX 15 87 16 89 17 90 18 91 19 92 20 93 23 94 21 95 22 96
REMARK H PARENT 3 8 85 26 53 37 8 76 15 88
REMARK Flexibility Score: inf
ROOT
ATOM      1  C   UNL     1       4.952   3.152   2.741  1.00  0.00     0.116 C 
ENDROOT
BRANCH   1   2
ATOM      2  C   UNL     1       4.413   3.297   1.316  1.00  0.00     0.023 C 
BRANCH   2   3
ATOM      3  C   UNL     1       4.878   2.226   0.315  1.00  0.00     0.023 C 
BRANCH   3   4
ATOM      4  C   UNL     1       4.616   0.781   0.738  1.00  0.00     0.116 C 
BRANCH   4   5
ATOM      5  N   UNL     1       3.214   0.462   0.916  1.00  0.00    -0.352 N 
ATOM      6  O   UNL     1       1.127  -0.186   0.640  1.00  0.00    -0.269 OA
ATOM      7  C   UNL     1       2.183   0.092   0.090  1.00  0.00     0.251 C 
ATOM      8  H   UNL     1       2.933   0.526   1.857  1.00  0.00     0.163 HD
BRANCH   7   9
ATOM      9  C   UNL     1       2.248   0.042  -1.402  1.00  0.00     0.039 A 
ATOM     10  C   UNL     1       3.405   0.084  -2.178  1.00  0.00     0.014 A 
ATOM     11  C   UNL     1       1.008  -0.076  -2.063  1.00  0.00     0.014 A 
ATOM     12  C   UNL     1       3.327   0.057  -3.572  1.00  0.00     0.010 A 
ATOM     13  C   UNL     1       0.925  -0.116  -3.454  1.00  0.00     0.010 A 
ATOM     14  C   UNL     1       2.088  -0.029  -4.213  1.00  0.00    -0.014 A 
BRANCH  14  15
ATOM     15  C   UNL     1       2.073  -0.138  -5.673  1.00  0.00     0.031 A 
ATOM     16  C   UNL     1       2.691  -1.371  -6.255  1.00  0.00     0.074 A 
ATOM     17  C   UNL     1       1.413   0.714  -6.483  1.00  0.00     0.049 A 
ATOM     18  N   UNL     1       3.608  -1.470  -7.167  1.00  0.00    -0.248 NA
ATOM     19  C   UNL     1       2.233  -2.666  -5.728  1.00  0.00     0.031 C 
ATOM     20  C   UNL     1       0.489   1.787  -6.110  1.00  0.00     0.029 A 
ATOM     21  N   UNL     1       1.366   0.722  -7.848  1.00  0.00    -0.354 N 
ATOM     22  C   UNL     1       3.758  -2.834  -7.424  1.00  0.00     0.074 A 
ATOM     23  C   UNL     1       2.941  -3.526  -6.460  1.00  0.00     0.031 C 
ATOM     24  C   UNL     1      -0.173   2.205  -7.212  1.00  0.00     0.029 A 
ATOM     25  C   UNL     1       0.370   1.527  -8.377  1.00  0.00     0.049 A 
ATOM     26  H   UNL     1       1.987   0.201  -8.407  1.00  0.00     0.167 HD
ATOM     27  C   UNL     1       4.438  -3.314  -8.504  1.00  0.00     0.037 A 
ATOM     28  C   UNL     1      -0.023   1.585  -9.671  1.00  0.00     0.037 A 
ATOM     29  C   UNL     1       5.341  -2.343  -9.052  1.00  0.00     0.049 A 
ATOM     30  C   UNL     1       1.061   1.023 -10.511  1.00  0.00     0.074 A 
ATOM     31  C   UNL     1       6.455  -1.679  -8.578  1.00  0.00     0.029 A 
ATOM     32  N   UNL     1       4.996  -1.689 -10.206  1.00  0.00    -0.354 N 
ATOM     33  N   UNL     1       2.212   1.597 -10.715  1.00  0.00    -0.248 NA
ATOM     34  C   UNL     1       0.998  -0.390 -10.850  1.00  0.00     0.031 C 
ATOM     35  C   UNL     1       6.402  -0.388  -9.180  1.00  0.00     0.029 A 
ATOM     36  C   UNL     1       5.272  -0.362  -9.997  1.00  0.00     0.049 A 
ATOM     37  H   UNL     1       4.623  -2.092 -11.023  1.00  0.00     0.167 HD
ATOM     38  C   UNL     1       3.115   0.551 -10.806  1.00  0.00     0.074 A 
ATOM     39  C   UNL     1       2.299  -0.642 -10.999  1.00  0.00     0.031 C 
ATOM     40  C   UNL     1       4.421   0.713 -10.443  1.00  0.00     0.037 A 
BRANCH  27  41
ATOM     41  C   UNL     1       4.105  -4.599  -9.216  1.00  0.00     0.064 A 
ATOM     42  C   UNL     1       5.011  -5.152 -10.144  1.00  0.00     0.173 A 
ATOM     43  C   UNL     1       2.810  -5.159  -9.221  1.00  0.00     0.173 A 
ATOM     44  F   UNL     1       6.258  -4.670 -10.252  1.00  0.00    -0.203 F 
ATOM     45  C   UNL     1       4.632  -6.160 -11.036  1.00  0.00     0.198 A 
ATOM     46  C   UNL     1       2.450  -6.199 -10.077  1.00  0.00     0.198 A 
ATOM     47  F   UNL     1       1.823  -4.650  -8.472  1.00  0.00    -0.203 F 
ATOM     48  F   UNL     1       5.495  -6.582 -11.970  1.00  0.00    -0.200 F 
ATOM     49  C   UNL     1       3.352  -6.682 -11.002  1.00  0.00     0.200 A 
ATOM     50  F   UNL     1       1.198  -6.677 -10.045  1.00  0.00    -0.200 F 
ATOM     51  F   UNL     1       2.972  -7.613 -11.888  1.00  0.00    -0.200 F 
ENDBRANCH  27  41
BRANCH  28  52
ATOM     52  C   UNL     1      -1.377   1.846 -10.209  1.00  0.00     0.064 A 
ATOM     53  C   UNL     1      -1.568   2.244 -11.541  1.00  0.00     0.173 A 
ATOM     54  C   UNL     1      -2.526   1.445  -9.501  1.00  0.00     0.173 A 
ATOM     55  F   UNL     1      -0.519   2.593 -12.300  1.00  0.00    -0.203 F 
ATOM     56  C   UNL     1      -2.834   2.222 -12.136  1.00  0.00     0.198 A 
ATOM     57  C   UNL     1      -3.789   1.433 -10.092  1.00  0.00     0.198 A 
ATOM     58  F   UNL     1      -2.431   0.966  -8.252  1.00  0.00    -0.203 F 
ATOM     59  F   UNL     1      -2.971   2.549 -13.429  1.00  0.00    -0.200 F 
ATOM     60  C   UNL     1      -3.941   1.809 -11.413  1.00  0.00     0.200 A 
ATOM     61  F   UNL     1      -4.845   0.996  -9.392  1.00  0.00    -0.200 F 
ATOM     62  F   UNL     1      -5.144   1.732 -11.999  1.00  0.00    -0.200 F 
ENDBRANCH  28  52
BRANCH  40  63
ATOM     63  C   UNL     1       4.912   2.115 -10.214  1.00  0.00     0.064 A 
ATOM     64  C   UNL     1       4.402   2.965  -9.217  1.00  0.00     0.173 A 
ATOM     65  C   UNL     1       6.026   2.564 -10.936  1.00  0.00     0.173 A 
ATOM     66  F   UNL     1       3.413   2.564  -8.409  1.00  0.00    -0.203 F 
ATOM     67  C   UNL     1       4.946   4.229  -8.996  1.00  0.00     0.198 A 
ATOM     68  C   UNL     1       6.592   3.812 -10.687  1.00  0.00     0.198 A 
ATOM     69  F   UNL     1       6.596   1.771 -11.857  1.00  0.00    -0.203 F 
ATOM     70  F   UNL     1       4.428   5.028  -8.052  1.00  0.00    -0.200 F 
ATOM     71  C   UNL     1       6.045   4.648  -9.727  1.00  0.00     0.200 A 
ATOM     72  F   UNL     1       7.688   4.192 -11.358  1.00  0.00    -0.200 F 
ATOM     73  F   UNL     1       6.594   5.847  -9.487  1.00  0.00    -0.200 F 
ENDBRANCH  40  63
ENDBRANCH  14  15
ENDBRANCH   7   9
ENDBRANCH   4   5
ENDBRANCH   3   4
ENDBRANCH   2   3
ENDBRANCH   1   2
BRANCH   1  74
ATOM     74  N   UNL     1       6.398   3.254   2.806  1.00  0.00    -0.356 N 
ATOM     75  C   UNL     1       7.205   4.054   3.559  1.00  0.00     0.224 C 
ATOM     76  H   UNL     1       6.878   2.642   2.203  1.00  0.00     0.163 HD
ATOM     77  O   UNL     1       8.398   3.751   3.596  1.00  0.00    -0.275 OA
BRANCH  75  78
ATOM     78  C   UNL     1       6.620   5.209   4.373  1.00  0.00     0.098 C 
ATOM     79  C   UNL     1       6.000   6.346   3.513  1.00  0.00     0.098 C 
ATOM     80  C   UNL     1       7.726   5.991   5.162  1.00  0.00     0.025 C 
ATOM     81  C   UNL     1       6.693   7.631   4.045  1.00  0.00     0.025 C 
ATOM     82  C   UNL     1       8.736   6.595   4.202  1.00  0.00    -0.027 C 
ATOM     83  C   UNL     1       7.019   7.305   5.504  1.00  0.00     0.017 C 
ATOM     84  C   UNL     1       8.118   7.583   3.535  1.00  0.00    -0.027 C 
BRANCH  79  85
ATOM     85  C   UNL     1       4.487   6.460   3.409  1.00  0.00     0.224 C 
ATOM     86  O   UNL     1       3.977   6.622   2.293  1.00  0.00    -0.275 OA
ATOM     87  N   UNL     1       3.605   6.403   4.430  1.00  0.00    -0.356 N 
ATOM     88  H   UNL     1       2.670   6.481   4.133  1.00  0.00     0.163 HD
BRANCH  87  89
ATOM     89  C   UNL     1       3.728   6.253   5.864  1.00  0.00     0.117 C 
BRANCH  89  90
ATOM     90  C   UNL     1       3.307   7.531   6.593  1.00  0.00     0.043 C 
BRANCH  90  91
ATOM     91  C   UNL     1       1.795   7.618   6.822  1.00  0.00     0.125 C 
BRANCH  91  92
ATOM     92  N   UNL     1       1.355   6.721   7.874  1.00  0.00    -0.337 N 
ATOM     93  C   UNL     1       1.067   5.391   7.746  1.00  0.00     0.107 A 
ATOM     94  C   UNL     1       1.242   7.041   9.196  1.00  0.00     0.199 A 
ATOM     95  C   UNL     1       0.907   4.939   9.035  1.00  0.00     0.130 A 
ATOM     96  N   UNL     1       1.002   5.975   9.926  1.00  0.00    -0.245 NA
ENDBRANCH  91  92
ENDBRANCH  90  91
ENDBRANCH  89  90
ENDBRANCH  87  89
ENDBRANCH  79  85
ENDBRANCH  75  78
ENDBRANCH   1  74
TORSDOF 16
