REMARK SMILES O=C(NCCCCNC(=O)[C@@H]1CCCN1S(=O)(=O)c1ccc2[nH]c(=O)c(=O)[nH]c2c1)c1ccc(-c2c3nc(c(-c4c(F)c(F)c(F)c(F)c4F)c4ccc([nH]4)c(-c4c(F)c(F)c(F)c(F)c4F)c4nc(c(-c5c(F)c(F)c(F)c(F)c5F)c5ccc2[nH]5)C=C4)C=C3)cc1
REMARK SMILES IDX 5 1 4 2 3 3 1 4 2 5 31 7 32 8 93 9 33 10 92 11 34 12 35 13
REMARK SMILES IDX 36 14 86 15 37 16 91 17 85 18 87 19 38 20 90 21 84 22 83 23
REMARK SMILES IDX 39 25 71 26 51 27 70 28 52 29 55 30 69 31 88 32 53 33 54 34
REMARK SMILES IDX 68 36 89 37 56 38 40 39 41 40 49 41 42 42 43 43 47 44 50 45
REMARK SMILES IDX 44 46 45 47 48 48 46 49 72 50 73 51 81 52 74 53 75 54 79 55
REMARK SMILES IDX 82 56 76 57 77 58 80 59 78 60 57 61 58 62 66 63 59 64 60 65
REMARK SMILES IDX 64 66 67 67 61 68 62 69 65 70 63 71 6 72 7 73 8 74 9 75
REMARK SMILES IDX 10 77 11 78 12 79 15 80 13 81 14 82 16 83 17 84 18 85 19 86
REMARK SMILES IDX 20 87 30 88 21 89 29 90 22 91 28 92 23 93 26 94 24 96 27 98
REMARK SMILES IDX 25 99
REMARK H PARENT 3 6 87 24 55 35 8 76 28 95 23 97
REMARK Flexibility Score: inf
ROOT
ATOM      1  C   UNL     1       4.968  -2.411   0.937  1.00  0.00     0.023 C 
ENDROOT
BRANCH   1   2
ATOM      2  C   UNL     1       4.595  -1.183   0.117  1.00  0.00     0.116 C 
BRANCH   2   3
ATOM      3  N   UNL     1       3.163  -1.033  -0.092  1.00  0.00    -0.352 N 
ATOM      4  O   UNL     1       1.187   0.059  -0.171  1.00  0.00    -0.269 OA
ATOM      5  C   UNL     1       2.407   0.115  -0.063  1.00  0.00     0.251 C 
ATOM      6  H   UNL     1       2.670  -1.864  -0.279  1.00  0.00     0.163 HD
BRANCH   5   7
ATOM      7  C   UNL     1       3.077   1.415   0.139  1.00  0.00     0.039 A 
ATOM      8  C   UNL     1       4.220   1.743  -0.593  1.00  0.00     0.014 A 
ATOM      9  C   UNL     1       2.572   2.299   1.096  1.00  0.00     0.014 A 
ATOM     10  C   UNL     1       4.944   2.880  -0.262  1.00  0.00     0.010 A 
ATOM     11  C   UNL     1       3.254   3.488   1.365  1.00  0.00     0.010 A 
ATOM     12  C   UNL     1       4.464   3.771   0.713  1.00  0.00    -0.014 A 
BRANCH  12  13
ATOM     13  C   UNL     1       5.216   5.019   0.987  1.00  0.00     0.031 A 
ATOM     14  C   UNL     1       5.846   5.271   2.327  1.00  0.00     0.074 A 
ATOM     15  C   UNL     1       5.346   5.921  -0.004  1.00  0.00     0.049 A 
ATOM     16  N   UNL     1       6.550   6.301   2.727  1.00  0.00    -0.248 NA
ATOM     17  C   UNL     1       5.658   4.239   3.356  1.00  0.00     0.031 C 
ATOM     18  C   UNL     1       4.770   5.783  -1.343  1.00  0.00     0.029 A 
ATOM     19  N   UNL     1       6.013   7.117  -0.049  1.00  0.00    -0.354 N 
ATOM     20  C   UNL     1       6.870   6.052   4.055  1.00  0.00     0.074 A 
ATOM     21  C   UNL     1       6.260   4.786   4.403  1.00  0.00     0.031 C 
ATOM     22  C   UNL     1       5.148   6.827  -2.093  1.00  0.00     0.029 A 
ATOM     23  C   UNL     1       5.933   7.740  -1.270  1.00  0.00     0.049 A 
ATOM     24  H   UNL     1       6.501   7.494   0.719  1.00  0.00     0.167 HD
ATOM     25  C   UNL     1       7.610   6.810   4.901  1.00  0.00     0.037 A 
ATOM     26  C   UNL     1       6.421   8.925  -1.678  1.00  0.00     0.037 A 
ATOM     27  C   UNL     1       8.218   8.067   4.541  1.00  0.00     0.049 A 
ATOM     28  C   UNL     1       7.205   9.761  -0.709  1.00  0.00     0.074 A 
ATOM     29  C   UNL     1       9.019   8.892   5.311  1.00  0.00     0.029 A 
ATOM     30  N   UNL     1       8.081   8.688   3.306  1.00  0.00    -0.354 N 
ATOM     31  N   UNL     1       7.533   9.498   0.532  1.00  0.00    -0.248 NA
ATOM     32  C   UNL     1       7.681  11.060  -1.198  1.00  0.00     0.031 C 
ATOM     33  C   UNL     1       9.319  10.037   4.564  1.00  0.00     0.029 A 
ATOM     34  C   UNL     1       8.757   9.899   3.305  1.00  0.00     0.049 A 
ATOM     35  H   UNL     1       7.578   8.322   2.543  1.00  0.00     0.167 HD
ATOM     36  C   UNL     1       8.273  10.587   0.969  1.00  0.00     0.074 A 
ATOM     37  C   UNL     1       8.358  11.506  -0.149  1.00  0.00     0.031 C 
ATOM     38  C   UNL     1       8.830  10.805   2.185  1.00  0.00     0.037 A 
BRANCH  25  39
ATOM     39  C   UNL     1       7.780   6.316   6.311  1.00  0.00     0.064 A 
ATOM     40  C   UNL     1       8.549   5.181   6.613  1.00  0.00     0.173 A 
ATOM     41  C   UNL     1       7.184   7.003   7.380  1.00  0.00     0.173 A 
ATOM     42  F   UNL     1       9.133   4.480   5.630  1.00  0.00    -0.203 F 
ATOM     43  C   UNL     1       8.684   4.734   7.926  1.00  0.00     0.198 A 
ATOM     44  C   UNL     1       7.347   6.571   8.694  1.00  0.00     0.198 A 
ATOM     45  F   UNL     1       6.444   8.098   7.152  1.00  0.00    -0.203 F 
ATOM     46  F   UNL     1       9.377   3.615   8.182  1.00  0.00    -0.200 F 
ATOM     47  C   UNL     1       8.089   5.432   8.965  1.00  0.00     0.200 A 
ATOM     48  F   UNL     1       6.782   7.256   9.699  1.00  0.00    -0.200 F 
ATOM     49  F   UNL     1       8.221   5.000  10.227  1.00  0.00    -0.200 F 
ENDBRANCH  25  39
BRANCH  26  50
ATOM     50  C   UNL     1       6.182   9.373  -3.073  1.00  0.00     0.064 A 
ATOM     51  C   UNL     1       7.232   9.439  -3.998  1.00  0.00     0.173 A 
ATOM     52  C   UNL     1       4.894   9.707  -3.520  1.00  0.00     0.173 A 
ATOM     53  F   UNL     1       8.482   9.144  -3.613  1.00  0.00    -0.203 F 
ATOM     54  C   UNL     1       7.005   9.832  -5.315  1.00  0.00     0.198 A 
ATOM     55  C   UNL     1       4.664  10.069  -4.844  1.00  0.00     0.198 A 
ATOM     56  F   UNL     1       3.854   9.649  -2.675  1.00  0.00    -0.203 F 
ATOM     57  F   UNL     1       8.032   9.919  -6.171  1.00  0.00    -0.200 F 
ATOM     58  C   UNL     1       5.720  10.137  -5.739  1.00  0.00     0.200 A 
ATOM     59  F   UNL     1       3.418  10.342  -5.255  1.00  0.00    -0.200 F 
ATOM     60  F   UNL     1       5.501  10.499  -7.010  1.00  0.00    -0.200 F 
ENDBRANCH  26  50
BRANCH  38  61
ATOM     61  C   UNL     1       9.611  12.076   2.359  1.00  0.00     0.064 A 
ATOM     62  C   UNL     1       8.980  13.328   2.416  1.00  0.00     0.173 A 
ATOM     63  C   UNL     1      11.007  12.037   2.493  1.00  0.00     0.173 A 
ATOM     64  F   UNL     1       7.649  13.421   2.275  1.00  0.00    -0.203 F 
ATOM     65  C   UNL     1       9.722  14.496   2.571  1.00  0.00     0.198 A 
ATOM     66  C   UNL     1      11.742  13.204   2.680  1.00  0.00     0.198 A 
ATOM     67  F   UNL     1      11.659  10.865   2.449  1.00  0.00    -0.203 F 
ATOM     68  F   UNL     1       9.104  15.685   2.568  1.00  0.00    -0.200 F 
ATOM     69  C   UNL     1      11.101  14.433   2.711  1.00  0.00     0.200 A 
ATOM     70  F   UNL     1      13.073  13.139   2.828  1.00  0.00    -0.200 F 
ATOM     71  F   UNL     1      11.812  15.558   2.865  1.00  0.00    -0.200 F 
ENDBRANCH  38  61
ENDBRANCH  12  13
ENDBRANCH   5   7
ENDBRANCH   2   3
ENDBRANCH   1   2
BRANCH   1  72
ATOM     72  C   UNL     1       4.439  -3.744   0.406  1.00  0.00     0.023 C 
BRANCH  72  73
ATOM     73  C   UNL     1       4.764  -4.033  -1.056  1.00  0.00     0.116 C 
BRANCH  73  74
ATOM     74  N   UNL     1       6.174  -4.253  -1.299  1.00  0.00    -0.355 N 
ATOM     75  C   UNL     1       6.850  -5.403  -1.564  1.00  0.00     0.238 C 
ATOM     76  H   UNL     1       6.731  -3.442  -1.266  1.00  0.00     0.163 HD
ATOM     77  O   UNL     1       7.903  -5.262  -2.197  1.00  0.00    -0.273 OA
BRANCH  75  78
ATOM     78  C   UNL     1       6.346  -6.799  -1.221  1.00  0.00     0.162 C 
ATOM     79  C   UNL     1       5.236  -7.037  -0.207  1.00  0.00     0.032 C 
ATOM     80  N   UNL     1       7.385  -7.825  -0.814  1.00  0.00    -0.185 NA
ATOM     81  C   UNL     1       5.176  -8.553  -0.115  1.00  0.00     0.019 C 
ATOM     82  C   UNL     1       6.562  -9.051  -0.520  1.00  0.00     0.103 C 
BRANCH  80  83
ATOM     83  S   UNL     1       8.479  -7.491   0.474  1.00  0.00     0.243 S 
ATOM     84  O   UNL     1       7.724  -6.902   1.560  1.00  0.00    -0.207 OA
ATOM     85  O   UNL     1       9.235  -8.709   0.703  1.00  0.00    -0.207 OA
BRANCH  83  86
ATOM     86  C   UNL     1       9.662  -6.279  -0.061  1.00  0.00     0.084 A 
ATOM     87  C   UNL     1       9.411  -4.921   0.178  1.00  0.00     0.024 A 
ATOM     88  C   UNL     1      10.909  -6.689  -0.551  1.00  0.00     0.050 A 
ATOM     89  C   UNL     1      10.332  -3.957  -0.233  1.00  0.00     0.030 A 
ATOM     90  C   UNL     1      11.857  -5.723  -0.887  1.00  0.00     0.066 A 
ATOM     91  C   UNL     1      11.549  -4.361  -0.775  1.00  0.00     0.065 A 
ATOM     92  N   UNL     1      13.133  -6.109  -1.308  1.00  0.00    -0.316 N 
ATOM     93  N   UNL     1      12.467  -3.399  -1.198  1.00  0.00    -0.316 N 
ATOM     94  C   UNL     1      14.116  -5.209  -1.662  1.00  0.00     0.314 A 
ATOM     95  H   UNL     1      13.340  -7.070  -1.353  1.00  0.00     0.170 HD
ATOM     96  C   UNL     1      13.716  -3.713  -1.685  1.00  0.00     0.314 A 
ATOM     97  H   UNL     1      12.209  -2.451  -1.147  1.00  0.00     0.170 HD
ATOM     98  O   UNL     1      15.250  -5.569  -1.946  1.00  0.00    -0.263 OA
ATOM     99  O   UNL     1      14.476  -2.850  -2.104  1.00  0.00    -0.263 OA
ENDBRANCH  83  86
ENDBRANCH  80  83
ENDBRANCH  75  78
ENDBRANCH  73  74
ENDBRANCH  72  73
ENDBRANCH   1  72
TORSDOF 13
