REMARK SMILES CC(C)CN(C)c1cc2c(cc1Cl)C=C(C(=O)NCCCCNC(=O)c1ccc(-c3c4nc(c(-c5c(F)c(F)c(F)c(F)c5F)c5ccc([nH]5)c(-c5c(F)c(F)c(F)c(F)c5F)c5nc(c(-c6c(F)c(F)c(F)c(F)c6F)c6ccc3[nH]6)C=C5)C=C4)cc1)[C@@H](C(F)(F)F)O2
REMARK SMILES IDX 20 1 19 2 18 3 16 4 17 5 15 7 7 8 8 9 12 10 9 11 11 12 13 13
REMARK SMILES IDX 10 14 94 15 14 16 89 17 5 18 6 19 4 20 2 21 1 22 3 23 90 24
REMARK SMILES IDX 91 25 92 26 93 27 21 28 22 29 23 30 24 31 25 33 26 34 27 35
REMARK SMILES IDX 88 36 28 37 87 38 29 39 30 40 31 41 81 42 32 43 86 44 80 45
REMARK SMILES IDX 82 46 33 47 85 48 79 49 78 50 34 52 66 53 46 54 65 55 47 56
REMARK SMILES IDX 50 57 64 58 83 59 48 60 49 61 63 63 84 64 51 65 35 66 36 67
REMARK SMILES IDX 44 68 37 69 38 70 42 71 45 72 39 73 40 74 43 75 41 76 67 77
REMARK SMILES IDX 68 78 76 79 69 80 70 81 74 82 77 83 71 84 72 85 75 86 73 87
REMARK SMILES IDX 52 88 53 89 61 90 54 91 55 92 59 93 62 94 56 95 57 96 60 97
REMARK SMILES IDX 58 98
REMARK H PARENT 18 6 23 32 82 51 50 62
REMARK Flexibility Score: inf
ROOT
ATOM      1  C   UNL     1      -4.415   4.381   7.224  1.00  0.00     0.023 C 
ENDROOT
BRANCH   1   2
ATOM      2  C   UNL     1      -3.538   5.344   6.428  1.00  0.00     0.116 C 
BRANCH   2   3
ATOM      3  N   UNL     1      -2.129   5.019   6.548  1.00  0.00    -0.352 N 
ATOM      4  C   UNL     1      -1.165   4.515   5.740  1.00  0.00     0.251 C 
ATOM      5  O   UNL     1      -0.041   4.443   6.245  1.00  0.00    -0.270 OA
ATOM      6  H   UNL     1      -1.784   5.216   7.449  1.00  0.00     0.163 HD
BRANCH   4   7
ATOM      7  C   UNL     1      -1.377   4.044   4.343  1.00  0.00     0.067 C 
ATOM      8  C   UNL     1      -0.819   1.828  -0.161  1.00  0.00     0.059 A 
ATOM      9  C   UNL     1      -1.879   1.966   0.748  1.00  0.00     0.074 A 
ATOM     10  C   UNL     1       0.410   2.444   0.166  1.00  0.00     0.065 A 
ATOM     11  C   UNL     1      -1.699   2.646   1.949  1.00  0.00     0.130 A 
ATOM     12  C   UNL     1       0.608   3.057   1.410  1.00  0.00     0.034 A 
ATOM     13  Cl  UNL     1       1.738   2.474  -0.946  1.00  0.00    -0.082 Cl
ATOM     14  C   UNL     1      -0.446   3.140   2.316  1.00  0.00     0.019 A 
ATOM     15  O   UNL     1      -2.795   2.788   2.758  1.00  0.00    -0.475 OA
ATOM     16  C   UNL     1      -0.273   3.683   3.660  1.00  0.00     0.025 C 
ATOM     17  C   UNL     1      -2.713   3.925   3.667  1.00  0.00     0.314 C 
BRANCH   8  18
ATOM     18  N   UNL     1      -0.988   1.063  -1.326  1.00  0.00    -0.373 N 
ATOM     19  C   UNL     1      -2.007   1.557  -2.248  1.00  0.00     0.143 C 
BRANCH  18  20
ATOM     20  C   UNL     1      -0.908  -0.402  -1.153  1.00  0.00     0.119 C 
BRANCH  20  21
ATOM     21  C   UNL     1       0.547  -0.910  -1.081  1.00  0.00     0.002 C 
ATOM     22  C   UNL     1       1.052  -1.028   0.360  1.00  0.00     0.009 C 
ATOM     23  C   UNL     1       0.677  -2.279  -1.757  1.00  0.00     0.009 C 
ENDBRANCH  20  21
ENDBRANCH  18  20
ENDBRANCH   8  18
BRANCH  17  24
ATOM     24  C   UNL     1      -3.114   5.234   2.947  1.00  0.00     0.429 C 
ATOM     25  F   UNL     1      -4.441   5.239   2.673  1.00  0.00    -0.167 F 
ATOM     26  F   UNL     1      -2.876   6.329   3.712  1.00  0.00    -0.167 F 
ATOM     27  F   UNL     1      -2.458   5.429   1.782  1.00  0.00    -0.167 F 
ENDBRANCH  17  24
ENDBRANCH   4   7
ENDBRANCH   2   3
ENDBRANCH   1   2
BRANCH   1  28
ATOM     28  C   UNL     1      -4.563   4.739   8.703  1.00  0.00     0.023 C 
BRANCH  28  29
ATOM     29  C   UNL     1      -5.103   6.139   8.984  1.00  0.00     0.116 C 
BRANCH  29  30
ATOM     30  N   UNL     1      -6.366   6.444   8.324  1.00  0.00    -0.352 N 
ATOM     31  C   UNL     1      -7.316   7.364   8.709  1.00  0.00     0.251 C 
ATOM     32  H   UNL     1      -6.563   5.931   7.507  1.00  0.00     0.163 HD
ATOM     33  O   UNL     1      -8.376   7.469   8.102  1.00  0.00    -0.269 OA
BRANCH  31  34
ATOM     34  C   UNL     1      -7.058   8.182   9.911  1.00  0.00     0.039 A 
ATOM     35  C   UNL     1      -5.849   8.867  10.041  1.00  0.00     0.014 A 
ATOM     36  C   UNL     1      -7.984   8.168  10.956  1.00  0.00     0.014 A 
ATOM     37  C   UNL     1      -5.484   9.368  11.283  1.00  0.00     0.010 A 
ATOM     38  C   UNL     1      -7.647   8.751  12.181  1.00  0.00     0.010 A 
ATOM     39  C   UNL     1      -6.369   9.297  12.373  1.00  0.00    -0.014 A 
BRANCH  39  40
ATOM     40  C   UNL     1      -5.904   9.760  13.706  1.00  0.00     0.031 A 
ATOM     41  C   UNL     1      -5.721   8.783  14.838  1.00  0.00     0.074 A 
ATOM     42  C   UNL     1      -5.546  11.049  13.864  1.00  0.00     0.049 A 
ATOM     43  N   UNL     1      -5.256   8.996  16.045  1.00  0.00    -0.248 NA
ATOM     44  C   UNL     1      -6.107   7.384  14.590  1.00  0.00     0.031 C 
ATOM     45  C   UNL     1      -5.659  12.082  12.833  1.00  0.00     0.029 A 
ATOM     46  N   UNL     1      -4.975  11.700  14.927  1.00  0.00    -0.354 N 
ATOM     47  C   UNL     1      -5.308   7.771  16.697  1.00  0.00     0.074 A 
ATOM     48  C   UNL     1      -5.876   6.820  15.768  1.00  0.00     0.031 C 
ATOM     49  C   UNL     1      -5.104  13.216  13.286  1.00  0.00     0.029 A 
ATOM     50  C   UNL     1      -4.654  13.009  14.659  1.00  0.00     0.049 A 
ATOM     51  H   UNL     1      -4.811  11.271  15.798  1.00  0.00     0.167 HD
ATOM     52  C   UNL     1      -4.902   7.465  17.952  1.00  0.00     0.037 A 
ATOM     53  C   UNL     1      -4.064  13.939  15.433  1.00  0.00     0.037 A 
ATOM     54  C   UNL     1      -4.303   8.403  18.865  1.00  0.00     0.049 A 
ATOM     55  C   UNL     1      -3.665  13.579  16.836  1.00  0.00     0.074 A 
ATOM     56  C   UNL     1      -3.845   8.180  20.152  1.00  0.00     0.029 A 
ATOM     57  N   UNL     1      -4.070   9.740  18.583  1.00  0.00    -0.354 N 
ATOM     58  N   UNL     1      -3.726  12.418  17.439  1.00  0.00    -0.248 NA
ATOM     59  C   UNL     1      -3.134  14.665  17.672  1.00  0.00     0.031 C 
ATOM     60  C   UNL     1      -3.364   9.389  20.661  1.00  0.00     0.029 A 
ATOM     61  C   UNL     1      -3.491  10.358  19.679  1.00  0.00     0.049 A 
ATOM     62  H   UNL     1      -4.285  10.184  17.731  1.00  0.00     0.167 HD
ATOM     63  C   UNL     1      -3.236  12.629  18.720  1.00  0.00     0.074 A 
ATOM     64  C   UNL     1      -2.859  14.025  18.800  1.00  0.00     0.031 C 
ATOM     65  C   UNL     1      -3.120  11.747  19.740  1.00  0.00     0.037 A 
BRANCH  52  66
ATOM     66  C   UNL     1      -5.079   6.054  18.428  1.00  0.00     0.064 A 
ATOM     67  C   UNL     1      -4.231   5.025  17.992  1.00  0.00     0.173 A 
ATOM     68  C   UNL     1      -6.042   5.746  19.401  1.00  0.00     0.173 A 
ATOM     69  F   UNL     1      -3.302   5.267  17.055  1.00  0.00    -0.203 F 
ATOM     70  C   UNL     1      -4.344   3.738  18.512  1.00  0.00     0.198 A 
ATOM     71  C   UNL     1      -6.137   4.463  19.934  1.00  0.00     0.198 A 
ATOM     72  F   UNL     1      -6.871   6.697  19.855  1.00  0.00    -0.203 F 
ATOM     73  F   UNL     1      -3.536   2.765  18.067  1.00  0.00    -0.200 F 
ATOM     74  C   UNL     1      -5.289   3.460  19.488  1.00  0.00     0.200 A 
ATOM     75  F   UNL     1      -7.043   4.199  20.886  1.00  0.00    -0.200 F 
ATOM     76  F   UNL     1      -5.382   2.225  20.001  1.00  0.00    -0.200 F 
ENDBRANCH  52  66
BRANCH  53  77
ATOM     77  C   UNL     1      -3.811  15.298  14.891  1.00  0.00     0.064 A 
ATOM     78  C   UNL     1      -2.504  15.740  14.644  1.00  0.00     0.173 A 
ATOM     79  C   UNL     1      -4.865  16.176  14.599  1.00  0.00     0.173 A 
ATOM     80  F   UNL     1      -1.463  14.943  14.927  1.00  0.00    -0.203 F 
ATOM     81  C   UNL     1      -2.261  17.012  14.131  1.00  0.00     0.198 A 
ATOM     82  C   UNL     1      -4.622  17.437  14.061  1.00  0.00     0.198 A 
ATOM     83  F   UNL     1      -6.133  15.799  14.818  1.00  0.00    -0.203 F 
ATOM     84  F   UNL     1      -1.001  17.423  13.935  1.00  0.00    -0.200 F 
ATOM     85  C   UNL     1      -3.321  17.856  13.832  1.00  0.00     0.200 A 
ATOM     86  F   UNL     1      -5.649  18.243  13.760  1.00  0.00    -0.200 F 
ATOM     87  F   UNL     1      -3.087  19.076  13.330  1.00  0.00    -0.200 F 
ENDBRANCH  53  77
BRANCH  65  88
ATOM     88  C   UNL     1      -2.564  12.257  21.034  1.00  0.00     0.064 A 
ATOM     89  C   UNL     1      -3.341  13.041  21.898  1.00  0.00     0.173 A 
ATOM     90  C   UNL     1      -1.274  11.895  21.448  1.00  0.00     0.173 A 
ATOM     91  F   UNL     1      -4.575  13.422  21.537  1.00  0.00    -0.203 F 
ATOM     92  C   UNL     1      -2.841  13.454  23.129  1.00  0.00     0.198 A 
ATOM     93  C   UNL     1      -0.786  12.291  22.690  1.00  0.00     0.198 A 
ATOM     94  F   UNL     1      -0.496  11.139  20.658  1.00  0.00    -0.203 F 
ATOM     95  F   UNL     1      -3.591  14.225  23.930  1.00  0.00    -0.200 F 
ATOM     96  C   UNL     1      -1.569  13.071  23.529  1.00  0.00     0.200 A 
ATOM     97  F   UNL     1       0.438  11.910  23.080  1.00  0.00    -0.200 F 
ATOM     98  F   UNL     1      -1.096  13.456  24.722  1.00  0.00    -0.200 F 
ENDBRANCH  65  88
ENDBRANCH  39  40
ENDBRANCH  31  34
ENDBRANCH  29  30
ENDBRANCH  28  29
ENDBRANCH   1  28
TORSDOF 15
