REMARK SMILES COc1ccc(NC(=O)[C@@H]2[C@@H](C(=O)NCCCCNC(=O)c3ccc(-c4c5nc(c(-c6c(F)c(F)c(F)c(F)c6F)c6ccc([nH]6)c(-c6c(F)c(F)c(F)c(F)c6F)c6nc(c(-c7c(F)c(F)c(F)c(F)c7F)c7ccc4[nH]7)C=C6)C=C5)cc3)[C@@H]3CC[C@H]2C3=C(C)C)cc1
REMARK SMILES IDX 16 1 15 2 14 3 12 4 13 5 11 7 10 8 88 9 85 10 87 11 89 12
REMARK SMILES IDX 86 13 90 14 91 15 92 16 8 17 7 18 9 20 6 21 3 22 4 23 94 24
REMARK SMILES IDX 5 25 93 26 2 27 1 28 17 29 18 30 19 31 20 32 21 34 22 35
REMARK SMILES IDX 23 36 84 37 24 38 83 39 25 40 26 41 27 42 77 43 28 44 82 45
REMARK SMILES IDX 76 46 78 47 29 48 81 49 75 50 74 51 30 53 62 54 42 55 61 56
REMARK SMILES IDX 43 57 46 58 60 59 79 60 44 61 45 62 59 64 80 65 47 66 31 67
REMARK SMILES IDX 32 68 40 69 33 70 34 71 38 72 41 73 35 74 36 75 39 76 37 77
REMARK SMILES IDX 63 78 64 79 72 80 65 81 66 82 70 83 73 84 67 85 68 86 71 87
REMARK SMILES IDX 69 88 48 89 49 90 57 91 50 92 51 93 55 94 58 95 52 96 53 97
REMARK SMILES IDX 56 98 54 99
REMARK H PARENT 14 6 7 19 19 33 78 52 46 63
REMARK Flexibility Score: inf
ROOT
ATOM      1  C   UNL     1      -2.933   7.557   2.503  1.00  0.00     0.023 C 
ENDROOT
BRANCH   1   2
ATOM      2  C   UNL     1      -2.051   8.088   3.624  1.00  0.00     0.116 C 
BRANCH   2   3
ATOM      3  N   UNL     1      -2.452   7.583   4.918  1.00  0.00    -0.356 N 
ATOM      4  C   UNL     1      -2.166   6.479   5.638  1.00  0.00     0.224 C 
ATOM      5  O   UNL     1      -2.698   6.455   6.760  1.00  0.00    -0.275 OA
ATOM      6  H   UNL     1      -3.078   8.185   5.381  1.00  0.00     0.163 HD
BRANCH   4   7
ATOM      7  C   UNL     1      -1.360   5.252   5.211  1.00  0.00     0.098 C 
ATOM      8  C   UNL     1      -0.347   5.217   4.021  1.00  0.00     0.099 C 
ATOM      9  C   UNL     1      -0.803   3.950   3.280  1.00  0.00     0.028 C 
ATOM     10  C   UNL     1      -2.346   4.080   4.907  1.00  0.00     0.028 C 
ATOM     11  C   UNL     1      -0.577   2.667   4.089  1.00  0.00     0.009 C 
ATOM     12  C   UNL     1      -2.293   4.055   3.412  1.00  0.00    -0.064 C 
ATOM     13  C   UNL     1      -1.643   2.745   5.190  1.00  0.00     0.009 C 
ATOM     14  C   UNL     1      -3.235   4.069   2.454  1.00  0.00    -0.077 C 
ATOM     15  C   UNL     1      -4.707   4.010   2.747  1.00  0.00     0.039 C 
ATOM     16  C   UNL     1      -2.886   4.209   0.992  1.00  0.00     0.039 C 
BRANCH   8  17
ATOM     17  C   UNL     1       1.104   5.285   4.535  1.00  0.00     0.228 C 
ATOM     18  N   UNL     1       2.179   4.752   3.876  1.00  0.00    -0.326 N 
ATOM     19  H   UNL     1       3.049   4.891   4.315  1.00  0.00     0.169 HD
ATOM     20  O   UNL     1       1.355   5.864   5.600  1.00  0.00    -0.274 OA
BRANCH  18  21
ATOM     21  C   UNL     1       2.229   4.040   2.675  1.00  0.00     0.041 A 
ATOM     22  C   UNL     1       1.838   2.279   0.554  1.00  0.00     0.119 A 
ATOM     23  C   UNL     1       1.435   3.611   0.442  1.00  0.00     0.048 A 
ATOM     24  C   UNL     1       2.596   1.882   1.655  1.00  0.00     0.048 A 
ATOM     25  C   UNL     1       1.636   4.500   1.503  1.00  0.00     0.030 A 
ATOM     26  C   UNL     1       2.816   2.774   2.707  1.00  0.00     0.030 A 
BRANCH  22  27
ATOM     27  O   UNL     1       1.426   1.450  -0.453  1.00  0.00    -0.497 OA
ATOM     28  C   UNL     1       1.313   0.071  -0.101  1.00  0.00     0.278 C 
ENDBRANCH  22  27
ENDBRANCH  18  21
ENDBRANCH   8  17
ENDBRANCH   4   7
ENDBRANCH   2   3
ENDBRANCH   1   2
BRANCH   1  29
ATOM     29  C   UNL     1      -4.294   8.234   2.358  1.00  0.00     0.023 C 
BRANCH  29  30
ATOM     30  C   UNL     1      -4.237   9.728   2.091  1.00  0.00     0.116 C 
BRANCH  30  31
ATOM     31  N   UNL     1      -3.403  10.085   0.953  1.00  0.00    -0.352 N 
ATOM     32  C   UNL     1      -3.624  11.031  -0.024  1.00  0.00     0.251 C 
ATOM     33  H   UNL     1      -2.562   9.579   0.869  1.00  0.00     0.163 HD
ATOM     34  O   UNL     1      -2.869  11.136  -0.972  1.00  0.00    -0.269 OA
BRANCH  32  35
ATOM     35  C   UNL     1      -4.825  11.888   0.079  1.00  0.00     0.039 A 
ATOM     36  C   UNL     1      -5.626  12.064  -1.050  1.00  0.00     0.014 A 
ATOM     37  C   UNL     1      -5.188  12.458   1.301  1.00  0.00     0.014 A 
ATOM     38  C   UNL     1      -6.835  12.750  -0.931  1.00  0.00     0.010 A 
ATOM     39  C   UNL     1      -6.439  13.039   1.442  1.00  0.00     0.010 A 
ATOM     40  C   UNL     1      -7.271  13.204   0.325  1.00  0.00    -0.014 A 
BRANCH  40  41
ATOM     41  C   UNL     1      -8.585  13.872   0.489  1.00  0.00     0.031 A 
ATOM     42  C   UNL     1      -8.648  15.287   0.994  1.00  0.00     0.074 A 
ATOM     43  C   UNL     1      -9.718  13.185   0.246  1.00  0.00     0.049 A 
ATOM     44  N   UNL     1      -9.695  16.032   1.245  1.00  0.00    -0.248 NA
ATOM     45  C   UNL     1      -7.365  15.942   1.297  1.00  0.00     0.031 C 
ATOM     46  C   UNL     1      -9.787  11.782  -0.171  1.00  0.00     0.029 A 
ATOM     47  N   UNL     1     -11.032  13.573   0.315  1.00  0.00    -0.354 N 
ATOM     48  C   UNL     1      -9.195  17.225   1.751  1.00  0.00     0.074 A 
ATOM     49  C   UNL     1      -7.761  17.081   1.843  1.00  0.00     0.031 C 
ATOM     50  C   UNL     1     -11.071  11.442  -0.361  1.00  0.00     0.029 A 
ATOM     51  C   UNL     1     -11.917  12.589  -0.050  1.00  0.00     0.049 A 
ATOM     52  H   UNL     1     -11.313  14.473   0.599  1.00  0.00     0.167 HD
ATOM     53  C   UNL     1      -9.869  18.354   2.075  1.00  0.00     0.037 A 
ATOM     54  C   UNL     1     -13.261  12.617  -0.132  1.00  0.00     0.037 A 
ATOM     55  C   UNL     1     -11.292  18.505   1.941  1.00  0.00     0.049 A 
ATOM     56  C   UNL     1     -13.983  13.895   0.197  1.00  0.00     0.074 A 
ATOM     57  C   UNL     1     -12.069  19.625   2.174  1.00  0.00     0.029 A 
ATOM     58  N   UNL     1     -12.154  17.497   1.531  1.00  0.00    -0.354 N 
ATOM     59  N   UNL     1     -13.493  15.045   0.595  1.00  0.00    -0.248 NA
ATOM     60  C   UNL     1     -15.444  13.884   0.051  1.00  0.00     0.031 C 
ATOM     61  C   UNL     1     -13.406  19.285   1.942  1.00  0.00     0.029 A 
ATOM     62  C   UNL     1     -13.457  17.966   1.517  1.00  0.00     0.049 A 
ATOM     63  H   UNL     1     -11.880  16.584   1.286  1.00  0.00     0.167 HD
ATOM     64  C   UNL     1     -14.579  15.899   0.722  1.00  0.00     0.074 A 
ATOM     65  C   UNL     1     -15.752  15.140   0.337  1.00  0.00     0.031 C 
ATOM     66  C   UNL     1     -14.607  17.194   1.125  1.00  0.00     0.037 A 
BRANCH  53  67
ATOM     67  C   UNL     1      -9.065  19.515   2.585  1.00  0.00     0.064 A 
ATOM     68  C   UNL     1      -8.179  20.219   1.753  1.00  0.00     0.173 A 
ATOM     69  C   UNL     1      -9.192  19.942   3.915  1.00  0.00     0.173 A 
ATOM     70  F   UNL     1      -8.008  19.842   0.476  1.00  0.00    -0.203 F 
ATOM     71  C   UNL     1      -7.425  21.281   2.243  1.00  0.00     0.198 A 
ATOM     72  C   UNL     1      -8.460  21.027   4.392  1.00  0.00     0.198 A 
ATOM     73  F   UNL     1     -10.026  19.308   4.753  1.00  0.00    -0.203 F 
ATOM     74  F   UNL     1      -6.542  21.898   1.444  1.00  0.00    -0.200 F 
ATOM     75  C   UNL     1      -7.571  21.689   3.559  1.00  0.00     0.200 A 
ATOM     76  F   UNL     1      -8.611  21.428   5.662  1.00  0.00    -0.200 F 
ATOM     77  F   UNL     1      -6.847  22.715   4.028  1.00  0.00    -0.200 F 
ENDBRANCH  53  67
BRANCH  54  78
ATOM     78  C   UNL     1     -14.005  11.415  -0.593  1.00  0.00     0.064 A 
ATOM     79  C   UNL     1     -14.642  11.402  -1.843  1.00  0.00     0.173 A 
ATOM     80  C   UNL     1     -14.100  10.263   0.199  1.00  0.00     0.173 A 
ATOM     81  F   UNL     1     -14.595  12.487  -2.629  1.00  0.00    -0.203 F 
ATOM     82  C   UNL     1     -15.366  10.291  -2.271  1.00  0.00     0.198 A 
ATOM     83  C   UNL     1     -14.800   9.141  -0.243  1.00  0.00     0.198 A 
ATOM     84  F   UNL     1     -13.501  10.221   1.398  1.00  0.00    -0.203 F 
ATOM     85  F   UNL     1     -16.005  10.324  -3.448  1.00  0.00    -0.200 F 
ATOM     86  C   UNL     1     -15.440   9.160  -1.473  1.00  0.00     0.200 A 
ATOM     87  F   UNL     1     -14.857   8.044   0.525  1.00  0.00    -0.200 F 
ATOM     88  F   UNL     1     -16.134   8.090  -1.886  1.00  0.00    -0.200 F 
ENDBRANCH  54  78
BRANCH  66  89
ATOM     89  C   UNL     1     -15.944  17.875   1.137  1.00  0.00     0.064 A 
ATOM     90  C   UNL     1     -16.926  17.552   2.085  1.00  0.00     0.173 A 
ATOM     91  C   UNL     1     -16.235  18.881   0.204  1.00  0.00     0.173 A 
ATOM     92  F   UNL     1     -16.700  16.587   2.990  1.00  0.00    -0.203 F 
ATOM     93  C   UNL     1     -18.164  18.188   2.077  1.00  0.00     0.198 A 
ATOM     94  C   UNL     1     -17.462  19.538   0.219  1.00  0.00     0.198 A 
ATOM     95  F   UNL     1     -15.327  19.233  -0.718  1.00  0.00    -0.203 F 
ATOM     96  F   UNL     1     -19.108  17.824   2.956  1.00  0.00    -0.200 F 
ATOM     97  C   UNL     1     -18.429  19.184   1.148  1.00  0.00     0.200 A 
ATOM     98  F   UNL     1     -17.712  20.509  -0.670  1.00  0.00    -0.200 F 
ATOM     99  F   UNL     1     -19.620  19.797   1.143  1.00  0.00    -0.200 F 
ENDBRANCH  66  89
ENDBRANCH  40  41
ENDBRANCH  32  35
ENDBRANCH  30  31
ENDBRANCH  29  30
ENDBRANCH   1  29
TORSDOF 14
