REMARK SMILES Cc1oc2cc(OCC(=O)NCCCCNC(=O)c3ccc(-c4c5nc(c(-c6c(F)c(F)c(F)c(F)c6F)c6ccc([nH]6)c(-c6c(F)c(F)c(F)c(F)c6F)c6nc(c(-c7c(F)c(F)c(F)c(F)c7F)c7ccc4[nH]7)C=C6)C=C5)cc3)ccc2c(=O)c1Oc1ccc(Cl)cc1Cl
REMARK SMILES IDX 12 1 11 2 9 3 10 4 8 6 7 7 6 8 1 9 2 10 3 11 87 12 4 13
REMARK SMILES IDX 85 14 5 15 84 16 86 17 83 18 82 19 88 20 89 21 90 22 95 23
REMARK SMILES IDX 91 24 94 25 96 26 92 27 93 28 13 29 14 30 15 31 16 32 17 33
REMARK SMILES IDX 18 35 19 36 20 37 81 38 21 39 80 40 22 41 23 42 24 43 74 44
REMARK SMILES IDX 25 45 79 46 73 47 75 48 26 49 78 50 72 51 71 52 27 54 59 55
REMARK SMILES IDX 39 56 58 57 40 58 43 59 57 60 76 61 41 62 42 63 56 65 77 66
REMARK SMILES IDX 44 67 28 68 29 69 37 70 30 71 31 72 35 73 38 74 32 75 33 76
REMARK SMILES IDX 36 77 34 78 60 79 61 80 69 81 62 82 63 83 67 84 70 85 64 86
REMARK SMILES IDX 65 87 68 88 66 89 45 90 46 91 54 92 47 93 48 94 52 95 55 96
REMARK SMILES IDX 49 97 50 98 53 99 51 100
REMARK H PARENT 11 5 16 34 75 53 43 64
REMARK Flexibility Score: inf
ROOT
ATOM      1  C   UNL     1       5.189   2.969  -2.324  1.00  0.00     0.116 C 
ENDROOT
BRANCH   1   2
ATOM      2  N   UNL     1       4.006   3.784  -2.137  1.00  0.00    -0.353 N 
ATOM      3  C   UNL     1       3.319   4.010  -0.979  1.00  0.00     0.257 C 
ATOM      4  O   UNL     1       2.354   4.776  -1.001  1.00  0.00    -0.271 OA
ATOM      5  H   UNL     1       3.655   4.228  -2.942  1.00  0.00     0.163 HD
BRANCH   3   6
ATOM      6  C   UNL     1       3.783   3.336   0.319  1.00  0.00     0.329 C 
BRANCH   6   7
ATOM      7  O   UNL     1       3.863   1.916   0.285  1.00  0.00    -0.484 OA
BRANCH   7   8
ATOM      8  C   UNL     1       2.689   1.217   0.229  1.00  0.00     0.123 A 
ATOM      9  C   UNL     1      -3.227   1.780   0.533  1.00  0.00     0.092 C 
ATOM     10  C   UNL     1      -2.081   0.841   0.284  1.00  0.00     0.148 A 
ATOM     11  O   UNL     1      -0.914   1.585   0.217  1.00  0.00    -0.457 OA
ATOM     12  C   UNL     1      -2.119  -0.511   0.156  1.00  0.00     0.213 A 
ATOM     13  C   UNL     1       0.291   0.953   0.177  1.00  0.00     0.142 A 
ATOM     14  C   UNL     1      -0.805  -1.225   0.005  1.00  0.00     0.235 A 
ATOM     15  C   UNL     1       1.414   1.774   0.255  1.00  0.00     0.094 A 
ATOM     16  C   UNL     1       0.419  -0.418   0.073  1.00  0.00     0.069 A 
ATOM     17  O   UNL     1      -0.734  -2.442  -0.138  1.00  0.00    -0.285 OA
ATOM     18  C   UNL     1       1.691  -0.995   0.050  1.00  0.00     0.020 A 
ATOM     19  C   UNL     1       2.822  -0.173   0.132  1.00  0.00     0.047 A 
BRANCH  12  20
ATOM     20  O   UNL     1      -3.209  -1.376   0.174  1.00  0.00    -0.448 OA
BRANCH  20  21
ATOM     21  C   UNL     1      -4.493  -0.907   0.132  1.00  0.00     0.146 A 
ATOM     22  C   UNL     1      -5.232  -0.996   1.316  1.00  0.00     0.050 A 
ATOM     23  C   UNL     1      -5.078  -0.388  -1.029  1.00  0.00     0.085 A 
ATOM     24  C   UNL     1      -6.520  -0.463   1.369  1.00  0.00     0.024 A 
ATOM     25  C   UNL     1      -6.365   0.150  -0.972  1.00  0.00     0.045 A 
ATOM     26  Cl  UNL     1      -4.237  -0.355  -2.535  1.00  0.00    -0.080 Cl
ATOM     27  C   UNL     1      -7.070   0.126   0.231  1.00  0.00     0.042 A 
ATOM     28  Cl  UNL     1      -8.632   0.842   0.318  1.00  0.00    -0.084 Cl
ENDBRANCH  20  21
ENDBRANCH  12  20
ENDBRANCH   7   8
ENDBRANCH   6   7
ENDBRANCH   3   6
ENDBRANCH   1   2
BRANCH   1  29
ATOM     29  C   UNL     1       4.888   1.659  -3.048  1.00  0.00     0.023 C 
BRANCH  29  30
ATOM     30  C   UNL     1       4.345   1.812  -4.470  1.00  0.00     0.023 C 
BRANCH  30  31
ATOM     31  C   UNL     1       5.156   2.713  -5.395  1.00  0.00     0.116 C 
BRANCH  31  32
ATOM     32  N   UNL     1       6.542   2.293  -5.540  1.00  0.00    -0.352 N 
ATOM     33  C   UNL     1       7.307   2.195  -6.676  1.00  0.00     0.251 C 
ATOM     34  H   UNL     1       6.996   2.043  -4.702  1.00  0.00     0.163 HD
ATOM     35  O   UNL     1       8.439   1.724  -6.620  1.00  0.00    -0.269 OA
BRANCH  33  36
ATOM     36  C   UNL     1       6.751   2.620  -7.978  1.00  0.00     0.039 A 
ATOM     37  C   UNL     1       6.875   1.761  -9.073  1.00  0.00     0.014 A 
ATOM     38  C   UNL     1       6.091   3.844  -8.116  1.00  0.00     0.014 A 
ATOM     39  C   UNL     1       6.263   2.090 -10.285  1.00  0.00     0.010 A 
ATOM     40  C   UNL     1       5.427   4.141  -9.303  1.00  0.00     0.010 A 
ATOM     41  C   UNL     1       5.497   3.261 -10.395  1.00  0.00    -0.014 A 
BRANCH  41  42
ATOM     42  C   UNL     1       4.733   3.570 -11.631  1.00  0.00     0.031 A 
ATOM     43  C   UNL     1       5.072   4.783 -12.449  1.00  0.00     0.074 A 
ATOM     44  C   UNL     1       3.679   2.802 -11.969  1.00  0.00     0.049 A 
ATOM     45  N   UNL     1       4.461   5.272 -13.499  1.00  0.00    -0.248 NA
ATOM     46  C   UNL     1       6.239   5.566 -12.015  1.00  0.00     0.031 C 
ATOM     47  C   UNL     1       3.220   1.625 -11.231  1.00  0.00     0.029 A 
ATOM     48  N   UNL     1       2.790   2.908 -13.011  1.00  0.00    -0.354 N 
ATOM     49  C   UNL     1       5.156   6.424 -13.839  1.00  0.00     0.074 A 
ATOM     50  C   UNL     1       6.208   6.588 -12.858  1.00  0.00     0.031 C 
ATOM     51  C   UNL     1       2.145   1.109 -11.849  1.00  0.00     0.029 A 
ATOM     52  C   UNL     1       1.814   1.941 -13.002  1.00  0.00     0.049 A 
ATOM     53  H   UNL     1       2.848   3.610 -13.699  1.00  0.00     0.167 HD
ATOM     54  C   UNL     1       4.947   7.259 -14.885  1.00  0.00     0.037 A 
ATOM     55  C   UNL     1       0.762   1.755 -13.821  1.00  0.00     0.037 A 
ATOM     56  C   UNL     1       3.916   7.078 -15.874  1.00  0.00     0.049 A 
ATOM     57  C   UNL     1       0.547   2.703 -14.970  1.00  0.00     0.074 A 
ATOM     58  C   UNL     1       3.670   7.829 -17.010  1.00  0.00     0.029 A 
ATOM     59  N   UNL     1       2.957   6.077 -15.841  1.00  0.00    -0.354 N 
ATOM     60  N   UNL     1       1.253   3.749 -15.323  1.00  0.00    -0.248 NA
ATOM     61  C   UNL     1      -0.612   2.442 -15.836  1.00  0.00     0.031 C 
ATOM     62  C   UNL     1       2.534   7.311 -17.640  1.00  0.00     0.029 A 
ATOM     63  C   UNL     1       2.101   6.207 -16.924  1.00  0.00     0.049 A 
ATOM     64  H   UNL     1       2.893   5.377 -15.151  1.00  0.00     0.167 HD
ATOM     65  C   UNL     1       0.643   4.255 -16.462  1.00  0.00     0.074 A 
ATOM     66  C   UNL     1      -0.484   3.394 -16.751  1.00  0.00     0.031 C 
ATOM     67  C   UNL     1       0.986   5.338 -17.201  1.00  0.00     0.037 A 
BRANCH  54  68
ATOM     68  C   UNL     1       5.853   8.447 -15.018  1.00  0.00     0.064 A 
ATOM     69  C   UNL     1       7.200   8.307 -15.386  1.00  0.00     0.173 A 
ATOM     70  C   UNL     1       5.359   9.745 -14.818  1.00  0.00     0.173 A 
ATOM     71  F   UNL     1       7.724   7.087 -15.579  1.00  0.00    -0.203 F 
ATOM     72  C   UNL     1       8.025   9.421 -15.522  1.00  0.00     0.198 A 
ATOM     73  C   UNL     1       6.180  10.858 -14.983  1.00  0.00     0.198 A 
ATOM     74  F   UNL     1       4.077   9.935 -14.470  1.00  0.00    -0.203 F 
ATOM     75  F   UNL     1       9.319   9.259 -15.830  1.00  0.00    -0.200 F 
ATOM     76  C   UNL     1       7.513  10.694 -15.328  1.00  0.00     0.200 A 
ATOM     77  F   UNL     1       5.680  12.089 -14.807  1.00  0.00    -0.200 F 
ATOM     78  F   UNL     1       8.306  11.765 -15.467  1.00  0.00    -0.200 F 
ENDBRANCH  54  68
BRANCH  55  79
ATOM     79  C   UNL     1      -0.163   0.615 -13.593  1.00  0.00     0.064 A 
ATOM     80  C   UNL     1      -0.198  -0.470 -14.479  1.00  0.00     0.173 A 
ATOM     81  C   UNL     1      -1.032   0.588 -12.493  1.00  0.00     0.173 A 
ATOM     82  F   UNL     1       0.598  -0.479 -15.558  1.00  0.00    -0.203 F 
ATOM     83  C   UNL     1      -1.080  -1.531 -14.284  1.00  0.00     0.198 A 
ATOM     84  C   UNL     1      -1.894  -0.486 -12.283  1.00  0.00     0.198 A 
ATOM     85  F   UNL     1      -1.035   1.601 -11.614  1.00  0.00    -0.203 F 
ATOM     86  F   UNL     1      -1.124  -2.535 -15.170  1.00  0.00    -0.200 F 
ATOM     87  C   UNL     1      -1.923  -1.541 -13.183  1.00  0.00     0.200 A 
ATOM     88  F   UNL     1      -2.699  -0.498 -11.211  1.00  0.00    -0.200 F 
ATOM     89  F   UNL     1      -2.769  -2.563 -12.993  1.00  0.00    -0.200 F 
ENDBRANCH  55  79
BRANCH  67  90
ATOM     90  C   UNL     1       0.152   5.638 -18.412  1.00  0.00     0.064 A 
ATOM     91  C   UNL     1      -1.145   6.161 -18.299  1.00  0.00     0.173 A 
ATOM     92  C   UNL     1       0.674   5.445 -19.700  1.00  0.00     0.173 A 
ATOM     93  F   UNL     1      -1.694   6.348 -17.090  1.00  0.00    -0.203 F 
ATOM     94  C   UNL     1      -1.895   6.461 -19.433  1.00  0.00     0.198 A 
ATOM     95  C   UNL     1      -0.068   5.773 -20.831  1.00  0.00     0.198 A 
ATOM     96  F   UNL     1       1.912   4.953 -19.861  1.00  0.00    -0.203 F 
ATOM     97  F   UNL     1      -3.147   6.921 -19.303  1.00  0.00    -0.200 F 
ATOM     98  C   UNL     1      -1.354   6.275 -20.697  1.00  0.00     0.200 A 
ATOM     99  F   UNL     1       0.461   5.604 -22.050  1.00  0.00    -0.200 F 
ATOM    100  F   UNL     1      -2.074   6.574 -21.786  1.00  0.00    -0.200 F 
ENDBRANCH  67  90
ENDBRANCH  41  42
ENDBRANCH  33  36
ENDBRANCH  31  32
ENDBRANCH  30  31
ENDBRANCH  29  30
ENDBRANCH   1  29
TORSDOF 15
