REMARK SMILES CC(C)(C)OC(=O)NC[C@H]1CC[C@@H](C(=O)NCCCCNC(=O)c2ccc(-c3c4nc(c(-c5c(F)c(F)c(F)c(F)c5F)c5ccc([nH]5)c(-c5c(F)c(F)c(F)c(F)c5F)c5nc(c(-c6c(F)c(F)c(F)c(F)c6F)c6ccc3[nH]6)C=C5)C=C4)cc2)CC1
REMARK SMILES IDX 17 1 16 2 14 3 15 4 13 6 10 7 11 8 88 9 12 10 87 11 9 12
REMARK SMILES IDX 8 13 6 14 7 15 5 17 2 18 1 19 3 20 4 21 18 22 19 23 20 24
REMARK SMILES IDX 21 25 22 26 23 28 24 29 25 30 86 31 26 32 85 33 27 34 28 35
REMARK SMILES IDX 29 36 79 37 30 38 84 39 78 40 80 41 31 42 83 43 77 44 76 45
REMARK SMILES IDX 32 47 64 48 44 49 63 50 45 51 48 52 62 53 81 54 46 55 47 56
REMARK SMILES IDX 61 58 82 59 49 60 33 61 34 62 42 63 35 64 36 65 40 66 43 67
REMARK SMILES IDX 37 68 38 69 41 70 39 71 65 72 66 73 74 74 67 75 68 76 72 77
REMARK SMILES IDX 75 78 69 79 70 80 73 81 71 82 50 83 51 84 59 85 52 86 53 87
REMARK SMILES IDX 57 88 60 89 54 90 55 91 58 92 56 93
REMARK H PARENT 16 5 8 16 21 27 80 46 48 57
REMARK Flexibility Score: inf
ROOT
ATOM      1  C   UNL     1       3.596   5.726   3.033  1.00  0.00     0.116 C 
ENDROOT
BRANCH   1   2
ATOM      2  N   UNL     1       4.905   6.241   3.323  1.00  0.00    -0.356 N 
ATOM      3  C   UNL     1       5.841   6.802   2.517  1.00  0.00     0.223 C 
ATOM      4  O   UNL     1       6.809   7.309   3.098  1.00  0.00    -0.275 OA
ATOM      5  H   UNL     1       5.169   6.175   4.269  1.00  0.00     0.163 HD
BRANCH   3   6
ATOM      6  C   UNL     1       5.785   6.832   0.976  1.00  0.00     0.078 C 
ATOM      7  C   UNL     1       3.408   5.682  -0.522  1.00  0.00     0.008 C 
ATOM      8  C   UNL     1       3.413   7.152  -0.041  1.00  0.00     0.006 C 
ATOM      9  C   UNL     1       4.579   4.796  -0.038  1.00  0.00     0.006 C 
ATOM     10  C   UNL     1       4.768   7.756   0.313  1.00  0.00     0.014 C 
ATOM     11  C   UNL     1       5.894   5.487   0.271  1.00  0.00     0.014 C 
BRANCH   7  12
ATOM     12  C   UNL     1       2.066   4.998  -0.133  1.00  0.00     0.123 C 
BRANCH  12  13
ATOM     13  N   UNL     1       1.154   4.835  -1.236  1.00  0.00    -0.321 N 
ATOM     14  C   UNL     1       0.514   3.675  -1.573  1.00  0.00     0.407 C 
ATOM     15  O   UNL     1      -0.280   3.645  -2.505  1.00  0.00    -0.225 OA
ATOM     16  H   UNL     1       0.978   5.625  -1.796  1.00  0.00     0.167 HD
BRANCH  14  17
ATOM     17  O   UNL     1       0.874   2.625  -0.796  1.00  0.00    -0.444 OA
BRANCH  17  18
ATOM     18  C   UNL     1       0.404   1.284  -1.085  1.00  0.00     0.106 C 
ATOM     19  C   UNL     1       1.035   0.391  -0.003  1.00  0.00     0.056 C 
ATOM     20  C   UNL     1       0.919   0.825  -2.453  1.00  0.00     0.056 C 
ATOM     21  C   UNL     1      -1.120   1.174  -0.969  1.00  0.00     0.056 C 
ENDBRANCH  17  18
ENDBRANCH  14  17
ENDBRANCH  12  13
ENDBRANCH   7  12
ENDBRANCH   3   6
ENDBRANCH   1   2
BRANCH   1  22
ATOM     22  C   UNL     1       3.427   4.242   3.342  1.00  0.00     0.023 C 
BRANCH  22  23
ATOM     23  C   UNL     1       2.748   3.948   4.669  1.00  0.00     0.023 C 
BRANCH  23  24
ATOM     24  C   UNL     1       1.380   4.591   4.850  1.00  0.00     0.116 C 
BRANCH  24  25
ATOM     25  N   UNL     1       0.389   4.228   3.844  1.00  0.00    -0.352 N 
ATOM     26  C   UNL     1      -0.949   3.956   4.042  1.00  0.00     0.251 C 
ATOM     27  H   UNL     1       0.712   4.170   2.915  1.00  0.00     0.163 HD
ATOM     28  O   UNL     1      -1.673   3.608   3.118  1.00  0.00    -0.269 OA
BRANCH  26  29
ATOM     29  C   UNL     1      -1.475   4.033   5.420  1.00  0.00     0.039 A 
ATOM     30  C   UNL     1      -2.073   2.903   5.978  1.00  0.00     0.014 A 
ATOM     31  C   UNL     1      -1.218   5.164   6.198  1.00  0.00     0.014 A 
ATOM     32  C   UNL     1      -2.320   2.871   7.351  1.00  0.00     0.010 A 
ATOM     33  C   UNL     1      -1.359   5.083   7.577  1.00  0.00     0.010 A 
ATOM     34  C   UNL     1      -1.909   3.936   8.170  1.00  0.00    -0.014 A 
BRANCH  34  35
ATOM     35  C   UNL     1      -2.042   3.872   9.649  1.00  0.00     0.031 A 
ATOM     36  C   UNL     1      -2.873   4.899  10.368  1.00  0.00     0.074 A 
ATOM     37  C   UNL     1      -1.364   2.940  10.348  1.00  0.00     0.049 A 
ATOM     38  N   UNL     1      -3.061   5.060  11.653  1.00  0.00    -0.248 NA
ATOM     39  C   UNL     1      -3.553   5.902   9.533  1.00  0.00     0.031 C 
ATOM     40  C   UNL     1      -0.475   1.927   9.775  1.00  0.00     0.029 A 
ATOM     41  N   UNL     1      -1.310   2.697  11.700  1.00  0.00    -0.354 N 
ATOM     42  C   UNL     1      -3.864   6.187  11.775  1.00  0.00     0.074 A 
ATOM     43  C   UNL     1      -4.066   6.713  10.444  1.00  0.00     0.031 C 
ATOM     44  C   UNL     1       0.006   1.152  10.761  1.00  0.00     0.029 A 
ATOM     45  C   UNL     1      -0.502   1.638  12.040  1.00  0.00     0.049 A 
ATOM     46  H   UNL     1      -1.805   3.231  12.362  1.00  0.00     0.167 HD
ATOM     47  C   UNL     1      -4.413   6.716  12.894  1.00  0.00     0.037 A 
ATOM     48  C   UNL     1      -0.202   1.122  13.248  1.00  0.00     0.037 A 
ATOM     49  C   UNL     1      -4.233   6.173  14.213  1.00  0.00     0.049 A 
ATOM     50  C   UNL     1      -0.819   1.735  14.478  1.00  0.00     0.074 A 
ATOM     51  C   UNL     1      -4.796   6.595  15.403  1.00  0.00     0.029 A 
ATOM     52  N   UNL     1      -3.421   5.089  14.515  1.00  0.00    -0.354 N 
ATOM     53  N   UNL     1      -1.643   2.750  14.574  1.00  0.00    -0.248 NA
ATOM     54  C   UNL     1      -0.470   1.124  15.768  1.00  0.00     0.031 C 
ATOM     55  C   UNL     1      -4.280   5.805  16.434  1.00  0.00     0.029 A 
ATOM     56  C   UNL     1      -3.447   4.846  15.879  1.00  0.00     0.049 A 
ATOM     57  H   UNL     1      -2.904   4.569  13.859  1.00  0.00     0.167 HD
ATOM     58  C   UNL     1      -1.935   2.880  15.925  1.00  0.00     0.074 A 
ATOM     59  C   UNL     1      -1.214   1.828  16.610  1.00  0.00     0.031 C 
ATOM     60  C   UNL     1      -2.730   3.788  16.544  1.00  0.00     0.037 A 
BRANCH  47  61
ATOM     61  C   UNL     1      -5.264   7.944  12.735  1.00  0.00     0.064 A 
ATOM     62  C   UNL     1      -6.501   7.904  12.072  1.00  0.00     0.173 A 
ATOM     63  C   UNL     1      -4.851   9.171  13.275  1.00  0.00     0.173 A 
ATOM     64  F   UNL     1      -6.938   6.760  11.524  1.00  0.00    -0.203 F 
ATOM     65  C   UNL     1      -7.274   9.053  11.925  1.00  0.00     0.198 A 
ATOM     66  C   UNL     1      -5.644  10.309  13.159  1.00  0.00     0.198 A 
ATOM     67  F   UNL     1      -3.679   9.265  13.921  1.00  0.00    -0.203 F 
ATOM     68  F   UNL     1      -8.422   9.003  11.235  1.00  0.00    -0.200 F 
ATOM     69  C   UNL     1      -6.849  10.252  12.476  1.00  0.00     0.200 A 
ATOM     70  F   UNL     1      -5.238  11.464  13.705  1.00  0.00    -0.200 F 
ATOM     71  F   UNL     1      -7.598  11.355  12.342  1.00  0.00    -0.200 F 
ENDBRANCH  47  61
BRANCH  48  72
ATOM     72  C   UNL     1       0.710  -0.050  13.357  1.00  0.00     0.064 A 
ATOM     73  C   UNL     1       0.235  -1.296  13.791  1.00  0.00     0.173 A 
ATOM     74  C   UNL     1       2.074   0.053  13.046  1.00  0.00     0.173 A 
ATOM     75  F   UNL     1      -1.057  -1.442  14.121  1.00  0.00    -0.203 F 
ATOM     76  C   UNL     1       1.093  -2.385  13.936  1.00  0.00     0.198 A 
ATOM     77  C   UNL     1       2.924  -1.045  13.159  1.00  0.00     0.198 A 
ATOM     78  F   UNL     1       2.580   1.220  12.620  1.00  0.00    -0.203 F 
ATOM     79  F   UNL     1       0.622  -3.548  14.405  1.00  0.00    -0.200 F 
ATOM     80  C   UNL     1       2.436  -2.260  13.614  1.00  0.00     0.200 A 
ATOM     81  F   UNL     1       4.218  -0.925  12.831  1.00  0.00    -0.200 F 
ATOM     82  F   UNL     1       3.260  -3.308  13.750  1.00  0.00    -0.200 F 
ENDBRANCH  48  72
BRANCH  60  83
ATOM     83  C   UNL     1      -2.897   3.661  18.031  1.00  0.00     0.064 A 
ATOM     84  C   UNL     1      -1.852   3.948  18.922  1.00  0.00     0.173 A 
ATOM     85  C   UNL     1      -4.138   3.290  18.574  1.00  0.00     0.173 A 
ATOM     86  F   UNL     1      -0.643   4.295  18.455  1.00  0.00    -0.203 F 
ATOM     87  C   UNL     1      -2.035   3.840  20.298  1.00  0.00     0.198 A 
ATOM     88  C   UNL     1      -4.327   3.218  19.951  1.00  0.00     0.198 A 
ATOM     89  F   UNL     1      -5.174   3.013  17.767  1.00  0.00    -0.203 F 
ATOM     90  F   UNL     1      -1.007   4.067  21.127  1.00  0.00    -0.200 F 
ATOM     91  C   UNL     1      -3.273   3.484  20.811  1.00  0.00     0.200 A 
ATOM     92  F   UNL     1      -5.529   2.893  20.444  1.00  0.00    -0.200 F 
ATOM     93  F   UNL     1      -3.449   3.392  22.136  1.00  0.00    -0.200 F 
ENDBRANCH  60  83
ENDBRANCH  34  35
ENDBRANCH  26  29
ENDBRANCH  24  25
ENDBRANCH  23  24
ENDBRANCH  22  23
ENDBRANCH   1  22
TORSDOF 15
