REMARK SMILES CCN1C(=O)CC[C@H](C(=O)NCCCCNC(=O)c2ccc(-c3c4nc(c(-c5c(F)c(F)c(F)c(F)c5F)c5ccc([nH]5)c(-c5c(F)c(F)c(F)c(F)c5F)c5nc(c(-c6c(F)c(F)c(F)c(F)c6F)c6ccc3[nH]6)C=C5)C=C4)cc2)[C@@H]1c1ccc(OC)cc1
REMARK SMILES IDX 13 1 12 2 11 3 9 4 10 5 8 7 3 8 4 9 82 10 5 11 6 12 7 13
REMARK SMILES IDX 2 14 1 15 83 16 84 17 90 18 85 19 89 20 86 21 87 22 88 23
REMARK SMILES IDX 14 24 15 25 16 26 17 27 18 29 19 30 20 31 81 32 21 33 80 34
REMARK SMILES IDX 22 35 23 36 24 37 74 38 25 39 79 40 73 41 75 42 26 43 78 44
REMARK SMILES IDX 72 45 71 46 27 48 59 49 39 50 58 51 40 52 43 53 57 54 76 55
REMARK SMILES IDX 41 56 42 57 56 59 77 60 44 61 28 62 29 63 37 64 30 65 31 66
REMARK SMILES IDX 35 67 38 68 32 69 33 70 36 71 34 72 60 73 61 74 69 75 62 76
REMARK SMILES IDX 63 77 67 78 70 79 64 80 65 81 68 82 66 83 45 84 46 85 54 86
REMARK SMILES IDX 47 87 48 88 52 89 55 90 49 91 50 92 53 93 51 94
REMARK H PARENT 11 6 16 28 75 47 43 58
REMARK Flexibility Score: inf
ROOT
ATOM      1  C   UNL     1       0.984  -5.718   3.973  1.00  0.00     0.023 C 
ENDROOT
BRANCH   1   2
ATOM      2  C   UNL     1       1.438  -4.482   3.216  1.00  0.00     0.116 C 
BRANCH   2   3
ATOM      3  N   UNL     1       2.797  -4.557   2.720  1.00  0.00    -0.356 N 
ATOM      4  C   UNL     1       3.326  -4.104   1.548  1.00  0.00     0.225 C 
ATOM      5  O   UNL     1       4.553  -3.969   1.504  1.00  0.00    -0.275 OA
ATOM      6  H   UNL     1       3.437  -5.004   3.321  1.00  0.00     0.163 HD
BRANCH   4   7
ATOM      7  C   UNL     1       2.482  -3.771   0.319  1.00  0.00     0.106 C 
ATOM      8  N   UNL     1       0.985  -2.128  -0.890  1.00  0.00    -0.335 N 
ATOM      9  C   UNL     1       0.341  -3.162  -1.562  1.00  0.00     0.223 C 
ATOM     10  C   UNL     1       1.911  -2.334   0.255  1.00  0.00     0.128 C 
ATOM     11  O   UNL     1      -0.561  -2.954  -2.377  1.00  0.00    -0.275 OA
ATOM     12  C   UNL     1       0.854  -4.572  -1.390  1.00  0.00     0.101 C 
ATOM     13  C   UNL     1       1.489  -4.863  -0.054  1.00  0.00     0.026 C 
BRANCH   8  14
ATOM     14  C   UNL     1       0.623  -0.773  -1.344  1.00  0.00     0.117 C 
ATOM     15  C   UNL     1       1.181   0.440  -0.617  1.00  0.00     0.027 C 
ENDBRANCH   8  14
BRANCH  10  16
ATOM     16  C   UNL     1       1.332  -1.792   1.559  1.00  0.00    -0.024 A 
ATOM     17  C   UNL     1      -0.045  -1.806   1.834  1.00  0.00     0.010 A 
ATOM     18  C   UNL     1       2.194  -1.220   2.515  1.00  0.00     0.010 A 
ATOM     19  C   UNL     1      -0.536  -1.286   3.035  1.00  0.00     0.047 A 
ATOM     20  C   UNL     1       1.700  -0.712   3.723  1.00  0.00     0.047 A 
ATOM     21  C   UNL     1       0.334  -0.763   3.991  1.00  0.00     0.118 A 
BRANCH  21  22
ATOM     22  O   UNL     1      -0.265  -0.316   5.135  1.00  0.00    -0.497 OA
ATOM     23  C   UNL     1       0.556  -0.297   6.296  1.00  0.00     0.278 C 
ENDBRANCH  21  22
ENDBRANCH  10  16
ENDBRANCH   4   7
ENDBRANCH   2   3
ENDBRANCH   1   2
BRANCH   1  24
ATOM     24  C   UNL     1       1.583  -5.854   5.370  1.00  0.00     0.023 C 
BRANCH  24  25
ATOM     25  C   UNL     1       1.486  -4.615   6.258  1.00  0.00     0.116 C 
BRANCH  25  26
ATOM     26  N   UNL     1       0.136  -4.089   6.395  1.00  0.00    -0.352 N 
ATOM     27  C   UNL     1      -0.505  -3.628   7.522  1.00  0.00     0.251 C 
ATOM     28  H   UNL     1      -0.392  -4.059   5.565  1.00  0.00     0.163 HD
ATOM     29  O   UNL     1      -1.682  -3.305   7.484  1.00  0.00    -0.269 OA
BRANCH  27  30
ATOM     30  C   UNL     1       0.238  -3.551   8.798  1.00  0.00     0.039 A 
ATOM     31  C   UNL     1      -0.348  -4.086   9.948  1.00  0.00     0.014 A 
ATOM     32  C   UNL     1       1.516  -2.989   8.852  1.00  0.00     0.014 A 
ATOM     33  C   UNL     1       0.386  -4.135  11.133  1.00  0.00     0.010 A 
ATOM     34  C   UNL     1       2.268  -3.090  10.014  1.00  0.00     0.010 A 
ATOM     35  C   UNL     1       1.714  -3.679  11.159  1.00  0.00    -0.014 A 
BRANCH  35  36
ATOM     36  C   UNL     1       2.570  -3.867  12.351  1.00  0.00     0.031 A 
ATOM     37  C   UNL     1       3.062  -2.682  13.125  1.00  0.00     0.074 A 
ATOM     38  C   UNL     1       2.982  -5.111  12.660  1.00  0.00     0.049 A 
ATOM     39  N   UNL     1       3.864  -2.646  14.158  1.00  0.00    -0.248 NA
ATOM     40  C   UNL     1       2.619  -1.359  12.660  1.00  0.00     0.031 C 
ATOM     41  C   UNL     1       2.625  -6.325  11.922  1.00  0.00     0.029 A 
ATOM     42  N   UNL     1       3.806  -5.560  13.659  1.00  0.00    -0.354 N 
ATOM     43  C   UNL     1       4.022  -1.302  14.466  1.00  0.00     0.074 A 
ATOM     44  C   UNL     1       3.283  -0.551  13.474  1.00  0.00     0.031 C 
ATOM     45  C   UNL     1       3.212  -7.382  12.505  1.00  0.00     0.029 A 
ATOM     46  C   UNL     1       4.009  -6.917  13.634  1.00  0.00     0.049 A 
ATOM     47  H   UNL     1       4.212  -4.965  14.331  1.00  0.00     0.167 HD
ATOM     48  C   UNL     1       4.704  -0.751  15.498  1.00  0.00     0.037 A 
ATOM     49  C   UNL     1       4.760  -7.697  14.434  1.00  0.00     0.037 A 
ATOM     50  C   UNL     1       5.432  -1.515  16.478  1.00  0.00     0.049 A 
ATOM     51  C   UNL     1       5.507  -7.059  15.573  1.00  0.00     0.074 A 
ATOM     52  C   UNL     1       6.105  -1.064  17.599  1.00  0.00     0.029 A 
ATOM     53  N   UNL     1       5.593  -2.894  16.443  1.00  0.00    -0.354 N 
ATOM     54  N   UNL     1       5.572  -5.795  15.916  1.00  0.00    -0.248 NA
ATOM     55  C   UNL     1       6.276  -7.958  16.445  1.00  0.00     0.031 C 
ATOM     56  C   UNL     1       6.716  -2.162  18.213  1.00  0.00     0.029 A 
ATOM     57  C   UNL     1       6.375  -3.306  17.510  1.00  0.00     0.049 A 
ATOM     58  H   UNL     1       5.207  -3.490  15.762  1.00  0.00     0.167 HD
ATOM     59  C   UNL     1       6.359  -5.749  17.058  1.00  0.00     0.074 A 
ATOM     60  C   UNL     1       6.736  -7.115  17.358  1.00  0.00     0.031 C 
ATOM     61  C   UNL     1       6.736  -4.673  17.792  1.00  0.00     0.037 A 
BRANCH  48  62
ATOM     62  C   UNL     1       4.689   0.746  15.623  1.00  0.00     0.064 A 
ATOM     63  C   UNL     1       3.518   1.444  15.958  1.00  0.00     0.173 A 
ATOM     64  C   UNL     1       5.865   1.490  15.445  1.00  0.00     0.173 A 
ATOM     65  F   UNL     1       2.363   0.783  16.129  1.00  0.00    -0.203 F 
ATOM     66  C   UNL     1       3.519   2.831  16.081  1.00  0.00     0.198 A 
ATOM     67  C   UNL     1       5.869   2.874  15.601  1.00  0.00     0.198 A 
ATOM     68  F   UNL     1       7.014   0.874  15.128  1.00  0.00    -0.203 F 
ATOM     69  F   UNL     1       2.377   3.479  16.351  1.00  0.00    -0.200 F 
ATOM     70  C   UNL     1       4.695   3.544  15.910  1.00  0.00     0.200 A 
ATOM     71  F   UNL     1       7.010   3.560  15.449  1.00  0.00    -0.200 F 
ATOM     72  F   UNL     1       4.697   4.878  16.037  1.00  0.00    -0.200 F 
ENDBRANCH  48  62
BRANCH  49  73
ATOM     73  C   UNL     1       4.809  -9.165  14.207  1.00  0.00     0.064 A 
ATOM     74  C   UNL     1       4.213 -10.052  15.113  1.00  0.00     0.173 A 
ATOM     75  C   UNL     1       5.442  -9.710  13.081  1.00  0.00     0.173 A 
ATOM     76  F   UNL     1       3.608  -9.580  16.213  1.00  0.00    -0.203 F 
ATOM     77  C   UNL     1       4.269 -11.430  14.915  1.00  0.00     0.198 A 
ATOM     78  C   UNL     1       5.471 -11.087  12.867  1.00  0.00     0.198 A 
ATOM     79  F   UNL     1       6.018  -8.904  12.177  1.00  0.00    -0.203 F 
ATOM     80  F   UNL     1       3.731 -12.257  15.822  1.00  0.00    -0.200 F 
ATOM     81  C   UNL     1       4.893 -11.946  13.789  1.00  0.00     0.200 A 
ATOM     82  F   UNL     1       6.059 -11.580  11.769  1.00  0.00    -0.200 F 
ATOM     83  F   UNL     1       4.942 -13.271  13.596  1.00  0.00    -0.200 F 
ENDBRANCH  49  73
BRANCH  61  84
ATOM     84  C   UNL     1       7.572  -4.936  19.012  1.00  0.00     0.064 A 
ATOM     85  C   UNL     1       8.908  -5.352  18.916  1.00  0.00     0.173 A 
ATOM     86  C   UNL     1       7.036  -4.737  20.293  1.00  0.00     0.173 A 
ATOM     87  F   UNL     1       9.462  -5.572  17.713  1.00  0.00    -0.203 F 
ATOM     88  C   UNL     1       9.667  -5.588  20.058  1.00  0.00     0.198 A 
ATOM     89  C   UNL     1       7.809  -4.941  21.433  1.00  0.00     0.198 A 
ATOM     90  F   UNL     1       5.765  -4.333  20.440  1.00  0.00    -0.203 F 
ATOM     91  F   UNL     1      10.925  -6.038  19.943  1.00  0.00    -0.200 F 
ATOM     92  C   UNL     1       9.120  -5.375  21.315  1.00  0.00     0.200 A 
ATOM     93  F   UNL     1       7.283  -4.720  22.645  1.00  0.00    -0.200 F 
ATOM     94  F   UNL     1       9.855  -5.596  22.413  1.00  0.00    -0.200 F 
ENDBRANCH  61  84
ENDBRANCH  35  36
ENDBRANCH  27  30
ENDBRANCH  25  26
ENDBRANCH  24  25
ENDBRANCH   1  24
TORSDOF 14
