REMARK SMILES Cc1nsc(NC(=O)[C@@H]2C[NH2+]C[C@H]2C)c1C(=O)NCCCCNC(=O)c1ccc(-c2c3nc(c(-c4c(F)c(F)c(F)c(F)c4F)c4ccc([nH]4)c(-c4c(F)c(F)c(F)c(F)c4F)c4nc(c(-c5c(F)c(F)c(F)c(F)c5F)c5ccc2[nH]5)C=C4)C=C3)cc1
REMARK SMILES IDX 20 1 19 2 18 3 16 4 17 5 15 7 1 8 2 9 3 10 4 11 5 12 6 13
REMARK SMILES IDX 7 14 8 16 9 17 10 18 13 19 11 20 12 21 14 22 21 25 22 26
REMARK SMILES IDX 23 27 24 28 25 30 26 31 27 32 88 33 28 34 87 35 29 36 30 37
REMARK SMILES IDX 31 38 81 39 32 40 86 41 80 42 82 43 33 44 85 45 79 46 78 47
REMARK SMILES IDX 34 49 66 50 46 51 65 52 47 53 50 54 64 55 83 56 48 57 49 58
REMARK SMILES IDX 63 60 84 61 51 62 35 63 36 64 44 65 37 66 38 67 42 68 45 69
REMARK SMILES IDX 39 70 40 71 43 72 41 73 67 74 68 75 76 76 69 77 70 78 74 79
REMARK SMILES IDX 77 80 71 81 72 82 75 83 73 84 52 85 53 86 61 87 54 88 55 89
REMARK SMILES IDX 59 90 62 91 56 92 57 93 60 94 58 95
REMARK H PARENT 18 6 6 15 11 23 11 24 23 29 82 48 50 59
REMARK Flexibility Score: inf
ROOT
ATOM      1  C   UNL     1       3.263  -0.351   1.304  1.00  0.00     0.023 C 
ENDROOT
BRANCH   1   2
ATOM      2  C   UNL     1       2.148   0.466   1.958  1.00  0.00     0.116 C 
BRANCH   2   3
ATOM      3  N   UNL     1       2.220   1.877   1.664  1.00  0.00    -0.352 N 
ATOM      4  C   UNL     1       1.736   2.701   0.686  1.00  0.00     0.256 C 
ATOM      5  O   UNL     1       1.953   3.898   0.920  1.00  0.00    -0.269 OA
ATOM      6  H   UNL     1       2.749   2.367   2.334  1.00  0.00     0.163 HD
BRANCH   4   7
ATOM      7  C   UNL     1       1.092   2.311  -0.582  1.00  0.00     0.097 A 
ATOM      8  C   UNL     1       0.548  -0.338  -0.672  1.00  0.00     0.069 C 
ATOM      9  C   UNL     1       0.667   1.047  -1.194  1.00  0.00     0.066 A 
ATOM     10  N   UNL     1       0.323   1.113  -2.481  1.00  0.00    -0.195 NA
ATOM     11  S   UNL     1       0.495   2.636  -3.009  1.00  0.00    -0.017 S 
ATOM     12  C   UNL     1       0.745   3.333  -1.492  1.00  0.00     0.129 A 
BRANCH  12  13
ATOM     13  N   UNL     1       0.859   4.707  -1.365  1.00  0.00    -0.315 N 
ATOM     14  C   UNL     1       0.336   5.759  -2.075  1.00  0.00     0.234 C 
ATOM     15  H   UNL     1       1.430   4.986  -0.613  1.00  0.00     0.170 HD
ATOM     16  O   UNL     1       1.013   6.795  -2.087  1.00  0.00    -0.274 OA
BRANCH  14  17
ATOM     17  C   UNL     1      -1.134   5.786  -2.561  1.00  0.00     0.142 C 
ATOM     18  C   UNL     1      -1.515   4.841  -3.695  1.00  0.00     0.274 C 
ATOM     19  C   UNL     1      -1.550   7.178  -3.132  1.00  0.00     0.059 C 
ATOM     20  N   UNL     1      -2.407   5.566  -4.604  1.00  0.00    -0.345 N 
ATOM     21  C   UNL     1      -1.823   6.906  -4.610  1.00  0.00     0.264 C 
ATOM     22  C   UNL     1      -2.805   7.725  -2.443  1.00  0.00     0.015 C 
ATOM     23  H   UNL     1      -3.364   5.581  -4.250  1.00  0.00     0.346 HD
ATOM     24  H   UNL     1      -2.475   5.146  -5.532  1.00  0.00     0.346 HD
ENDBRANCH  14  17
ENDBRANCH  12  13
ENDBRANCH   4   7
ENDBRANCH   2   3
ENDBRANCH   1   2
BRANCH   1  25
ATOM     25  C   UNL     1       4.538  -0.522   2.140  1.00  0.00     0.023 C 
BRANCH  25  26
ATOM     26  C   UNL     1       4.375  -1.395   3.384  1.00  0.00     0.116 C 
BRANCH  26  27
ATOM     27  N   UNL     1       3.950  -2.764   3.083  1.00  0.00    -0.352 N 
ATOM     28  C   UNL     1       3.406  -3.699   3.950  1.00  0.00     0.251 C 
ATOM     29  H   UNL     1       4.065  -3.056   2.150  1.00  0.00     0.163 HD
ATOM     30  O   UNL     1       3.440  -4.892   3.716  1.00  0.00    -0.269 OA
BRANCH  28  31
ATOM     31  C   UNL     1       2.738  -3.197   5.160  1.00  0.00     0.039 A 
ATOM     32  C   UNL     1       2.962  -3.755   6.424  1.00  0.00     0.014 A 
ATOM     33  C   UNL     1       1.910  -2.093   4.990  1.00  0.00     0.014 A 
ATOM     34  C   UNL     1       2.400  -3.135   7.538  1.00  0.00     0.010 A 
ATOM     35  C   UNL     1       1.500  -1.395   6.090  1.00  0.00     0.010 A 
ATOM     36  C   UNL     1       1.679  -1.950   7.357  1.00  0.00    -0.014 A 
BRANCH  36  37
ATOM     37  C   UNL     1       1.137  -1.189   8.473  1.00  0.00     0.031 A 
ATOM     38  C   UNL     1       2.145  -0.543   9.361  1.00  0.00     0.074 A 
ATOM     39  C   UNL     1      -0.163  -0.821   8.448  1.00  0.00     0.049 A 
ATOM     40  N   UNL     1       2.290  -0.683  10.638  1.00  0.00    -0.248 NA
ATOM     41  C   UNL     1       3.197   0.281   8.739  1.00  0.00     0.031 C 
ATOM     42  C   UNL     1      -1.159  -1.105   7.404  1.00  0.00     0.029 A 
ATOM     43  N   UNL     1      -0.822   0.052   9.252  1.00  0.00    -0.354 N 
ATOM     44  C   UNL     1       3.319   0.182  11.011  1.00  0.00     0.074 A 
ATOM     45  C   UNL     1       3.961   0.587   9.790  1.00  0.00     0.031 C 
ATOM     46  C   UNL     1      -2.174  -0.220   7.496  1.00  0.00     0.029 A 
ATOM     47  C   UNL     1      -1.981   0.579   8.689  1.00  0.00     0.049 A 
ATOM     48  H   UNL     1      -0.508   0.292  10.154  1.00  0.00     0.167 HD
ATOM     49  C   UNL     1       3.392   0.693  12.274  1.00  0.00     0.037 A 
ATOM     50  C   UNL     1      -2.657   1.663   9.144  1.00  0.00     0.037 A 
ATOM     51  C   UNL     1       2.546  -0.050  13.177  1.00  0.00     0.049 A 
ATOM     52  C   UNL     1      -2.229   1.880  10.555  1.00  0.00     0.074 A 
ATOM     53  C   UNL     1       2.458  -1.380  13.543  1.00  0.00     0.029 A 
ATOM     54  N   UNL     1       1.349   0.513  13.554  1.00  0.00    -0.354 N 
ATOM     55  N   UNL     1      -2.486   1.040  11.523  1.00  0.00    -0.248 NA
ATOM     56  C   UNL     1      -1.085   2.756  10.777  1.00  0.00     0.031 C 
ATOM     57  C   UNL     1       1.057  -1.646  13.601  1.00  0.00     0.029 A 
ATOM     58  C   UNL     1       0.387  -0.445  13.366  1.00  0.00     0.049 A 
ATOM     59  H   UNL     1       1.210   1.427  13.893  1.00  0.00     0.167 HD
ATOM     60  C   UNL     1      -1.313   0.982  12.264  1.00  0.00     0.074 A 
ATOM     61  C   UNL     1      -0.506   2.106  11.791  1.00  0.00     0.031 C 
ATOM     62  C   UNL     1      -0.965  -0.139  12.964  1.00  0.00     0.037 A 
BRANCH  49  63
ATOM     63  C   UNL     1       3.907   2.073  12.630  1.00  0.00     0.064 A 
ATOM     64  C   UNL     1       3.989   2.435  13.992  1.00  0.00     0.173 A 
ATOM     65  C   UNL     1       4.021   3.143  11.717  1.00  0.00     0.173 A 
ATOM     66  F   UNL     1       3.897   1.504  14.954  1.00  0.00    -0.203 F 
ATOM     67  C   UNL     1       4.061   3.769  14.403  1.00  0.00     0.198 A 
ATOM     68  C   UNL     1       4.151   4.468  12.131  1.00  0.00     0.198 A 
ATOM     69  F   UNL     1       3.899   2.978  10.396  1.00  0.00    -0.203 F 
ATOM     70  F   UNL     1       3.986   4.067  15.707  1.00  0.00    -0.200 F 
ATOM     71  C   UNL     1       4.130   4.786  13.471  1.00  0.00     0.200 A 
ATOM     72  F   UNL     1       4.207   5.441  11.209  1.00  0.00    -0.200 F 
ATOM     73  F   UNL     1       4.126   6.068  13.858  1.00  0.00    -0.200 F 
ENDBRANCH  49  63
BRANCH  50  74
ATOM     74  C   UNL     1      -3.342   2.695   8.324  1.00  0.00     0.064 A 
ATOM     75  C   UNL     1      -4.258   3.592   8.895  1.00  0.00     0.173 A 
ATOM     76  C   UNL     1      -2.936   2.979   7.003  1.00  0.00     0.173 A 
ATOM     77  F   UNL     1      -4.656   3.429  10.165  1.00  0.00    -0.203 F 
ATOM     78  C   UNL     1      -4.734   4.705   8.189  1.00  0.00     0.198 A 
ATOM     79  C   UNL     1      -3.420   4.082   6.296  1.00  0.00     0.198 A 
ATOM     80  F   UNL     1      -1.992   2.245   6.396  1.00  0.00    -0.203 F 
ATOM     81  F   UNL     1      -5.568   5.569   8.786  1.00  0.00    -0.200 F 
ATOM     82  C   UNL     1      -4.311   4.951   6.893  1.00  0.00     0.200 A 
ATOM     83  F   UNL     1      -2.971   4.324   5.056  1.00  0.00    -0.200 F 
ATOM     84  F   UNL     1      -4.728   6.042   6.235  1.00  0.00    -0.200 F 
ENDBRANCH  50  74
BRANCH  62  85
ATOM     85  C   UNL     1      -1.971  -1.246  13.118  1.00  0.00     0.064 A 
ATOM     86  C   UNL     1      -2.526  -1.964  12.044  1.00  0.00     0.173 A 
ATOM     87  C   UNL     1      -2.231  -1.725  14.409  1.00  0.00     0.173 A 
ATOM     88  F   UNL     1      -2.239  -1.642  10.778  1.00  0.00    -0.203 F 
ATOM     89  C   UNL     1      -3.331  -3.082  12.256  1.00  0.00     0.198 A 
ATOM     90  C   UNL     1      -3.004  -2.864  14.618  1.00  0.00     0.198 A 
ATOM     91  F   UNL     1      -1.680  -1.120  15.473  1.00  0.00    -0.203 F 
ATOM     92  F   UNL     1      -3.848  -3.745  11.211  1.00  0.00    -0.200 F 
ATOM     93  C   UNL     1      -3.561  -3.536  13.543  1.00  0.00     0.200 A 
ATOM     94  F   UNL     1      -3.177  -3.331  15.862  1.00  0.00    -0.200 F 
ATOM     95  F   UNL     1      -4.294  -4.640  13.746  1.00  0.00    -0.200 F 
ENDBRANCH  62  85
ENDBRANCH  36  37
ENDBRANCH  28  31
ENDBRANCH  26  27
ENDBRANCH  25  26
ENDBRANCH   1  25
TORSDOF 13
