REMARK SMILES O=C(NCCCCNC(=O)[C@@H]1C[C@@H]2CC[C@H]1N2C(=O)C[C@H]1CCCCO1)c1ccc(-c2c3nc(c(-c4c(F)c(F)c(F)c(F)c4F)c4ccc([nH]4)c(-c4c(F)c(F)c(F)c(F)c4F)c4nc(c(-c5c(F)c(F)c(F)c(F)c5F)c5ccc2[nH]5)C=C4)C=C3)cc1
REMARK SMILES IDX 6 1 5 2 4 3 3 4 1 5 2 6 27 8 28 9 89 10 29 11 88 12 30 13
REMARK SMILES IDX 31 14 32 15 82 16 33 17 87 18 81 19 83 20 34 21 86 22 80 23
REMARK SMILES IDX 79 24 35 26 67 27 47 28 66 29 48 30 51 31 65 32 84 33 49 34
REMARK SMILES IDX 50 35 64 37 85 38 52 39 36 40 37 41 45 42 38 43 39 44 43 45
REMARK SMILES IDX 46 46 40 47 41 48 44 49 42 50 68 51 69 52 77 53 70 54 71 55
REMARK SMILES IDX 75 56 78 57 72 58 73 59 76 60 74 61 53 62 54 63 62 64 55 65
REMARK SMILES IDX 56 66 60 67 63 68 57 69 58 70 61 71 59 72 7 73 8 74 9 75
REMARK SMILES IDX 10 77 11 78 12 79 16 80 13 81 15 82 17 83 14 84 18 85 19 86
REMARK SMILES IDX 20 87 21 88 22 89 26 90 23 91 25 92 24 93
REMARK H PARENT 3 7 83 25 51 36 8 76
REMARK Flexibility Score: inf
ROOT
ATOM      1  C   UNL     1       0.989   4.233   0.503  1.00  0.00     0.023 C 
ENDROOT
BRANCH   1   2
ATOM      2  C   UNL     1       1.147   2.790   0.995  1.00  0.00     0.023 C 
BRANCH   2   3
ATOM      3  C   UNL     1       0.343   1.742   0.232  1.00  0.00     0.116 C 
BRANCH   3   4
ATOM      4  N   UNL     1       0.964   1.288  -0.999  1.00  0.00    -0.352 N 
ATOM      5  O   UNL     1       1.552  -0.299  -2.517  1.00  0.00    -0.269 OA
ATOM      6  C   UNL     1       0.927   0.004  -1.513  1.00  0.00     0.251 C 
ATOM      7  H   UNL     1       1.460   1.960  -1.520  1.00  0.00     0.163 HD
BRANCH   6   8
ATOM      8  C   UNL     1       0.144  -1.014  -0.777  1.00  0.00     0.039 A 
ATOM      9  C   UNL     1      -1.199  -0.774  -0.475  1.00  0.00     0.014 A 
ATOM     10  C   UNL     1       0.791  -2.149  -0.283  1.00  0.00     0.014 A 
ATOM     11  C   UNL     1      -1.848  -1.586   0.448  1.00  0.00     0.010 A 
ATOM     12  C   UNL     1       0.110  -3.008   0.586  1.00  0.00     0.010 A 
ATOM     13  C   UNL     1      -1.201  -2.709   0.993  1.00  0.00    -0.014 A 
BRANCH  13  14
ATOM     14  C   UNL     1      -1.929  -3.574   1.958  1.00  0.00     0.031 A 
ATOM     15  C   UNL     1      -1.482  -3.698   3.390  1.00  0.00     0.074 A 
ATOM     16  C   UNL     1      -3.027  -4.228   1.537  1.00  0.00     0.049 A 
ATOM     17  N   UNL     1      -2.001  -4.415   4.357  1.00  0.00    -0.248 NA
ATOM     18  C   UNL     1      -0.299  -2.922   3.792  1.00  0.00     0.031 C 
ATOM     19  C   UNL     1      -3.555  -4.187   0.172  1.00  0.00     0.029 A 
ATOM     20  N   UNL     1      -3.905  -5.038   2.210  1.00  0.00    -0.354 N 
ATOM     21  C   UNL     1      -1.196  -4.200   5.469  1.00  0.00     0.074 A 
ATOM     22  C   UNL     1      -0.145  -3.294   5.056  1.00  0.00     0.031 C 
ATOM     23  C   UNL     1      -4.687  -4.902   0.117  1.00  0.00     0.029 A 
ATOM     24  C   UNL     1      -4.930  -5.503   1.424  1.00  0.00     0.049 A 
ATOM     25  H   UNL     1      -3.810  -5.265   3.163  1.00  0.00     0.167 HD
ATOM     26  C   UNL     1      -1.327  -4.712   6.717  1.00  0.00     0.037 A 
ATOM     27  C   UNL     1      -5.944  -6.339   1.714  1.00  0.00     0.037 A 
ATOM     28  C   UNL     1      -2.390  -5.594   7.129  1.00  0.00     0.049 A 
ATOM     29  C   UNL     1      -6.058  -6.897   3.101  1.00  0.00     0.074 A 
ATOM     30  C   UNL     1      -2.627  -6.136   8.381  1.00  0.00     0.029 A 
ATOM     31  N   UNL     1      -3.396  -6.063   6.296  1.00  0.00    -0.354 N 
ATOM     32  N   UNL     1      -5.296  -6.675   4.144  1.00  0.00    -0.248 NA
ATOM     33  C   UNL     1      -7.166  -7.828   3.350  1.00  0.00     0.031 C 
ATOM     34  C   UNL     1      -3.753  -6.963   8.297  1.00  0.00     0.029 A 
ATOM     35  C   UNL     1      -4.243  -6.902   7.003  1.00  0.00     0.049 A 
ATOM     36  H   UNL     1      -3.493  -5.833   5.344  1.00  0.00     0.167 HD
ATOM     37  C   UNL     1      -5.835  -7.430   5.175  1.00  0.00     0.074 A 
ATOM     38  C   UNL     1      -7.003  -8.098   4.638  1.00  0.00     0.031 C 
ATOM     39  C   UNL     1      -5.398  -7.563   6.451  1.00  0.00     0.037 A 
BRANCH  26  40
ATOM     40  C   UNL     1      -0.286  -4.351   7.738  1.00  0.00     0.064 A 
ATOM     41  C   UNL     1      -0.238  -3.078   8.325  1.00  0.00     0.173 A 
ATOM     42  C   UNL     1       0.633  -5.313   8.184  1.00  0.00     0.173 A 
ATOM     43  F   UNL     1      -1.087  -2.119   7.927  1.00  0.00    -0.203 F 
ATOM     44  C   UNL     1       0.701  -2.778   9.310  1.00  0.00     0.198 A 
ATOM     45  C   UNL     1       1.555  -5.017   9.185  1.00  0.00     0.198 A 
ATOM     46  F   UNL     1       0.626  -6.548   7.661  1.00  0.00    -0.203 F 
ATOM     47  F   UNL     1       0.748  -1.545   9.835  1.00  0.00    -0.200 F 
ATOM     48  C   UNL     1       1.590  -3.749   9.745  1.00  0.00     0.200 A 
ATOM     49  F   UNL     1       2.406  -5.960   9.612  1.00  0.00    -0.200 F 
ATOM     50  F   UNL     1       2.485  -3.461  10.700  1.00  0.00    -0.200 F 
ENDBRANCH  26  40
BRANCH  27  51
ATOM     51  C   UNL     1      -6.920  -6.697   0.655  1.00  0.00     0.064 A 
ATOM     52  C   UNL     1      -8.237  -6.222   0.698  1.00  0.00     0.173 A 
ATOM     53  C   UNL     1      -6.545  -7.490  -0.440  1.00  0.00     0.173 A 
ATOM     54  F   UNL     1      -8.646  -5.476   1.735  1.00  0.00    -0.203 F 
ATOM     55  C   UNL     1      -9.145  -6.532  -0.312  1.00  0.00     0.198 A 
ATOM     56  C   UNL     1      -7.445  -7.775  -1.463  1.00  0.00     0.198 A 
ATOM     57  F   UNL     1      -5.293  -7.962  -0.529  1.00  0.00    -0.203 F 
ATOM     58  F   UNL     1     -10.408  -6.090  -0.233  1.00  0.00    -0.200 F 
ATOM     59  C   UNL     1      -8.746  -7.300  -1.396  1.00  0.00     0.200 A 
ATOM     60  F   UNL     1      -7.049  -8.501  -2.517  1.00  0.00    -0.200 F 
ATOM     61  F   UNL     1      -9.615  -7.584  -2.375  1.00  0.00    -0.200 F 
ENDBRANCH  27  51
BRANCH  39  62
ATOM     62  C   UNL     1      -6.199  -8.452   7.353  1.00  0.00     0.064 A 
ATOM     63  C   UNL     1      -6.153  -9.848   7.232  1.00  0.00     0.173 A 
ATOM     64  C   UNL     1      -7.005  -7.903   8.360  1.00  0.00     0.173 A 
ATOM     65  F   UNL     1      -5.409 -10.418   6.271  1.00  0.00    -0.203 F 
ATOM     66  C   UNL     1      -6.906 -10.663   8.072  1.00  0.00     0.198 A 
ATOM     67  C   UNL     1      -7.739  -8.722   9.214  1.00  0.00     0.198 A 
ATOM     68  F   UNL     1      -7.079  -6.573   8.517  1.00  0.00    -0.203 F 
ATOM     69  F   UNL     1      -6.884 -11.993   7.909  1.00  0.00    -0.200 F 
ATOM     70  C   UNL     1      -7.694 -10.100   9.065  1.00  0.00     0.200 A 
ATOM     71  F   UNL     1      -8.493  -8.177  10.178  1.00  0.00    -0.200 F 
ATOM     72  F   UNL     1      -8.419 -10.886   9.873  1.00  0.00    -0.200 F 
ENDBRANCH  39  62
ENDBRANCH  13  14
ENDBRANCH   6   8
ENDBRANCH   3   4
ENDBRANCH   2   3
ENDBRANCH   1   2
BRANCH   1  73
ATOM     73  C   UNL     1      -0.477   4.653   0.399  1.00  0.00     0.116 C 
BRANCH  73  74
ATOM     74  N   UNL     1      -0.746   6.032   0.748  1.00  0.00    -0.356 N 
ATOM     75  C   UNL     1      -0.833   7.171   0.013  1.00  0.00     0.225 C 
ATOM     76  H   UNL     1      -0.895   6.173   1.711  1.00  0.00     0.163 HD
ATOM     77  O   UNL     1      -1.413   8.120   0.547  1.00  0.00    -0.275 OA
BRANCH  75  78
ATOM     78  C   UNL     1      -0.099   7.348  -1.299  1.00  0.00     0.103 C 
ATOM     79  C   UNL     1      -0.618   8.558  -2.148  1.00  0.00     0.040 C 
ATOM     80  C   UNL     1      -0.083   6.233  -2.345  1.00  0.00     0.098 C 
ATOM     81  C   UNL     1      -0.645   7.985  -3.584  1.00  0.00     0.086 C 
ATOM     82  C   UNL     1      -1.515   5.895  -2.811  1.00  0.00     0.028 C 
ATOM     83  N   UNL     1       0.389   6.983  -3.488  1.00  0.00    -0.336 N 
ATOM     84  C   UNL     1      -1.878   7.088  -3.723  1.00  0.00     0.027 C 
BRANCH  83  85
ATOM     85  C   UNL     1       1.538   6.954  -4.221  1.00  0.00     0.225 C 
ATOM     86  O   UNL     1       1.669   7.642  -5.234  1.00  0.00    -0.275 OA
BRANCH  85  87
ATOM     87  C   UNL     1       2.647   6.021  -3.771  1.00  0.00     0.132 C 
BRANCH  87  88
ATOM     88  C   UNL     1       3.283   6.438  -2.441  1.00  0.00     0.127 C 
ATOM     89  C   UNL     1       4.634   5.742  -2.228  1.00  0.00     0.033 C 
ATOM     90  O   UNL     1       3.468   7.856  -2.413  1.00  0.00    -0.378 OA
ATOM     91  C   UNL     1       5.302   6.228  -0.943  1.00  0.00     0.005 C 
ATOM     92  C   UNL     1       3.957   8.327  -1.160  1.00  0.00     0.160 C 
ATOM     93  C   UNL     1       5.338   7.752  -0.888  1.00  0.00     0.029 C 
ENDBRANCH  87  88
ENDBRANCH  85  87
ENDBRANCH  83  85
ENDBRANCH  75  78
ENDBRANCH  73  74
ENDBRANCH   1  73
TORSDOF 14
