REMARK SMILES Cc1nn(C)c(C)c1[C@H](C)N1C(=O)CC[C@@H](C(=O)NCCCCNC(=O)c2ccc(-c3c4nc(c(-c5c(F)c(F)c(F)c(F)c5F)c5ccc([nH]5)c(-c5c(F)c(F)c(F)c(F)c5F)c5nc(c(-c6c(F)c(F)c(F)c(F)c6F)c6ccc3[nH]6)C=C5)C=C4)cc2)[C@@H]1c1ccco1
REMARK SMILES IDX 21 1 20 2 19 3 17 4 18 5 16 7 11 8 12 9 90 10 13 11 14 12
REMARK SMILES IDX 15 13 9 14 10 15 8 16 1 17 2 18 3 19 4 20 6 21 5 22 7 23
REMARK SMILES IDX 91 24 92 25 95 26 93 27 94 28 22 29 23 30 24 31 25 32 26 34
REMARK SMILES IDX 27 35 28 36 89 37 29 38 88 39 30 40 31 41 32 42 82 43 33 44
REMARK SMILES IDX 87 45 81 46 83 47 34 48 86 49 80 50 79 51 35 53 67 54 47 55
REMARK SMILES IDX 66 56 48 57 51 58 65 59 84 60 49 61 50 62 64 64 85 65 52 66
REMARK SMILES IDX 36 67 37 68 45 69 38 70 39 71 43 72 46 73 40 74 41 75 44 76
REMARK SMILES IDX 42 77 68 78 69 79 77 80 70 81 71 82 75 83 78 84 72 85 73 86
REMARK SMILES IDX 76 87 74 88 53 89 54 90 62 91 55 92 56 93 60 94 63 95 57 96
REMARK SMILES IDX 58 97 61 98 59 99
REMARK H PARENT 19 6 24 33 83 52 51 63
REMARK Flexibility Score: inf
ROOT
ATOM      1  C   UNL     1       0.473   9.406  -3.059  1.00  0.00     0.023 C 
ENDROOT
BRANCH   1   2
ATOM      2  C   UNL     1       0.480   8.568  -1.781  1.00  0.00     0.116 C 
BRANCH   2   3
ATOM      3  N   UNL     1      -0.615   7.621  -1.786  1.00  0.00    -0.356 N 
ATOM      4  C   UNL     1      -0.644   6.308  -2.134  1.00  0.00     0.225 C 
ATOM      5  O   UNL     1      -1.760   5.811  -2.288  1.00  0.00    -0.275 OA
ATOM      6  H   UNL     1      -1.478   7.988  -1.489  1.00  0.00     0.163 HD
BRANCH   4   7
ATOM      7  C   UNL     1       0.644   5.495  -2.245  1.00  0.00     0.109 C 
ATOM      8  N   UNL     1      -0.202   3.410  -1.084  1.00  0.00    -0.325 N 
ATOM      9  C   UNL     1      -0.787   3.004  -2.283  1.00  0.00     0.223 C 
ATOM     10  C   UNL     1       0.731   4.551  -1.033  1.00  0.00     0.164 C 
ATOM     11  O   UNL     1      -1.696   2.169  -2.332  1.00  0.00    -0.275 OA
ATOM     12  C   UNL     1      -0.312   3.598  -3.596  1.00  0.00     0.101 C 
ATOM     13  C   UNL     1       0.719   4.702  -3.535  1.00  0.00     0.026 C 
BRANCH   8  14
ATOM     14  C   UNL     1      -0.664   2.705   0.156  1.00  0.00     0.117 C 
ATOM     15  C   UNL     1      -0.376   1.198   0.067  1.00  0.00     0.036 C 
BRANCH  14  16
ATOM     16  C   UNL     1      -0.205   3.340   1.474  1.00  0.00     0.018 A 
ATOM     17  C   UNL     1       1.236   1.482   2.780  1.00  0.00     0.069 C 
ATOM     18  C   UNL     1       0.609   2.811   2.540  1.00  0.00     0.065 A 
ATOM     19  N   UNL     1       0.793   3.709   3.514  1.00  0.00    -0.178 NA
ATOM     20  N   UNL     1       0.098   4.779   3.133  1.00  0.00    -0.272 N 
ATOM     21  C   UNL     1      -0.594   4.592   1.969  1.00  0.00     0.040 A 
ATOM     22  C   UNL     1       0.173   5.956   3.967  1.00  0.00     0.174 C 
ATOM     23  C   UNL     1      -1.518   5.624   1.423  1.00  0.00     0.067 C 
ENDBRANCH  14  16
ENDBRANCH   8  14
BRANCH  10  24
ATOM     24  C   UNL     1       2.146   4.127  -0.764  1.00  0.00     0.127 A 
ATOM     25  C   UNL     1       3.228   4.827  -0.261  1.00  0.00     0.048 A 
ATOM     26  O   UNL     1       2.507   2.835  -1.008  1.00  0.00    -0.467 OA
ATOM     27  C   UNL     1       4.296   3.907  -0.171  1.00  0.00     0.042 A 
ATOM     28  C   UNL     1       3.803   2.706  -0.624  1.00  0.00     0.195 A 
ENDBRANCH  10  24
ENDBRANCH   4   7
ENDBRANCH   2   3
ENDBRANCH   1   2
BRANCH   1  29
ATOM     29  C   UNL     1      -0.774  10.281  -3.239  1.00  0.00     0.023 C 
BRANCH  29  30
ATOM     30  C   UNL     1      -1.096  11.206  -2.070  1.00  0.00     0.116 C 
BRANCH  30  31
ATOM     31  N   UNL     1      -0.006  12.114  -1.753  1.00  0.00    -0.352 N 
ATOM     32  C   UNL     1      -0.037  13.470  -1.540  1.00  0.00     0.251 C 
ATOM     33  H   UNL     1       0.883  11.697  -1.680  1.00  0.00     0.163 HD
ATOM     34  O   UNL     1       1.011  14.099  -1.426  1.00  0.00    -0.269 OA
BRANCH  32  35
ATOM     35  C   UNL     1      -1.333  14.177  -1.478  1.00  0.00     0.039 A 
ATOM     36  C   UNL     1      -1.483  15.373  -2.185  1.00  0.00     0.014 A 
ATOM     37  C   UNL     1      -2.398  13.661  -0.735  1.00  0.00     0.014 A 
ATOM     38  C   UNL     1      -2.721  16.016  -2.200  1.00  0.00     0.010 A 
ATOM     39  C   UNL     1      -3.651  14.261  -0.815  1.00  0.00     0.010 A 
ATOM     40  C   UNL     1      -3.826  15.446  -1.546  1.00  0.00    -0.014 A 
BRANCH  40  41
ATOM     41  C   UNL     1      -5.171  16.072  -1.619  1.00  0.00     0.031 A 
ATOM     42  C   UNL     1      -5.839  16.578  -0.372  1.00  0.00     0.074 A 
ATOM     43  C   UNL     1      -5.819  16.125  -2.799  1.00  0.00     0.049 A 
ATOM     44  N   UNL     1      -7.032  17.099  -0.222  1.00  0.00    -0.248 NA
ATOM     45  C   UNL     1      -5.077  16.456   0.880  1.00  0.00     0.031 C 
ATOM     46  C   UNL     1      -5.296  15.627  -4.073  1.00  0.00     0.029 A 
ATOM     47  N   UNL     1      -7.061  16.613  -3.119  1.00  0.00    -0.354 N 
ATOM     48  C   UNL     1      -7.166  17.351   1.136  1.00  0.00     0.074 A 
ATOM     49  C   UNL     1      -5.960  16.872   1.776  1.00  0.00     0.031 C 
ATOM     50  C   UNL     1      -6.197  15.862  -5.039  1.00  0.00     0.029 A 
ATOM     51  C   UNL     1      -7.378  16.486  -4.449  1.00  0.00     0.049 A 
ATOM     52  H   UNL     1      -7.667  17.018  -2.457  1.00  0.00     0.167 HD
ATOM     53  C   UNL     1      -8.193  17.948   1.789  1.00  0.00     0.037 A 
ATOM     54  C   UNL     1      -8.497  16.826  -5.116  1.00  0.00     0.037 A 
ATOM     55  C   UNL     1      -9.384  18.438   1.144  1.00  0.00     0.049 A 
ATOM     56  C   UNL     1      -9.633  17.468  -4.365  1.00  0.00     0.074 A 
ATOM     57  C   UNL     1     -10.452  19.116   1.705  1.00  0.00     0.029 A 
ATOM     58  N   UNL     1      -9.669  18.292  -0.206  1.00  0.00    -0.354 N 
ATOM     59  N   UNL     1      -9.718  17.773  -3.093  1.00  0.00    -0.248 NA
ATOM     60  C   UNL     1     -10.827  17.817  -5.146  1.00  0.00     0.031 C 
ATOM     61  C   UNL     1     -11.410  19.323   0.708  1.00  0.00     0.029 A 
ATOM     62  C   UNL     1     -10.912  18.837  -0.490  1.00  0.00     0.049 A 
ATOM     63  H   UNL     1      -9.076  17.864  -0.866  1.00  0.00     0.167 HD
ATOM     64  C   UNL     1     -10.957  18.378  -2.927  1.00  0.00     0.074 A 
ATOM     65  C   UNL     1     -11.583  18.409  -4.233  1.00  0.00     0.031 C 
ATOM     66  C   UNL     1     -11.523  18.867  -1.795  1.00  0.00     0.037 A 
BRANCH  53  67
ATOM     67  C   UNL     1      -8.075  18.094   3.280  1.00  0.00     0.064 A 
ATOM     68  C   UNL     1      -7.125  18.943   3.870  1.00  0.00     0.173 A 
ATOM     69  C   UNL     1      -8.938  17.388   4.133  1.00  0.00     0.173 A 
ATOM     70  F   UNL     1      -6.268  19.634   3.103  1.00  0.00    -0.203 F 
ATOM     71  C   UNL     1      -7.016  19.047   5.254  1.00  0.00     0.198 A 
ATOM     72  C   UNL     1      -8.851  17.524   5.516  1.00  0.00     0.198 A 
ATOM     73  F   UNL     1      -9.870  16.568   3.626  1.00  0.00    -0.203 F 
ATOM     74  F   UNL     1      -6.058  19.814   5.793  1.00  0.00    -0.200 F 
ATOM     75  C   UNL     1      -7.883  18.343   6.076  1.00  0.00     0.200 A 
ATOM     76  F   UNL     1      -9.700  16.854   6.309  1.00  0.00    -0.200 F 
ATOM     77  F   UNL     1      -7.778  18.447   7.408  1.00  0.00    -0.200 F 
ENDBRANCH  53  67
BRANCH  54  78
ATOM     78  C   UNL     1      -8.586  16.595  -6.582  1.00  0.00     0.064 A 
ATOM     79  C   UNL     1      -8.604  17.672  -7.479  1.00  0.00     0.173 A 
ATOM     80  C   UNL     1      -8.652  15.300  -7.117  1.00  0.00     0.173 A 
ATOM     81  F   UNL     1      -8.562  18.930  -7.015  1.00  0.00    -0.203 F 
ATOM     82  C   UNL     1      -8.703  17.464  -8.853  1.00  0.00     0.198 A 
ATOM     83  C   UNL     1      -8.720  15.092  -8.493  1.00  0.00     0.198 A 
ATOM     84  F   UNL     1      -8.633  14.234  -6.302  1.00  0.00    -0.203 F 
ATOM     85  F   UNL     1      -8.763  18.513  -9.684  1.00  0.00    -0.200 F 
ATOM     86  C   UNL     1      -8.754  16.174  -9.359  1.00  0.00     0.200 A 
ATOM     87  F   UNL     1      -8.753  13.844  -8.979  1.00  0.00    -0.200 F 
ATOM     88  F   UNL     1      -8.842  15.974 -10.681  1.00  0.00    -0.200 F 
ENDBRANCH  54  78
BRANCH  66  89
ATOM     89  C   UNL     1     -12.872  19.517  -1.922  1.00  0.00     0.064 A 
ATOM     90  C   UNL     1     -14.030  18.774  -2.196  1.00  0.00     0.173 A 
ATOM     91  C   UNL     1     -13.011  20.900  -1.726  1.00  0.00     0.173 A 
ATOM     92  F   UNL     1     -13.950  17.451  -2.406  1.00  0.00    -0.203 F 
ATOM     93  C   UNL     1     -15.272  19.396  -2.298  1.00  0.00     0.198 A 
ATOM     94  C   UNL     1     -14.259  21.512  -1.794  1.00  0.00     0.198 A 
ATOM     95  F   UNL     1     -11.938  21.657  -1.455  1.00  0.00    -0.203 F 
ATOM     96  F   UNL     1     -16.356  18.674  -2.614  1.00  0.00    -0.200 F 
ATOM     97  C   UNL     1     -15.387  20.762  -2.088  1.00  0.00     0.200 A 
ATOM     98  F   UNL     1     -14.370  22.830  -1.573  1.00  0.00    -0.200 F 
ATOM     99  F   UNL     1     -16.585  21.357  -2.177  1.00  0.00    -0.200 F 
ENDBRANCH  66  89
ENDBRANCH  40  41
ENDBRANCH  32  35
ENDBRANCH  30  31
ENDBRANCH  29  30
ENDBRANCH   1  29
TORSDOF 14
