REMARK SMILES O=C(NCCCCNC(=O)[C@H](NC(=O)[C@H]1CC(=O)N(CC2CC2)C1)c1ccccc1C(F)(F)F)c1ccc(-c2c3nc(c(-c4c(F)c(F)c(F)c(F)c4F)c4ccc([nH]4)c(-c4c(F)c(F)c(F)c(F)c4F)c4nc(c(-c5c(F)c(F)c(F)c(F)c5F)c5ccc2[nH]5)C=C4)C=C3)cc1
REMARK SMILES IDX 6 1 5 2 4 3 3 4 1 5 2 6 35 8 36 9 97 10 37 11 96 12 38 13
REMARK SMILES IDX 39 14 40 15 90 16 41 17 95 18 89 19 91 20 42 21 94 22 88 23
REMARK SMILES IDX 87 24 43 26 75 27 55 28 74 29 56 30 59 31 73 32 92 33 57 34
REMARK SMILES IDX 58 35 72 37 93 38 60 39 44 40 45 41 53 42 46 43 47 44 51 45
REMARK SMILES IDX 54 46 48 47 49 48 52 49 50 50 76 51 77 52 85 53 78 54 79 55
REMARK SMILES IDX 83 56 86 57 80 58 81 59 84 60 82 61 61 62 62 63 70 64 63 65
REMARK SMILES IDX 64 66 68 67 71 68 65 69 66 70 69 71 67 72 7 73 8 74 9 75
REMARK SMILES IDX 10 77 11 78 25 79 26 80 30 81 27 82 29 83 28 84 31 85 32 86
REMARK SMILES IDX 33 87 34 88 12 89 13 90 14 92 15 93 16 94 24 95 17 96 19 97
REMARK SMILES IDX 18 98 20 99 21 100 22 101 23 102
REMARK H PARENT 3 7 91 25 59 36 8 76 12 91
REMARK Flexibility Score: inf
ROOT
ATOM      1  C   UNL     1       4.925   0.240 -10.088  1.00  0.00     0.023 C 
ENDROOT
BRANCH   1   2
ATOM      2  C   UNL     1       6.295  -0.403 -10.249  1.00  0.00     0.023 C 
BRANCH   2   3
ATOM      3  C   UNL     1       6.404  -1.839  -9.774  1.00  0.00     0.116 C 
BRANCH   3   4
ATOM      4  N   UNL     1       5.770  -2.774 -10.681  1.00  0.00    -0.352 N 
ATOM      5  O   UNL     1       5.687  -4.322 -12.317  1.00  0.00    -0.269 OA
ATOM      6  C   UNL     1       6.353  -3.736 -11.470  1.00  0.00     0.251 C 
ATOM      7  H   UNL     1       4.790  -2.711 -10.741  1.00  0.00     0.163 HD
BRANCH   6   8
ATOM      8  C   UNL     1       7.790  -4.051 -11.309  1.00  0.00     0.039 A 
ATOM      9  C   UNL     1       8.358  -4.168 -10.039  1.00  0.00     0.014 A 
ATOM     10  C   UNL     1       8.577  -4.260 -12.445  1.00  0.00     0.014 A 
ATOM     11  C   UNL     1       9.728  -4.347  -9.905  1.00  0.00     0.010 A 
ATOM     12  C   UNL     1       9.935  -4.563 -12.307  1.00  0.00     0.010 A 
ATOM     13  C   UNL     1      10.524  -4.601 -11.034  1.00  0.00    -0.014 A 
BRANCH  13  14
ATOM     14  C   UNL     1      11.927  -5.040 -10.827  1.00  0.00     0.031 A 
ATOM     15  C   UNL     1      13.093  -4.239 -11.328  1.00  0.00     0.074 A 
ATOM     16  C   UNL     1      12.130  -6.181 -10.136  1.00  0.00     0.049 A 
ATOM     17  N   UNL     1      14.373  -4.484 -11.197  1.00  0.00    -0.248 NA
ATOM     18  C   UNL     1      12.792  -3.012 -12.079  1.00  0.00     0.031 C 
ATOM     19  C   UNL     1      11.066  -7.054  -9.628  1.00  0.00     0.029 A 
ATOM     20  N   UNL     1      13.283  -6.791  -9.717  1.00  0.00    -0.354 N 
ATOM     21  C   UNL     1      15.030  -3.452 -11.853  1.00  0.00     0.074 A 
ATOM     22  C   UNL     1      14.007  -2.591 -12.410  1.00  0.00     0.031 C 
ATOM     23  C   UNL     1      11.611  -8.047  -8.914  1.00  0.00     0.029 A 
ATOM     24  C   UNL     1      13.061  -7.929  -8.980  1.00  0.00     0.049 A 
ATOM     25  H   UNL     1      14.182  -6.447  -9.923  1.00  0.00     0.167 HD
ATOM     26  C   UNL     1      16.364  -3.243 -11.967  1.00  0.00     0.037 A 
ATOM     27  C   UNL     1      13.929  -8.800  -8.434  1.00  0.00     0.037 A 
ATOM     28  C   UNL     1      17.373  -4.106 -11.405  1.00  0.00     0.049 A 
ATOM     29  C   UNL     1      15.399  -8.545  -8.596  1.00  0.00     0.074 A 
ATOM     30  C   UNL     1      18.750  -3.975 -11.457  1.00  0.00     0.029 A 
ATOM     31  N   UNL     1      17.113  -5.265 -10.686  1.00  0.00    -0.354 N 
ATOM     32  N   UNL     1      16.004  -7.551  -9.199  1.00  0.00    -0.248 NA
ATOM     33  C   UNL     1      16.307  -9.536  -8.006  1.00  0.00     0.031 C 
ATOM     34  C   UNL     1      19.323  -5.075 -10.809  1.00  0.00     0.029 A 
ATOM     35  C   UNL     1      18.304  -5.866 -10.306  1.00  0.00     0.049 A 
ATOM     36  H   UNL     1      16.215  -5.610 -10.477  1.00  0.00     0.167 HD
ATOM     37  C   UNL     1      17.362  -7.790  -9.053  1.00  0.00     0.074 A 
ATOM     38  C   UNL     1      17.490  -9.002  -8.271  1.00  0.00     0.031 C 
ATOM     39  C   UNL     1      18.410  -7.077  -9.534  1.00  0.00     0.037 A 
BRANCH  26  40
ATOM     40  C   UNL     1      16.823  -2.035 -12.734  1.00  0.00     0.064 A 
ATOM     41  C   UNL     1      16.686  -0.739 -12.215  1.00  0.00     0.173 A 
ATOM     42  C   UNL     1      17.477  -2.179 -13.968  1.00  0.00     0.173 A 
ATOM     43  F   UNL     1      16.059  -0.544 -11.045  1.00  0.00    -0.203 F 
ATOM     44  C   UNL     1      17.175   0.367 -12.906  1.00  0.00     0.198 A 
ATOM     45  C   UNL     1      17.988  -1.074 -14.644  1.00  0.00     0.198 A 
ATOM     46  F   UNL     1      17.641  -3.397 -14.508  1.00  0.00    -0.203 F 
ATOM     47  F   UNL     1      17.005   1.598 -12.405  1.00  0.00    -0.200 F 
ATOM     48  C   UNL     1      17.834   0.198 -14.115  1.00  0.00     0.200 A 
ATOM     49  F   UNL     1      18.637  -1.241 -15.805  1.00  0.00    -0.200 F 
ATOM     50  F   UNL     1      18.318   1.262 -14.771  1.00  0.00    -0.200 F 
ENDBRANCH  26  40
BRANCH  27  51
ATOM     51  C   UNL     1      13.427  -9.997  -7.711  1.00  0.00     0.064 A 
ATOM     52  C   UNL     1      13.638 -10.156  -6.335  1.00  0.00     0.173 A 
ATOM     53  C   UNL     1      12.733 -11.013  -8.386  1.00  0.00     0.173 A 
ATOM     54  F   UNL     1      14.312  -9.222  -5.647  1.00  0.00    -0.203 F 
ATOM     55  C   UNL     1      13.199 -11.298  -5.668  1.00  0.00     0.198 A 
ATOM     56  C   UNL     1      12.261 -12.136  -7.711  1.00  0.00     0.198 A 
ATOM     57  F   UNL     1      12.497 -10.907  -9.702  1.00  0.00    -0.203 F 
ATOM     58  F   UNL     1      13.466 -11.453  -4.364  1.00  0.00    -0.200 F 
ATOM     59  C   UNL     1      12.506 -12.284  -6.355  1.00  0.00     0.200 A 
ATOM     60  F   UNL     1      11.574 -13.074  -8.376  1.00  0.00    -0.200 F 
ATOM     61  F   UNL     1      12.082 -13.380  -5.712  1.00  0.00    -0.200 F 
ENDBRANCH  27  51
BRANCH  39  62
ATOM     62  C   UNL     1      19.780  -7.594  -9.206  1.00  0.00     0.064 A 
ATOM     63  C   UNL     1      20.276  -8.774  -9.780  1.00  0.00     0.173 A 
ATOM     64  C   UNL     1      20.603  -6.905  -8.303  1.00  0.00     0.173 A 
ATOM     65  F   UNL     1      19.520  -9.479 -10.634  1.00  0.00    -0.203 F 
ATOM     66  C   UNL     1      21.530  -9.268  -9.430  1.00  0.00     0.198 A 
ATOM     67  C   UNL     1      21.870  -7.383  -7.981  1.00  0.00     0.198 A 
ATOM     68  F   UNL     1      20.178  -5.768  -7.731  1.00  0.00    -0.203 F 
ATOM     69  F   UNL     1      21.955 -10.432  -9.939  1.00  0.00    -0.200 F 
ATOM     70  C   UNL     1      22.327  -8.570  -8.535  1.00  0.00     0.200 A 
ATOM     71  F   UNL     1      22.645  -6.702  -7.126  1.00  0.00    -0.200 F 
ATOM     72  F   UNL     1      23.532  -9.048  -8.196  1.00  0.00    -0.200 F 
ENDBRANCH  39  62
ENDBRANCH  13  14
ENDBRANCH   6   8
ENDBRANCH   3   4
ENDBRANCH   2   3
ENDBRANCH   1   2
BRANCH   1  73
ATOM     73  C   UNL     1       4.277   0.113  -8.711  1.00  0.00     0.116 C 
BRANCH  73  74
ATOM     74  N   UNL     1       5.174   0.295  -7.582  1.00  0.00    -0.354 N 
ATOM     75  C   UNL     1       4.856   0.760  -6.335  1.00  0.00     0.247 C 
ATOM     76  H   UNL     1       6.117   0.057  -7.731  1.00  0.00     0.163 HD
ATOM     77  O   UNL     1       5.354   0.168  -5.382  1.00  0.00    -0.272 OA
BRANCH  75  78
ATOM     78  C   UNL     1       3.874   1.928  -6.139  1.00  0.00     0.202 C 
BRANCH  78  79
ATOM     79  C   UNL     1       2.497   1.362  -5.736  1.00  0.00    -0.004 A 
ATOM     80  C   UNL     1       1.579   1.140  -6.794  1.00  0.00     0.007 A 
ATOM     81  C   UNL     1       2.161   0.846  -4.462  1.00  0.00     0.061 A 
ATOM     82  C   UNL     1       0.485   0.286  -6.661  1.00  0.00     0.000 A 
ATOM     83  C   UNL     1       1.050  -0.027  -4.357  1.00  0.00     0.013 A 
ATOM     84  C   UNL     1       0.244  -0.332  -5.448  1.00  0.00     0.001 A 
BRANCH  81  85
ATOM     85  C   UNL     1       2.892   1.105  -3.161  1.00  0.00     0.416 C 
ATOM     86  F   UNL     1       2.023   1.188  -2.106  1.00  0.00    -0.166 F 
ATOM     87  F   UNL     1       3.757   0.112  -2.830  1.00  0.00    -0.166 F 
ATOM     88  F   UNL     1       3.586   2.266  -3.110  1.00  0.00    -0.166 F 
ENDBRANCH  81  85
ENDBRANCH  78  79
BRANCH  78  89
ATOM     89  N   UNL     1       4.250   3.175  -5.461  1.00  0.00    -0.340 N 
ATOM     90  C   UNL     1       5.153   3.709  -4.620  1.00  0.00     0.226 C 
ATOM     91  H   UNL     1       3.606   3.875  -5.713  1.00  0.00     0.164 HD
ATOM     92  O   UNL     1       4.888   4.895  -4.344  1.00  0.00    -0.275 OA
BRANCH  90  93
ATOM     93  C   UNL     1       6.476   3.178  -4.073  1.00  0.00     0.107 C 
ATOM     94  C   UNL     1       6.634   1.804  -3.450  1.00  0.00     0.115 C 
ATOM     95  C   UNL     1       7.616   3.308  -5.063  1.00  0.00     0.133 C 
ATOM     96  C   UNL     1       7.626   1.090  -4.341  1.00  0.00     0.223 C 
ATOM     97  N   UNL     1       7.991   1.953  -5.370  1.00  0.00    -0.342 N 
ATOM     98  O   UNL     1       8.067  -0.032  -4.150  1.00  0.00    -0.275 OA
BRANCH  97  99
ATOM     99  C   UNL     1       9.010   1.607  -6.339  1.00  0.00     0.123 C 
BRANCH  99 100
ATOM    100  C   UNL     1       8.605   1.777  -7.777  1.00  0.00     0.008 C 
ATOM    101  C   UNL     1       7.431   2.575  -8.311  1.00  0.00     0.006 C 
ATOM    102  C   UNL     1       8.818   3.126  -8.424  1.00  0.00     0.006 C 
ENDBRANCH  99 100
ENDBRANCH  97  99
ENDBRANCH  90  93
ENDBRANCH  78  89
ENDBRANCH  75  78
ENDBRANCH  73  74
ENDBRANCH   1  73
TORSDOF 17
