REMARK SMILES O=C(NCCCCNC(=O)[C@@H]1[C@@H](C(=O)Nc2cccc(C(F)(F)F)c2)[C@@H]2C=C[C@H]1O2)c1ccc(-c2c3nc(c(-c4c(F)c(F)c(F)c(F)c4F)c4ccc([nH]4)c(-c4c(F)c(F)c(F)c(F)c4F)c4nc(c(-c5c(F)c(F)c(F)c(F)c5F)c5ccc2[nH]5)C=C4)C=C3)cc1
REMARK SMILES IDX 6 1 5 2 4 3 3 4 1 5 2 6 31 8 32 9 93 10 33 11 92 12 34 13
REMARK SMILES IDX 35 14 36 15 86 16 37 17 91 18 85 19 87 20 38 21 90 22 84 23
REMARK SMILES IDX 83 24 39 26 71 27 51 28 70 29 52 30 55 31 69 32 88 33 53 34
REMARK SMILES IDX 54 35 68 37 89 38 56 39 40 40 41 41 49 42 42 43 43 44 47 45
REMARK SMILES IDX 50 46 44 47 45 48 48 49 46 50 72 51 73 52 81 53 74 54 75 55
REMARK SMILES IDX 79 56 82 57 76 58 77 59 80 60 78 61 57 62 58 63 66 64 59 65
REMARK SMILES IDX 60 66 64 67 67 68 61 69 62 70 65 71 63 72 7 73 8 74 9 75
REMARK SMILES IDX 10 77 11 78 12 79 29 80 26 81 28 82 30 83 27 84 13 85 14 86
REMARK SMILES IDX 15 87 16 89 17 90 25 91 18 92 20 93 19 94 21 95 22 96 23 97
REMARK SMILES IDX 24 98
REMARK H PARENT 3 7 87 25 55 36 8 76 15 88
REMARK Flexibility Score: inf
ROOT
ATOM      1  C   UNL     1       4.753  -2.398   2.521  1.00  0.00     0.023 C 
ENDROOT
BRANCH   1   2
ATOM      2  C   UNL     1       5.097  -0.993   2.041  1.00  0.00     0.023 C 
BRANCH   2   3
ATOM      3  C   UNL     1       4.579  -0.643   0.654  1.00  0.00     0.116 C 
BRANCH   3   4
ATOM      4  N   UNL     1       3.141  -0.815   0.500  1.00  0.00    -0.352 N 
ATOM      5  O   UNL     1       1.058  -0.256  -0.186  1.00  0.00    -0.269 OA
ATOM      6  C   UNL     1       2.262  -0.028  -0.205  1.00  0.00     0.251 C 
ATOM      7  H   UNL     1       2.750  -1.594   0.958  1.00  0.00     0.163 HD
BRANCH   6   8
ATOM      8  C   UNL     1       2.792   1.131  -0.946  1.00  0.00     0.039 A 
ATOM      9  C   UNL     1       3.885   0.977  -1.802  1.00  0.00     0.014 A 
ATOM     10  C   UNL     1       2.240   2.392  -0.711  1.00  0.00     0.014 A 
ATOM     11  C   UNL     1       4.526   2.103  -2.300  1.00  0.00     0.010 A 
ATOM     12  C   UNL     1       2.837   3.516  -1.280  1.00  0.00     0.010 A 
ATOM     13  C   UNL     1       4.007   3.382  -2.045  1.00  0.00    -0.014 A 
BRANCH  13  14
ATOM     14  C   UNL     1       4.679   4.574  -2.610  1.00  0.00     0.031 A 
ATOM     15  C   UNL     1       5.312   5.597  -1.713  1.00  0.00     0.074 A 
ATOM     16  C   UNL     1       4.708   4.726  -3.946  1.00  0.00     0.049 A 
ATOM     17  N   UNL     1       5.861   6.743  -2.027  1.00  0.00    -0.248 NA
ATOM     18  C   UNL     1       5.326   5.300  -0.273  1.00  0.00     0.031 C 
ATOM     19  C   UNL     1       4.132   3.787  -4.910  1.00  0.00     0.029 A 
ATOM     20  N   UNL     1       5.240   5.720  -4.724  1.00  0.00    -0.354 N 
ATOM     21  C   UNL     1       6.251   7.319  -0.826  1.00  0.00     0.074 A 
ATOM     22  C   UNL     1       5.872   6.400   0.226  1.00  0.00     0.031 C 
ATOM     23  C   UNL     1       4.361   4.237  -6.151  1.00  0.00     0.029 A 
ATOM     24  C   UNL     1       5.037   5.527  -6.066  1.00  0.00     0.049 A 
ATOM     25  H   UNL     1       5.721   6.496  -4.355  1.00  0.00     0.167 HD
ATOM     26  C   UNL     1       6.868   8.509  -0.627  1.00  0.00     0.037 A 
ATOM     27  C   UNL     1       5.330   6.317  -7.114  1.00  0.00     0.037 A 
ATOM     28  C   UNL     1       7.264   9.402  -1.686  1.00  0.00     0.049 A 
ATOM     29  C   UNL     1       6.001   7.635  -6.866  1.00  0.00     0.074 A 
ATOM     30  C   UNL     1       7.923  10.616  -1.593  1.00  0.00     0.029 A 
ATOM     31  N   UNL     1       7.036   9.174  -3.036  1.00  0.00    -0.354 N 
ATOM     32  N   UNL     1       6.365   8.171  -5.727  1.00  0.00    -0.248 NA
ATOM     33  C   UNL     1       6.296   8.459  -8.044  1.00  0.00     0.031 C 
ATOM     34  C   UNL     1       8.062  11.138  -2.884  1.00  0.00     0.029 A 
ATOM     35  C   UNL     1       7.526  10.232  -3.785  1.00  0.00     0.049 A 
ATOM     36  H   UNL     1       6.591   8.378  -3.407  1.00  0.00     0.167 HD
ATOM     37  C   UNL     1       6.942   9.390  -6.048  1.00  0.00     0.074 A 
ATOM     38  C   UNL     1       6.891   9.508  -7.492  1.00  0.00     0.031 C 
ATOM     39  C   UNL     1       7.466  10.326  -5.221  1.00  0.00     0.037 A 
BRANCH  26  40
ATOM     40  C   UNL     1       7.126   8.931   0.790  1.00  0.00     0.064 A 
ATOM     41  C   UNL     1       8.121   8.328   1.573  1.00  0.00     0.173 A 
ATOM     42  C   UNL     1       6.386   9.978   1.362  1.00  0.00     0.173 A 
ATOM     43  F   UNL     1       8.847   7.314   1.079  1.00  0.00    -0.203 F 
ATOM     44  C   UNL     1       8.350   8.742   2.884  1.00  0.00     0.198 A 
ATOM     45  C   UNL     1       6.635  10.405   2.663  1.00  0.00     0.198 A 
ATOM     46  F   UNL     1       5.426  10.591   0.654  1.00  0.00    -0.203 F 
ATOM     47  F   UNL     1       9.278   8.123   3.627  1.00  0.00    -0.200 F 
ATOM     48  C   UNL     1       7.611   9.783   3.425  1.00  0.00     0.200 A 
ATOM     49  F   UNL     1       5.926  11.418   3.182  1.00  0.00    -0.200 F 
ATOM     50  F   UNL     1       7.835  10.181   4.685  1.00  0.00    -0.200 F 
ENDBRANCH  26  40
BRANCH  27  51
ATOM     51  C   UNL     1       4.968   5.867  -8.479  1.00  0.00     0.064 A 
ATOM     52  C   UNL     1       5.949   5.427  -9.376  1.00  0.00     0.173 A 
ATOM     53  C   UNL     1       3.627   5.798  -8.886  1.00  0.00     0.173 A 
ATOM     54  F   UNL     1       7.244   5.488  -9.034  1.00  0.00    -0.203 F 
ATOM     55  C   UNL     1       5.602   4.931 -10.631  1.00  0.00     0.198 A 
ATOM     56  C   UNL     1       3.280   5.279 -10.130  1.00  0.00     0.198 A 
ATOM     57  F   UNL     1       2.652   6.197  -8.056  1.00  0.00    -0.203 F 
ATOM     58  F   UNL     1       6.559   4.530 -11.478  1.00  0.00    -0.200 F 
ATOM     59  C   UNL     1       4.268   4.847 -11.002  1.00  0.00     0.200 A 
ATOM     60  F   UNL     1       1.989   5.180 -10.477  1.00  0.00    -0.200 F 
ATOM     61  F   UNL     1       3.934   4.348 -12.200  1.00  0.00    -0.200 F 
ENDBRANCH  27  51
BRANCH  39  62
ATOM     62  C   UNL     1       8.051  11.547  -5.862  1.00  0.00     0.064 A 
ATOM     63  C   UNL     1       7.236  12.566  -6.374  1.00  0.00     0.173 A 
ATOM     64  C   UNL     1       9.442  11.717  -5.925  1.00  0.00     0.173 A 
ATOM     65  F   UNL     1       5.901  12.439  -6.351  1.00  0.00    -0.203 F 
ATOM     66  C   UNL     1       7.795  13.707  -6.943  1.00  0.00     0.198 A 
ATOM     67  C   UNL     1       9.996  12.868  -6.474  1.00  0.00     0.198 A 
ATOM     68  F   UNL     1      10.261  10.769  -5.444  1.00  0.00    -0.203 F 
ATOM     69  F   UNL     1       7.000  14.654  -7.460  1.00  0.00    -0.200 F 
ATOM     70  C   UNL     1       9.173  13.860  -6.987  1.00  0.00     0.200 A 
ATOM     71  F   UNL     1      11.328  13.018  -6.509  1.00  0.00    -0.200 F 
ATOM     72  F   UNL     1       9.709  14.962  -7.530  1.00  0.00    -0.200 F 
ENDBRANCH  39  62
ENDBRANCH  13  14
ENDBRANCH   6   8
ENDBRANCH   3   4
ENDBRANCH   2   3
ENDBRANCH   1   2
BRANCH   1  73
ATOM     73  C   UNL     1       5.332  -3.533   1.676  1.00  0.00     0.116 C 
BRANCH  73  74
ATOM     74  N   UNL     1       6.635  -3.922   2.162  1.00  0.00    -0.356 N 
ATOM     75  C   UNL     1       7.050  -4.894   3.005  1.00  0.00     0.227 C 
ATOM     76  H   UNL     1       7.368  -3.368   1.809  1.00  0.00     0.163 HD
ATOM     77  O   UNL     1       8.224  -4.787   3.384  1.00  0.00    -0.275 OA
BRANCH  75  78
ATOM     78  C   UNL     1       6.208  -6.034   3.542  1.00  0.00     0.127 C 
ATOM     79  C   UNL     1       5.253  -6.875   2.621  1.00  0.00     0.127 C 
ATOM     80  C   UNL     1       5.331  -5.715   4.756  1.00  0.00     0.155 C 
ATOM     81  C   UNL     1       4.030  -6.985   3.556  1.00  0.00     0.155 C 
ATOM     82  C   UNL     1       4.118  -4.899   4.446  1.00  0.00     0.004 C 
ATOM     83  O   UNL     1       4.669  -7.010   4.866  1.00  0.00    -0.365 OA
ATOM     84  C   UNL     1       3.332  -5.662   3.676  1.00  0.00     0.004 C 
BRANCH  79  85
ATOM     85  C   UNL     1       5.940  -8.204   2.319  1.00  0.00     0.231 C 
ATOM     86  O   UNL     1       7.166  -8.246   2.159  1.00  0.00    -0.274 OA
ATOM     87  N   UNL     1       5.284  -9.388   2.218  1.00  0.00    -0.326 N 
ATOM     88  H   UNL     1       5.850 -10.165   2.430  1.00  0.00     0.169 HD
BRANCH  87  89
ATOM     89  C   UNL     1       3.974  -9.738   1.877  1.00  0.00     0.041 A 
ATOM     90  C   UNL     1       3.511 -10.974   2.341  1.00  0.00     0.026 A 
ATOM     91  C   UNL     1       3.164  -8.968   1.040  1.00  0.00     0.039 A 
ATOM     92  C   UNL     1       2.232 -11.421   2.017  1.00  0.00     0.003 A 
ATOM     93  C   UNL     1       1.883  -9.428   0.676  1.00  0.00     0.058 A 
ATOM     94  C   UNL     1       1.422 -10.653   1.185  1.00  0.00     0.013 A 
BRANCH  93  95
ATOM     95  C   UNL     1       1.015  -8.654  -0.285  1.00  0.00     0.416 C 
ATOM     96  F   UNL     1       0.801  -9.329  -1.448  1.00  0.00    -0.166 F 
ATOM     97  F   UNL     1      -0.218  -8.385   0.225  1.00  0.00    -0.166 F 
ATOM     98  F   UNL     1       1.544  -7.450  -0.641  1.00  0.00    -0.166 F 
ENDBRANCH  93  95
ENDBRANCH  87  89
ENDBRANCH  79  85
ENDBRANCH  75  78
ENDBRANCH  73  74
ENDBRANCH   1  73
TORSDOF 14
