REMARK SMILES O=C(NCCCCNC(=O)c1cc(-c2cc(Cl)ccc2Cl)cc([N+](=O)[O-])c1)c1ccc(-c2c3nc(c(-c4c(F)c(F)c(F)c(F)c4F)c4ccc([nH]4)c(-c4c(F)c(F)c(F)c(F)c4F)c4nc(c(-c5c(F)c(F)c(F)c(F)c5F)c5ccc2[nH]5)C=C4)C=C3)cc1
REMARK SMILES IDX 5 1 4 2 3 3 1 4 2 5 28 7 29 8 90 9 30 10 89 11 31 12 32 13
REMARK SMILES IDX 33 14 83 15 34 16 88 17 82 18 84 19 35 20 87 21 81 22 80 23
REMARK SMILES IDX 36 25 68 26 48 27 67 28 49 29 52 30 66 31 85 32 50 33 51 34
REMARK SMILES IDX 65 36 86 37 53 38 37 39 38 40 46 41 39 42 40 43 44 44 47 45
REMARK SMILES IDX 41 46 42 47 45 48 43 49 69 50 70 51 78 52 71 53 72 54 76 55
REMARK SMILES IDX 79 56 73 57 74 58 77 59 75 60 54 61 55 62 63 63 56 64 57 65
REMARK SMILES IDX 61 66 64 67 58 68 59 69 62 70 60 71 6 72 7 73 8 74 9 75
REMARK SMILES IDX 10 77 11 78 12 79 27 80 13 81 23 82 22 83 14 84 15 85 20 86
REMARK SMILES IDX 16 87 19 88 21 89 17 90 18 91 24 92 25 93 26 94
REMARK H PARENT 3 6 84 24 52 35 8 76
REMARK Flexibility Score: inf
ROOT
ATOM      1  C   UNL     1       4.859  -2.505  -0.646  1.00  0.00     0.023 C 
ENDROOT
BRANCH   1   2
ATOM      2  C   UNL     1       4.532  -1.023  -0.756  1.00  0.00     0.116 C 
BRANCH   2   3
ATOM      3  N   UNL     1       3.102  -0.747  -0.791  1.00  0.00    -0.352 N 
ATOM      4  O   UNL     1       1.117   0.037  -0.046  1.00  0.00    -0.269 OA
ATOM      5  C   UNL     1       2.338   0.019   0.060  1.00  0.00     0.251 C 
ATOM      6  H   UNL     1       2.610  -1.171  -1.532  1.00  0.00     0.163 HD
BRANCH   5   7
ATOM      7  C   UNL     1       3.000   0.788   1.135  1.00  0.00     0.039 A 
ATOM      8  C   UNL     1       4.159   1.515   0.868  1.00  0.00     0.014 A 
ATOM      9  C   UNL     1       2.487   0.734   2.434  1.00  0.00     0.014 A 
ATOM     10  C   UNL     1       4.919   2.000   1.922  1.00  0.00     0.010 A 
ATOM     11  C   UNL     1       3.195   1.332   3.481  1.00  0.00     0.010 A 
ATOM     12  C   UNL     1       4.445   1.922   3.243  1.00  0.00    -0.014 A 
BRANCH  12  13
ATOM     13  C   UNL     1       5.272   2.493   4.338  1.00  0.00     0.031 A 
ATOM     14  C   UNL     1       5.809   1.630   5.448  1.00  0.00     0.074 A 
ATOM     15  C   UNL     1       5.584   3.803   4.293  1.00  0.00     0.049 A 
ATOM     16  N   UNL     1       6.587   1.962   6.449  1.00  0.00    -0.248 NA
ATOM     17  C   UNL     1       5.417   0.212   5.444  1.00  0.00     0.031 C 
ATOM     18  C   UNL     1       5.117   4.743   3.271  1.00  0.00     0.029 A 
ATOM     19  N   UNL     1       6.387   4.566   5.101  1.00  0.00    -0.354 N 
ATOM     20  C   UNL     1       6.753   0.808   7.206  1.00  0.00     0.074 A 
ATOM     21  C   UNL     1       5.975  -0.229   6.564  1.00  0.00     0.031 C 
ATOM     22  C   UNL     1       5.691   5.936   3.474  1.00  0.00     0.029 A 
ATOM     23  C   UNL     1       6.506   5.868   4.681  1.00  0.00     0.049 A 
ATOM     24  H   UNL     1       6.834   4.215   5.905  1.00  0.00     0.167 HD
ATOM     25  C   UNL     1       7.494   0.632   8.328  1.00  0.00     0.037 A 
ATOM     26  C   UNL     1       7.185   6.900   5.213  1.00  0.00     0.037 A 
ATOM     27  C   UNL     1       8.285   1.665   8.948  1.00  0.00     0.049 A 
ATOM     28  C   UNL     1       7.978   6.677   6.468  1.00  0.00     0.074 A 
ATOM     29  C   UNL     1       9.107   1.573  10.059  1.00  0.00     0.029 A 
ATOM     30  N   UNL     1       8.349   2.982   8.516  1.00  0.00    -0.354 N 
ATOM     31  N   UNL     1       8.161   5.572   7.148  1.00  0.00    -0.248 NA
ATOM     32  C   UNL     1       8.659   7.850   7.030  1.00  0.00     0.031 C 
ATOM     33  C   UNL     1       9.619   2.846  10.334  1.00  0.00     0.029 A 
ATOM     34  C   UNL     1       9.172   3.719   9.355  1.00  0.00     0.049 A 
ATOM     35  H   UNL     1       7.879   3.341   7.729  1.00  0.00     0.167 HD
ATOM     36  C   UNL     1       8.999   5.908   8.201  1.00  0.00     0.074 A 
ATOM     37  C   UNL     1       9.305   7.316   8.057  1.00  0.00     0.031 C 
ATOM     38  C   UNL     1       9.473   5.120   9.197  1.00  0.00     0.037 A 
BRANCH  25  39
ATOM     39  C   UNL     1       7.465  -0.723   8.982  1.00  0.00     0.064 A 
ATOM     40  C   UNL     1       8.068  -1.846   8.395  1.00  0.00     0.173 A 
ATOM     41  C   UNL     1       6.864  -0.887  10.240  1.00  0.00     0.173 A 
ATOM     42  F   UNL     1       8.650  -1.748   7.190  1.00  0.00    -0.203 F 
ATOM     43  C   UNL     1       8.043  -3.087   9.029  1.00  0.00     0.198 A 
ATOM     44  C   UNL     1       6.869  -2.122  10.885  1.00  0.00     0.198 A 
ATOM     45  F   UNL     1       6.280   0.154  10.852  1.00  0.00    -0.203 F 
ATOM     46  F   UNL     1       8.582  -4.156   8.426  1.00  0.00    -0.200 F 
ATOM     47  C   UNL     1       7.451  -3.222  10.275  1.00  0.00     0.200 A 
ATOM     48  F   UNL     1       6.310  -2.246  12.097  1.00  0.00    -0.200 F 
ATOM     49  F   UNL     1       7.436  -4.415  10.886  1.00  0.00    -0.200 F 
ENDBRANCH  25  39
BRANCH  26  50
ATOM     50  C   UNL     1       7.143   8.231   4.555  1.00  0.00     0.064 A 
ATOM     51  C   UNL     1       8.290   8.779   3.965  1.00  0.00     0.173 A 
ATOM     52  C   UNL     1       5.958   8.980   4.499  1.00  0.00     0.173 A 
ATOM     53  F   UNL     1       9.451   8.109   4.008  1.00  0.00    -0.203 F 
ATOM     54  C   UNL     1       8.258  10.034   3.362  1.00  0.00     0.198 A 
ATOM     55  C   UNL     1       5.919  10.219   3.865  1.00  0.00     0.198 A 
ATOM     56  F   UNL     1       4.831   8.497   5.042  1.00  0.00    -0.203 F 
ATOM     57  F   UNL     1       9.380  10.556   2.847  1.00  0.00    -0.200 F 
ATOM     58  C   UNL     1       7.071  10.750   3.306  1.00  0.00     0.200 A 
ATOM     59  F   UNL     1       4.766  10.897   3.796  1.00  0.00    -0.200 F 
ATOM     60  F   UNL     1       7.040  11.954   2.719  1.00  0.00    -0.200 F 
ENDBRANCH  26  50
BRANCH  38  61
ATOM     61  C   UNL     1      10.412   5.756  10.182  1.00  0.00     0.064 A 
ATOM     62  C   UNL     1       9.977   6.714  11.110  1.00  0.00     0.173 A 
ATOM     63  C   UNL     1      11.768   5.392  10.202  1.00  0.00     0.173 A 
ATOM     64  F   UNL     1       8.695   7.109  11.121  1.00  0.00    -0.203 F 
ATOM     65  C   UNL     1      10.870   7.312  11.995  1.00  0.00     0.198 A 
ATOM     66  C   UNL     1      12.651   5.965  11.113  1.00  0.00     0.198 A 
ATOM     67  F   UNL     1      12.236   4.476   9.341  1.00  0.00    -0.203 F 
ATOM     68  F   UNL     1      10.444   8.271  12.828  1.00  0.00    -0.200 F 
ATOM     69  C   UNL     1      12.204   6.933  12.000  1.00  0.00     0.200 A 
ATOM     70  F   UNL     1      13.936   5.587  11.126  1.00  0.00    -0.200 F 
ATOM     71  F   UNL     1      13.063   7.508  12.853  1.00  0.00    -0.200 F 
ENDBRANCH  38  61
ENDBRANCH  12  13
ENDBRANCH   5   7
ENDBRANCH   2   3
ENDBRANCH   1   2
BRANCH   1  72
ATOM     72  C   UNL     1       4.390  -3.355  -1.819  1.00  0.00     0.023 C 
BRANCH  72  73
ATOM     73  C   UNL     1       4.814  -2.847  -3.191  1.00  0.00     0.116 C 
BRANCH  73  74
ATOM     74  N   UNL     1       6.259  -2.804  -3.359  1.00  0.00    -0.352 N 
ATOM     75  C   UNL     1       7.026  -3.350  -4.358  1.00  0.00     0.251 C 
ATOM     76  H   UNL     1       6.754  -2.317  -2.662  1.00  0.00     0.163 HD
ATOM     77  O   UNL     1       8.250  -3.345  -4.286  1.00  0.00    -0.269 OA
BRANCH  75  78
ATOM     78  C   UNL     1       6.359  -3.978  -5.516  1.00  0.00     0.047 A 
ATOM     79  C   UNL     1       6.747  -5.266  -5.901  1.00  0.00     0.023 A 
ATOM     80  C   UNL     1       5.349  -3.303  -6.202  1.00  0.00     0.099 A 
ATOM     81  C   UNL     1       6.076  -5.931  -6.940  1.00  0.00    -0.009 A 
ATOM     82  C   UNL     1       4.629  -3.984  -7.183  1.00  0.00     0.270 A 
ATOM     83  C   UNL     1       4.973  -5.295  -7.540  1.00  0.00     0.094 A 
BRANCH  81  84
ATOM     84  C   UNL     1       6.542  -7.248  -7.410  1.00  0.00     0.002 A 
ATOM     85  C   UNL     1       6.554  -8.345  -6.526  1.00  0.00     0.030 A 
ATOM     86  C   UNL     1       7.021  -7.454  -8.723  1.00  0.00     0.048 A 
ATOM     87  C   UNL     1       7.024  -9.593  -6.942  1.00  0.00     0.041 A 
ATOM     88  C   UNL     1       7.481  -8.710  -9.133  1.00  0.00     0.023 A 
ATOM     89  Cl  UNL     1       7.113  -6.170  -9.884  1.00  0.00    -0.084 Cl
ATOM     90  Cl  UNL     1       7.044 -10.910  -5.835  1.00  0.00    -0.084 Cl
ATOM     91  C   UNL     1       7.485  -9.780  -8.242  1.00  0.00     0.022 A 
ENDBRANCH  81  84
BRANCH  82  92
ATOM     92  N   UNL     1       3.482  -3.326  -7.817  1.00  0.00     0.062 N 
ATOM     93  O   UNL     1       2.865  -3.953  -8.688  1.00  0.00    -0.258 OA
ATOM     94  O   UNL     1       3.183  -2.191  -7.420  1.00  0.00    -0.258 OA
ENDBRANCH  82  92
ENDBRANCH  75  78
ENDBRANCH  73  74
ENDBRANCH  72  73
ENDBRANCH   1  72
TORSDOF 13
