REMARK SMILES Cc1[nH]c2ccccc2c1CC(=O)N(C)CCCC(=O)NCCCCNC(=O)c1ccc(-c2c3nc(c(-c4c(F)c(F)c(F)c(F)c4F)c4ccc([nH]4)c(-c4c(F)c(F)c(F)c(F)c4F)c4nc(c(-c5c(F)c(F)c(F)c(F)c5F)c5ccc2[nH]5)C=C4)C=C3)cc1
REMARK SMILES IDX 19 1 20 2 21 3 18 5 17 6 16 7 14 8 15 9 12 10 13 11 11 12
REMARK SMILES IDX 10 13 1 14 2 15 3 16 4 17 9 19 5 20 8 21 6 22 7 23 22 24
REMARK SMILES IDX 23 25 24 26 25 27 26 28 27 29 28 31 29 32 30 33 91 34 31 35
REMARK SMILES IDX 90 36 32 37 33 38 34 39 84 40 35 41 89 42 83 43 85 44 36 45
REMARK SMILES IDX 88 46 82 47 81 48 37 50 69 51 49 52 68 53 50 54 53 55 67 56
REMARK SMILES IDX 86 57 51 58 52 59 66 61 87 62 54 63 38 64 39 65 47 66 40 67
REMARK SMILES IDX 41 68 45 69 48 70 42 71 43 72 46 73 44 74 70 75 71 76 79 77
REMARK SMILES IDX 72 78 73 79 77 80 80 81 74 82 75 83 78 84 76 85 55 86 56 87
REMARK SMILES IDX 64 88 57 89 58 90 62 91 65 92 59 93 60 94 63 95 61 96
REMARK H PARENT 21 4 3 18 26 30 85 49 53 60
REMARK Flexibility Score: inf
ROOT
ATOM      1  C   UNL     1       0.933  -6.127  -3.263  1.00  0.00     0.220 C 
ATOM      2  O   UNL     1       1.778  -6.845  -3.806  1.00  0.00    -0.275 OA
ATOM      3  N   UNL     1      -0.330  -6.622  -3.183  1.00  0.00    -0.356 N 
ATOM      4  H   UNL     1      -0.435  -7.535  -3.536  1.00  0.00     0.163 HD
ENDROOT
BRANCH   1   5
ATOM      5  C   UNL     1       1.342  -4.803  -2.639  1.00  0.00     0.102 C 
BRANCH   5   6
ATOM      6  C   UNL     1       0.979  -3.481  -3.322  1.00  0.00     0.031 C 
BRANCH   6   7
ATOM      7  C   UNL     1      -0.465  -2.991  -3.460  1.00  0.00     0.119 C 
BRANCH   7   8
ATOM      8  N   UNL     1      -1.226  -2.406  -2.337  1.00  0.00    -0.345 N 
ATOM      9  C   UNL     1      -2.253  -1.455  -2.754  1.00  0.00     0.146 C 
BRANCH   8  10
ATOM     10  C   UNL     1      -1.079  -2.784  -1.004  1.00  0.00     0.226 C 
ATOM     11  O   UNL     1      -0.398  -3.744  -0.643  1.00  0.00    -0.275 OA
BRANCH  10  12
ATOM     12  C   UNL     1      -1.791  -2.000   0.092  1.00  0.00     0.138 C 
BRANCH  12  13
ATOM     13  C   UNL     1      -1.264  -0.606   0.198  1.00  0.00    -0.010 A 
ATOM     14  C   UNL     1      -3.470   0.801   0.292  1.00  0.00     0.064 C 
ATOM     15  C   UNL     1      -2.003   0.565   0.260  1.00  0.00     0.016 A 
ATOM     16  N   UNL     1      -1.114   1.612   0.262  1.00  0.00    -0.358 N 
ATOM     17  C   UNL     1       0.180   1.153   0.208  1.00  0.00     0.046 A 
ATOM     18  H   UNL     1      -1.370   2.562   0.297  1.00  0.00     0.166 HD
ATOM     19  C   UNL     1       0.123  -0.237   0.222  1.00  0.00     0.003 A 
ATOM     20  C   UNL     1       1.389   1.857   0.149  1.00  0.00     0.026 A 
ATOM     21  C   UNL     1       1.335  -0.961   0.215  1.00  0.00     0.010 A 
ATOM     22  C   UNL     1       2.574   1.115   0.113  1.00  0.00     0.002 A 
ATOM     23  C   UNL     1       2.552  -0.275   0.155  1.00  0.00     0.001 A 
ENDBRANCH  12  13
ENDBRANCH  10  12
ENDBRANCH   8  10
ENDBRANCH   7   8
ENDBRANCH   6   7
ENDBRANCH   5   6
ENDBRANCH   1   5
BRANCH   3  24
ATOM     24  C   UNL     1      -1.543  -6.033  -2.667  1.00  0.00     0.116 C 
BRANCH  24  25
ATOM     25  C   UNL     1      -2.542  -5.764  -3.796  1.00  0.00     0.023 C 
BRANCH  25  26
ATOM     26  C   UNL     1      -3.571  -6.869  -3.980  1.00  0.00     0.023 C 
BRANCH  26  27
ATOM     27  C   UNL     1      -4.556  -6.989  -2.826  1.00  0.00     0.116 C 
BRANCH  27  28
ATOM     28  N   UNL     1      -5.409  -5.819  -2.655  1.00  0.00    -0.352 N 
ATOM     29  C   UNL     1      -6.754  -5.785  -2.345  1.00  0.00     0.251 C 
ATOM     30  H   UNL     1      -4.972  -4.945  -2.775  1.00  0.00     0.163 HD
ATOM     31  O   UNL     1      -7.368  -4.737  -2.295  1.00  0.00    -0.269 OA
BRANCH  29  32
ATOM     32  C   UNL     1      -7.443  -7.076  -2.129  1.00  0.00     0.039 A 
ATOM     33  C   UNL     1      -8.549  -7.390  -2.920  1.00  0.00     0.014 A 
ATOM     34  C   UNL     1      -6.905  -8.014  -1.244  1.00  0.00     0.014 A 
ATOM     35  C   UNL     1      -9.059  -8.689  -2.893  1.00  0.00     0.010 A 
ATOM     36  C   UNL     1      -7.357  -9.326  -1.288  1.00  0.00     0.010 A 
ATOM     37  C   UNL     1      -8.432  -9.679  -2.118  1.00  0.00    -0.014 A 
BRANCH  37  38
ATOM     38  C   UNL     1      -8.875 -11.095  -2.166  1.00  0.00     0.031 A 
ATOM     39  C   UNL     1      -9.393 -11.758  -0.921  1.00  0.00     0.074 A 
ATOM     40  C   UNL     1      -8.729 -11.807  -3.301  1.00  0.00     0.049 A 
ATOM     41  N   UNL     1      -9.742 -13.005  -0.730  1.00  0.00    -0.248 NA
ATOM     42  C   UNL     1      -9.497 -10.915   0.280  1.00  0.00     0.031 C 
ATOM     43  C   UNL     1      -8.175 -11.298  -4.557  1.00  0.00     0.029 A 
ATOM     44  N   UNL     1      -9.024 -13.119  -3.578  1.00  0.00    -0.354 N 
ATOM     45  C   UNL     1     -10.081 -13.098   0.613  1.00  0.00     0.074 A 
ATOM     46  C   UNL     1      -9.841 -11.800   1.203  1.00  0.00     0.031 C 
ATOM     47  C   UNL     1      -8.195 -12.277  -5.476  1.00  0.00     0.029 A 
ATOM     48  C   UNL     1      -8.730 -13.491  -4.868  1.00  0.00     0.049 A 
ATOM     49  H   UNL     1      -9.409 -13.736  -2.914  1.00  0.00     0.167 HD
ATOM     50  C   UNL     1     -10.575 -14.162   1.287  1.00  0.00     0.037 A 
ATOM     51  C   UNL     1      -8.877 -14.678  -5.487  1.00  0.00     0.037 A 
ATOM     52  C   UNL     1     -10.854 -15.440   0.689  1.00  0.00     0.049 A 
ATOM     53  C   UNL     1      -9.453 -15.838  -4.722  1.00  0.00     0.074 A 
ATOM     54  C   UNL     1     -11.429 -16.557   1.267  1.00  0.00     0.029 A 
ATOM     55  N   UNL     1     -10.579 -15.767  -0.631  1.00  0.00    -0.354 N 
ATOM     56  N   UNL     1      -9.844 -15.893  -3.472  1.00  0.00    -0.248 NA
ATOM     57  C   UNL     1      -9.615 -17.101  -5.456  1.00  0.00     0.031 C 
ATOM     58  C   UNL     1     -11.470 -17.573   0.306  1.00  0.00     0.029 A 
ATOM     59  C   UNL     1     -10.958 -17.076  -0.881  1.00  0.00     0.049 A 
ATOM     60  H   UNL     1     -10.175 -15.159  -1.292  1.00  0.00     0.167 HD
ATOM     61  C   UNL     1     -10.319 -17.182  -3.276  1.00  0.00     0.074 A 
ATOM     62  C   UNL     1     -10.182 -17.874  -4.541  1.00  0.00     0.031 C 
ATOM     63  C   UNL     1     -10.822 -17.744  -2.150  1.00  0.00     0.037 A 
BRANCH  50  64
ATOM     64  C   UNL     1     -10.859 -13.980   2.749  1.00  0.00     0.064 A 
ATOM     65  C   UNL     1     -11.914 -13.169   3.196  1.00  0.00     0.173 A 
ATOM     66  C   UNL     1     -10.081 -14.636   3.714  1.00  0.00     0.173 A 
ATOM     67  F   UNL     1     -12.678 -12.509   2.314  1.00  0.00    -0.203 F 
ATOM     68  C   UNL     1     -12.157 -12.995   4.556  1.00  0.00     0.198 A 
ATOM     69  C   UNL     1     -10.346 -14.484   5.072  1.00  0.00     0.198 A 
ATOM     70  F   UNL     1      -9.062 -15.425   3.340  1.00  0.00    -0.203 F 
ATOM     71  F   UNL     1     -13.135 -12.172   4.959  1.00  0.00    -0.200 F 
ATOM     72  C   UNL     1     -11.378 -13.657   5.492  1.00  0.00     0.200 A 
ATOM     73  F   UNL     1      -9.599 -15.132   5.976  1.00  0.00    -0.200 F 
ATOM     74  F   UNL     1     -11.615 -13.491   6.800  1.00  0.00    -0.200 F 
ENDBRANCH  50  64
BRANCH  51  75
ATOM     75  C   UNL     1      -8.506 -14.821  -6.918  1.00  0.00     0.064 A 
ATOM     76  C   UNL     1      -9.494 -14.973  -7.902  1.00  0.00     0.173 A 
ATOM     77  C   UNL     1      -7.167 -14.814  -7.334  1.00  0.00     0.173 A 
ATOM     78  F   UNL     1     -10.788 -15.006  -7.550  1.00  0.00    -0.203 F 
ATOM     79  C   UNL     1      -9.156 -15.133  -9.244  1.00  0.00     0.198 A 
ATOM     80  C   UNL     1      -6.831 -14.949  -8.680  1.00  0.00     0.198 A 
ATOM     81  F   UNL     1      -6.185 -14.667  -6.433  1.00  0.00    -0.203 F 
ATOM     82  F   UNL     1     -10.119 -15.319 -10.157  1.00  0.00    -0.200 F 
ATOM     83  C   UNL     1      -7.825 -15.115  -9.633  1.00  0.00     0.200 A 
ATOM     84  F   UNL     1      -5.545 -14.920  -9.053  1.00  0.00    -0.200 F 
ATOM     85  F   UNL     1      -7.501 -15.266 -10.924  1.00  0.00    -0.200 F 
ENDBRANCH  51  75
BRANCH  63  86
ATOM     86  C   UNL     1     -11.288 -19.166  -2.240  1.00  0.00     0.064 A 
ATOM     87  C   UNL     1     -10.381 -20.232  -2.324  1.00  0.00     0.173 A 
ATOM     88  C   UNL     1     -12.658 -19.468  -2.196  1.00  0.00     0.173 A 
ATOM     89  F   UNL     1      -9.062 -19.992  -2.385  1.00  0.00    -0.203 F 
ATOM     90  C   UNL     1     -10.829 -21.548  -2.381  1.00  0.00     0.198 A 
ATOM     91  C   UNL     1     -13.101 -20.787  -2.226  1.00  0.00     0.198 A 
ATOM     92  F   UNL     1     -13.565 -18.483  -2.111  1.00  0.00    -0.203 F 
ATOM     93  F   UNL     1      -9.947 -22.550  -2.502  1.00  0.00    -0.200 F 
ATOM     94  C   UNL     1     -12.187 -21.825  -2.325  1.00  0.00     0.200 A 
ATOM     95  F   UNL     1     -14.413 -21.053  -2.159  1.00  0.00    -0.200 F 
ATOM     96  F   UNL     1     -12.616 -23.094  -2.371  1.00  0.00    -0.200 F 
ENDBRANCH  63  86
ENDBRANCH  37  38
ENDBRANCH  29  32
ENDBRANCH  27  28
ENDBRANCH  26  27
ENDBRANCH  25  26
ENDBRANCH  24  25
ENDBRANCH   3  24
TORSDOF 17
