REMARK SMILES C=Cc1cncc(-c2ccc([C@@H](C)C(=O)NCCCCNC(=O)c3ccc(-c4c5nc(c(-c6c(F)c(F)c(F)c(F)c6F)c6ccc([nH]6)c(-c6c(F)c(F)c(F)c(F)c6F)c6nc(c(-c7c(F)c(F)c(F)c(F)c7F)c7ccc4[nH]7)C=C6)C=C5)cc3)cc2)c1
REMARK SMILES IDX 18 1 17 2 16 3 14 4 15 5 12 7 13 8 11 9 8 10 9 11 88 12
REMARK SMILES IDX 10 13 87 14 7 15 3 16 4 17 89 18 5 19 6 20 2 21 1 22 19 23
REMARK SMILES IDX 20 24 21 25 22 26 23 28 24 29 25 30 86 31 26 32 85 33 27 34
REMARK SMILES IDX 28 35 29 36 79 37 30 38 84 39 78 40 80 41 31 42 83 43 77 44
REMARK SMILES IDX 76 45 32 47 64 48 44 49 63 50 45 51 48 52 62 53 81 54 46 55
REMARK SMILES IDX 47 56 61 58 82 59 49 60 33 61 34 62 42 63 35 64 36 65 40 66
REMARK SMILES IDX 43 67 37 68 38 69 41 70 39 71 65 72 66 73 74 74 67 75 68 76
REMARK SMILES IDX 72 77 75 78 69 79 70 80 73 81 71 82 50 83 51 84 59 85 52 86
REMARK SMILES IDX 53 87 57 88 60 89 54 90 55 91 58 92 56 93
REMARK H PARENT 16 6 21 27 80 46 48 57
REMARK Flexibility Score: inf
ROOT
ATOM      1  C   UNL     1      -6.742  -3.449   1.661  1.00  0.00     0.023 C 
ENDROOT
BRANCH   1   2
ATOM      2  C   UNL     1      -7.720  -3.392   2.834  1.00  0.00     0.116 C 
BRANCH   2   3
ATOM      3  N   UNL     1      -7.052  -3.546   4.109  1.00  0.00    -0.356 N 
ATOM      4  C   UNL     1      -6.582  -2.624   4.994  1.00  0.00     0.227 C 
ATOM      5  O   UNL     1      -5.975  -3.067   5.977  1.00  0.00    -0.274 OA
ATOM      6  H   UNL     1      -6.913  -4.481   4.385  1.00  0.00     0.163 HD
BRANCH   4   7
ATOM      7  C   UNL     1      -6.782  -1.108   4.835  1.00  0.00     0.105 C 
ATOM      8  C   UNL     1      -8.249  -0.674   4.851  1.00  0.00     0.023 C 
BRANCH   7   9
ATOM      9  C   UNL     1      -5.910  -0.490   3.753  1.00  0.00    -0.036 A 
ATOM     10  C   UNL     1      -4.145   0.539   1.743  1.00  0.00    -0.017 A 
ATOM     11  C   UNL     1      -5.476   0.191   1.455  1.00  0.00     0.009 A 
ATOM     12  C   UNL     1      -3.731   0.385   3.075  1.00  0.00     0.009 A 
ATOM     13  C   UNL     1      -6.350  -0.280   2.445  1.00  0.00     0.005 A 
ATOM     14  C   UNL     1      -4.587  -0.137   4.056  1.00  0.00     0.005 A 
BRANCH  10  15
ATOM     15  C   UNL     1      -3.236   1.042   0.687  1.00  0.00     0.001 A 
ATOM     16  C   UNL     1      -1.015   1.303  -0.311  1.00  0.00    -0.007 A 
ATOM     17  C   UNL     1      -1.620   2.019  -1.337  1.00  0.00     0.119 A 
ATOM     18  C   UNL     1      -1.847   0.816   0.708  1.00  0.00     0.020 A 
ATOM     19  N   UNL     1      -2.945   2.265  -1.415  1.00  0.00    -0.263 NA
ATOM     20  C   UNL     1      -3.706   1.780  -0.405  1.00  0.00     0.119 A 
BRANCH  16  21
ATOM     21  C   UNL     1       0.443   1.147  -0.296  1.00  0.00     0.002 C 
ATOM     22  C   UNL     1       1.081   0.030   0.077  1.00  0.00     0.009 C 
ENDBRANCH  16  21
ENDBRANCH  10  15
ENDBRANCH   7   9
ENDBRANCH   4   7
ENDBRANCH   2   3
ENDBRANCH   1   2
BRANCH   1  23
ATOM     23  C   UNL     1      -6.419  -4.853   1.156  1.00  0.00     0.023 C 
BRANCH  23  24
ATOM     24  C   UNL     1      -7.605  -5.637   0.609  1.00  0.00     0.116 C 
BRANCH  24  25
ATOM     25  N   UNL     1      -8.304  -4.979  -0.485  1.00  0.00    -0.352 N 
ATOM     26  C   UNL     1      -8.976  -5.563  -1.539  1.00  0.00     0.251 C 
ATOM     27  H   UNL     1      -8.297  -3.995  -0.471  1.00  0.00     0.163 HD
ATOM     28  O   UNL     1      -9.467  -4.886  -2.425  1.00  0.00    -0.269 OA
BRANCH  26  29
ATOM     29  C   UNL     1      -9.039  -7.040  -1.603  1.00  0.00     0.039 A 
ATOM     30  C   UNL     1      -8.597  -7.681  -2.762  1.00  0.00     0.014 A 
ATOM     31  C   UNL     1      -9.448  -7.780  -0.492  1.00  0.00     0.014 A 
ATOM     32  C   UNL     1      -8.476  -9.072  -2.772  1.00  0.00     0.010 A 
ATOM     33  C   UNL     1      -9.256  -9.156  -0.478  1.00  0.00     0.010 A 
ATOM     34  C   UNL     1      -8.757  -9.814  -1.613  1.00  0.00    -0.014 A 
BRANCH  34  35
ATOM     35  C   UNL     1      -8.514 -11.276  -1.555  1.00  0.00     0.031 A 
ATOM     36  C   UNL     1      -9.662 -12.221  -1.347  1.00  0.00     0.074 A 
ATOM     37  C   UNL     1      -7.251 -11.744  -1.596  1.00  0.00     0.049 A 
ATOM     38  N   UNL     1      -9.646 -13.518  -1.173  1.00  0.00    -0.248 NA
ATOM     39  C   UNL     1     -11.005 -11.623  -1.292  1.00  0.00     0.031 C 
ATOM     40  C   UNL     1      -6.047 -10.921  -1.730  1.00  0.00     0.029 A 
ATOM     41  N   UNL     1      -6.768 -13.026  -1.515  1.00  0.00    -0.354 N 
ATOM     42  C   UNL     1     -10.969 -13.886  -0.966  1.00  0.00     0.074 A 
ATOM     43  C   UNL     1     -11.755 -12.672  -0.986  1.00  0.00     0.031 C 
ATOM     44  C   UNL     1      -4.967 -11.720  -1.744  1.00  0.00     0.029 A 
ATOM     45  C   UNL     1      -5.399 -13.105  -1.588  1.00  0.00     0.049 A 
ATOM     46  H   UNL     1      -7.349 -13.815  -1.414  1.00  0.00     0.167 HD
ATOM     47  C   UNL     1     -11.483 -15.127  -0.799  1.00  0.00     0.037 A 
ATOM     48  C   UNL     1      -4.584 -14.176  -1.533  1.00  0.00     0.037 A 
ATOM     49  C   UNL     1     -10.703 -16.335  -0.821  1.00  0.00     0.049 A 
ATOM     50  C   UNL     1      -5.184 -15.547  -1.377  1.00  0.00     0.074 A 
ATOM     51  C   UNL     1     -11.139 -17.646  -0.736  1.00  0.00     0.029 A 
ATOM     52  N   UNL     1      -9.322 -16.379  -0.943  1.00  0.00    -0.354 N 
ATOM     53  N   UNL     1      -6.443 -15.889  -1.256  1.00  0.00    -0.248 NA
ATOM     54  C   UNL     1      -4.249 -16.681  -1.357  1.00  0.00     0.031 C 
ATOM     55  C   UNL     1     -10.018 -18.482  -0.774  1.00  0.00     0.029 A 
ATOM     56  C   UNL     1      -8.888 -17.694  -0.921  1.00  0.00     0.049 A 
ATOM     57  H   UNL     1      -8.737 -15.592  -1.031  1.00  0.00     0.167 HD
ATOM     58  C   UNL     1      -6.455 -17.275  -1.174  1.00  0.00     0.074 A 
ATOM     59  C   UNL     1      -5.078 -17.712  -1.269  1.00  0.00     0.031 C 
ATOM     60  C   UNL     1      -7.513 -18.109  -1.033  1.00  0.00     0.037 A 
BRANCH  47  61
ATOM     61  C   UNL     1     -12.964 -15.239  -0.590  1.00  0.00     0.064 A 
ATOM     62  C   UNL     1     -13.872 -14.991  -1.631  1.00  0.00     0.173 A 
ATOM     63  C   UNL     1     -13.481 -15.625   0.655  1.00  0.00     0.173 A 
ATOM     64  F   UNL     1     -13.427 -14.605  -2.837  1.00  0.00    -0.203 F 
ATOM     65  C   UNL     1     -15.244 -15.096  -1.424  1.00  0.00     0.198 A 
ATOM     66  C   UNL     1     -14.853 -15.756   0.851  1.00  0.00     0.198 A 
ATOM     67  F   UNL     1     -12.655 -15.877   1.682  1.00  0.00    -0.203 F 
ATOM     68  F   UNL     1     -16.094 -14.805  -2.419  1.00  0.00    -0.200 F 
ATOM     69  C   UNL     1     -15.733 -15.485  -0.186  1.00  0.00     0.200 A 
ATOM     70  F   UNL     1     -15.325 -16.142   2.044  1.00  0.00    -0.200 F 
ATOM     71  F   UNL     1     -17.055 -15.589   0.010  1.00  0.00    -0.200 F 
ENDBRANCH  47  61
BRANCH  48  72
ATOM     72  C   UNL     1      -3.116 -13.999  -1.665  1.00  0.00     0.064 A 
ATOM     73  C   UNL     1      -2.448 -14.405  -2.828  1.00  0.00     0.173 A 
ATOM     74  C   UNL     1      -2.352 -13.423  -0.640  1.00  0.00     0.173 A 
ATOM     75  F   UNL     1      -3.134 -14.980  -3.827  1.00  0.00    -0.203 F 
ATOM     76  C   UNL     1      -1.068 -14.258  -2.955  1.00  0.00     0.198 A 
ATOM     77  C   UNL     1      -0.976 -13.254  -0.777  1.00  0.00     0.198 A 
ATOM     78  F   UNL     1      -2.946 -13.013   0.491  1.00  0.00    -0.203 F 
ATOM     79  F   UNL     1      -0.450 -14.692  -4.062  1.00  0.00    -0.200 F 
ATOM     80  C   UNL     1      -0.334 -13.678  -1.932  1.00  0.00     0.200 A 
ATOM     81  F   UNL     1      -0.271 -12.683   0.208  1.00  0.00    -0.200 F 
ATOM     82  F   UNL     1       0.993 -13.535  -2.055  1.00  0.00    -0.200 F 
ENDBRANCH  48  72
BRANCH  60  83
ATOM     83  C   UNL     1      -7.230 -19.581  -1.009  1.00  0.00     0.064 A 
ATOM     84  C   UNL     1      -6.662 -20.201   0.114  1.00  0.00     0.173 A 
ATOM     85  C   UNL     1      -7.579 -20.387  -2.102  1.00  0.00     0.173 A 
ATOM     86  F   UNL     1      -6.298 -19.468   1.177  1.00  0.00    -0.203 F 
ATOM     87  C   UNL     1      -6.439 -21.574   0.133  1.00  0.00     0.198 A 
ATOM     88  C   UNL     1      -7.377 -21.764  -2.069  1.00  0.00     0.198 A 
ATOM     89  F   UNL     1      -8.130 -19.841  -3.197  1.00  0.00    -0.203 F 
ATOM     90  F   UNL     1      -5.862 -22.142   1.202  1.00  0.00    -0.200 F 
ATOM     91  C   UNL     1      -6.803 -22.355  -0.954  1.00  0.00     0.200 A 
ATOM     92  F   UNL     1      -7.740 -22.518  -3.115  1.00  0.00    -0.200 F 
ATOM     93  F   UNL     1      -6.596 -23.679  -0.928  1.00  0.00    -0.200 F 
ENDBRANCH  60  83
ENDBRANCH  34  35
ENDBRANCH  26  29
ENDBRANCH  24  25
ENDBRANCH  23  24
ENDBRANCH   1  23
TORSDOF 14
