REMARK SMILES O=C(C[C@H](Cc1ccc(Cl)cc1)C(=O)Nc1cc(Cl)ccc1Cl)NCCCCNC(=O)c1ccc(-c2c3nc(c(-c4c(F)c(F)c(F)c(F)c4F)c4ccc([nH]4)c(-c4c(F)c(F)c(F)c(F)c4F)c4nc(c(-c5c(F)c(F)c(F)c(F)c5F)c5ccc2[nH]5)C=C4)C=C3)cc1
REMARK SMILES IDX 26 1 25 2 24 3 1 4 2 5 3 7 4 8 13 9 14 10 15 11 16 13 17 14
REMARK SMILES IDX 22 15 18 16 21 17 23 18 19 19 20 20 5 21 6 22 7 23 12 24
REMARK SMILES IDX 8 25 11 26 9 27 10 28 27 29 28 30 29 31 30 32 31 34 32 35
REMARK SMILES IDX 33 36 94 37 34 38 93 39 35 40 36 41 37 42 87 43 38 44 92 45
REMARK SMILES IDX 86 46 88 47 39 48 91 49 85 50 84 51 40 53 72 54 52 55 71 56
REMARK SMILES IDX 53 57 56 58 70 59 89 60 54 61 55 62 69 64 90 65 57 66 41 67
REMARK SMILES IDX 42 68 50 69 43 70 44 71 48 72 51 73 45 74 46 75 49 76 47 77
REMARK SMILES IDX 73 78 74 79 82 80 75 81 76 82 80 83 83 84 77 85 78 86 81 87
REMARK SMILES IDX 79 88 58 89 59 90 67 91 60 92 61 93 65 94 68 95 62 96 63 97
REMARK SMILES IDX 66 98 64 99
REMARK H PARENT 24 6 15 12 29 33 88 52 56 63
REMARK Flexibility Score: inf
ROOT
ATOM      1  C   UNL     1       3.718   0.447   5.451  1.00  0.00     0.023 C 
ENDROOT
BRANCH   1   2
ATOM      2  C   UNL     1       2.957   0.132   4.163  1.00  0.00     0.116 C 
BRANCH   2   3
ATOM      3  N   UNL     1       3.455   0.900   3.038  1.00  0.00    -0.356 N 
ATOM      4  O   UNL     1       4.817  -0.783   2.329  1.00  0.00    -0.275 OA
ATOM      5  C   UNL     1       4.383   0.358   2.191  1.00  0.00     0.220 C 
ATOM      6  H   UNL     1       3.124   1.814   2.884  1.00  0.00     0.163 HD
BRANCH   5   7
ATOM      7  C   UNL     1       4.933   1.283   1.133  1.00  0.00     0.113 C 
BRANCH   7   8
ATOM      8  C   UNL     1       3.973   1.892   0.085  1.00  0.00     0.092 C 
BRANCH   8   9
ATOM      9  C   UNL     1       4.891   2.928  -0.750  1.00  0.00     0.228 C 
ATOM     10  O   UNL     1       4.613   4.132  -0.697  1.00  0.00    -0.274 OA
ATOM     11  N   UNL     1       6.096   2.558  -1.371  1.00  0.00    -0.324 N 
ATOM     12  H   UNL     1       6.847   3.192  -1.332  1.00  0.00     0.169 HD
BRANCH  11  13
ATOM     13  C   UNL     1       6.299   1.340  -2.044  1.00  0.00     0.061 A 
ATOM     14  C   UNL     1       4.792   0.560  -2.381  1.00  0.00     0.048 A 
ATOM     15  C   UNL     1       7.758   0.451  -2.398  1.00  0.00     0.064 A 
ATOM     16  C   UNL     1       4.672  -1.347  -3.026  1.00  0.00     0.043 A 
ATOM     17  C   UNL     1       7.763  -1.241  -3.019  1.00  0.00     0.024 A 
ATOM     18  Cl  UNL     1       9.275   1.170  -2.002  1.00  0.00    -0.082 Cl
ATOM     19  Cl  UNL     1       3.372  -2.528  -3.415  1.00  0.00    -0.084 Cl
ATOM     20  C   UNL     1       6.265  -2.168  -3.340  1.00  0.00     0.022 A 
ENDBRANCH  11  13
ENDBRANCH   8   9
BRANCH   8  21
ATOM     21  C   UNL     1       2.747   0.988  -0.536  1.00  0.00     0.049 C 
BRANCH  21  22
ATOM     22  C   UNL     1       3.045  -0.307  -1.537  1.00  0.00    -0.047 A 
ATOM     23  C   UNL     1       2.864   0.159  -3.274  1.00  0.00     0.005 A 
ATOM     24  C   UNL     1       4.532  -0.930  -0.873  1.00  0.00     0.005 A 
ATOM     25  C   UNL     1       4.255   0.295  -4.382  1.00  0.00     0.021 A 
ATOM     26  C   UNL     1       6.016  -0.758  -1.831  1.00  0.00     0.021 A 
ATOM     27  C   UNL     1       5.914  -0.080  -3.738  1.00  0.00     0.041 A 
ATOM     28  Cl  UNL     1       7.041   0.310  -5.111  1.00  0.00    -0.084 Cl
ENDBRANCH  21  22
ENDBRANCH   8  21
ENDBRANCH   7   8
ENDBRANCH   5   7
ENDBRANCH   2   3
ENDBRANCH   1   2
BRANCH   1  29
ATOM     29  C   UNL     1       3.643   1.914   5.877  1.00  0.00     0.023 C 
BRANCH  29  30
ATOM     30  C   UNL     1       2.229   2.468   5.986  1.00  0.00     0.116 C 
BRANCH  30  31
ATOM     31  N   UNL     1       1.446   1.803   7.014  1.00  0.00    -0.352 N 
ATOM     32  C   UNL     1       0.747   2.355   8.060  1.00  0.00     0.251 C 
ATOM     33  H   UNL     1       1.411   0.821   6.953  1.00  0.00     0.163 HD
ATOM     34  O   UNL     1       0.286   1.640   8.944  1.00  0.00    -0.269 OA
BRANCH  32  35
ATOM     35  C   UNL     1       0.580   3.822   8.134  1.00  0.00     0.039 A 
ATOM     36  C   UNL     1       0.785   4.463   9.357  1.00  0.00     0.014 A 
ATOM     37  C   UNL     1       0.244   4.564   6.998  1.00  0.00     0.014 A 
ATOM     38  C   UNL     1       0.717   5.855   9.424  1.00  0.00     0.010 A 
ATOM     39  C   UNL     1       0.275   5.954   7.046  1.00  0.00     0.010 A 
ATOM     40  C   UNL     1       0.507   6.616   8.261  1.00  0.00    -0.014 A 
BRANCH  40  41
ATOM     41  C   UNL     1       0.534   8.101   8.302  1.00  0.00     0.031 A 
ATOM     42  C   UNL     1      -0.682   8.896   7.915  1.00  0.00     0.074 A 
ATOM     43  C   UNL     1       1.671   8.737   8.646  1.00  0.00     0.049 A 
ATOM     44  N   UNL     1      -0.836  10.195   7.848  1.00  0.00    -0.248 NA
ATOM     45  C   UNL     1      -1.879   8.131   7.529  1.00  0.00     0.031 C 
ATOM     46  C   UNL     1       2.930   8.081   9.003  1.00  0.00     0.029 A 
ATOM     47  N   UNL     1       1.955  10.077   8.747  1.00  0.00    -0.354 N 
ATOM     48  C   UNL     1      -2.139  10.400   7.414  1.00  0.00     0.074 A 
ATOM     49  C   UNL     1      -2.710   9.095   7.164  1.00  0.00     0.031 C 
ATOM     50  C   UNL     1       3.840   9.016   9.315  1.00  0.00     0.029 A 
ATOM     51  C   UNL     1       3.250  10.338   9.125  1.00  0.00     0.049 A 
ATOM     52  H   UNL     1       1.293  10.783   8.567  1.00  0.00     0.167 HD
ATOM     53  C   UNL     1      -2.806  11.569   7.263  1.00  0.00     0.037 A 
ATOM     54  C   UNL     1       3.897  11.509   9.281  1.00  0.00     0.037 A 
ATOM     55  C   UNL     1      -2.229  12.866   7.507  1.00  0.00     0.049 A 
ATOM     56  C   UNL     1       3.149  12.795   9.050  1.00  0.00     0.074 A 
ATOM     57  C   UNL     1      -2.833  14.107   7.417  1.00  0.00     0.029 A 
ATOM     58  N   UNL     1      -0.909  13.090   7.872  1.00  0.00    -0.354 N 
ATOM     59  N   UNL     1       1.897  12.976   8.705  1.00  0.00    -0.248 NA
ATOM     60  C   UNL     1       3.904  14.042   9.238  1.00  0.00     0.031 C 
ATOM     61  C   UNL     1      -1.861  15.084   7.646  1.00  0.00     0.029 A 
ATOM     62  C   UNL     1      -0.672  14.453   7.973  1.00  0.00     0.049 A 
ATOM     63  H   UNL     1      -0.241  12.386   8.036  1.00  0.00     0.167 HD
ATOM     64  C   UNL     1       1.706  14.351   8.668  1.00  0.00     0.074 A 
ATOM     65  C   UNL     1       2.965  14.957   9.044  1.00  0.00     0.031 C 
ATOM     66  C   UNL     1       0.586  15.048   8.352  1.00  0.00     0.037 A 
BRANCH  53  67
ATOM     67  C   UNL     1      -4.234  11.499   6.797  1.00  0.00     0.064 A 
ATOM     68  C   UNL     1      -5.245  10.929   7.588  1.00  0.00     0.173 A 
ATOM     69  C   UNL     1      -4.606  12.039   5.556  1.00  0.00     0.173 A 
ATOM     70  F   UNL     1      -4.948  10.392   8.781  1.00  0.00    -0.203 F 
ATOM     71  C   UNL     1      -6.561  10.863   7.136  1.00  0.00     0.198 A 
ATOM     72  C   UNL     1      -5.929  12.011   5.126  1.00  0.00     0.198 A 
ATOM     73  F   UNL     1      -3.685  12.606   4.761  1.00  0.00    -0.203 F 
ATOM     74  F   UNL     1      -7.493  10.253   7.880  1.00  0.00    -0.200 F 
ATOM     75  C   UNL     1      -6.903  11.412   5.909  1.00  0.00     0.200 A 
ATOM     76  F   UNL     1      -6.262  12.562   3.950  1.00  0.00    -0.200 F 
ATOM     77  F   UNL     1      -8.171  11.355   5.479  1.00  0.00    -0.200 F 
ENDBRANCH  53  67
BRANCH  54  78
ATOM     78  C   UNL     1       5.333  11.520   9.672  1.00  0.00     0.064 A 
ATOM     79  C   UNL     1       5.747  12.047  10.904  1.00  0.00     0.173 A 
ATOM     80  C   UNL     1       6.324  11.018   8.815  1.00  0.00     0.173 A 
ATOM     81  F   UNL     1       4.842  12.557  11.753  1.00  0.00    -0.203 F 
ATOM     82  C   UNL     1       7.097  12.102  11.247  1.00  0.00     0.198 A 
ATOM     83  C   UNL     1       7.668  11.035   9.177  1.00  0.00     0.198 A 
ATOM     84  F   UNL     1       5.983  10.496   7.627  1.00  0.00    -0.203 F 
ATOM     85  F   UNL     1       7.469  12.670  12.402  1.00  0.00    -0.200 F 
ATOM     86  C   UNL     1       8.055  11.589  10.387  1.00  0.00     0.200 A 
ATOM     87  F   UNL     1       8.588  10.518   8.351  1.00  0.00    -0.200 F 
ATOM     88  F   UNL     1       9.352  11.637  10.719  1.00  0.00    -0.200 F 
ENDBRANCH  54  78
BRANCH  66  89
ATOM     89  C   UNL     1       0.650  16.548   8.448  1.00  0.00     0.064 A 
ATOM     90  C   UNL     1       1.435  17.319   7.577  1.00  0.00     0.173 A 
ATOM     91  C   UNL     1      -0.118  17.227   9.408  1.00  0.00     0.173 A 
ATOM     92  F   UNL     1       2.197  16.723   6.647  1.00  0.00    -0.203 F 
ATOM     93  C   UNL     1       1.478  18.707   7.688  1.00  0.00     0.198 A 
ATOM     94  C   UNL     1      -0.107  18.617   9.487  1.00  0.00     0.198 A 
ATOM     95  F   UNL     1      -0.895  16.544  10.261  1.00  0.00    -0.203 F 
ATOM     96  F   UNL     1       2.286  19.416   6.888  1.00  0.00    -0.200 F 
ATOM     97  C   UNL     1       0.700  19.355   8.636  1.00  0.00     0.200 A 
ATOM     98  F   UNL     1      -0.879  19.241  10.387  1.00  0.00    -0.200 F 
ATOM     99  F   UNL     1       0.734  20.691   8.734  1.00  0.00    -0.200 F 
ENDBRANCH  66  89
ENDBRANCH  40  41
ENDBRANCH  32  35
ENDBRANCH  30  31
ENDBRANCH  29  30
ENDBRANCH   1  29
TORSDOF 16
