REMARK SMILES CC1(C)C[C@](CC(=O)NCCCCNC(=O)c2ccc(-c3c4nc(c(-c5c(F)c(F)c(F)c(F)c5F)c5ccc([nH]5)c(-c5c(F)c(F)c(F)c(F)c5F)c5nc(c(-c6c(F)c(F)c(F)c(F)c6F)c6ccc3[nH]6)C=C5)C=C4)cc2)([NH+]2CCCC2)C(C)(C)O1
REMARK SMILES IDX 11 1 10 2 9 3 7 4 8 5 6 7 5 8 1 9 2 10 3 11 4 12 88 13 85 14
REMARK SMILES IDX 86 15 87 16 80 17 81 18 84 19 82 21 83 22 12 23 13 24 14 25
REMARK SMILES IDX 15 26 16 28 17 29 18 30 79 31 19 32 78 33 20 34 21 35 22 36
REMARK SMILES IDX 72 37 23 38 77 39 71 40 73 41 24 42 76 43 70 44 69 45 25 47
REMARK SMILES IDX 57 48 37 49 56 50 38 51 41 52 55 53 74 54 39 55 40 56 54 58
REMARK SMILES IDX 75 59 42 60 26 61 27 62 35 63 28 64 29 65 33 66 36 67 30 68
REMARK SMILES IDX 31 69 34 70 32 71 58 72 59 73 67 74 60 75 61 76 65 77 68 78
REMARK SMILES IDX 62 79 63 80 66 81 64 82 43 83 44 84 52 85 45 86 46 87 50 88
REMARK SMILES IDX 53 89 47 90 48 91 51 92 49 93
REMARK H PARENT 9 6 80 20 14 27 73 46 41 57
REMARK Flexibility Score: inf
ROOT
ATOM      1  C   UNL     1       2.042  -4.834   4.491  1.00  0.00     0.023 C 
ENDROOT
BRANCH   1   2
ATOM      2  C   UNL     1       2.630  -5.229   3.143  1.00  0.00     0.116 C 
BRANCH   2   3
ATOM      3  N   UNL     1       1.748  -6.078   2.390  1.00  0.00    -0.356 N 
ATOM      4  C   UNL     1       1.112  -5.865   1.214  1.00  0.00     0.226 C 
ATOM      5  O   UNL     1       0.619  -6.870   0.686  1.00  0.00    -0.275 OA
ATOM      6  H   UNL     1       1.578  -6.959   2.797  1.00  0.00     0.163 HD
BRANCH   4   7
ATOM      7  C   UNL     1       1.035  -4.513   0.503  1.00  0.00     0.171 C 
BRANCH   7   8
ATOM      8  C   UNL     1       0.197  -3.253   0.986  1.00  0.00     0.138 C 
ATOM      9  C   UNL     1       1.129  -0.239  -0.891  1.00  0.00     0.042 C 
ATOM     10  C   UNL     1       0.084  -0.927   0.004  1.00  0.00     0.070 C 
ATOM     11  C   UNL     1      -1.211  -0.124  -0.146  1.00  0.00     0.042 C 
ATOM     12  C   UNL     1      -0.036  -2.416  -0.329  1.00  0.00     0.107 C 
ATOM     13  O   UNL     1       0.498  -0.843   1.369  1.00  0.00    -0.363 OA
ATOM     14  C   UNL     1       0.986  -2.138   1.837  1.00  0.00     0.118 C 
ATOM     15  C   UNL     1       2.523  -2.026   1.635  1.00  0.00     0.049 C 
ATOM     16  C   UNL     1       0.654  -2.116   3.339  1.00  0.00     0.049 C 
BRANCH   8  17
ATOM     17  N   UNL     1      -1.166  -3.643   1.459  1.00  0.00    -0.327 N 
ATOM     18  C   UNL     1      -1.407  -4.874   2.202  1.00  0.00     0.263 C 
ATOM     19  C   UNL     1      -2.154  -2.650   1.864  1.00  0.00     0.263 C 
ATOM     20  H   UNL     1      -1.311  -3.848   0.471  1.00  0.00     0.348 HD
ATOM     21  C   UNL     1      -2.829  -4.768   2.721  1.00  0.00     0.067 C 
ATOM     22  C   UNL     1      -2.984  -3.290   2.969  1.00  0.00     0.067 C 
ENDBRANCH   8  17
ENDBRANCH   7   8
ENDBRANCH   4   7
ENDBRANCH   2   3
ENDBRANCH   1   2
BRANCH   1  23
ATOM     23  C   UNL     1       2.496  -5.665   5.673  1.00  0.00     0.023 C 
BRANCH  23  24
ATOM     24  C   UNL     1       3.999  -5.678   5.888  1.00  0.00     0.116 C 
BRANCH  24  25
ATOM     25  N   UNL     1       4.603  -4.354   6.015  1.00  0.00    -0.352 N 
ATOM     26  C   UNL     1       5.371  -3.831   7.035  1.00  0.00     0.251 C 
ATOM     27  H   UNL     1       4.438  -3.743   5.260  1.00  0.00     0.163 HD
ATOM     28  O   UNL     1       5.746  -2.668   7.008  1.00  0.00    -0.269 OA
BRANCH  26  29
ATOM     29  C   UNL     1       5.681  -4.691   8.194  1.00  0.00     0.039 A 
ATOM     30  C   UNL     1       5.412  -4.225   9.482  1.00  0.00     0.014 A 
ATOM     31  C   UNL     1       6.093  -6.005   7.987  1.00  0.00     0.014 A 
ATOM     32  C   UNL     1       5.428  -5.125  10.549  1.00  0.00     0.010 A 
ATOM     33  C   UNL     1       5.954  -6.921   9.016  1.00  0.00     0.010 A 
ATOM     34  C   UNL     1       5.623  -6.495  10.312  1.00  0.00    -0.014 A 
BRANCH  34  35
ATOM     35  C   UNL     1       5.499  -7.513  11.389  1.00  0.00     0.031 A 
ATOM     36  C   UNL     1       6.638  -8.465  11.642  1.00  0.00     0.074 A 
ATOM     37  C   UNL     1       4.337  -7.659  12.057  1.00  0.00     0.049 A 
ATOM     38  N   UNL     1       6.679  -9.528  12.404  1.00  0.00    -0.248 NA
ATOM     39  C   UNL     1       7.878  -8.228  10.883  1.00  0.00     0.031 C 
ATOM     40  C   UNL     1       3.124  -6.864  11.850  1.00  0.00     0.029 A 
ATOM     41  N   UNL     1       3.983  -8.542  13.048  1.00  0.00    -0.354 N 
ATOM     42  C   UNL     1       7.918 -10.109  12.168  1.00  0.00     0.074 A 
ATOM     43  C   UNL     1       8.569  -9.326  11.142  1.00  0.00     0.031 C 
ATOM     44  C   UNL     1       2.180  -7.262  12.717  1.00  0.00     0.029 A 
ATOM     45  C   UNL     1       2.702  -8.367  13.514  1.00  0.00     0.049 A 
ATOM     46  H   UNL     1       4.590  -9.237  13.392  1.00  0.00     0.167 HD
ATOM     47  C   UNL     1       8.484 -11.176  12.779  1.00  0.00     0.037 A 
ATOM     48  C   UNL     1       2.031  -9.022  14.480  1.00  0.00     0.037 A 
ATOM     49  C   UNL     1       7.875 -11.891  13.866  1.00  0.00     0.049 A 
ATOM     50  C   UNL     1       2.715 -10.145  15.212  1.00  0.00     0.074 A 
ATOM     51  C   UNL     1       8.401 -12.920  14.626  1.00  0.00     0.029 A 
ATOM     52  N   UNL     1       6.608 -11.628  14.364  1.00  0.00    -0.354 N 
ATOM     53  N   UNL     1       3.913 -10.644  15.025  1.00  0.00    -0.248 NA
ATOM     54  C   UNL     1       1.957 -10.791  16.293  1.00  0.00     0.031 C 
ATOM     55  C   UNL     1       7.444 -13.293  15.574  1.00  0.00     0.029 A 
ATOM     56  C   UNL     1       6.334 -12.476  15.424  1.00  0.00     0.049 A 
ATOM     57  H   UNL     1       5.994 -10.941  14.017  1.00  0.00     0.167 HD
ATOM     58  C   UNL     1       4.062 -11.642  15.978  1.00  0.00     0.074 A 
ATOM     59  C   UNL     1       2.839 -11.668  16.752  1.00  0.00     0.031 C 
ATOM     60  C   UNL     1       5.116 -12.467  16.191  1.00  0.00     0.037 A 
BRANCH  47  61
ATOM     61  C   UNL     1       9.842 -11.603  12.305  1.00  0.00     0.064 A 
ATOM     62  C   UNL     1      10.981 -10.812  12.525  1.00  0.00     0.173 A 
ATOM     63  C   UNL     1      10.010 -12.820  11.627  1.00  0.00     0.173 A 
ATOM     64  F   UNL     1      10.872  -9.632  13.153  1.00  0.00    -0.203 F 
ATOM     65  C   UNL     1      12.228 -11.202  12.046  1.00  0.00     0.198 A 
ATOM     66  C   UNL     1      11.266 -13.223  11.180  1.00  0.00     0.198 A 
ATOM     67  F   UNL     1       8.956 -13.616  11.394  1.00  0.00    -0.203 F 
ATOM     68  F   UNL     1      13.287 -10.397  12.209  1.00  0.00    -0.200 F 
ATOM     69  C   UNL     1      12.371 -12.409  11.380  1.00  0.00     0.200 A 
ATOM     70  F   UNL     1      11.405 -14.395  10.545  1.00  0.00    -0.200 F 
ATOM     71  F   UNL     1      13.573 -12.783  10.919  1.00  0.00    -0.200 F 
ENDBRANCH  47  61
BRANCH  48  72
ATOM     72  C   UNL     1       0.656  -8.599  14.853  1.00  0.00     0.064 A 
ATOM     73  C   UNL     1       0.417  -7.946  16.071  1.00  0.00     0.173 A 
ATOM     74  C   UNL     1      -0.442  -8.837  14.015  1.00  0.00     0.173 A 
ATOM     75  F   UNL     1       1.433  -7.713  16.915  1.00  0.00    -0.203 F 
ATOM     76  C   UNL     1      -0.870  -7.567  16.447  1.00  0.00     0.198 A 
ATOM     77  C   UNL     1      -1.726  -8.436  14.380  1.00  0.00     0.198 A 
ATOM     78  F   UNL     1      -0.266  -9.451  12.836  1.00  0.00    -0.203 F 
ATOM     79  F   UNL     1      -1.074  -6.985  17.636  1.00  0.00    -0.200 F 
ATOM     80  C   UNL     1      -1.940  -7.809  15.599  1.00  0.00     0.200 A 
ATOM     81  F   UNL     1      -2.756  -8.660  13.554  1.00  0.00    -0.200 F 
ATOM     82  F   UNL     1      -3.178  -7.445  15.960  1.00  0.00    -0.200 F 
ENDBRANCH  48  72
BRANCH  60  83
ATOM     83  C   UNL     1       5.008 -13.439  17.326  1.00  0.00     0.064 A 
ATOM     84  C   UNL     1       4.202 -14.582  17.236  1.00  0.00     0.173 A 
ATOM     85  C   UNL     1       5.762 -13.250  18.493  1.00  0.00     0.173 A 
ATOM     86  F   UNL     1       3.453 -14.796  16.144  1.00  0.00    -0.203 F 
ATOM     87  C   UNL     1       4.140 -15.494  18.285  1.00  0.00     0.198 A 
ATOM     88  C   UNL     1       5.718 -14.178  19.529  1.00  0.00     0.198 A 
ATOM     89  F   UNL     1       6.553 -12.175  18.621  1.00  0.00    -0.203 F 
ATOM     90  F   UNL     1       3.335 -16.562  18.195  1.00  0.00    -0.200 F 
ATOM     91  C   UNL     1       4.903 -15.296  19.427  1.00  0.00     0.200 A 
ATOM     92  F   UNL     1       6.464 -13.991  20.627  1.00  0.00    -0.200 F 
ATOM     93  F   UNL     1       4.849 -16.180  20.432  1.00  0.00    -0.200 F 
ENDBRANCH  60  83
ENDBRANCH  34  35
ENDBRANCH  26  29
ENDBRANCH  24  25
ENDBRANCH  23  24
ENDBRANCH   1  23
TORSDOF 13
