REMARK SMILES Cc1cc(Cl)cc2c1O[C@H](C(F)(F)F)C(C(=O)NCCCCNC(=O)c1ccc(-c3c4nc(c(-c5c(F)c(F)c(F)c(F)c5F)c5ccc([nH]5)c(-c5c(F)c(F)c(F)c(F)c5F)c5nc(c(-c6c(F)c(F)c(F)c(F)c6F)c6ccc3[nH]6)C=C5)C=C4)cc1)=C2
REMARK SMILES IDX 21 1 20 2 19 3 18 4 16 5 17 6 15 8 1 9 2 10 3 11 8 12 4 13
REMARK SMILES IDX 7 14 9 15 5 16 6 17 89 18 10 19 11 20 12 21 13 22 14 23
REMARK SMILES IDX 22 24 23 25 24 26 25 28 26 29 27 30 88 31 28 32 87 33 29 34
REMARK SMILES IDX 30 35 31 36 81 37 32 38 86 39 80 40 82 41 33 42 85 43 79 44
REMARK SMILES IDX 78 45 34 47 66 48 46 49 65 50 47 51 50 52 64 53 83 54 48 55
REMARK SMILES IDX 49 56 63 58 84 59 51 60 35 61 36 62 44 63 37 64 38 65 42 66
REMARK SMILES IDX 45 67 39 68 40 69 43 70 41 71 67 72 68 73 76 74 69 75 70 76
REMARK SMILES IDX 74 77 77 78 71 79 72 80 75 81 73 82 52 83 53 84 61 85 54 86
REMARK SMILES IDX 55 87 59 88 62 89 56 90 57 91 60 92 58 93
REMARK H PARENT 18 7 23 27 82 46 50 57
REMARK Flexibility Score: inf
ROOT
ATOM      1  C   UNL     1      -2.571  -2.876   7.537  1.00  0.00     0.023 C 
ENDROOT
BRANCH   1   2
ATOM      2  C   UNL     1      -2.029  -2.398   6.188  1.00  0.00     0.023 C 
BRANCH   2   3
ATOM      3  C   UNL     1      -3.017  -1.560   5.382  1.00  0.00     0.116 C 
BRANCH   3   4
ATOM      4  N   UNL     1      -2.974  -0.160   5.761  1.00  0.00    -0.352 N 
ATOM      5  C   UNL     1      -2.461   0.985   5.252  1.00  0.00     0.251 C 
ATOM      6  O   UNL     1      -2.662   1.995   5.933  1.00  0.00    -0.270 OA
ATOM      7  H   UNL     1      -3.442  -0.000   6.612  1.00  0.00     0.163 HD
BRANCH   5   8
ATOM      8  C   UNL     1      -1.698   1.096   3.973  1.00  0.00     0.067 C 
ATOM      9  C   UNL     1       1.109   0.360  -0.311  1.00  0.00     0.048 C 
ATOM     10  C   UNL     1       0.690   1.533   0.530  1.00  0.00    -0.007 A 
ATOM     11  C   UNL     1       1.065   2.823   0.129  1.00  0.00     0.027 A 
ATOM     12  C   UNL     1      -0.065   1.387   1.703  1.00  0.00     0.131 A 
ATOM     13  C   UNL     1       0.697   3.933   0.889  1.00  0.00     0.042 A 
ATOM     14  C   UNL     1      -0.427   2.501   2.471  1.00  0.00     0.019 A 
ATOM     15  O   UNL     1      -0.389   0.118   2.094  1.00  0.00    -0.475 OA
ATOM     16  Cl  UNL     1       1.173   5.507   0.382  1.00  0.00    -0.084 Cl
ATOM     17  C   UNL     1      -0.043   3.779   2.060  1.00  0.00     0.032 A 
ATOM     18  C   UNL     1      -1.166   2.305   3.714  1.00  0.00     0.025 C 
ATOM     19  C   UNL     1      -1.534  -0.017   2.979  1.00  0.00     0.314 C 
BRANCH  19  20
ATOM     20  C   UNL     1      -2.804  -0.259   2.142  1.00  0.00     0.429 C 
ATOM     21  F   UNL     1      -2.731  -1.456   1.507  1.00  0.00    -0.167 F 
ATOM     22  F   UNL     1      -3.924  -0.300   2.903  1.00  0.00    -0.167 F 
ATOM     23  F   UNL     1      -3.002   0.690   1.202  1.00  0.00    -0.167 F 
ENDBRANCH  19  20
ENDBRANCH   5   8
ENDBRANCH   3   4
ENDBRANCH   2   3
ENDBRANCH   1   2
BRANCH   1  24
ATOM     24  C   UNL     1      -3.881  -3.659   7.476  1.00  0.00     0.116 C 
BRANCH  24  25
ATOM     25  N   UNL     1      -3.864  -4.765   6.529  1.00  0.00    -0.352 N 
ATOM     26  C   UNL     1      -4.530  -5.963   6.617  1.00  0.00     0.251 C 
ATOM     27  H   UNL     1      -3.308  -4.638   5.727  1.00  0.00     0.163 HD
ATOM     28  O   UNL     1      -4.369  -6.839   5.775  1.00  0.00    -0.269 OA
BRANCH  26  29
ATOM     29  C   UNL     1      -5.411  -6.196   7.775  1.00  0.00     0.039 A 
ATOM     30  C   UNL     1      -5.169  -7.303   8.590  1.00  0.00     0.014 A 
ATOM     31  C   UNL     1      -6.414  -5.276   8.093  1.00  0.00     0.014 A 
ATOM     32  C   UNL     1      -5.890  -7.450   9.774  1.00  0.00     0.010 A 
ATOM     33  C   UNL     1      -7.088  -5.391   9.303  1.00  0.00     0.010 A 
ATOM     34  C   UNL     1      -6.825  -6.474  10.156  1.00  0.00    -0.014 A 
BRANCH  34  35
ATOM     35  C   UNL     1      -7.540  -6.570  11.449  1.00  0.00     0.031 A 
ATOM     36  C   UNL     1      -9.020  -6.815  11.468  1.00  0.00     0.074 A 
ATOM     37  C   UNL     1      -6.865  -6.383  12.599  1.00  0.00     0.049 A 
ATOM     38  N   UNL     1      -9.834  -6.877  12.490  1.00  0.00    -0.248 NA
ATOM     39  C   UNL     1      -9.676  -6.990  10.162  1.00  0.00     0.031 C 
ATOM     40  C   UNL     1      -5.433  -6.098  12.701  1.00  0.00     0.029 A 
ATOM     41  N   UNL     1      -7.294  -6.403  13.902  1.00  0.00    -0.354 N 
ATOM     42  C   UNL     1     -11.095  -7.090  11.951  1.00  0.00     0.074 A 
ATOM     43  C   UNL     1     -10.950  -7.093  10.512  1.00  0.00     0.031 C 
ATOM     44  C   UNL     1      -5.096  -6.002  13.998  1.00  0.00     0.029 A 
ATOM     45  C   UNL     1      -6.292  -6.188  14.815  1.00  0.00     0.049 A 
ATOM     46  H   UNL     1      -8.232  -6.558  14.158  1.00  0.00     0.167 HD
ATOM     47  C   UNL     1     -12.264  -7.294  12.602  1.00  0.00     0.037 A 
ATOM     48  C   UNL     1      -6.335  -6.150  16.160  1.00  0.00     0.037 A 
ATOM     49  C   UNL     1     -12.399  -7.318  14.033  1.00  0.00     0.049 A 
ATOM     50  C   UNL     1      -7.649  -6.370  16.858  1.00  0.00     0.074 A 
ATOM     51  C   UNL     1     -13.532  -7.562  14.788  1.00  0.00     0.029 A 
ATOM     52  N   UNL     1     -11.361  -7.094  14.925  1.00  0.00    -0.354 N 
ATOM     53  N   UNL     1      -8.827  -6.617  16.341  1.00  0.00    -0.248 NA
ATOM     54  C   UNL     1      -7.639  -6.307  18.327  1.00  0.00     0.031 C 
ATOM     55  C   UNL     1     -13.186  -7.457  16.139  1.00  0.00     0.029 A 
ATOM     56  C   UNL     1     -11.831  -7.182  16.225  1.00  0.00     0.049 A 
ATOM     57  H   UNL     1     -10.430  -6.901  14.672  1.00  0.00     0.167 HD
ATOM     58  C   UNL     1      -9.694  -6.757  17.415  1.00  0.00     0.074 A 
ATOM     59  C   UNL     1      -8.904  -6.580  18.616  1.00  0.00     0.031 C 
ATOM     60  C   UNL     1     -11.026  -7.007  17.406  1.00  0.00     0.037 A 
BRANCH  47  61
ATOM     61  C   UNL     1     -13.486  -7.527  11.767  1.00  0.00     0.064 A 
ATOM     62  C   UNL     1     -13.673  -8.731  11.071  1.00  0.00     0.173 A 
ATOM     63  C   UNL     1     -14.495  -6.556  11.688  1.00  0.00     0.173 A 
ATOM     64  F   UNL     1     -12.729  -9.683  11.104  1.00  0.00    -0.203 F 
ATOM     65  C   UNL     1     -14.818  -8.946  10.309  1.00  0.00     0.198 A 
ATOM     66  C   UNL     1     -15.650  -6.785  10.945  1.00  0.00     0.198 A 
ATOM     67  F   UNL     1     -14.363  -5.389  12.336  1.00  0.00    -0.203 F 
ATOM     68  F   UNL     1     -14.957 -10.087   9.620  1.00  0.00    -0.200 F 
ATOM     69  C   UNL     1     -15.808  -7.977  10.252  1.00  0.00     0.200 A 
ATOM     70  F   UNL     1     -16.610  -5.852  10.897  1.00  0.00    -0.200 F 
ATOM     71  F   UNL     1     -16.912  -8.188   9.524  1.00  0.00    -0.200 F 
ENDBRANCH  47  61
BRANCH  48  72
ATOM     72  C   UNL     1      -5.085  -5.940  16.933  1.00  0.00     0.064 A 
ATOM     73  C   UNL     1      -4.497  -6.999  17.638  1.00  0.00     0.173 A 
ATOM     74  C   UNL     1      -4.444  -4.694  16.968  1.00  0.00     0.173 A 
ATOM     75  F   UNL     1      -5.085  -8.204  17.648  1.00  0.00    -0.203 F 
ATOM     76  C   UNL     1      -3.318  -6.817  18.357  1.00  0.00     0.198 A 
ATOM     77  C   UNL     1      -3.254  -4.518  17.670  1.00  0.00     0.198 A 
ATOM     78  F   UNL     1      -4.967  -3.651  16.305  1.00  0.00    -0.203 F 
ATOM     79  F   UNL     1      -2.791  -7.839  19.045  1.00  0.00    -0.200 F 
ATOM     80  C   UNL     1      -2.693  -5.579  18.367  1.00  0.00     0.200 A 
ATOM     81  F   UNL     1      -2.647  -3.323  17.669  1.00  0.00    -0.200 F 
ATOM     82  F   UNL     1      -1.554  -5.406  19.051  1.00  0.00    -0.200 F 
ENDBRANCH  48  72
BRANCH  60  83
ATOM     83  C   UNL     1     -11.716  -7.120  18.731  1.00  0.00     0.064 A 
ATOM     84  C   UNL     1     -12.015  -5.984  19.495  1.00  0.00     0.173 A 
ATOM     85  C   UNL     1     -12.152  -8.368  19.201  1.00  0.00     0.173 A 
ATOM     86  F   UNL     1     -11.606  -4.772  19.091  1.00  0.00    -0.203 F 
ATOM     87  C   UNL     1     -12.720  -6.093  20.690  1.00  0.00     0.198 A 
ATOM     88  C   UNL     1     -12.877  -8.471  20.385  1.00  0.00     0.198 A 
ATOM     89  F   UNL     1     -11.895  -9.482  18.501  1.00  0.00    -0.203 F 
ATOM     90  F   UNL     1     -12.975  -4.998  21.419  1.00  0.00    -0.200 F 
ATOM     91  C   UNL     1     -13.159  -7.335  21.129  1.00  0.00     0.200 A 
ATOM     92  F   UNL     1     -13.310  -9.669  20.802  1.00  0.00    -0.200 F 
ATOM     93  F   UNL     1     -13.852  -7.436  22.271  1.00  0.00    -0.200 F 
ENDBRANCH  60  83
ENDBRANCH  34  35
ENDBRANCH  26  29
ENDBRANCH  24  25
ENDBRANCH   1  24
TORSDOF 12
