REMARK SMILES CC[C@H](C)N1C(=O)c2ccccc2[C@@H](C(=O)NCCCCNC(=O)c2ccc(-c3c4nc(c(-c5c(F)c(F)c(F)c(F)c5F)c5ccc([nH]5)c(-c5c(F)c(F)c(F)c(F)c5F)c5nc(c(-c6c(F)c(F)c(F)c(F)c6F)c6ccc3[nH]6)C=C5)C=C4)cc2)C12CCCCC2
REMARK SMILES IDX 19 1 18 2 17 3 15 4 16 5 14 7 5 8 6 9 88 10 7 11 8 12 89 13
REMARK SMILES IDX 93 14 9 15 13 16 90 17 92 18 10 19 12 20 91 21 11 22 3 23
REMARK SMILES IDX 4 24 2 25 1 26 20 27 21 28 22 29 23 30 24 32 25 33 26 34
REMARK SMILES IDX 87 35 27 36 86 37 28 38 29 39 30 40 80 41 31 42 85 43 79 44
REMARK SMILES IDX 81 45 32 46 84 47 78 48 77 49 33 51 65 52 45 53 64 54 46 55
REMARK SMILES IDX 49 56 63 57 82 58 47 59 48 60 62 62 83 63 50 64 34 65 35 66
REMARK SMILES IDX 43 67 36 68 37 69 41 70 44 71 38 72 39 73 42 74 40 75 66 76
REMARK SMILES IDX 67 77 75 78 68 79 69 80 73 81 76 82 70 83 71 84 74 85 72 86
REMARK SMILES IDX 51 87 52 88 60 89 53 90 54 91 58 92 61 93 55 94 56 95 59 96
REMARK SMILES IDX 57 97
REMARK H PARENT 17 6 22 31 81 50 49 61
REMARK Flexibility Score: inf
ROOT
ATOM      1  C   UNL     1      -1.713   4.173  -6.744  1.00  0.00     0.023 C 
ENDROOT
BRANCH   1   2
ATOM      2  C   UNL     1      -1.502   5.185  -5.611  1.00  0.00     0.116 C 
BRANCH   2   3
ATOM      3  N   UNL     1      -2.591   5.252  -4.644  1.00  0.00    -0.355 N 
ATOM      4  C   UNL     1      -2.664   5.006  -3.302  1.00  0.00     0.229 C 
ATOM      5  O   UNL     1      -3.740   5.289  -2.761  1.00  0.00    -0.274 OA
ATOM      6  H   UNL     1      -3.448   5.531  -5.039  1.00  0.00     0.163 HD
BRANCH   4   7
ATOM      7  C   UNL     1      -1.497   4.442  -2.459  1.00  0.00     0.135 C 
ATOM      8  N   UNL     1       0.228   2.544  -2.358  1.00  0.00    -0.329 N 
ATOM      9  C   UNL     1       1.173   3.345  -3.030  1.00  0.00     0.254 C 
ATOM     10  C   UNL     1      -1.264   2.861  -2.526  1.00  0.00     0.059 C 
ATOM     11  O   UNL     1       2.221   2.917  -3.505  1.00  0.00    -0.269 OA
ATOM     12  C   UNL     1       0.939   4.803  -3.043  1.00  0.00     0.044 A 
ATOM     13  C   UNL     1      -1.682   2.229  -3.875  1.00  0.00     0.030 C 
ATOM     14  C   UNL     1      -2.134   2.185  -1.426  1.00  0.00     0.030 C 
ATOM     15  C   UNL     1       1.987   5.663  -3.413  1.00  0.00     0.014 A 
ATOM     16  C   UNL     1      -0.283   5.332  -2.646  1.00  0.00    -0.020 A 
ATOM     17  C   UNL     1      -3.177   2.088  -4.177  1.00  0.00     0.002 C 
ATOM     18  C   UNL     1      -3.638   2.169  -1.694  1.00  0.00     0.002 C 
ATOM     19  C   UNL     1       1.832   7.047  -3.337  1.00  0.00     0.001 A 
ATOM     20  C   UNL     1      -0.407   6.732  -2.510  1.00  0.00     0.005 A 
ATOM     21  C   UNL     1      -3.961   1.492  -3.020  1.00  0.00     0.000 C 
ATOM     22  C   UNL     1       0.641   7.582  -2.861  1.00  0.00     0.000 A 
BRANCH   8  23
ATOM     23  C   UNL     1       0.793   1.262  -1.830  1.00  0.00     0.082 C 
ATOM     24  C   UNL     1       0.578   1.029  -0.334  1.00  0.00     0.031 C 
BRANCH  23  25
ATOM     25  C   UNL     1       0.667   0.017  -2.737  1.00  0.00     0.021 C 
ATOM     26  C   UNL     1      -0.505  -0.925  -2.496  1.00  0.00     0.006 C 
ENDBRANCH  23  25
ENDBRANCH   8  23
ENDBRANCH   4   7
ENDBRANCH   2   3
ENDBRANCH   1   2
BRANCH   1  27
ATOM     27  C   UNL     1      -3.046   4.270  -7.460  1.00  0.00     0.023 C 
BRANCH  27  28
ATOM     28  C   UNL     1      -3.198   5.559  -8.233  1.00  0.00     0.116 C 
BRANCH  28  29
ATOM     29  N   UNL     1      -2.226   5.664  -9.317  1.00  0.00    -0.352 N 
ATOM     30  C   UNL     1      -2.459   5.837 -10.660  1.00  0.00     0.251 C 
ATOM     31  H   UNL     1      -1.280   5.602  -9.052  1.00  0.00     0.163 HD
ATOM     32  O   UNL     1      -1.559   5.712 -11.483  1.00  0.00    -0.269 OA
BRANCH  30  33
ATOM     33  C   UNL     1      -3.833   6.151 -11.089  1.00  0.00     0.039 A 
ATOM     34  C   UNL     1      -4.562   7.103 -10.376  1.00  0.00     0.014 A 
ATOM     35  C   UNL     1      -4.422   5.422 -12.123  1.00  0.00     0.014 A 
ATOM     36  C   UNL     1      -5.931   7.172 -10.552  1.00  0.00     0.010 A 
ATOM     37  C   UNL     1      -5.781   5.596 -12.389  1.00  0.00     0.010 A 
ATOM     38  C   UNL     1      -6.554   6.438 -11.575  1.00  0.00    -0.014 A 
BRANCH  38  39
ATOM     39  C   UNL     1      -8.013   6.605 -11.778  1.00  0.00     0.031 A 
ATOM     40  C   UNL     1      -8.957   5.449 -11.615  1.00  0.00     0.074 A 
ATOM     41  C   UNL     1      -8.481   7.843 -12.032  1.00  0.00     0.049 A 
ATOM     42  N   UNL     1     -10.257   5.421 -11.775  1.00  0.00    -0.248 NA
ATOM     43  C   UNL     1      -8.376   4.153 -11.228  1.00  0.00     0.031 C 
ATOM     44  C   UNL     1      -7.649   9.041 -12.178  1.00  0.00     0.029 A 
ATOM     45  N   UNL     1      -9.761   8.312 -12.165  1.00  0.00    -0.354 N 
ATOM     46  C   UNL     1     -10.642   4.108 -11.542  1.00  0.00     0.074 A 
ATOM     47  C   UNL     1      -9.440   3.361 -11.241  1.00  0.00     0.031 C 
ATOM     48  C   UNL     1      -8.440  10.116 -12.286  1.00  0.00     0.029 A 
ATOM     49  C   UNL     1      -9.827   9.675 -12.322  1.00  0.00     0.049 A 
ATOM     50  H   UNL     1     -10.555   7.730 -12.150  1.00  0.00     0.167 HD
ATOM     51  C   UNL     1     -11.890   3.583 -11.574  1.00  0.00     0.037 A 
ATOM     52  C   UNL     1     -10.889  10.481 -12.500  1.00  0.00     0.037 A 
ATOM     53  C   UNL     1     -13.080   4.348 -11.844  1.00  0.00     0.049 A 
ATOM     54  C   UNL     1     -12.252   9.863 -12.572  1.00  0.00     0.074 A 
ATOM     55  C   UNL     1     -14.391   3.912 -11.910  1.00  0.00     0.029 A 
ATOM     56  N   UNL     1     -13.101   5.716 -12.077  1.00  0.00    -0.354 N 
ATOM     57  N   UNL     1     -12.598   8.610 -12.405  1.00  0.00    -0.248 NA
ATOM     58  C   UNL     1     -13.368  10.763 -12.887  1.00  0.00     0.031 C 
ATOM     59  C   UNL     1     -15.202   5.009 -12.215  1.00  0.00     0.029 A 
ATOM     60  C   UNL     1     -14.402   6.138 -12.298  1.00  0.00     0.049 A 
ATOM     61  H   UNL     1     -12.309   6.301 -12.084  1.00  0.00     0.167 HD
ATOM     62  C   UNL     1     -13.970   8.567 -12.595  1.00  0.00     0.074 A 
ATOM     63  C   UNL     1     -14.397   9.927 -12.862  1.00  0.00     0.031 C 
ATOM     64  C   UNL     1     -14.799   7.496 -12.565  1.00  0.00     0.037 A 
BRANCH  51  65
ATOM     65  C   UNL     1     -12.041   2.110 -11.327  1.00  0.00     0.064 A 
ATOM     66  C   UNL     1     -11.909   1.562 -10.043  1.00  0.00     0.173 A 
ATOM     67  C   UNL     1     -12.395   1.247 -12.376  1.00  0.00     0.173 A 
ATOM     68  F   UNL     1     -11.559   2.341  -9.009  1.00  0.00    -0.203 F 
ATOM     69  C   UNL     1     -12.114   0.202  -9.821  1.00  0.00     0.198 A 
ATOM     70  C   UNL     1     -12.623  -0.107 -12.146  1.00  0.00     0.198 A 
ATOM     71  F   UNL     1     -12.539   1.722 -13.622  1.00  0.00    -0.203 F 
ATOM     72  F   UNL     1     -11.955  -0.306  -8.591  1.00  0.00    -0.200 F 
ATOM     73  C   UNL     1     -12.480  -0.629 -10.869  1.00  0.00     0.200 A 
ATOM     74  F   UNL     1     -12.987  -0.906 -13.158  1.00  0.00    -0.200 F 
ATOM     75  F   UNL     1     -12.693  -1.934 -10.650  1.00  0.00    -0.200 F 
ENDBRANCH  51  65
BRANCH  52  76
ATOM     76  C   UNL     1     -10.685  11.945 -12.636  1.00  0.00     0.064 A 
ATOM     77  C   UNL     1     -11.111  12.824 -11.633  1.00  0.00     0.173 A 
ATOM     78  C   UNL     1     -10.016  12.490 -13.742  1.00  0.00     0.173 A 
ATOM     79  F   UNL     1     -11.770  12.351 -10.564  1.00  0.00    -0.203 F 
ATOM     80  C   UNL     1     -10.876  14.193 -11.730  1.00  0.00     0.198 A 
ATOM     81  C   UNL     1      -9.754  13.855 -13.825  1.00  0.00     0.198 A 
ATOM     82  F   UNL     1      -9.582  11.689 -14.727  1.00  0.00    -0.203 F 
ATOM     83  F   UNL     1     -11.314  15.017 -10.768  1.00  0.00    -0.200 F 
ATOM     84  C   UNL     1     -10.187  14.706 -12.820  1.00  0.00     0.200 A 
ATOM     85  F   UNL     1      -9.070  14.342 -14.869  1.00  0.00    -0.200 F 
ATOM     86  F   UNL     1      -9.942  16.021 -12.903  1.00  0.00    -0.200 F 
ENDBRANCH  52  76
BRANCH  64  87
ATOM     87  C   UNL     1     -16.252   7.756 -12.820  1.00  0.00     0.064 A 
ATOM     88  C   UNL     1     -16.726   8.018 -14.113  1.00  0.00     0.173 A 
ATOM     89  C   UNL     1     -17.181   7.690 -11.773  1.00  0.00     0.173 A 
ATOM     90  F   UNL     1     -15.870   8.107 -15.142  1.00  0.00    -0.203 F 
ATOM     91  C   UNL     1     -18.083   8.220 -14.346  1.00  0.00     0.198 A 
ATOM     92  C   UNL     1     -18.540   7.868 -12.014  1.00  0.00     0.198 A 
ATOM     93  F   UNL     1     -16.773   7.437 -10.521  1.00  0.00    -0.203 F 
ATOM     94  F   UNL     1     -18.513   8.505 -15.583  1.00  0.00    -0.200 F 
ATOM     95  C   UNL     1     -18.989   8.137 -13.299  1.00  0.00     0.200 A 
ATOM     96  F   UNL     1     -19.415   7.777 -11.004  1.00  0.00    -0.200 F 
ATOM     97  F   UNL     1     -20.296   8.322 -13.527  1.00  0.00    -0.200 F 
ENDBRANCH  64  87
ENDBRANCH  38  39
ENDBRANCH  30  33
ENDBRANCH  28  29
ENDBRANCH  27  28
ENDBRANCH   1  27
TORSDOF 13
