REMARK SMILES Cc1ccccc1/[NH+]=C1\S[C@@H](CC(=O)Nc2ccc(C(=O)NCCCCNC(=O)c3ccc(-c4c5nc(c(-c6c(F)c(F)c(F)c(F)c6F)c6ccc([nH]6)c(-c6c(F)c(F)c(F)c(F)c6F)c6nc(c(-c7c(F)c(F)c(F)c(F)c7F)c7ccc4[nH]7)C=C6)C=C5)cc3)cc2)C(=O)N1C
REMARK SMILES IDX 23 1 22 2 20 3 21 4 19 6 16 7 17 8 94 9 18 10 93 11 15 12
REMARK SMILES IDX 13 13 14 14 12 16 11 17 8 18 9 19 10 21 97 22 95 23 98 24
REMARK SMILES IDX 96 25 7 26 1 27 2 28 3 29 4 30 6 31 5 32 24 33 25 34 26 35
REMARK SMILES IDX 27 36 28 37 29 39 30 40 31 41 92 42 32 43 91 44 33 45 34 46
REMARK SMILES IDX 35 47 85 48 36 49 90 50 84 51 86 52 37 53 89 54 83 55 82 56
REMARK SMILES IDX 38 58 70 59 50 60 69 61 51 62 54 63 68 64 87 65 52 66 53 67
REMARK SMILES IDX 67 69 88 70 55 71 39 72 40 73 48 74 41 75 42 76 46 77 49 78
REMARK SMILES IDX 43 79 44 80 47 81 45 82 71 83 72 84 80 85 73 86 74 87 78 88
REMARK SMILES IDX 81 89 75 90 76 91 79 92 77 93 56 94 57 95 65 96 58 97 59 98
REMARK SMILES IDX 63 99 66 100 60 101 61 102 64 103 62 104
REMARK H PARENT 22 5 15 15 8 20 27 38 86 57 54 68
REMARK Flexibility Score: inf
ROOT
ATOM      1  C   UNL     1       2.804   5.637  -2.771  1.00  0.00     0.116 C 
ENDROOT
BRANCH   1   2
ATOM      2  N   UNL     1       3.951   6.295  -3.391  1.00  0.00    -0.352 N 
ATOM      3  C   UNL     1       5.316   6.210  -3.209  1.00  0.00     0.251 C 
ATOM      4  O   UNL     1       6.033   6.743  -4.058  1.00  0.00    -0.269 OA
ATOM      5  H   UNL     1       3.695   6.938  -4.091  1.00  0.00     0.163 HD
BRANCH   3   6
ATOM      6  C   UNL     1       5.972   5.516  -2.065  1.00  0.00     0.039 A 
ATOM      7  C   UNL     1       7.265   4.116   0.018  1.00  0.00     0.041 A 
ATOM      8  C   UNL     1       5.964   4.581   0.145  1.00  0.00     0.027 A 
ATOM      9  C   UNL     1       8.000   4.516  -1.085  1.00  0.00     0.027 A 
ATOM     10  C   UNL     1       5.311   5.249  -0.880  1.00  0.00     0.016 A 
ATOM     11  C   UNL     1       7.348   5.201  -2.130  1.00  0.00     0.016 A 
BRANCH   7  12
ATOM     12  N   UNL     1       7.803   3.279   1.008  1.00  0.00    -0.326 N 
ATOM     13  C   UNL     1       7.159   2.214   1.610  1.00  0.00     0.226 C 
ATOM     14  O   UNL     1       7.583   1.724   2.656  1.00  0.00    -0.275 OA
ATOM     15  H   UNL     1       8.724   3.468   1.300  1.00  0.00     0.169 HD
BRANCH  13  16
ATOM     16  C   UNL     1       6.058   1.524   0.819  1.00  0.00     0.128 C 
BRANCH  16  17
ATOM     17  C   UNL     1       4.676   1.523   1.436  1.00  0.00     0.183 C 
ATOM     18  N   UNL     1       1.055   1.653   1.448  1.00  0.00    -0.234 N 
ATOM     19  C   UNL     1       2.248   1.976   1.102  1.00  0.00     0.319 C 
ATOM     20  H   UNL     1       0.610   2.299   2.043  1.00  0.00     0.313 HD
ATOM     21  S   UNL     1       3.437   1.201   0.117  1.00  0.00    -0.022 SA
ATOM     22  N   UNL     1       2.858   3.067   1.635  1.00  0.00    -0.193 N 
ATOM     23  C   UNL     1       4.145   2.808   2.071  1.00  0.00     0.324 C 
ATOM     24  C   UNL     1       2.191   4.323   1.901  1.00  0.00     0.301 C 
ATOM     25  O   UNL     1       4.732   3.458   2.909  1.00  0.00    -0.245 OA
BRANCH  18  26
ATOM     26  C   UNL     1       0.279   0.531   1.117  1.00  0.00     0.128 A 
ATOM     27  C   UNL     1       2.043  -1.364   0.950  1.00  0.00     0.049 C 
ATOM     28  C   UNL     1       0.659  -0.795   0.835  1.00  0.00    -0.004 A 
ATOM     29  C   UNL     1      -0.326  -1.727   0.438  1.00  0.00     0.008 A 
ATOM     30  C   UNL     1      -1.679  -1.408   0.441  1.00  0.00     0.001 A 
ATOM     31  C   UNL     1      -1.105   0.799   1.183  1.00  0.00     0.052 A 
ATOM     32  C   UNL     1      -2.075  -0.148   0.852  1.00  0.00     0.004 A 
ENDBRANCH  18  26
ENDBRANCH  16  17
ENDBRANCH  13  16
ENDBRANCH   7  12
ENDBRANCH   3   6
ENDBRANCH   1   2
BRANCH   1  33
ATOM     33  C   UNL     1       2.058   6.520  -1.751  1.00  0.00     0.023 C 
BRANCH  33  34
ATOM     34  C   UNL     1       1.247   7.684  -2.333  1.00  0.00     0.023 C 
BRANCH  34  35
ATOM     35  C   UNL     1       0.041   7.258  -3.164  1.00  0.00     0.116 C 
BRANCH  35  36
ATOM     36  N   UNL     1      -1.274   7.497  -2.570  1.00  0.00    -0.352 N 
ATOM     37  C   UNL     1      -2.526   7.192  -3.096  1.00  0.00     0.251 C 
ATOM     38  H   UNL     1      -1.274   7.929  -1.685  1.00  0.00     0.163 HD
ATOM     39  O   UNL     1      -3.553   7.475  -2.490  1.00  0.00    -0.269 OA
BRANCH  37  40
ATOM     40  C   UNL     1      -2.598   6.386  -4.342  1.00  0.00     0.039 A 
ATOM     41  C   UNL     1      -3.340   5.201  -4.319  1.00  0.00     0.014 A 
ATOM     42  C   UNL     1      -1.695   6.629  -5.370  1.00  0.00     0.014 A 
ATOM     43  C   UNL     1      -2.942   4.141  -5.131  1.00  0.00     0.010 A 
ATOM     44  C   UNL     1      -1.208   5.550  -6.073  1.00  0.00     0.010 A 
ATOM     45  C   UNL     1      -1.788   4.291  -5.899  1.00  0.00    -0.014 A 
BRANCH  45  46
ATOM     46  C   UNL     1      -1.122   3.194  -6.582  1.00  0.00     0.031 A 
ATOM     47  C   UNL     1      -1.420   2.962  -7.999  1.00  0.00     0.074 A 
ATOM     48  C   UNL     1      -0.175   2.461  -5.959  1.00  0.00     0.049 A 
ATOM     49  N   UNL     1      -1.332   1.821  -8.587  1.00  0.00    -0.248 NA
ATOM     50  C   UNL     1      -1.869   4.035  -8.873  1.00  0.00     0.031 C 
ATOM     51  C   UNL     1       0.707   1.446  -6.532  1.00  0.00     0.029 A 
ATOM     52  N   UNL     1       0.008   2.322  -4.582  1.00  0.00    -0.354 N 
ATOM     53  C   UNL     1      -1.369   2.060  -9.941  1.00  0.00     0.074 A 
ATOM     54  C   UNL     1      -1.805   3.432 -10.062  1.00  0.00     0.031 C 
ATOM     55  C   UNL     1       1.032   0.566  -5.569  1.00  0.00     0.029 A 
ATOM     56  C   UNL     1       0.289   0.947  -4.385  1.00  0.00     0.049 A 
ATOM     57  H   UNL     1      -0.047   3.027  -3.896  1.00  0.00     0.167 HD
ATOM     58  C   UNL     1      -0.850   1.119 -10.783  1.00  0.00     0.037 A 
ATOM     59  C   UNL     1      -0.557   0.159  -3.660  1.00  0.00     0.037 A 
ATOM     60  C   UNL     1      -0.476  -0.091 -10.044  1.00  0.00     0.049 A 
ATOM     61  C   UNL     1      -1.092  -0.998  -4.462  1.00  0.00     0.074 A 
ATOM     62  C   UNL     1       0.738  -0.553  -9.559  1.00  0.00     0.029 A 
ATOM     63  N   UNL     1      -1.462  -0.830  -9.389  1.00  0.00    -0.354 N 
ATOM     64  N   UNL     1      -1.103  -1.004  -5.767  1.00  0.00    -0.248 NA
ATOM     65  C   UNL     1      -1.650  -2.221  -3.892  1.00  0.00     0.031 C 
ATOM     66  C   UNL     1       0.474  -1.509  -8.546  1.00  0.00     0.029 A 
ATOM     67  C   UNL     1      -0.898  -1.645  -8.424  1.00  0.00     0.049 A 
ATOM     68  H   UNL     1      -2.425  -0.777  -9.585  1.00  0.00     0.167 HD
ATOM     69  C   UNL     1      -1.619  -2.187  -6.214  1.00  0.00     0.074 A 
ATOM     70  C   UNL     1      -1.953  -2.916  -5.003  1.00  0.00     0.031 C 
ATOM     71  C   UNL     1      -1.716  -2.471  -7.546  1.00  0.00     0.037 A 
BRANCH  58  72
ATOM     72  C   UNL     1      -0.367   1.450 -12.182  1.00  0.00     0.064 A 
ATOM     73  C   UNL     1       0.737   0.773 -12.748  1.00  0.00     0.173 A 
ATOM     74  C   UNL     1      -0.896   2.474 -12.990  1.00  0.00     0.173 A 
ATOM     75  F   UNL     1       1.282  -0.296 -12.157  1.00  0.00    -0.203 F 
ATOM     76  C   UNL     1       1.329   1.170 -13.951  1.00  0.00     0.198 A 
ATOM     77  C   UNL     1      -0.269   2.911 -14.163  1.00  0.00     0.198 A 
ATOM     78  F   UNL     1      -2.072   3.045 -12.708  1.00  0.00    -0.203 F 
ATOM     79  F   UNL     1       2.380   0.489 -14.429  1.00  0.00    -0.200 F 
ATOM     80  C   UNL     1       0.851   2.264 -14.639  1.00  0.00     0.200 A 
ATOM     81  F   UNL     1      -0.766   3.963 -14.829  1.00  0.00    -0.200 F 
ATOM     82  F   UNL     1       1.444   2.671 -15.769  1.00  0.00    -0.200 F 
ENDBRANCH  58  72
BRANCH  59  83
ATOM     83  C   UNL     1      -1.280   0.956  -2.628  1.00  0.00     0.064 A 
ATOM     84  C   UNL     1      -0.475   1.799  -1.826  1.00  0.00     0.173 A 
ATOM     85  C   UNL     1      -2.640   1.260  -2.711  1.00  0.00     0.173 A 
ATOM     86  F   UNL     1       0.843   1.558  -1.725  1.00  0.00    -0.203 F 
ATOM     87  C   UNL     1      -0.956   2.993  -1.308  1.00  0.00     0.198 A 
ATOM     88  C   UNL     1      -3.135   2.436  -2.134  1.00  0.00     0.198 A 
ATOM     89  F   UNL     1      -3.466   0.507  -3.450  1.00  0.00    -0.203 F 
ATOM     90  F   UNL     1      -0.108   3.860  -0.733  1.00  0.00    -0.200 F 
ATOM     91  C   UNL     1      -2.284   3.322  -1.481  1.00  0.00     0.200 A 
ATOM     92  F   UNL     1      -4.420   2.774  -2.316  1.00  0.00    -0.200 F 
ATOM     93  F   UNL     1      -2.731   4.516  -1.070  1.00  0.00    -0.200 F 
ENDBRANCH  59  83
BRANCH  71  94
ATOM     94  C   UNL     1      -2.472  -3.638  -8.116  1.00  0.00     0.064 A 
ATOM     95  C   UNL     1      -3.621  -4.179  -7.517  1.00  0.00     0.173 A 
ATOM     96  C   UNL     1      -2.121  -4.178  -9.374  1.00  0.00     0.173 A 
ATOM     97  F   UNL     1      -4.133  -3.654  -6.395  1.00  0.00    -0.203 F 
ATOM     98  C   UNL     1      -4.311  -5.252  -8.085  1.00  0.00     0.198 A 
ATOM     99  C   UNL     1      -2.846  -5.209  -9.966  1.00  0.00     0.198 A 
ATOM    100  F   UNL     1      -1.077  -3.706 -10.072  1.00  0.00    -0.203 F 
ATOM    101  F   UNL     1      -5.365  -5.775  -7.444  1.00  0.00    -0.200 F 
ATOM    102  C   UNL     1      -3.926  -5.763  -9.310  1.00  0.00     0.200 A 
ATOM    103  F   UNL     1      -2.499  -5.653 -11.183  1.00  0.00    -0.200 F 
ATOM    104  F   UNL     1      -4.607  -6.774  -9.865  1.00  0.00    -0.200 F 
ENDBRANCH  71  94
ENDBRANCH  45  46
ENDBRANCH  37  40
ENDBRANCH  35  36
ENDBRANCH  34  35
ENDBRANCH  33  34
ENDBRANCH   1  33
TORSDOF 15
