REMARK SMILES C[C@H]1Oc2ccccc2C=C1/C=C\C(=O)N[C@H](C(=O)NCCCCNC(=O)c1ccc(-c2c3nc(c(-c4c(F)c(F)c(F)c(F)c4F)c4ccc([nH]4)c(-c4c(F)c(F)c(F)c(F)c4F)c4nc(c(-c5c(F)c(F)c(F)c(F)c5F)c5ccc2[nH]5)C=C4)C=C3)cc1)c1ccccc1
REMARK SMILES IDX 22 1 21 2 20 3 18 4 19 5 17 7 16 8 14 9 15 10 13 12 12 13
REMARK SMILES IDX 11 14 1 15 2 16 3 17 4 18 10 19 5 20 9 21 6 22 8 23 7 24
REMARK SMILES IDX 91 25 92 26 96 27 93 28 95 29 94 30 23 31 24 32 25 33 26 34
REMARK SMILES IDX 27 36 28 37 29 38 90 39 30 40 89 41 31 42 32 43 33 44 83 45
REMARK SMILES IDX 34 46 88 47 82 48 84 49 35 50 87 51 81 52 80 53 36 55 68 56
REMARK SMILES IDX 48 57 67 58 49 59 52 60 66 61 85 62 50 63 51 64 65 66 86 67
REMARK SMILES IDX 53 68 37 69 38 70 46 71 39 72 40 73 44 74 47 75 41 76 42 77
REMARK SMILES IDX 45 78 43 79 69 80 70 81 78 82 71 83 72 84 76 85 79 86 73 87
REMARK SMILES IDX 74 88 77 89 75 90 54 91 55 92 63 93 56 94 57 95 61 96 64 97
REMARK SMILES IDX 58 98 59 99 62 100 60 101
REMARK H PARENT 20 6 16 11 25 35 84 54 52 65
REMARK Flexibility Score: inf
ROOT
ATOM      1  C   UNL     1       3.775  -3.825   0.960  1.00  0.00     0.023 C 
ENDROOT
BRANCH   1   2
ATOM      2  C   UNL     1       4.203  -1.851   0.866  1.00  0.00     0.116 C 
BRANCH   2   3
ATOM      3  N   UNL     1       5.507  -1.241  -0.327  1.00  0.00    -0.354 N 
ATOM      4  C   UNL     1       5.886  -1.390  -1.848  1.00  0.00     0.247 C 
ATOM      5  O   UNL     1       6.961  -1.939  -2.125  1.00  0.00    -0.272 OA
ATOM      6  H   UNL     1       6.147  -0.651   0.133  1.00  0.00     0.163 HD
BRANCH   4   7
ATOM      7  C   UNL     1       4.841  -0.969  -3.007  1.00  0.00     0.202 C 
BRANCH   7   8
ATOM      8  N   UNL     1       4.280   0.188  -2.388  1.00  0.00    -0.337 N 
ATOM      9  C   UNL     1       3.447  -0.013  -1.326  1.00  0.00     0.244 C 
ATOM     10  O   UNL     1       3.122   0.880  -0.561  1.00  0.00    -0.270 OA
ATOM     11  H   UNL     1       4.485   1.094  -2.714  1.00  0.00     0.164 HD
BRANCH   9  12
ATOM     12  C   UNL     1       2.923  -1.434  -1.258  1.00  0.00     0.071 C 
ATOM     13  C   UNL     1       3.553  -2.665  -1.252  1.00  0.00     0.013 C 
BRANCH  13  14
ATOM     14  C   UNL     1       4.965  -3.528  -0.567  1.00  0.00    -0.007 C 
ATOM     15  C   UNL     1       4.669  -5.934  -2.078  1.00  0.00     0.058 C 
ATOM     16  C   UNL     1       4.007  -5.122  -0.955  1.00  0.00     0.200 C 
ATOM     17  O   UNL     1       3.432  -6.035   0.321  1.00  0.00    -0.485 OA
ATOM     18  C   UNL     1       3.827  -5.888   1.857  1.00  0.00     0.127 A 
ATOM     19  C   UNL     1       5.612  -3.399   1.063  1.00  0.00     0.019 C 
ATOM     20  C   UNL     1       3.517  -7.097   2.459  1.00  0.00     0.047 A 
ATOM     21  C   UNL     1       4.862  -4.642   2.456  1.00  0.00     0.017 A 
ATOM     22  C   UNL     1       4.087  -7.270   3.696  1.00  0.00     0.004 A 
ATOM     23  C   UNL     1       5.078  -4.875   3.803  1.00  0.00     0.012 A 
ATOM     24  C   UNL     1       4.763  -6.192   4.353  1.00  0.00     0.001 A 
ENDBRANCH  13  14
ENDBRANCH   9  12
ENDBRANCH   7   8
BRANCH   7  25
ATOM     25  C   UNL     1       4.743  -0.977  -4.571  1.00  0.00    -0.016 A 
ATOM     26  C   UNL     1       4.464  -2.197  -5.263  1.00  0.00     0.006 A 
ATOM     27  C   UNL     1       4.339   0.193  -5.256  1.00  0.00     0.006 A 
ATOM     28  C   UNL     1       3.782  -2.232  -6.505  1.00  0.00     0.000 A 
ATOM     29  C   UNL     1       3.666   0.157  -6.499  1.00  0.00     0.000 A 
ATOM     30  C   UNL     1       3.373  -1.053  -7.117  1.00  0.00     0.000 A 
ENDBRANCH   7  25
ENDBRANCH   4   7
ENDBRANCH   2   3
ENDBRANCH   1   2
BRANCH   1  31
ATOM     31  C   UNL     1       5.459  -5.223   0.639  1.00  0.00     0.023 C 
BRANCH  31  32
ATOM     32  C   UNL     1       7.096  -5.165   1.610  1.00  0.00     0.116 C 
BRANCH  32  33
ATOM     33  N   UNL     1       7.518  -3.987   2.564  1.00  0.00    -0.352 N 
ATOM     34  C   UNL     1       7.839  -3.954   3.917  1.00  0.00     0.251 C 
ATOM     35  H   UNL     1       7.564  -3.109   2.120  1.00  0.00     0.163 HD
ATOM     36  O   UNL     1       7.688  -2.983   4.644  1.00  0.00    -0.269 OA
BRANCH  34  37
ATOM     37  C   UNL     1       8.508  -5.152   4.381  1.00  0.00     0.039 A 
ATOM     38  C   UNL     1       9.469  -5.523   3.456  1.00  0.00     0.014 A 
ATOM     39  C   UNL     1       8.071  -5.973   5.423  1.00  0.00     0.014 A 
ATOM     40  C   UNL     1       9.721  -6.845   3.328  1.00  0.00     0.010 A 
ATOM     41  C   UNL     1       8.540  -7.280   5.435  1.00  0.00     0.010 A 
ATOM     42  C   UNL     1       9.328  -7.711   4.358  1.00  0.00    -0.014 A 
BRANCH  42  43
ATOM     43  C   UNL     1       9.977  -9.016   4.292  1.00  0.00     0.031 A 
ATOM     44  C   UNL     1       9.217 -10.229   3.911  1.00  0.00     0.074 A 
ATOM     45  C   UNL     1      11.321  -8.961   4.349  1.00  0.00     0.049 A 
ATOM     46  N   UNL     1       9.688 -11.413   3.635  1.00  0.00    -0.248 NA
ATOM     47  C   UNL     1       7.752 -10.118   3.829  1.00  0.00     0.031 C 
ATOM     48  C   UNL     1      12.095  -7.741   4.639  1.00  0.00     0.029 A 
ATOM     49  N   UNL     1      12.268  -9.891   4.058  1.00  0.00    -0.354 N 
ATOM     50  C   UNL     1       8.582 -12.202   3.377  1.00  0.00     0.074 A 
ATOM     51  C   UNL     1       7.410 -11.367   3.534  1.00  0.00     0.031 C 
ATOM     52  C   UNL     1      13.385  -7.971   4.391  1.00  0.00     0.029 A 
ATOM     53  C   UNL     1      13.540  -9.383   4.089  1.00  0.00     0.049 A 
ATOM     54  H   UNL     1      12.062 -10.831   3.847  1.00  0.00     0.167 HD
ATOM     55  C   UNL     1       8.584 -13.513   3.049  1.00  0.00     0.037 A 
ATOM     56  C   UNL     1      14.715 -10.008   3.941  1.00  0.00     0.037 A 
ATOM     57  C   UNL     1       9.793 -14.285   2.898  1.00  0.00     0.049 A 
ATOM     58  C   UNL     1      14.672 -11.472   3.655  1.00  0.00     0.074 A 
ATOM     59  C   UNL     1       9.925 -15.620   2.571  1.00  0.00     0.029 A 
ATOM     60  N   UNL     1      11.081 -13.785   3.071  1.00  0.00    -0.354 N 
ATOM     61  N   UNL     1      13.627 -12.232   3.433  1.00  0.00    -0.248 NA
ATOM     62  C   UNL     1      15.956 -12.169   3.616  1.00  0.00     0.031 C 
ATOM     63  C   UNL     1      11.283 -15.946   2.618  1.00  0.00     0.029 A 
ATOM     64  C   UNL     1      12.010 -14.799   2.898  1.00  0.00     0.049 A 
ATOM     65  H   UNL     1      11.300 -12.850   3.286  1.00  0.00     0.167 HD
ATOM     66  C   UNL     1      14.122 -13.506   3.228  1.00  0.00     0.074 A 
ATOM     67  C   UNL     1      15.568 -13.401   3.316  1.00  0.00     0.031 C 
ATOM     68  C   UNL     1      13.444 -14.657   3.000  1.00  0.00     0.037 A 
BRANCH  55  69
ATOM     69  C   UNL     1       7.263 -14.203   2.881  1.00  0.00     0.064 A 
ATOM     70  C   UNL     1       6.412 -13.935   1.800  1.00  0.00     0.173 A 
ATOM     71  C   UNL     1       6.875 -15.202   3.788  1.00  0.00     0.173 A 
ATOM     72  F   UNL     1       6.724 -12.976   0.915  1.00  0.00    -0.203 F 
ATOM     73  C   UNL     1       5.221 -14.638   1.635  1.00  0.00     0.198 A 
ATOM     74  C   UNL     1       5.700 -15.925   3.602  1.00  0.00     0.198 A 
ATOM     75  F   UNL     1       7.648 -15.495   4.844  1.00  0.00    -0.203 F 
ATOM     76  F   UNL     1       4.407 -14.342   0.612  1.00  0.00    -0.200 F 
ATOM     77  C   UNL     1       4.873 -15.641   2.527  1.00  0.00     0.200 A 
ATOM     78  F   UNL     1       5.375 -16.903   4.459  1.00  0.00    -0.200 F 
ATOM     79  F   UNL     1       3.737 -16.331   2.353  1.00  0.00    -0.200 F 
ENDBRANCH  55  69
BRANCH  56  80
ATOM     80  C   UNL     1      15.967  -9.239   4.126  1.00  0.00     0.064 A 
ATOM     81  C   UNL     1      16.837  -9.008   3.057  1.00  0.00     0.173 A 
ATOM     82  C   UNL     1      16.263  -8.629   5.359  1.00  0.00     0.173 A 
ATOM     83  F   UNL     1      16.594  -9.568   1.863  1.00  0.00    -0.203 F 
ATOM     84  C   UNL     1      17.957  -8.195   3.211  1.00  0.00     0.198 A 
ATOM     85  C   UNL     1      17.359  -7.784   5.499  1.00  0.00     0.198 A 
ATOM     86  F   UNL     1      15.447  -8.801   6.410  1.00  0.00    -0.203 F 
ATOM     87  F   UNL     1      18.788  -8.004   2.178  1.00  0.00    -0.200 F 
ATOM     88  C   UNL     1      18.209  -7.573   4.427  1.00  0.00     0.200 A 
ATOM     89  F   UNL     1      17.574  -7.157   6.664  1.00  0.00    -0.200 F 
ATOM     90  F   UNL     1      19.270  -6.766   4.562  1.00  0.00    -0.200 F 
ENDBRANCH  56  80
BRANCH  68  91
ATOM     91  C   UNL     1      14.271 -15.894   2.821  1.00  0.00     0.064 A 
ATOM     92  C   UNL     1      14.957 -16.477   3.896  1.00  0.00     0.173 A 
ATOM     93  C   UNL     1      14.332 -16.532   1.573  1.00  0.00     0.173 A 
ATOM     94  F   UNL     1      14.945 -15.891   5.103  1.00  0.00    -0.203 F 
ATOM     95  C   UNL     1      15.692 -17.644   3.722  1.00  0.00     0.198 A 
ATOM     96  C   UNL     1      15.034 -17.720   1.413  1.00  0.00     0.198 A 
ATOM     97  F   UNL     1      13.688 -16.014   0.516  1.00  0.00    -0.203 F 
ATOM     98  F   UNL     1      16.383 -18.157   4.750  1.00  0.00    -0.200 F 
ATOM     99  C   UNL     1      15.719 -18.272   2.486  1.00  0.00     0.200 A 
ATOM    100  F   UNL     1      15.043 -18.336   0.223  1.00  0.00    -0.200 F 
ATOM    101  F   UNL     1      16.411 -19.408   2.325  1.00  0.00    -0.200 F 
ENDBRANCH  68  91
ENDBRANCH  42  43
ENDBRANCH  34  37
ENDBRANCH  32  33
ENDBRANCH  31  32
ENDBRANCH   1  31
TORSDOF 15
