REMARK SMILES COCCOc1ccc([C@H]([NH3+])C(=O)NCCCCNC(=O)c2ccc(-c3c4nc(c(-c5c(F)c(F)c(F)c(F)c5F)c5ccc([nH]5)c(-c5c(F)c(F)c(F)c(F)c5F)c5nc(c(-c6c(F)c(F)c(F)c(F)c6F)c6ccc3[nH]6)C=C5)C=C4)cc2)cc1OC
REMARK SMILES IDX 15 1 14 2 12 3 13 4 10 6 9 7 6 8 7 9 86 10 8 11 85 12 5 13
REMARK SMILES IDX 4 14 3 15 2 16 1 17 87 18 88 19 11 20 16 24 17 25 18 26
REMARK SMILES IDX 19 27 20 28 21 30 22 31 23 32 84 33 24 34 83 35 25 36 26 37
REMARK SMILES IDX 27 38 77 39 28 40 82 41 76 42 78 43 29 44 81 45 75 46 74 47
REMARK SMILES IDX 30 49 62 50 42 51 61 52 43 53 46 54 60 55 79 56 44 57 45 58
REMARK SMILES IDX 59 60 80 61 47 62 31 63 32 64 40 65 33 66 34 67 38 68 41 69
REMARK SMILES IDX 35 70 36 71 39 72 37 73 63 74 64 75 72 76 65 77 66 78 70 79
REMARK SMILES IDX 73 80 67 81 68 82 71 83 69 84 48 85 49 86 57 87 50 88 51 89
REMARK SMILES IDX 55 90 58 91 52 92 53 93 56 94 54 95
REMARK H PARENT 14 5 11 21 11 22 11 23 19 29 78 48 46 59
REMARK Flexibility Score: inf
ROOT
ATOM      1  C   UNL     1      -0.551   2.778   3.969  1.00  0.00     0.116 C 
ENDROOT
BRANCH   1   2
ATOM      2  N   UNL     1      -1.410   1.687   4.402  1.00  0.00    -0.351 N 
ATOM      3  C   UNL     1      -1.097   0.372   4.648  1.00  0.00     0.283 C 
ATOM      4  O   UNL     1      -1.931  -0.300   5.261  1.00  0.00    -0.268 OA
ATOM      5  H   UNL     1      -2.355   1.926   4.539  1.00  0.00     0.163 HD
BRANCH   3   6
ATOM      6  C   UNL     1       0.226  -0.248   4.128  1.00  0.00     0.302 C 
BRANCH   6   7
ATOM      7  C   UNL     1       1.514   0.234   4.786  1.00  0.00     0.023 A 
ATOM      8  C   UNL     1       3.981   1.363   5.548  1.00  0.00     0.161 A 
ATOM      9  C   UNL     1       2.789   1.864   6.069  1.00  0.00     0.051 A 
ATOM     10  C   UNL     1       3.950   0.220   4.750  1.00  0.00     0.161 A 
ATOM     11  C   UNL     1       1.571   1.260   5.740  1.00  0.00     0.014 A 
ATOM     12  C   UNL     1       2.729  -0.326   4.355  1.00  0.00     0.061 A 
BRANCH   8  13
ATOM     13  O   UNL     1       5.177   2.005   5.715  1.00  0.00    -0.487 OA
BRANCH  13  14
ATOM     14  C   UNL     1       5.572   2.196   7.076  1.00  0.00     0.258 C 
BRANCH  14  15
ATOM     15  C   UNL     1       6.237   0.940   7.655  1.00  0.00     0.201 C 
BRANCH  15  16
ATOM     16  O   UNL     1       5.386  -0.202   7.762  1.00  0.00    -0.381 OA
ATOM     17  C   UNL     1       4.265  -0.063   8.618  1.00  0.00     0.195 C 
ENDBRANCH  15  16
ENDBRANCH  14  15
ENDBRANCH  13  14
ENDBRANCH   8  13
BRANCH  10  18
ATOM     18  O   UNL     1       5.112  -0.328   4.276  1.00  0.00    -0.493 OA
ATOM     19  C   UNL     1       5.392  -1.574   4.921  1.00  0.00     0.278 C 
ENDBRANCH  10  18
ENDBRANCH   6   7
BRANCH   6  20
ATOM     20  N   UNL     1       0.276  -0.094   2.648  1.00  0.00    -0.343 N 
ATOM     21  H   UNL     1       0.306   0.897   2.410  1.00  0.00     0.345 HD
ATOM     22  H   UNL     1      -0.553  -0.519   2.233  1.00  0.00     0.345 HD
ATOM     23  H   UNL     1       1.111  -0.556   2.286  1.00  0.00     0.345 HD
ENDBRANCH   6  20
ENDBRANCH   3   6
ENDBRANCH   1   2
BRANCH   1  24
ATOM     24  C   UNL     1      -1.240   3.740   3.011  1.00  0.00     0.023 C 
BRANCH  24  25
ATOM     25  C   UNL     1      -2.459   4.462   3.585  1.00  0.00     0.023 C 
BRANCH  25  26
ATOM     26  C   UNL     1      -2.237   5.181   4.912  1.00  0.00     0.116 C 
BRANCH  26  27
ATOM     27  N   UNL     1      -1.214   6.214   4.842  1.00  0.00    -0.352 N 
ATOM     28  C   UNL     1      -1.296   7.548   5.162  1.00  0.00     0.251 C 
ATOM     29  H   UNL     1      -0.334   5.913   4.517  1.00  0.00     0.163 HD
ATOM     30  O   UNL     1      -0.361   8.304   4.910  1.00  0.00    -0.269 OA
BRANCH  28  31
ATOM     31  C   UNL     1      -2.527   8.083   5.780  1.00  0.00     0.039 A 
ATOM     32  C   UNL     1      -3.088   9.255   5.266  1.00  0.00     0.014 A 
ATOM     33  C   UNL     1      -3.140   7.420   6.847  1.00  0.00     0.014 A 
ATOM     34  C   UNL     1      -4.306   9.717   5.769  1.00  0.00     0.010 A 
ATOM     35  C   UNL     1      -4.394   7.834   7.288  1.00  0.00     0.010 A 
ATOM     36  C   UNL     1      -4.992   8.985   6.753  1.00  0.00    -0.014 A 
BRANCH  36  37
ATOM     37  C   UNL     1      -6.339   9.402   7.223  1.00  0.00     0.031 A 
ATOM     38  C   UNL     1      -6.558   9.785   8.660  1.00  0.00     0.074 A 
ATOM     39  C   UNL     1      -7.380   9.373   6.368  1.00  0.00     0.049 A 
ATOM     40  N   UNL     1      -7.667  10.123   9.268  1.00  0.00    -0.248 NA
ATOM     41  C   UNL     1      -5.378   9.757   9.538  1.00  0.00     0.031 C 
ATOM     42  C   UNL     1      -7.309   8.970   4.963  1.00  0.00     0.029 A 
ATOM     43  N   UNL     1      -8.705   9.681   6.557  1.00  0.00    -0.354 N 
ATOM     44  C   UNL     1      -7.321  10.335  10.596  1.00  0.00     0.074 A 
ATOM     45  C   UNL     1      -5.913  10.028  10.719  1.00  0.00     0.031 C 
ATOM     46  C   UNL     1      -8.528   9.080   4.411  1.00  0.00     0.029 A 
ATOM     47  C   UNL     1      -9.475   9.521   5.431  1.00  0.00     0.049 A 
ATOM     48  H   UNL     1      -9.069   9.987   7.419  1.00  0.00     0.167 HD
ATOM     49  C   UNL     1      -8.101  10.771  11.614  1.00  0.00     0.037 A 
ATOM     50  C   UNL     1     -10.796   9.700   5.243  1.00  0.00     0.037 A 
ATOM     51  C   UNL     1      -9.499  11.090  11.483  1.00  0.00     0.049 A 
ATOM     52  C   UNL     1     -11.644  10.169   6.394  1.00  0.00     0.074 A 
ATOM     53  C   UNL     1     -10.361  11.597  12.440  1.00  0.00     0.029 A 
ATOM     54  N   UNL     1     -10.242  10.924  10.324  1.00  0.00    -0.354 N 
ATOM     55  N   UNL     1     -11.290  10.443   7.627  1.00  0.00    -0.248 NA
ATOM     56  C   UNL     1     -13.076  10.362   6.126  1.00  0.00     0.031 C 
ATOM     57  C   UNL     1     -11.639  11.681  11.877  1.00  0.00     0.029 A 
ATOM     58  C   UNL     1     -11.561  11.289  10.550  1.00  0.00     0.049 A 
ATOM     59  H   UNL     1      -9.886  10.595   9.467  1.00  0.00     0.167 HD
ATOM     60  C   UNL     1     -12.444  10.867   8.271  1.00  0.00     0.074 A 
ATOM     61  C   UNL     1     -13.507  10.831   7.288  1.00  0.00     0.031 C 
ATOM     62  C   UNL     1     -12.609  11.251   9.561  1.00  0.00     0.037 A 
BRANCH  49  63
ATOM     63  C   UNL     1      -7.457  10.924  12.964  1.00  0.00     0.064 A 
ATOM     64  C   UNL     1      -6.487  11.908  13.212  1.00  0.00     0.173 A 
ATOM     65  C   UNL     1      -7.836  10.097  14.032  1.00  0.00     0.173 A 
ATOM     66  F   UNL     1      -6.080  12.720  12.225  1.00  0.00    -0.203 F 
ATOM     67  C   UNL     1      -5.893  12.031  14.466  1.00  0.00     0.198 A 
ATOM     68  C   UNL     1      -7.267  10.247  15.294  1.00  0.00     0.198 A 
ATOM     69  F   UNL     1      -8.764   9.144  13.854  1.00  0.00    -0.203 F 
ATOM     70  F   UNL     1      -4.926  12.938  14.661  1.00  0.00    -0.200 F 
ATOM     71  C   UNL     1      -6.289  11.206  15.508  1.00  0.00     0.200 A 
ATOM     72  F   UNL     1      -7.661   9.458  16.303  1.00  0.00    -0.200 F 
ATOM     73  F   UNL     1      -5.721  11.330  16.715  1.00  0.00    -0.200 F 
ENDBRANCH  49  63
BRANCH  50  74
ATOM     74  C   UNL     1     -11.395   9.457   3.903  1.00  0.00     0.064 A 
ATOM     75  C   UNL     1     -11.897  10.517   3.135  1.00  0.00     0.173 A 
ATOM     76  C   UNL     1     -11.482   8.165   3.365  1.00  0.00     0.173 A 
ATOM     77  F   UNL     1     -11.856  11.769   3.614  1.00  0.00    -0.203 F 
ATOM     78  C   UNL     1     -12.482  10.292   1.890  1.00  0.00     0.198 A 
ATOM     79  C   UNL     1     -12.038   7.944   2.107  1.00  0.00     0.198 A 
ATOM     80  F   UNL     1     -11.012   7.116   4.056  1.00  0.00    -0.203 F 
ATOM     81  F   UNL     1     -12.997  11.318   1.199  1.00  0.00    -0.200 F 
ATOM     82  C   UNL     1     -12.545   9.006   1.374  1.00  0.00     0.200 A 
ATOM     83  F   UNL     1     -12.082   6.703   1.605  1.00  0.00    -0.200 F 
ATOM     84  F   UNL     1     -13.102   8.791   0.174  1.00  0.00    -0.200 F 
ENDBRANCH  50  74
BRANCH  62  85
ATOM     85  C   UNL     1     -13.982  11.700   9.977  1.00  0.00     0.064 A 
ATOM     86  C   UNL     1     -15.052  10.800  10.091  1.00  0.00     0.173 A 
ATOM     87  C   UNL     1     -14.220  13.045  10.302  1.00  0.00     0.173 A 
ATOM     88  F   UNL     1     -14.882   9.506   9.779  1.00  0.00    -0.203 F 
ATOM     89  C   UNL     1     -16.315  11.235  10.483  1.00  0.00     0.198 A 
ATOM     90  C   UNL     1     -15.475  13.469  10.728  1.00  0.00     0.198 A 
ATOM     91  F   UNL     1     -13.230  13.946  10.219  1.00  0.00    -0.203 F 
ATOM     92  F   UNL     1     -17.335  10.367  10.531  1.00  0.00    -0.200 F 
ATOM     93  C   UNL     1     -16.523  12.566  10.810  1.00  0.00     0.200 A 
ATOM     94  F   UNL     1     -15.669  14.753  11.059  1.00  0.00    -0.200 F 
ATOM     95  F   UNL     1     -17.738  12.981  11.195  1.00  0.00    -0.200 F 
ENDBRANCH  62  85
ENDBRANCH  36  37
ENDBRANCH  28  31
ENDBRANCH  26  27
ENDBRANCH  25  26
ENDBRANCH  24  25
ENDBRANCH   1  24
TORSDOF 18
