REMARK SMILES CS(=O)(=O)c1ccc(C2=NN(c3ccc(C(=O)NCCCCNC(=O)c4ccc(-c5c6nc(c(-c7c(F)c(F)c(F)c(F)c7F)c7ccc([nH]7)c(-c7c(F)c(F)c(F)c(F)c7F)c7nc(c(-c8c(F)c(F)c(F)c(F)c8F)c8ccc5[nH]8)C=C7)C=C6)cc4)cc3)[C@H](c3cccs3)C2)cc1
REMARK SMILES IDX 20 1 19 2 18 3 16 4 17 5 15 7 12 8 13 9 90 10 14 11 89 12
REMARK SMILES IDX 11 13 9 14 10 15 97 16 91 17 8 18 5 19 6 20 99 21 7 22 98 23
REMARK SMILES IDX 2 24 1 25 3 26 4 27 92 28 93 29 96 30 94 31 95 32 21 33
REMARK SMILES IDX 22 34 23 35 24 36 25 38 26 39 27 40 88 41 28 42 87 43 29 44
REMARK SMILES IDX 30 45 31 46 81 47 32 48 86 49 80 50 82 51 33 52 85 53 79 54
REMARK SMILES IDX 78 55 34 57 66 58 46 59 65 60 47 61 50 62 64 63 83 64 48 65
REMARK SMILES IDX 49 66 63 68 84 69 51 70 35 71 36 72 44 73 37 74 38 75 42 76
REMARK SMILES IDX 45 77 39 78 40 79 43 80 41 81 67 82 68 83 76 84 69 85 70 86
REMARK SMILES IDX 74 87 77 88 71 89 72 90 75 91 73 92 52 93 53 94 61 95 54 96
REMARK SMILES IDX 55 97 59 98 62 99 56 100 57 101 60 102 58 103
REMARK H PARENT 18 6 23 37 82 56 50 67
REMARK Flexibility Score: inf
ROOT
ATOM      1  C   UNL     1       8.607  11.024   5.091  1.00  0.00     0.023 C 
ENDROOT
BRANCH   1   2
ATOM      2  C   UNL     1       8.097  11.886   3.935  1.00  0.00     0.116 C 
BRANCH   2   3
ATOM      3  N   UNL     1       8.803  11.569   2.709  1.00  0.00    -0.352 N 
ATOM      4  C   UNL     1       8.446  10.784   1.641  1.00  0.00     0.251 C 
ATOM      5  O   UNL     1       9.216  10.725   0.683  1.00  0.00    -0.269 OA
ATOM      6  H   UNL     1       9.690  11.989   2.629  1.00  0.00     0.163 HD
BRANCH   4   7
ATOM      7  C   UNL     1       7.145  10.066   1.581  1.00  0.00     0.039 A 
ATOM      8  C   UNL     1       4.624   8.826   1.343  1.00  0.00     0.060 A 
ATOM      9  C   UNL     1       5.297   9.290   0.209  1.00  0.00     0.029 A 
ATOM     10  C   UNL     1       5.256   8.925   2.581  1.00  0.00     0.029 A 
ATOM     11  C   UNL     1       6.545   9.911   0.325  1.00  0.00     0.016 A 
ATOM     12  C   UNL     1       6.514   9.514   2.696  1.00  0.00     0.016 A 
BRANCH   8  13
ATOM     13  N   UNL     1       3.385   8.229   1.252  1.00  0.00    -0.257 N 
ATOM     14  C   UNL     1       2.044   6.718   0.643  1.00  0.00     0.071 C 
ATOM     15  N   UNL     1       3.300   6.947   0.851  1.00  0.00    -0.176 NA
ATOM     16  C   UNL     1       1.119   7.890   0.824  1.00  0.00     0.091 C 
ATOM     17  C   UNL     1       2.103   8.918   1.412  1.00  0.00     0.154 C 
BRANCH  14  18
ATOM     18  C   UNL     1       1.571   5.389   0.244  1.00  0.00    -0.002 A 
ATOM     19  C   UNL     1       0.894   2.820  -0.557  1.00  0.00     0.067 A 
ATOM     20  C   UNL     1       1.734   2.992   0.544  1.00  0.00     0.021 A 
ATOM     21  C   UNL     1       0.385   3.928  -1.252  1.00  0.00     0.021 A 
ATOM     22  C   UNL     1       2.080   4.284   0.936  1.00  0.00     0.011 A 
ATOM     23  C   UNL     1       0.719   5.221  -0.847  1.00  0.00     0.011 A 
BRANCH  19  24
ATOM     24  S   UNL     1       0.437   1.207  -1.147  1.00  0.00     0.175 S 
ATOM     25  C   UNL     1       1.086   0.020  -0.005  1.00  0.00     0.163 C 
ATOM     26  O   UNL     1       1.128   1.026  -2.410  1.00  0.00    -0.224 OA
ATOM     27  O   UNL     1      -1.009   1.143  -1.065  1.00  0.00    -0.224 OA
ENDBRANCH  19  24
ENDBRANCH  14  18
BRANCH  17  28
ATOM     28  C   UNL     1       1.817   9.413   2.824  1.00  0.00     0.030 A 
ATOM     29  C   UNL     1       2.336  10.562   3.405  1.00  0.00     0.017 A 
ATOM     30  S   UNL     1       0.837   8.566   3.949  1.00  0.00    -0.147 S 
ATOM     31  C   UNL     1       1.921  10.744   4.755  1.00  0.00     0.012 A 
ATOM     32  C   UNL     1       1.076   9.741   5.167  1.00  0.00     0.065 A 
ENDBRANCH  17  28
ENDBRANCH   8  13
ENDBRANCH   4   7
ENDBRANCH   2   3
ENDBRANCH   1   2
BRANCH   1  33
ATOM     33  C   UNL     1       9.957  11.468   5.655  1.00  0.00     0.023 C 
BRANCH  33  34
ATOM     34  C   UNL     1       9.962  12.862   6.265  1.00  0.00     0.116 C 
BRANCH  34  35
ATOM     35  N   UNL     1       9.001  13.019   7.347  1.00  0.00    -0.352 N 
ATOM     36  C   UNL     1       9.125  13.763   8.495  1.00  0.00     0.251 C 
ATOM     37  H   UNL     1       8.154  12.529   7.243  1.00  0.00     0.163 HD
ATOM     38  O   UNL     1       8.271  13.707   9.372  1.00  0.00    -0.269 OA
BRANCH  36  39
ATOM     39  C   UNL     1      10.326  14.602   8.677  1.00  0.00     0.039 A 
ATOM     40  C   UNL     1      11.044  14.499   9.870  1.00  0.00     0.014 A 
ATOM     41  C   UNL     1      10.765  15.446   7.654  1.00  0.00     0.014 A 
ATOM     42  C   UNL     1      12.244  15.196  10.011  1.00  0.00     0.010 A 
ATOM     43  C   UNL     1      11.998  16.077   7.766  1.00  0.00     0.010 A 
ATOM     44  C   UNL     1      12.749  15.959   8.945  1.00  0.00    -0.014 A 
BRANCH  44  45
ATOM     45  C   UNL     1      14.064  16.640   9.045  1.00  0.00     0.031 A 
ATOM     46  C   UNL     1      14.142  18.139   8.985  1.00  0.00     0.074 A 
ATOM     47  C   UNL     1      15.190  15.905   9.120  1.00  0.00     0.049 A 
ATOM     48  N   UNL     1      15.196  18.915   8.991  1.00  0.00    -0.248 NA
ATOM     49  C   UNL     1      12.865  18.863   8.876  1.00  0.00     0.031 C 
ATOM     50  C   UNL     1      15.246  14.442   9.131  1.00  0.00     0.029 A 
ATOM     51  N   UNL     1      16.506  16.288   9.190  1.00  0.00    -0.354 N 
ATOM     52  C   UNL     1      14.712  20.210   8.873  1.00  0.00     0.074 A 
ATOM     53  C   UNL     1      13.275  20.115   8.739  1.00  0.00     0.031 C 
ATOM     54  C   UNL     1      16.527  14.052   9.227  1.00  0.00     0.029 A 
ATOM     55  C   UNL     1      17.384  15.233   9.244  1.00  0.00     0.049 A 
ATOM     56  H   UNL     1      16.794  17.229   9.201  1.00  0.00     0.167 HD
ATOM     57  C   UNL     1      15.402  21.375   8.899  1.00  0.00     0.037 A 
ATOM     58  C   UNL     1      18.730  15.221   9.294  1.00  0.00     0.037 A 
ATOM     59  C   UNL     1      16.830  21.464   9.056  1.00  0.00     0.049 A 
ATOM     60  C   UNL     1      19.473  16.530   9.316  1.00  0.00     0.074 A 
ATOM     61  C   UNL     1      17.617  22.597   9.159  1.00  0.00     0.029 A 
ATOM     62  N   UNL     1      17.686  20.374   9.126  1.00  0.00    -0.354 N 
ATOM     63  N   UNL     1      19.000  17.752   9.282  1.00  0.00    -0.248 NA
ATOM     64  C   UNL     1      20.939  16.457   9.390  1.00  0.00     0.031 C 
ATOM     65  C   UNL     1      18.954  22.194   9.239  1.00  0.00     0.029 A 
ATOM     66  C   UNL     1      18.996  20.809   9.245  1.00  0.00     0.049 A 
ATOM     67  H   UNL     1      17.404  19.431   9.096  1.00  0.00     0.167 HD
ATOM     68  C   UNL     1      20.102  18.591   9.361  1.00  0.00     0.074 A 
ATOM     69  C   UNL     1      21.269  17.739   9.460  1.00  0.00     0.031 C 
ATOM     70  C   UNL     1      20.146  19.947   9.351  1.00  0.00     0.037 A 
BRANCH  57  71
ATOM     71  C   UNL     1      14.620  22.649   8.757  1.00  0.00     0.064 A 
ATOM     72  C   UNL     1      13.752  23.098   9.765  1.00  0.00     0.173 A 
ATOM     73  C   UNL     1      14.768  23.452   7.615  1.00  0.00     0.173 A 
ATOM     74  F   UNL     1      13.565  22.363  10.872  1.00  0.00    -0.203 F 
ATOM     75  C   UNL     1      13.038  24.284   9.621  1.00  0.00     0.198 A 
ATOM     76  C   UNL     1      14.077  24.654   7.490  1.00  0.00     0.198 A 
ATOM     77  F   UNL     1      15.589  23.074   6.624  1.00  0.00    -0.203 F 
ATOM     78  F   UNL     1      12.175  24.664  10.573  1.00  0.00    -0.200 F 
ATOM     79  C   UNL     1      13.207  25.065   8.488  1.00  0.00     0.200 A 
ATOM     80  F   UNL     1      14.252  25.415   6.400  1.00  0.00    -0.200 F 
ATOM     81  F   UNL     1      12.525  26.211   8.354  1.00  0.00    -0.200 F 
ENDBRANCH  57  71
BRANCH  58  82
ATOM     82  C   UNL     1      19.461  13.928   9.351  1.00  0.00     0.064 A 
ATOM     83  C   UNL     1      20.151  13.541  10.508  1.00  0.00     0.173 A 
ATOM     84  C   UNL     1      19.492  13.057   8.252  1.00  0.00     0.173 A 
ATOM     85  F   UNL     1      20.168  14.348  11.579  1.00  0.00    -0.203 F 
ATOM     86  C   UNL     1      20.864  12.344  10.555  1.00  0.00     0.198 A 
ATOM     87  C   UNL     1      20.179  11.847   8.311  1.00  0.00     0.198 A 
ATOM     88  F   UNL     1      18.843  13.377   7.122  1.00  0.00    -0.203 F 
ATOM     89  F   UNL     1      21.556  12.023  11.657  1.00  0.00    -0.200 F 
ATOM     90  C   UNL     1      20.873  11.496   9.459  1.00  0.00     0.200 A 
ATOM     91  F   UNL     1      20.172  11.022   7.255  1.00  0.00    -0.200 F 
ATOM     92  F   UNL     1      21.555  10.344   9.507  1.00  0.00    -0.200 F 
ENDBRANCH  58  82
BRANCH  70  93
ATOM     93  C   UNL     1      21.494  20.594   9.488  1.00  0.00     0.064 A 
ATOM     94  C   UNL     1      22.440  20.556   8.454  1.00  0.00     0.173 A 
ATOM     95  C   UNL     1      21.825  21.298  10.656  1.00  0.00     0.173 A 
ATOM     96  F   UNL     1      22.177  19.884   7.323  1.00  0.00    -0.203 F 
ATOM     97  C   UNL     1      23.679  21.175   8.595  1.00  0.00     0.198 A 
ATOM     98  C   UNL     1      23.052  21.944  10.780  1.00  0.00     0.198 A 
ATOM     99  F   UNL     1      20.953  21.372  11.673  1.00  0.00    -0.203 F 
ATOM    100  F   UNL     1      24.587  21.083   7.613  1.00  0.00    -0.200 F 
ATOM    101  C   UNL     1      23.980  21.876   9.753  1.00  0.00     0.200 A 
ATOM    102  F   UNL     1      23.334  22.634  11.894  1.00  0.00    -0.200 F 
ATOM    103  F   UNL     1      25.170  22.479   9.883  1.00  0.00    -0.200 F 
ENDBRANCH  70  93
ENDBRANCH  44  45
ENDBRANCH  36  39
ENDBRANCH  34  35
ENDBRANCH  33  34
ENDBRANCH   1  33
TORSDOF 15
