REMARK SMILES Cc1cccc(CC(=O)N2CCC3(CCC(=O)N([C@H](C)C(=O)NCCCCNC(=O)c4ccc(-c5c6nc(c(-c7c(F)c(F)c(F)c(F)c7F)c7ccc([nH]7)c(-c7c(F)c(F)c(F)c(F)c7F)c7nc(c(-c8c(F)c(F)c(F)c(F)c8F)c8ccc5[nH]8)C=C7)C=C6)cc4)C3)CC2)c1
REMARK SMILES IDX 25 1 24 2 23 3 21 4 22 5 19 7 20 8 18 9 8 10 9 11 10 12
REMARK SMILES IDX 11 13 96 14 12 15 95 16 13 17 14 18 94 19 15 20 16 21 17 22
REMARK SMILES IDX 7 23 6 24 1 25 2 26 3 27 97 28 4 29 5 30 26 31 27 32 28 33
REMARK SMILES IDX 29 34 30 36 31 37 32 38 93 39 33 40 92 41 34 42 35 43 36 44
REMARK SMILES IDX 86 45 37 46 91 47 85 48 87 49 38 50 90 51 84 52 83 53 39 55
REMARK SMILES IDX 71 56 51 57 70 58 52 59 55 60 69 61 88 62 53 63 54 64 68 66
REMARK SMILES IDX 89 67 56 68 40 69 41 70 49 71 42 72 43 73 47 74 50 75 44 76
REMARK SMILES IDX 45 77 48 78 46 79 72 80 73 81 81 82 74 83 75 84 79 85 82 86
REMARK SMILES IDX 76 87 77 88 80 89 78 90 57 91 58 92 66 93 59 94 60 95 64 96
REMARK SMILES IDX 67 97 61 98 62 99 65 100 63 101
REMARK H PARENT 23 6 28 35 87 54 55 65
REMARK Flexibility Score: inf
ROOT
ATOM      1  C   UNL     1      -2.163   4.033  -8.341  1.00  0.00     0.023 C 
ENDROOT
BRANCH   1   2
ATOM      2  C   UNL     1      -1.355   5.316  -8.507  1.00  0.00     0.116 C 
BRANCH   2   3
ATOM      3  N   UNL     1      -1.669   6.343  -7.525  1.00  0.00    -0.354 N 
ATOM      4  C   UNL     1      -0.829   7.112  -6.767  1.00  0.00     0.242 C 
ATOM      5  O   UNL     1      -1.312   8.106  -6.213  1.00  0.00    -0.273 OA
ATOM      6  H   UNL     1      -2.629   6.509  -7.386  1.00  0.00     0.163 HD
BRANCH   4   7
ATOM      7  C   UNL     1       0.665   6.751  -6.571  1.00  0.00     0.171 C 
ATOM      8  C   UNL     1       0.866   5.313  -6.085  1.00  0.00     0.042 C 
BRANCH   7   9
ATOM      9  N   UNL     1       1.625   7.121  -7.628  1.00  0.00    -0.330 N 
ATOM     10  C   UNL     1       7.891   5.252  -6.991  1.00  0.00     0.226 C 
ATOM     11  O   UNL     1       8.097   4.051  -6.779  1.00  0.00    -0.275 OA
ATOM     12  N   UNL     1       6.757   5.660  -7.681  1.00  0.00    -0.342 N 
ATOM     13  C   UNL     1       5.626   4.744  -7.808  1.00  0.00     0.120 C 
ATOM     14  C   UNL     1       6.588   6.906  -8.412  1.00  0.00     0.120 C 
ATOM     15  C   UNL     1       4.334   5.438  -7.346  1.00  0.00     0.030 C 
ATOM     16  C   UNL     1       5.394   7.667  -7.861  1.00  0.00     0.030 C 
ATOM     17  C   UNL     1       4.097   6.831  -7.999  1.00  0.00    -0.008 C 
ATOM     18  C   UNL     1       3.741   6.727  -9.503  1.00  0.00     0.019 C 
ATOM     19  C   UNL     1       2.960   7.574  -7.260  1.00  0.00     0.127 C 
ATOM     20  C   UNL     1       2.337   6.224  -9.751  1.00  0.00     0.101 C 
ATOM     21  C   UNL     1       1.322   7.016  -8.972  1.00  0.00     0.223 C 
ATOM     22  O   UNL     1       0.273   7.383  -9.488  1.00  0.00    -0.275 OA
BRANCH  10  23
ATOM     23  C   UNL     1       8.772   6.276  -6.273  1.00  0.00     0.135 C 
BRANCH  23  24
ATOM     24  C   UNL     1       9.336   7.430  -7.058  1.00  0.00    -0.038 A 
ATOM     25  C   UNL     1       8.839  11.210  -7.247  1.00  0.00     0.044 C 
ATOM     26  C   UNL     1       9.336   9.824  -7.536  1.00  0.00    -0.051 A 
ATOM     27  C   UNL     1      10.155   9.586  -8.645  1.00  0.00     0.003 A 
ATOM     28  C   UNL     1       8.954   8.745  -6.732  1.00  0.00     0.007 A 
ATOM     29  C   UNL     1      10.585   8.291  -8.944  1.00  0.00     0.001 A 
ATOM     30  C   UNL     1      10.179   7.215  -8.154  1.00  0.00     0.004 A 
ENDBRANCH  23  24
ENDBRANCH  10  23
ENDBRANCH   7   9
ENDBRANCH   4   7
ENDBRANCH   2   3
ENDBRANCH   1   2
BRANCH   1  31
ATOM     31  C   UNL     1      -3.674   4.195  -8.500  1.00  0.00     0.023 C 
BRANCH  31  32
ATOM     32  C   UNL     1      -4.127   4.720  -9.856  1.00  0.00     0.116 C 
BRANCH  32  33
ATOM     33  N   UNL     1      -4.164   3.734 -10.924  1.00  0.00    -0.352 N 
ATOM     34  C   UNL     1      -4.455   3.888 -12.273  1.00  0.00     0.251 C 
ATOM     35  H   UNL     1      -3.948   2.814 -10.647  1.00  0.00     0.163 HD
ATOM     36  O   UNL     1      -4.551   2.900 -12.980  1.00  0.00    -0.269 OA
BRANCH  34  37
ATOM     37  C   UNL     1      -4.500   5.244 -12.891  1.00  0.00     0.039 A 
ATOM     38  C   UNL     1      -3.980   5.392 -14.187  1.00  0.00     0.014 A 
ATOM     39  C   UNL     1      -4.843   6.376 -12.163  1.00  0.00     0.014 A 
ATOM     40  C   UNL     1      -3.553   6.646 -14.620  1.00  0.00     0.010 A 
ATOM     41  C   UNL     1      -4.308   7.592 -12.528  1.00  0.00     0.010 A 
ATOM     42  C   UNL     1      -3.598   7.708 -13.724  1.00  0.00    -0.014 A 
BRANCH  42  43
ATOM     43  C   UNL     1      -2.853   8.948 -13.881  1.00  0.00     0.031 A 
ATOM     44  C   UNL     1      -3.553  10.206 -14.188  1.00  0.00     0.074 A 
ATOM     45  C   UNL     1      -1.545   8.966 -13.542  1.00  0.00     0.049 A 
ATOM     46  N   UNL     1      -2.968  11.277 -14.602  1.00  0.00    -0.248 NA
ATOM     47  C   UNL     1      -4.998  10.345 -14.088  1.00  0.00     0.031 C 
ATOM     48  C   UNL     1      -0.708  10.133 -13.267  1.00  0.00     0.029 A 
ATOM     49  N   UNL     1      -0.636   7.893 -13.580  1.00  0.00    -0.354 N 
ATOM     50  C   UNL     1      -3.873  12.310 -14.517  1.00  0.00     0.074 A 
ATOM     51  C   UNL     1      -5.142  11.659 -14.287  1.00  0.00     0.031 C 
ATOM     52  C   UNL     1       0.575   9.801 -13.481  1.00  0.00     0.029 A 
ATOM     53  C   UNL     1       0.568   8.469 -14.055  1.00  0.00     0.049 A 
ATOM     54  H   UNL     1      -0.800   6.955 -13.332  1.00  0.00     0.167 HD
ATOM     55  C   UNL     1      -3.398  13.591 -14.514  1.00  0.00     0.037 A 
ATOM     56  C   UNL     1       1.063   8.152 -15.286  1.00  0.00     0.037 A 
ATOM     57  C   UNL     1      -1.951  13.615 -14.773  1.00  0.00     0.049 A 
ATOM     58  C   UNL     1       1.274   9.331 -16.214  1.00  0.00     0.074 A 
ATOM     59  C   UNL     1      -0.829  13.834 -13.989  1.00  0.00     0.029 A 
ATOM     60  N   UNL     1      -1.475  13.098 -15.973  1.00  0.00    -0.354 N 
ATOM     61  N   UNL     1       0.782  10.526 -16.036  1.00  0.00    -0.248 NA
ATOM     62  C   UNL     1       1.994   9.214 -17.474  1.00  0.00     0.031 C 
ATOM     63  C   UNL     1       0.325  13.489 -14.748  1.00  0.00     0.029 A 
ATOM     64  C   UNL     1      -0.093  13.060 -15.993  1.00  0.00     0.049 A 
ATOM     65  H   UNL     1      -2.049  12.797 -16.714  1.00  0.00     0.167 HD
ATOM     66  C   UNL     1       1.058  11.320 -17.129  1.00  0.00     0.074 A 
ATOM     67  C   UNL     1       1.807  10.435 -18.004  1.00  0.00     0.031 C 
ATOM     68  C   UNL     1       0.599  12.613 -17.201  1.00  0.00     0.037 A 
BRANCH  55  69
ATOM     69  C   UNL     1      -4.176  14.804 -14.023  1.00  0.00     0.064 A 
ATOM     70  C   UNL     1      -3.500  15.963 -13.574  1.00  0.00     0.173 A 
ATOM     71  C   UNL     1      -5.577  14.880 -13.903  1.00  0.00     0.173 A 
ATOM     72  F   UNL     1      -2.180  16.113 -13.733  1.00  0.00    -0.203 F 
ATOM     73  C   UNL     1      -4.156  17.029 -12.945  1.00  0.00     0.198 A 
ATOM     74  C   UNL     1      -6.230  15.921 -13.232  1.00  0.00     0.198 A 
ATOM     75  F   UNL     1      -6.384  13.996 -14.493  1.00  0.00    -0.203 F 
ATOM     76  F   UNL     1      -3.450  18.091 -12.530  1.00  0.00    -0.200 F 
ATOM     77  C   UNL     1      -5.517  16.991 -12.739  1.00  0.00     0.200 A 
ATOM     78  F   UNL     1      -7.562  15.879 -13.079  1.00  0.00    -0.200 F 
ATOM     79  F   UNL     1      -6.142  17.991 -12.104  1.00  0.00    -0.200 F 
ENDBRANCH  55  69
BRANCH  56  80
ATOM     80  C   UNL     1       0.683   6.782 -15.734  1.00  0.00     0.064 A 
ATOM     81  C   UNL     1       1.061   5.679 -14.941  1.00  0.00     0.173 A 
ATOM     82  C   UNL     1      -0.322   6.577 -16.687  1.00  0.00     0.173 A 
ATOM     83  F   UNL     1       2.024   5.816 -14.015  1.00  0.00    -0.203 F 
ATOM     84  C   UNL     1       0.379   4.466 -15.013  1.00  0.00     0.198 A 
ATOM     85  C   UNL     1      -0.987   5.351 -16.772  1.00  0.00     0.198 A 
ATOM     86  F   UNL     1      -0.739   7.586 -17.464  1.00  0.00    -0.203 F 
ATOM     87  F   UNL     1       0.686   3.475 -14.164  1.00  0.00    -0.200 F 
ATOM     88  C   UNL     1      -0.663   4.312 -15.911  1.00  0.00     0.200 A 
ATOM     89  F   UNL     1      -2.013   5.210 -17.623  1.00  0.00    -0.200 F 
ATOM     90  F   UNL     1      -1.380   3.180 -15.923  1.00  0.00    -0.200 F 
ENDBRANCH  56  80
BRANCH  68  91
ATOM     91  C   UNL     1       0.692  13.606 -18.365  1.00  0.00     0.064 A 
ATOM     92  C   UNL     1       1.529  13.487 -19.485  1.00  0.00     0.173 A 
ATOM     93  C   UNL     1      -0.105  14.789 -18.371  1.00  0.00     0.173 A 
ATOM     94  F   UNL     1       2.466  12.541 -19.567  1.00  0.00    -0.203 F 
ATOM     95  C   UNL     1       1.486  14.388 -20.561  1.00  0.00     0.198 A 
ATOM     96  C   UNL     1      -0.128  15.698 -19.429  1.00  0.00     0.198 A 
ATOM     97  F   UNL     1      -0.897  15.125 -17.345  1.00  0.00    -0.203 F 
ATOM     98  F   UNL     1       2.280  14.185 -21.622  1.00  0.00    -0.200 F 
ATOM     99  C   UNL     1       0.651  15.485 -20.539  1.00  0.00     0.200 A 
ATOM    100  F   UNL     1      -0.920  16.778 -19.359  1.00  0.00    -0.200 F 
ATOM    101  F   UNL     1       0.616  16.342 -21.567  1.00  0.00    -0.200 F 
ENDBRANCH  68  91
ENDBRANCH  42  43
ENDBRANCH  34  37
ENDBRANCH  32  33
ENDBRANCH  31  32
ENDBRANCH   1  31
TORSDOF 14
