REMARK SMILES C[C@]12C(=O)N(c3ccc(C(=O)NCCCCNC(=O)c4ccc(-c5c6nc(c(-c7c(F)c(F)c(F)c(F)c7F)c7ccc([nH]7)c(-c7c(F)c(F)c(F)c(F)c7F)c7nc(c(-c8c(F)c(F)c(F)c(F)c8F)c8ccc5[nH]8)C=C7)C=C6)cc4)cc3)C(=O)[C@H]1[C@H]1c3ccccc3[C@@H]2c2ccccc21
REMARK SMILES IDX 15 1 14 2 13 3 12 4 10 5 11 6 9 8 6 9 7 10 84 11 8 12 83 13
REMARK SMILES IDX 5 14 1 15 2 16 3 17 87 18 95 19 4 20 85 21 88 22 94 23 96 24
REMARK SMILES IDX 86 25 89 26 101 27 93 28 97 29 90 30 100 31 92 32 98 33
REMARK SMILES IDX 91 34 99 35 16 36 17 37 18 38 19 40 20 41 21 42 82 43 22 44
REMARK SMILES IDX 81 45 23 46 24 47 25 48 75 49 26 50 80 51 74 52 76 53 27 54
REMARK SMILES IDX 79 55 73 56 72 57 28 59 60 60 40 61 59 62 41 63 44 64 58 65
REMARK SMILES IDX 77 66 42 67 43 68 57 70 78 71 45 72 29 73 30 74 38 75 31 76
REMARK SMILES IDX 32 77 36 78 39 79 33 80 34 81 37 82 35 83 61 84 62 85 70 86
REMARK SMILES IDX 63 87 64 88 68 89 71 90 65 91 66 92 69 93 67 94 46 95 47 96
REMARK SMILES IDX 55 97 48 98 49 99 53 100 56 101 50 102 51 103 54 104 52 105
REMARK H PARENT 12 7 17 39 76 58 44 69
REMARK Flexibility Score: inf
ROOT
ATOM      1  C   UNL     1      -1.503   9.918  -6.593  1.00  0.00     0.023 C 
ENDROOT
BRANCH   1   2
ATOM      2  C   UNL     1      -1.543   8.790  -5.571  1.00  0.00     0.023 C 
BRANCH   2   3
ATOM      3  C   UNL     1      -1.711   7.391  -6.146  1.00  0.00     0.116 C 
BRANCH   3   4
ATOM      4  N   UNL     1      -0.600   6.983  -6.988  1.00  0.00    -0.352 N 
ATOM      5  C   UNL     1       0.309   5.971  -6.811  1.00  0.00     0.251 C 
ATOM      6  O   UNL     1       1.249   5.853  -7.592  1.00  0.00    -0.269 OA
ATOM      7  H   UNL     1      -0.482   7.513  -7.810  1.00  0.00     0.163 HD
BRANCH   5   8
ATOM      8  C   UNL     1       0.185   5.041  -5.669  1.00  0.00     0.039 A 
ATOM      9  C   UNL     1       0.030   3.265  -3.467  1.00  0.00     0.052 A 
ATOM     10  C   UNL     1       1.250   3.845  -3.862  1.00  0.00     0.027 A 
ATOM     11  C   UNL     1      -1.109   3.598  -4.215  1.00  0.00     0.027 A 
ATOM     12  C   UNL     1       1.331   4.722  -4.948  1.00  0.00     0.016 A 
ATOM     13  C   UNL     1      -1.026   4.442  -5.327  1.00  0.00     0.016 A 
BRANCH   9  14
ATOM     14  N   UNL     1      -0.018   2.227  -2.489  1.00  0.00    -0.250 N 
ATOM     15  C   UNL     1       1.320  -0.043  -0.133  1.00  0.00     0.024 C 
ATOM     16  C   UNL     1       0.803   0.252  -1.547  1.00  0.00     0.071 C 
ATOM     17  C   UNL     1       1.099   1.689  -1.890  1.00  0.00     0.241 C 
ATOM     18  C   UNL     1      -0.747   0.160  -1.623  1.00  0.00     0.107 C 
ATOM     19  C   UNL     1       1.444  -0.657  -2.659  1.00  0.00     0.066 C 
ATOM     20  O   UNL     1       2.180   2.208  -1.662  1.00  0.00    -0.273 OA
ATOM     21  C   UNL     1      -1.152   1.531  -2.116  1.00  0.00     0.238 C 
ATOM     22  C   UNL     1      -1.180  -0.939  -2.649  1.00  0.00     0.063 C 
ATOM     23  C   UNL     1       0.781  -0.317  -4.007  1.00  0.00    -0.036 A 
ATOM     24  C   UNL     1       0.990  -2.071  -2.313  1.00  0.00    -0.036 A 
ATOM     25  O   UNL     1      -2.324   1.885  -2.160  1.00  0.00    -0.274 OA
ATOM     26  C   UNL     1      -0.629  -0.495  -4.006  1.00  0.00    -0.036 A 
ATOM     27  C   UNL     1      -0.424  -2.217  -2.277  1.00  0.00    -0.036 A 
ATOM     28  C   UNL     1       1.418   0.197  -5.127  1.00  0.00     0.005 A 
ATOM     29  C   UNL     1       1.832  -3.144  -2.064  1.00  0.00     0.005 A 
ATOM     30  C   UNL     1      -1.394  -0.175  -5.120  1.00  0.00     0.004 A 
ATOM     31  C   UNL     1      -0.989  -3.450  -1.990  1.00  0.00     0.004 A 
ATOM     32  C   UNL     1       0.643   0.530  -6.244  1.00  0.00     0.000 A 
ATOM     33  C   UNL     1       1.257  -4.379  -1.772  1.00  0.00     0.000 A 
ATOM     34  C   UNL     1      -0.748   0.341  -6.242  1.00  0.00     0.000 A 
ATOM     35  C   UNL     1      -0.138  -4.530  -1.735  1.00  0.00     0.000 A 
ENDBRANCH   9  14
ENDBRANCH   5   8
ENDBRANCH   3   4
ENDBRANCH   2   3
ENDBRANCH   1   2
BRANCH   1  36
ATOM     36  C   UNL     1      -2.588   9.881  -7.661  1.00  0.00     0.116 C 
BRANCH  36  37
ATOM     37  N   UNL     1      -3.945   9.819  -7.133  1.00  0.00    -0.352 N 
ATOM     38  C   UNL     1      -5.048  10.578  -7.452  1.00  0.00     0.251 C 
ATOM     39  H   UNL     1      -4.096   9.130  -6.446  1.00  0.00     0.163 HD
ATOM     40  O   UNL     1      -6.109  10.411  -6.860  1.00  0.00    -0.269 OA
BRANCH  38  41
ATOM     41  C   UNL     1      -4.930  11.641  -8.471  1.00  0.00     0.039 A 
ATOM     42  C   UNL     1      -4.286  11.392  -9.682  1.00  0.00     0.014 A 
ATOM     43  C   UNL     1      -5.398  12.923  -8.172  1.00  0.00     0.014 A 
ATOM     44  C   UNL     1      -3.912  12.461 -10.485  1.00  0.00     0.010 A 
ATOM     45  C   UNL     1      -5.112  13.984  -9.036  1.00  0.00     0.010 A 
ATOM     46  C   UNL     1      -4.305  13.773 -10.164  1.00  0.00    -0.014 A 
BRANCH  46  47
ATOM     47  C   UNL     1      -3.824  14.893 -11.015  1.00  0.00     0.031 A 
ATOM     48  C   UNL     1      -2.890  15.940 -10.463  1.00  0.00     0.074 A 
ATOM     49  C   UNL     1      -4.148  14.902 -12.323  1.00  0.00     0.049 A 
ATOM     50  N   UNL     1      -2.302  16.930 -11.088  1.00  0.00    -0.248 NA
ATOM     51  C   UNL     1      -2.573  15.873  -9.027  1.00  0.00     0.031 C 
ATOM     52  C   UNL     1      -5.034  13.935 -12.973  1.00  0.00     0.029 A 
ATOM     53  N   UNL     1      -3.734  15.714 -13.348  1.00  0.00    -0.354 N 
ATOM     54  C   UNL     1      -1.563  17.606 -10.126  1.00  0.00     0.074 A 
ATOM     55  C   UNL     1      -1.795  16.936  -8.866  1.00  0.00     0.031 C 
ATOM     56  C   UNL     1      -5.030  14.155 -14.295  1.00  0.00     0.029 A 
ATOM     57  C   UNL     1      -4.195  15.318 -14.580  1.00  0.00     0.049 A 
ATOM     58  H   UNL     1      -3.162  16.505 -13.213  1.00  0.00     0.167 HD
ATOM     59  C   UNL     1      -0.750  18.677 -10.284  1.00  0.00     0.037 A 
ATOM     60  C   UNL     1      -3.969  15.830 -15.804  1.00  0.00     0.037 A 
ATOM     61  C   UNL     1      -0.489  19.323 -11.543  1.00  0.00     0.049 A 
ATOM     62  C   UNL     1      -3.086  17.037 -15.942  1.00  0.00     0.074 A 
ATOM     63  C   UNL     1       0.330  20.409 -11.802  1.00  0.00     0.029 A 
ATOM     64  N   UNL     1      -1.034  18.934 -12.757  1.00  0.00    -0.354 N 
ATOM     65  N   UNL     1      -2.398  17.665 -15.021  1.00  0.00    -0.248 NA
ATOM     66  C   UNL     1      -2.963  17.617 -17.286  1.00  0.00     0.031 C 
ATOM     67  C   UNL     1       0.256  20.697 -13.167  1.00  0.00     0.029 A 
ATOM     68  C   UNL     1      -0.579  19.768 -13.765  1.00  0.00     0.049 A 
ATOM     69  H   UNL     1      -1.651  18.177 -12.884  1.00  0.00     0.167 HD
ATOM     70  C   UNL     1      -1.753  18.705 -15.672  1.00  0.00     0.074 A 
ATOM     71  C   UNL     1      -2.114  18.613 -17.072  1.00  0.00     0.031 C 
ATOM     72  C   UNL     1      -0.941  19.657 -15.153  1.00  0.00     0.037 A 
BRANCH  59  73
ATOM     73  C   UNL     1      -0.062  19.231  -9.070  1.00  0.00     0.064 A 
ATOM     74  C   UNL     1       1.044  18.585  -8.500  1.00  0.00     0.173 A 
ATOM     75  C   UNL     1      -0.446  20.472  -8.539  1.00  0.00     0.173 A 
ATOM     76  F   UNL     1       1.444  17.393  -8.967  1.00  0.00    -0.203 F 
ATOM     77  C   UNL     1       1.740  19.161  -7.441  1.00  0.00     0.198 A 
ATOM     78  C   UNL     1       0.266  21.055  -7.494  1.00  0.00     0.198 A 
ATOM     79  F   UNL     1      -1.493  21.133  -9.056  1.00  0.00    -0.203 F 
ATOM     80  F   UNL     1       2.786  18.519  -6.901  1.00  0.00    -0.200 F 
ATOM     81  C   UNL     1       1.358  20.399  -6.946  1.00  0.00     0.200 A 
ATOM     82  F   UNL     1      -0.096  22.258  -7.027  1.00  0.00    -0.200 F 
ATOM     83  F   UNL     1       2.044  20.963  -5.942  1.00  0.00    -0.200 F 
ENDBRANCH  59  73
BRANCH  60  84
ATOM     84  C   UNL     1      -4.580  15.188 -16.995  1.00  0.00     0.064 A 
ATOM     85  C   UNL     1      -3.786  14.514 -17.934  1.00  0.00     0.173 A 
ATOM     86  C   UNL     1      -5.965  15.214 -17.209  1.00  0.00     0.173 A 
ATOM     87  F   UNL     1      -2.454  14.478 -17.782  1.00  0.00    -0.203 F 
ATOM     88  C   UNL     1      -4.356  13.896 -19.045  1.00  0.00     0.198 A 
ATOM     89  C   UNL     1      -6.536  14.573 -18.305  1.00  0.00     0.198 A 
ATOM     90  F   UNL     1      -6.767  15.844 -16.338  1.00  0.00    -0.203 F 
ATOM     91  F   UNL     1      -3.572  13.286 -19.944  1.00  0.00    -0.200 F 
ATOM     92  C   UNL     1      -5.731  13.919 -19.225  1.00  0.00     0.200 A 
ATOM     93  F   UNL     1      -7.866  14.584 -18.467  1.00  0.00    -0.200 F 
ATOM     94  F   UNL     1      -6.279  13.314 -20.288  1.00  0.00    -0.200 F 
ENDBRANCH  60  84
BRANCH  72  95
ATOM     95  C   UNL     1      -0.375  20.674 -16.096  1.00  0.00     0.064 A 
ATOM     96  C   UNL     1      -1.161  21.726 -16.586  1.00  0.00     0.173 A 
ATOM     97  C   UNL     1       0.983  20.643 -16.445  1.00  0.00     0.173 A 
ATOM     98  F   UNL     1      -2.467  21.788 -16.288  1.00  0.00    -0.203 F 
ATOM     99  C   UNL     1      -0.607  22.710 -17.400  1.00  0.00     0.198 A 
ATOM    100  C   UNL     1       1.538  21.641 -17.241  1.00  0.00     0.198 A 
ATOM    101  F   UNL     1       1.775  19.659 -15.993  1.00  0.00    -0.203 F 
ATOM    102  F   UNL     1      -1.380  23.695 -17.877  1.00  0.00    -0.200 F 
ATOM    103  C   UNL     1       0.743  22.672 -17.718  1.00  0.00     0.200 A 
ATOM    104  F   UNL     1       2.845  21.610 -17.537  1.00  0.00    -0.200 F 
ATOM    105  F   UNL     1       1.278  23.630 -18.487  1.00  0.00    -0.200 F 
ENDBRANCH  72  95
ENDBRANCH  46  47
ENDBRANCH  38  41
ENDBRANCH  36  37
ENDBRANCH   1  36
TORSDOF 12
