REMARK SMILES O=C(CNc1nccs1)NCCCCNC(=O)c1ccc(-c2c3nc(c(-c4c(F)c(F)c(F)c(F)c4F)c4ccc([nH]4)c(-c4c(F)c(F)c(F)c(F)c4F)c4nc(c(-c5c(F)c(F)c(F)c(F)c5F)c5ccc2[nH]5)C=C4)C=C3)cc1
REMARK SMILES IDX 12 1 11 2 10 3 1 4 2 5 3 7 4 8 5 10 6 11 9 12 7 13 8 14
REMARK SMILES IDX 13 15 14 16 15 17 16 18 17 20 18 21 19 22 80 23 20 24 79 25
REMARK SMILES IDX 21 26 22 27 23 28 73 29 24 30 78 31 72 32 74 33 25 34 77 35
REMARK SMILES IDX 71 36 70 37 26 39 58 40 38 41 57 42 39 43 42 44 56 45 75 46
REMARK SMILES IDX 40 47 41 48 55 50 76 51 43 52 27 53 28 54 36 55 29 56 30 57
REMARK SMILES IDX 34 58 37 59 31 60 32 61 35 62 33 63 59 64 60 65 68 66 61 67
REMARK SMILES IDX 62 68 66 69 69 70 63 71 64 72 67 73 65 74 44 75 45 76 53 77
REMARK SMILES IDX 46 78 47 79 51 80 54 81 48 82 49 83 52 84 50 85
REMARK H PARENT 10 6 4 9 15 19 74 38 42 49
REMARK Flexibility Score: inf
ROOT
ATOM      1  C   UNL     1       2.514  -3.021   1.606  1.00  0.00     0.023 C 
ENDROOT
BRANCH   1   2
ATOM      2  C   UNL     1       2.143  -1.546   1.757  1.00  0.00     0.116 C 
BRANCH   2   3
ATOM      3  N   UNL     1       2.827  -0.703   0.803  1.00  0.00    -0.355 N 
ATOM      4  O   UNL     1       0.975  -0.096  -0.427  1.00  0.00    -0.273 OA
ATOM      5  C   UNL     1       2.179  -0.015  -0.208  1.00  0.00     0.239 C 
ATOM      6  H   UNL     1       3.805  -0.613   0.876  1.00  0.00     0.163 HD
BRANCH   5   7
ATOM      7  C   UNL     1       3.129   0.843  -1.057  1.00  0.00     0.215 C 
BRANCH   7   8
ATOM      8  N   UNL     1       4.087   1.511  -0.184  1.00  0.00    -0.352 N 
ATOM      9  H   UNL     1       3.774   1.892   0.668  1.00  0.00     0.163 HD
BRANCH   8  10
ATOM     10  C   UNL     1       5.385   1.619  -0.512  1.00  0.00     0.183 A 
ATOM     11  N   UNL     1       5.918   1.219  -1.641  1.00  0.00    -0.229 NA
ATOM     12  S   UNL     1       6.501   2.287   0.621  1.00  0.00    -0.106 S 
ATOM     13  C   UNL     1       7.278   1.456  -1.637  1.00  0.00     0.125 A 
ATOM     14  C   UNL     1       7.781   2.002  -0.479  1.00  0.00     0.088 A 
ENDBRANCH   8  10
ENDBRANCH   7   8
ENDBRANCH   5   7
ENDBRANCH   2   3
ENDBRANCH   1   2
BRANCH   1  15
ATOM     15  C   UNL     1       3.995  -3.346   1.815  1.00  0.00     0.023 C 
BRANCH  15  16
ATOM     16  C   UNL     1       4.579  -2.936   3.164  1.00  0.00     0.116 C 
BRANCH  16  17
ATOM     17  N   UNL     1       3.975  -3.636   4.287  1.00  0.00    -0.352 N 
ATOM     18  C   UNL     1       4.572  -4.313   5.324  1.00  0.00     0.251 C 
ATOM     19  H   UNL     1       2.991  -3.623   4.308  1.00  0.00     0.163 HD
ATOM     20  O   UNL     1       3.881  -4.954   6.114  1.00  0.00    -0.269 OA
BRANCH  18  21
ATOM     21  C   UNL     1       6.044  -4.308   5.481  1.00  0.00     0.039 A 
ATOM     22  C   UNL     1       6.691  -5.508   5.791  1.00  0.00     0.014 A 
ATOM     23  C   UNL     1       6.789  -3.136   5.334  1.00  0.00     0.014 A 
ATOM     24  C   UNL     1       8.086  -5.547   5.876  1.00  0.00     0.010 A 
ATOM     25  C   UNL     1       8.182  -3.191   5.342  1.00  0.00     0.010 A 
ATOM     26  C   UNL     1       8.847  -4.398   5.609  1.00  0.00    -0.014 A 
BRANCH  26  27
ATOM     27  C   UNL     1      10.334  -4.444   5.590  1.00  0.00     0.031 A 
ATOM     28  C   UNL     1      11.136  -3.633   6.570  1.00  0.00     0.074 A 
ATOM     29  C   UNL     1      10.966  -5.168   4.645  1.00  0.00     0.049 A 
ATOM     30  N   UNL     1      12.435  -3.487   6.660  1.00  0.00    -0.248 NA
ATOM     31  C   UNL     1      10.376  -2.862   7.566  1.00  0.00     0.031 C 
ATOM     32  C   UNL     1      10.307  -5.963   3.608  1.00  0.00     0.029 A 
ATOM     33  N   UNL     1      12.306  -5.343   4.395  1.00  0.00    -0.354 N 
ATOM     34  C   UNL     1      12.645  -2.607   7.713  1.00  0.00     0.074 A 
ATOM     35  C   UNL     1      11.340  -2.203   8.191  1.00  0.00     0.031 C 
ATOM     36  C   UNL     1      11.241  -6.554   2.847  1.00  0.00     0.029 A 
ATOM     37  C   UNL     1      12.563  -6.149   3.312  1.00  0.00     0.049 A 
ATOM     38  H   UNL     1      13.014  -4.930   4.940  1.00  0.00     0.167 HD
ATOM     39  C   UNL     1      13.819  -2.191   8.249  1.00  0.00     0.037 A 
ATOM     40  C   UNL     1      13.732  -6.509   2.748  1.00  0.00     0.037 A 
ATOM     41  C   UNL     1      15.116  -2.603   7.779  1.00  0.00     0.049 A 
ATOM     42  C   UNL     1      15.022  -6.015   3.347  1.00  0.00     0.074 A 
ATOM     43  C   UNL     1      16.362  -2.275   8.285  1.00  0.00     0.029 A 
ATOM     44  N   UNL     1      15.336  -3.430   6.686  1.00  0.00    -0.354 N 
ATOM     45  N   UNL     1      15.209  -5.234   4.382  1.00  0.00    -0.248 NA
ATOM     46  C   UNL     1      16.265  -6.460   2.700  1.00  0.00     0.031 C 
ATOM     47  C   UNL     1      17.336  -2.856   7.467  1.00  0.00     0.029 A 
ATOM     48  C   UNL     1      16.698  -3.601   6.488  1.00  0.00     0.049 A 
ATOM     49  H   UNL     1      14.630  -3.836   6.134  1.00  0.00     0.167 HD
ATOM     50  C   UNL     1      16.585  -5.118   4.531  1.00  0.00     0.074 A 
ATOM     51  C   UNL     1      17.186  -5.922   3.488  1.00  0.00     0.031 C 
ATOM     52  C   UNL     1      17.286  -4.409   5.449  1.00  0.00     0.037 A 
BRANCH  39  53
ATOM     53  C   UNL     1      13.753  -1.237   9.409  1.00  0.00     0.064 A 
ATOM     54  C   UNL     1      13.266  -1.636  10.663  1.00  0.00     0.173 A 
ATOM     55  C   UNL     1      14.216   0.081   9.276  1.00  0.00     0.173 A 
ATOM     56  F   UNL     1      12.802  -2.882  10.843  1.00  0.00    -0.203 F 
ATOM     57  C   UNL     1      13.212  -0.742  11.730  1.00  0.00     0.198 A 
ATOM     58  C   UNL     1      14.194   0.962  10.355  1.00  0.00     0.198 A 
ATOM     59  F   UNL     1      14.701   0.514   8.102  1.00  0.00    -0.203 F 
ATOM     60  F   UNL     1      12.690  -1.130  12.901  1.00  0.00    -0.200 F 
ATOM     61  C   UNL     1      13.683   0.553  11.577  1.00  0.00     0.200 A 
ATOM     62  F   UNL     1      14.664   2.208  10.209  1.00  0.00    -0.200 F 
ATOM     63  F   UNL     1      13.637   1.411  12.606  1.00  0.00    -0.200 F 
ENDBRANCH  39  53
BRANCH  40  64
ATOM     64  C   UNL     1      13.738  -7.397   1.554  1.00  0.00     0.064 A 
ATOM     65  C   UNL     1      14.232  -8.707   1.631  1.00  0.00     0.173 A 
ATOM     66  C   UNL     1      13.258  -6.953   0.313  1.00  0.00     0.173 A 
ATOM     67  F   UNL     1      14.722  -9.171   2.789  1.00  0.00    -0.203 F 
ATOM     68  C   UNL     1      14.266  -9.530   0.507  1.00  0.00     0.198 A 
ATOM     69  C   UNL     1      13.263  -7.788  -0.802  1.00  0.00     0.198 A 
ATOM     70  F   UNL     1      12.771  -5.710   0.187  1.00  0.00    -0.203 F 
ATOM     71  F   UNL     1      14.791 -10.760   0.596  1.00  0.00    -0.200 F 
ATOM     72  C   UNL     1      13.776  -9.073  -0.707  1.00  0.00     0.200 A 
ATOM     73  F   UNL     1      12.774  -7.347  -1.968  1.00  0.00    -0.200 F 
ATOM     74  F   UNL     1      13.805  -9.866  -1.786  1.00  0.00    -0.200 F 
ENDBRANCH  40  64
BRANCH  52  75
ATOM     75  C   UNL     1      18.785  -4.499   5.395  1.00  0.00     0.064 A 
ATOM     76  C   UNL     1      19.525  -3.910   4.359  1.00  0.00     0.173 A 
ATOM     77  C   UNL     1      19.493  -5.152   6.416  1.00  0.00     0.173 A 
ATOM     78  F   UNL     1      18.897  -3.286   3.350  1.00  0.00    -0.203 F 
ATOM     79  C   UNL     1      20.915  -3.996   4.333  1.00  0.00     0.198 A 
ATOM     80  C   UNL     1      20.884  -5.206   6.405  1.00  0.00     0.198 A 
ATOM     81  F   UNL     1      18.836  -5.726   7.435  1.00  0.00    -0.203 F 
ATOM     82  F   UNL     1      21.597  -3.471   3.305  1.00  0.00    -0.200 F 
ATOM     83  C   UNL     1      21.593  -4.636   5.359  1.00  0.00     0.200 A 
ATOM     84  F   UNL     1      21.538  -5.811   7.406  1.00  0.00    -0.200 F 
ATOM     85  F   UNL     1      22.931  -4.710   5.337  1.00  0.00    -0.200 F 
ENDBRANCH  52  75
ENDBRANCH  26  27
ENDBRANCH  18  21
ENDBRANCH  16  17
ENDBRANCH  15  16
ENDBRANCH   1  15
TORSDOF 13
