REMARK SMILES CC(C)c1ccc(NC(=O)C[C@H]2SC[C@@H](C(=O)NCCCCNC(=O)c3ccc(-c4c5nc(c(-c6c(F)c(F)c(F)c(F)c6F)c6ccc([nH]6)c(-c6c(F)c(F)c(F)c(F)c6F)c6nc(c(-c7c(F)c(F)c(F)c(F)c7F)c7ccc4[nH]7)C=C6)C=C5)cc3)NC2=O)cc1
REMARK SMILES IDX 19 1 18 2 16 3 17 4 15 6 12 7 13 8 90 9 14 10 89 11 91 12
REMARK SMILES IDX 11 14 9 15 8 16 10 18 7 19 4 20 5 21 93 22 6 23 92 24 2 25
REMARK SMILES IDX 1 26 3 27 20 28 21 29 22 30 23 31 24 32 25 34 26 35 27 36
REMARK SMILES IDX 88 37 28 38 87 39 29 40 30 41 31 42 81 43 32 44 86 45 80 46
REMARK SMILES IDX 82 47 33 48 85 49 79 50 78 51 34 53 66 54 46 55 65 56 47 57
REMARK SMILES IDX 50 58 64 59 83 60 48 61 49 62 63 64 84 65 51 66 35 67 36 68
REMARK SMILES IDX 44 69 37 70 38 71 42 72 45 73 39 74 40 75 43 76 41 77 67 78
REMARK SMILES IDX 68 79 76 80 69 81 70 82 74 83 77 84 71 85 72 86 75 87 73 88
REMARK SMILES IDX 52 89 53 90 61 91 54 92 55 93 59 94 62 95 56 96 57 97 60 98
REMARK SMILES IDX 58 99
REMARK H PARENT 18 5 89 13 8 17 23 33 82 52 50 63
REMARK Flexibility Score: inf
ROOT
ATOM      1  C   UNL     1       1.196   1.006  -1.459  1.00  0.00     0.116 C 
ENDROOT
BRANCH   1   2
ATOM      2  N   UNL     1       0.530   1.403  -0.239  1.00  0.00    -0.354 N 
ATOM      3  C   UNL     1      -0.511   2.278  -0.104  1.00  0.00     0.243 C 
ATOM      4  O   UNL     1      -0.627   2.846   0.981  1.00  0.00    -0.273 OA
ATOM      5  H   UNL     1       0.866   0.995   0.592  1.00  0.00     0.163 HD
BRANCH   3   6
ATOM      6  C   UNL     1      -1.610   2.284  -1.189  1.00  0.00     0.181 C 
ATOM      7  C   UNL     1      -4.236   2.589   0.346  1.00  0.00     0.145 C 
ATOM      8  S   UNL     1      -3.366   4.174  -0.030  1.00  0.00    -0.145 SA
ATOM      9  C   UNL     1      -3.295   1.377   0.335  1.00  0.00     0.234 C 
ATOM     10  C   UNL     1      -2.290   3.631  -1.387  1.00  0.00     0.105 C 
ATOM     11  N   UNL     1      -2.498   1.210  -0.773  1.00  0.00    -0.343 N 
ATOM     12  O   UNL     1      -3.266   0.473   1.164  1.00  0.00    -0.274 OA
ATOM     13  H   UNL     1      -2.529   0.368  -1.283  1.00  0.00     0.164 HD
BRANCH   7  14
ATOM     14  C   UNL     1      -5.113   2.816   1.587  1.00  0.00     0.124 C 
BRANCH  14  15
ATOM     15  C   UNL     1      -5.304   1.700   2.592  1.00  0.00     0.226 C 
ATOM     16  N   UNL     1      -5.786   0.469   2.275  1.00  0.00    -0.326 N 
ATOM     17  H   UNL     1      -5.845  -0.144   3.043  1.00  0.00     0.169 HD
ATOM     18  O   UNL     1      -5.021   1.903   3.780  1.00  0.00    -0.275 OA
BRANCH  16  19
ATOM     19  C   UNL     1      -6.215  -0.098   1.069  1.00  0.00     0.041 A 
ATOM     20  C   UNL     1      -6.833  -1.383  -1.364  1.00  0.00    -0.045 A 
ATOM     21  C   UNL     1      -7.119  -0.023  -1.171  1.00  0.00     0.006 A 
ATOM     22  C   UNL     1      -6.257  -2.098  -0.308  1.00  0.00     0.006 A 
ATOM     23  C   UNL     1      -6.824   0.611   0.041  1.00  0.00     0.026 A 
ATOM     24  C   UNL     1      -5.973  -1.465   0.904  1.00  0.00     0.026 A 
BRANCH  20  25
ATOM     25  C   UNL     1      -7.134  -2.029  -2.704  1.00  0.00     0.013 C 
ATOM     26  C   UNL     1      -5.869  -2.114  -3.560  1.00  0.00     0.012 C 
ATOM     27  C   UNL     1      -7.790  -3.406  -2.567  1.00  0.00     0.012 C 
ENDBRANCH  20  25
ENDBRANCH  16  19
ENDBRANCH  14  15
ENDBRANCH   7  14
ENDBRANCH   3   6
ENDBRANCH   1   2
BRANCH   1  28
ATOM     28  C   UNL     1       2.276   2.030  -1.805  1.00  0.00     0.023 C 
BRANCH  28  29
ATOM     29  C   UNL     1       3.361   2.172  -0.731  1.00  0.00     0.023 C 
BRANCH  29  30
ATOM     30  C   UNL     1       4.037   0.866  -0.327  1.00  0.00     0.116 C 
BRANCH  30  31
ATOM     31  N   UNL     1       4.638   0.180  -1.461  1.00  0.00    -0.352 N 
ATOM     32  C   UNL     1       5.901  -0.340  -1.586  1.00  0.00     0.251 C 
ATOM     33  H   UNL     1       4.057   0.075  -2.249  1.00  0.00     0.163 HD
ATOM     34  O   UNL     1       6.299  -0.743  -2.675  1.00  0.00    -0.269 OA
BRANCH  32  35
ATOM     35  C   UNL     1       6.788  -0.383  -0.408  1.00  0.00     0.039 A 
ATOM     36  C   UNL     1       8.097   0.087  -0.533  1.00  0.00     0.014 A 
ATOM     37  C   UNL     1       6.320  -0.857   0.821  1.00  0.00     0.014 A 
ATOM     38  C   UNL     1       8.917   0.148   0.594  1.00  0.00     0.010 A 
ATOM     39  C   UNL     1       7.112  -0.727   1.956  1.00  0.00     0.010 A 
ATOM     40  C   UNL     1       8.417  -0.219   1.855  1.00  0.00    -0.014 A 
BRANCH  40  41
ATOM     41  C   UNL     1       9.237  -0.062   3.082  1.00  0.00     0.031 A 
ATOM     42  C   UNL     1       9.632  -1.267   3.887  1.00  0.00     0.074 A 
ATOM     43  C   UNL     1       9.567   1.173   3.506  1.00  0.00     0.049 A 
ATOM     44  N   UNL     1      10.279  -1.329   5.023  1.00  0.00    -0.248 NA
ATOM     45  C   UNL     1       9.223  -2.578   3.358  1.00  0.00     0.031 C 
ATOM     46  C   UNL     1       9.205   2.423   2.835  1.00  0.00     0.029 A 
ATOM     47  N   UNL     1      10.271   1.583   4.611  1.00  0.00    -0.354 N 
ATOM     48  C   UNL     1      10.345  -2.677   5.347  1.00  0.00     0.074 A 
ATOM     49  C   UNL     1       9.624  -3.395   4.320  1.00  0.00     0.031 C 
ATOM     50  C   UNL     1       9.709   3.456   3.528  1.00  0.00     0.029 A 
ATOM     51  C   UNL     1      10.388   2.948   4.715  1.00  0.00     0.049 A 
ATOM     52  H   UNL     1      10.655   0.958   5.268  1.00  0.00     0.167 HD
ATOM     53  C   UNL     1      10.972  -3.263   6.395  1.00  0.00     0.037 A 
ATOM     54  C   UNL     1      10.967   3.703   5.667  1.00  0.00     0.037 A 
ATOM     55  C   UNL     1      11.700  -2.544   7.407  1.00  0.00     0.049 A 
ATOM     56  C   UNL     1      11.630   3.027   6.838  1.00  0.00     0.074 A 
ATOM     57  C   UNL     1      12.415  -3.050   8.479  1.00  0.00     0.029 A 
ATOM     58  N   UNL     1      11.800  -1.162   7.478  1.00  0.00    -0.354 N 
ATOM     59  N   UNL     1      11.748   1.748   7.097  1.00  0.00    -0.248 NA
ATOM     60  C   UNL     1      12.242   3.902   7.847  1.00  0.00     0.031 C 
ATOM     61  C   UNL     1      12.899  -1.974   9.229  1.00  0.00     0.029 A 
ATOM     62  C   UNL     1      12.541  -0.797   8.591  1.00  0.00     0.049 A 
ATOM     63  H   UNL     1      11.403  -0.533   6.832  1.00  0.00     0.167 HD
ATOM     64  C   UNL     1      12.472   1.663   8.278  1.00  0.00     0.074 A 
ATOM     65  C   UNL     1      12.780   3.020   8.677  1.00  0.00     0.031 C 
ATOM     66  C   UNL     1      12.847   0.559   8.971  1.00  0.00     0.037 A 
BRANCH  53  67
ATOM     67  C   UNL     1      10.899  -4.760   6.500  1.00  0.00     0.064 A 
ATOM     68  C   UNL     1      11.557  -5.596   5.584  1.00  0.00     0.173 A 
ATOM     69  C   UNL     1      10.193  -5.368   7.549  1.00  0.00     0.173 A 
ATOM     70  F   UNL     1      12.237  -5.067   4.555  1.00  0.00    -0.203 F 
ATOM     71  C   UNL     1      11.486  -6.981   5.697  1.00  0.00     0.198 A 
ATOM     72  C   UNL     1      10.152  -6.753   7.679  1.00  0.00     0.198 A 
ATOM     73  F   UNL     1       9.550  -4.617   8.457  1.00  0.00    -0.203 F 
ATOM     74  F   UNL     1      12.079  -7.758   4.780  1.00  0.00    -0.200 F 
ATOM     75  C   UNL     1      10.790  -7.559   6.748  1.00  0.00     0.200 A 
ATOM     76  F   UNL     1       9.492  -7.310   8.704  1.00  0.00    -0.200 F 
ATOM     77  F   UNL     1      10.730  -8.893   6.861  1.00  0.00    -0.200 F 
ENDBRANCH  53  67
BRANCH  54  78
ATOM     78  C   UNL     1      10.963   5.185   5.546  1.00  0.00     0.064 A 
ATOM     79  C   UNL     1      12.153   5.892   5.320  1.00  0.00     0.173 A 
ATOM     80  C   UNL     1       9.778   5.927   5.664  1.00  0.00     0.173 A 
ATOM     81  F   UNL     1      13.316   5.230   5.221  1.00  0.00    -0.203 F 
ATOM     82  C   UNL     1      12.162   7.282   5.239  1.00  0.00     0.198 A 
ATOM     83  C   UNL     1       9.783   7.315   5.551  1.00  0.00     0.198 A 
ATOM     84  F   UNL     1       8.612   5.300   5.875  1.00  0.00    -0.203 F 
ATOM     85  F   UNL     1      13.320   7.934   5.072  1.00  0.00    -0.200 F 
ATOM     86  C   UNL     1      10.976   7.993   5.348  1.00  0.00     0.200 A 
ATOM     87  F   UNL     1       8.633   7.997   5.641  1.00  0.00    -0.200 F 
ATOM     88  F   UNL     1      10.984   9.330   5.266  1.00  0.00    -0.200 F 
ENDBRANCH  54  78
BRANCH  66  89
ATOM     89  C   UNL     1      13.668   0.768  10.211  1.00  0.00     0.064 A 
ATOM     90  C   UNL     1      13.115   1.314  11.379  1.00  0.00     0.173 A 
ATOM     91  C   UNL     1      15.014   0.373  10.245  1.00  0.00     0.173 A 
ATOM     92  F   UNL     1      11.837   1.722  11.395  1.00  0.00    -0.203 F 
ATOM     93  C   UNL     1      13.887   1.479  12.527  1.00  0.00     0.198 A 
ATOM     94  C   UNL     1      15.773   0.508  11.403  1.00  0.00     0.198 A 
ATOM     95  F   UNL     1      15.590  -0.162   9.157  1.00  0.00    -0.203 F 
ATOM     96  F   UNL     1      13.352   2.049  13.615  1.00  0.00    -0.200 F 
ATOM     97  C   UNL     1      15.212   1.069  12.540  1.00  0.00     0.200 A 
ATOM     98  F   UNL     1      17.048   0.096  11.420  1.00  0.00    -0.200 F 
ATOM     99  F   UNL     1      15.950   1.218  13.649  1.00  0.00    -0.200 F 
ENDBRANCH  66  89
ENDBRANCH  40  41
ENDBRANCH  32  35
ENDBRANCH  30  31
ENDBRANCH  29  30
ENDBRANCH  28  29
ENDBRANCH   1  28
TORSDOF 15
