REMARK SMILES Cc1cc(C(=O)NCCCCNC(=O)c2ccc(-c3c4nc(c(-c5c(F)c(F)c(F)c(F)c5F)c5ccc([nH]5)c(-c5c(F)c(F)c(F)c(F)c5F)c5nc(c(-c6c(F)c(F)c(F)c(F)c6F)c6ccc3[nH]6)C=C5)C=C4)cc2)ccc1N[C@H](C)c1cc(F)cc(F)c1
REMARK SMILES IDX 9 1 8 2 7 3 5 4 6 5 4 7 1 8 2 9 3 10 80 11 79 12 78 13 81 14
REMARK SMILES IDX 82 16 83 17 84 18 85 19 91 20 86 21 89 22 87 23 88 24 90 25
REMARK SMILES IDX 10 26 11 27 12 28 13 29 14 31 15 32 16 33 77 34 17 35 76 36
REMARK SMILES IDX 18 37 19 38 20 39 70 40 21 41 75 42 69 43 71 44 22 45 74 46
REMARK SMILES IDX 68 47 67 48 23 50 55 51 35 52 54 53 36 54 39 55 53 56 72 57
REMARK SMILES IDX 37 58 38 59 52 61 73 62 40 63 24 64 25 65 33 66 26 67 27 68
REMARK SMILES IDX 31 69 34 70 28 71 29 72 32 73 30 74 56 75 57 76 65 77 58 78
REMARK SMILES IDX 59 79 63 80 66 81 60 82 61 83 64 84 62 85 41 86 42 87 50 88
REMARK SMILES IDX 43 89 44 90 48 91 51 92 45 93 46 94 49 95 47 96
REMARK H PARENT 7 6 81 15 12 30 71 49 39 60
REMARK Flexibility Score: inf
ROOT
ATOM      1  C   UNL     1      -1.349  10.581   0.680  1.00  0.00     0.023 C 
ENDROOT
BRANCH   1   2
ATOM      2  C   UNL     1      -0.973  10.539   2.174  1.00  0.00     0.116 C 
BRANCH   2   3
ATOM      3  N   UNL     1      -2.038   9.997   3.008  1.00  0.00    -0.352 N 
ATOM      4  C   UNL     1      -2.453   8.726   3.342  1.00  0.00     0.251 C 
ATOM      5  O   UNL     1      -3.404   8.646   4.122  1.00  0.00    -0.269 OA
ATOM      6  H   UNL     1      -2.587  10.698   3.427  1.00  0.00     0.163 HD
BRANCH   4   7
ATOM      7  C   UNL     1      -1.830   7.463   2.842  1.00  0.00     0.040 A 
ATOM      8  C   UNL     1      -2.326   3.730   3.486  1.00  0.00     0.046 C 
ATOM      9  C   UNL     1      -1.742   4.980   2.881  1.00  0.00    -0.027 A 
ATOM     10  C   UNL     1      -2.297   6.222   3.313  1.00  0.00     0.019 A 
ATOM     11  C   UNL     1      -0.656   4.971   1.986  1.00  0.00     0.037 A 
ATOM     12  C   UNL     1      -0.186   6.223   1.601  1.00  0.00     0.027 A 
ATOM     13  C   UNL     1      -0.777   7.428   1.958  1.00  0.00     0.016 A 
BRANCH  11  14
ATOM     14  N   UNL     1      -0.070   3.813   1.485  1.00  0.00    -0.378 N 
ATOM     15  H   UNL     1       0.068   3.065   2.110  1.00  0.00     0.161 HD
BRANCH  14  16
ATOM     16  C   UNL     1       0.361   3.624   0.080  1.00  0.00     0.106 C 
ATOM     17  C   UNL     1       0.794   2.165  -0.115  1.00  0.00     0.036 C 
BRANCH  16  18
ATOM     18  C   UNL     1       1.476   4.569  -0.357  1.00  0.00    -0.020 A 
ATOM     19  C   UNL     1       1.181   5.635  -1.235  1.00  0.00     0.045 A 
ATOM     20  C   UNL     1       2.761   4.518   0.210  1.00  0.00     0.045 A 
ATOM     21  C   UNL     1       2.104   6.663  -1.431  1.00  0.00     0.126 A 
ATOM     22  C   UNL     1       3.681   5.537  -0.040  1.00  0.00     0.126 A 
ATOM     23  F   UNL     1       1.743   7.741  -2.140  1.00  0.00    -0.207 F 
ATOM     24  C   UNL     1       3.354   6.628  -0.834  1.00  0.00     0.078 A 
ATOM     25  F   UNL     1       4.886   5.489   0.542  1.00  0.00    -0.207 F 
ENDBRANCH  16  18
ENDBRANCH  14  16
ENDBRANCH  11  14
ENDBRANCH   4   7
ENDBRANCH   2   3
ENDBRANCH   1   2
BRANCH   1  26
ATOM     26  C   UNL     1      -2.239  11.774   0.310  1.00  0.00     0.023 C 
BRANCH  26  27
ATOM     27  C   UNL     1      -1.483  13.101   0.314  1.00  0.00     0.116 C 
BRANCH  27  28
ATOM     28  N   UNL     1      -1.070  13.589  -0.996  1.00  0.00    -0.352 N 
ATOM     29  C   UNL     1      -0.207  14.628  -1.324  1.00  0.00     0.251 C 
ATOM     30  H   UNL     1      -1.460  13.111  -1.763  1.00  0.00     0.163 HD
ATOM     31  O   UNL     1      -0.066  14.959  -2.488  1.00  0.00    -0.269 OA
BRANCH  29  32
ATOM     32  C   UNL     1       0.660  15.229  -0.273  1.00  0.00     0.039 A 
ATOM     33  C   UNL     1       2.015  15.415  -0.579  1.00  0.00     0.014 A 
ATOM     34  C   UNL     1       0.222  15.363   1.039  1.00  0.00     0.014 A 
ATOM     35  C   UNL     1       2.952  15.428   0.451  1.00  0.00     0.010 A 
ATOM     36  C   UNL     1       1.149  15.253   2.055  1.00  0.00     0.010 A 
ATOM     37  C   UNL     1       2.513  15.195   1.752  1.00  0.00    -0.014 A 
BRANCH  37  38
ATOM     38  C   UNL     1       3.382  14.688   2.809  1.00  0.00     0.031 A 
ATOM     39  C   UNL     1       3.683  15.499   4.005  1.00  0.00     0.074 A 
ATOM     40  C   UNL     1       3.764  13.391   2.754  1.00  0.00     0.049 A 
ATOM     41  N   UNL     1       4.649  15.260   4.827  1.00  0.00    -0.248 NA
ATOM     42  C   UNL     1       2.932  16.698   4.345  1.00  0.00     0.031 C 
ATOM     43  C   UNL     1       4.298  12.574   3.841  1.00  0.00     0.029 A 
ATOM     44  N   UNL     1       3.906  12.583   1.611  1.00  0.00    -0.354 N 
ATOM     45  C   UNL     1       4.474  16.062   5.934  1.00  0.00     0.074 A 
ATOM     46  C   UNL     1       3.454  17.002   5.536  1.00  0.00     0.031 C 
ATOM     47  C   UNL     1       4.960  11.531   3.315  1.00  0.00     0.029 A 
ATOM     48  C   UNL     1       5.006  11.737   1.879  1.00  0.00     0.049 A 
ATOM     49  H   UNL     1       3.354  12.603   0.796  1.00  0.00     0.167 HD
ATOM     50  C   UNL     1       5.115  15.729   7.095  1.00  0.00     0.037 A 
ATOM     51  C   UNL     1       6.155  11.813   1.145  1.00  0.00     0.037 A 
ATOM     52  C   UNL     1       6.061  14.631   6.867  1.00  0.00     0.049 A 
ATOM     53  C   UNL     1       7.383  12.155   1.955  1.00  0.00     0.074 A 
ATOM     54  C   UNL     1       6.007  13.271   7.125  1.00  0.00     0.029 A 
ATOM     55  N   UNL     1       7.148  14.826   6.018  1.00  0.00    -0.354 N 
ATOM     56  N   UNL     1       7.342  12.693   3.142  1.00  0.00    -0.248 NA
ATOM     57  C   UNL     1       8.750  11.960   1.478  1.00  0.00     0.031 C 
ATOM     58  C   UNL     1       7.030  12.639   6.374  1.00  0.00     0.029 A 
ATOM     59  C   UNL     1       7.721  13.615   5.678  1.00  0.00     0.049 A 
ATOM     60  H   UNL     1       7.463  15.704   5.703  1.00  0.00     0.167 HD
ATOM     61  C   UNL     1       8.617  12.941   3.577  1.00  0.00     0.074 A 
ATOM     62  C   UNL     1       9.465  12.445   2.509  1.00  0.00     0.031 C 
ATOM     63  C   UNL     1       8.860  13.552   4.774  1.00  0.00     0.037 A 
BRANCH  50  64
ATOM     64  C   UNL     1       4.681  16.166   8.491  1.00  0.00     0.064 A 
ATOM     65  C   UNL     1       5.045  15.404   9.627  1.00  0.00     0.173 A 
ATOM     66  C   UNL     1       3.840  17.255   8.784  1.00  0.00     0.173 A 
ATOM     67  F   UNL     1       5.942  14.413   9.550  1.00  0.00    -0.203 F 
ATOM     68  C   UNL     1       4.504  15.630  10.899  1.00  0.00     0.198 A 
ATOM     69  C   UNL     1       3.267  17.460  10.045  1.00  0.00     0.198 A 
ATOM     70  F   UNL     1       3.584  18.211   7.888  1.00  0.00    -0.203 F 
ATOM     71  F   UNL     1       4.872  14.852  11.927  1.00  0.00    -0.200 F 
ATOM     72  C   UNL     1       3.584  16.636  11.100  1.00  0.00     0.200 A 
ATOM     73  F   UNL     1       2.406  18.473  10.224  1.00  0.00    -0.200 F 
ATOM     74  F   UNL     1       3.035  16.831  12.306  1.00  0.00    -0.200 F 
ENDBRANCH  50  64
BRANCH  51  75
ATOM     75  C   UNL     1       5.923  12.225  -0.264  1.00  0.00     0.064 A 
ATOM     76  C   UNL     1       5.177  11.368  -1.097  1.00  0.00     0.173 A 
ATOM     77  C   UNL     1       6.077  13.555  -0.674  1.00  0.00     0.173 A 
ATOM     78  F   UNL     1       4.996  10.084  -0.746  1.00  0.00    -0.203 F 
ATOM     79  C   UNL     1       4.520  11.848  -2.228  1.00  0.00     0.198 A 
ATOM     80  C   UNL     1       5.424  14.029  -1.814  1.00  0.00     0.198 A 
ATOM     81  F   UNL     1       6.754  14.425   0.088  1.00  0.00    -0.203 F 
ATOM     82  F   UNL     1       3.730  11.030  -2.938  1.00  0.00    -0.200 F 
ATOM     83  C   UNL     1       4.622  13.186  -2.569  1.00  0.00     0.200 A 
ATOM     84  F   UNL     1       5.493  15.332  -2.126  1.00  0.00    -0.200 F 
ATOM     85  F   UNL     1       3.914  13.673  -3.598  1.00  0.00    -0.200 F 
ENDBRANCH  51  75
BRANCH  63  86
ATOM     86  C   UNL     1      10.195  14.072   5.247  1.00  0.00     0.064 A 
ATOM     87  C   UNL     1      11.194  14.559   4.388  1.00  0.00     0.173 A 
ATOM     88  C   UNL     1      10.445  14.236   6.631  1.00  0.00     0.173 A 
ATOM     89  F   UNL     1      11.028  14.564   3.059  1.00  0.00    -0.203 F 
ATOM     90  C   UNL     1      12.378  15.119   4.877  1.00  0.00     0.198 A 
ATOM     91  C   UNL     1      11.602  14.846   7.113  1.00  0.00     0.198 A 
ATOM     92  F   UNL     1       9.560  13.833   7.554  1.00  0.00    -0.203 F 
ATOM     93  F   UNL     1      13.318  15.536   4.016  1.00  0.00    -0.200 F 
ATOM     94  C   UNL     1      12.576  15.274   6.236  1.00  0.00     0.200 A 
ATOM     95  F   UNL     1      11.756  15.036   8.431  1.00  0.00    -0.200 F 
ATOM     96  F   UNL     1      13.692  15.855   6.697  1.00  0.00    -0.200 F 
ENDBRANCH  63  86
ENDBRANCH  37  38
ENDBRANCH  29  32
ENDBRANCH  27  28
ENDBRANCH  26  27
ENDBRANCH   1  26
TORSDOF 14
