REMARK SMILES COc1ccc(-n2c(SCc3cn(-c4ccc(C(=O)NCCCCNC(=O)c5ccc(-c6c7nc(c(-c8c(F)c(F)c(F)c(F)c8F)c8ccc([nH]8)c(-c8c(F)c(F)c(F)c(F)c8F)c8nc(c(-c9c(F)c(F)c(F)c(F)c9F)c9ccc6[nH]9)C=C8)C=C7)cc5)cc4)nn3)nc3ccccc3c2=O)cc1
REMARK SMILES IDX 18 1 19 2 20 3 17 5 14 6 15 7 92 8 16 9 91 10 13 11 11 12
REMARK SMILES IDX 12 13 94 14 93 15 10 16 9 17 8 18 7 19 102 20 95 21 101 22
REMARK SMILES IDX 103 23 96 24 100 25 97 26 99 27 98 28 6 29 3 30 4 31 105 32
REMARK SMILES IDX 5 33 104 34 2 35 1 36 21 37 22 38 23 39 24 40 25 41 26 42
REMARK SMILES IDX 27 44 28 45 29 46 90 47 30 48 89 49 31 50 32 51 33 52 83 53
REMARK SMILES IDX 34 54 88 55 82 56 84 57 35 58 87 59 81 60 80 61 36 63 68 64
REMARK SMILES IDX 48 65 67 66 49 67 52 68 66 69 85 70 50 71 51 72 65 74 86 75
REMARK SMILES IDX 53 76 37 77 38 78 46 79 39 80 40 81 44 82 47 83 41 84 42 85
REMARK SMILES IDX 45 86 43 87 69 88 70 89 78 90 71 91 72 92 76 93 79 94 73 95
REMARK SMILES IDX 74 96 77 97 75 98 54 99 55 100 63 101 56 102 57 103 61 104
REMARK SMILES IDX 64 105 58 106 59 107 62 108 60 109
REMARK H PARENT 20 4 25 43 84 62 52 73
REMARK Flexibility Score: inf
ROOT
ATOM      1  C   UNL     1      -1.891  -1.429   6.230  1.00  0.00     0.251 C 
ATOM      2  O   UNL     1      -3.121  -1.403   6.221  1.00  0.00    -0.269 OA
ATOM      3  N   UNL     1      -1.272  -2.406   6.971  1.00  0.00    -0.352 N 
ATOM      4  H   UNL     1      -1.896  -2.972   7.481  1.00  0.00     0.163 HD
ENDROOT
BRANCH   1   5
ATOM      5  C   UNL     1      -1.138  -0.457   5.397  1.00  0.00     0.039 A 
ATOM      6  C   UNL     1       0.254   1.167   3.661  1.00  0.00     0.066 A 
ATOM      7  C   UNL     1      -1.119   1.045   3.486  1.00  0.00     0.029 A 
ATOM      8  C   UNL     1       0.926   0.586   4.728  1.00  0.00     0.029 A 
ATOM      9  C   UNL     1      -1.809   0.188   4.340  1.00  0.00     0.016 A 
ATOM     10  C   UNL     1       0.204  -0.161   5.625  1.00  0.00     0.016 A 
BRANCH   6  11
ATOM     11  N   UNL     1       1.007   2.034   2.885  1.00  0.00    -0.220 N 
ATOM     12  C   UNL     1       2.882   3.012   2.460  1.00  0.00     0.093 A 
ATOM     13  C   UNL     1       2.283   1.784   2.449  1.00  0.00     0.141 A 
ATOM     14  N   UNL     1       1.961   3.943   2.866  1.00  0.00    -0.134 NA
ATOM     15  N   UNL     1       0.795   3.351   3.022  1.00  0.00    -0.062 NA
BRANCH  12  16
ATOM     16  C   UNL     1       4.266   3.360   2.110  1.00  0.00     0.138 C 
BRANCH  16  17
ATOM     17  S   UNL     1       4.722   5.011   2.594  1.00  0.00    -0.081 SA
BRANCH  17  18
ATOM     18  C   UNL     1       3.327   6.033   2.032  1.00  0.00     0.176 A 
ATOM     19  N   UNL     1       3.204   6.086   0.653  1.00  0.00    -0.255 N 
ATOM     20  C   UNL     1       3.827   7.160   0.029  1.00  0.00     0.266 A 
ATOM     21  N   UNL     1       3.176   7.128   2.719  1.00  0.00    -0.223 NA
ATOM     22  C   UNL     1       4.602   8.027   0.978  1.00  0.00     0.066 A 
ATOM     23  O   UNL     1       3.825   7.407  -1.171  1.00  0.00    -0.268 OA
ATOM     24  C   UNL     1       4.169   8.042   2.319  1.00  0.00     0.079 A 
ATOM     25  C   UNL     1       5.851   8.535   0.640  1.00  0.00     0.016 A 
ATOM     26  C   UNL     1       4.941   8.650   3.306  1.00  0.00     0.029 A 
ATOM     27  C   UNL     1       6.663   9.056   1.654  1.00  0.00     0.001 A 
ATOM     28  C   UNL     1       6.203   9.136   2.974  1.00  0.00     0.002 A 
BRANCH  19  29
ATOM     29  C   UNL     1       2.358   5.171  -0.034  1.00  0.00     0.052 A 
ATOM     30  C   UNL     1       0.869   2.893  -0.750  1.00  0.00     0.119 A 
ATOM     31  C   UNL     1       0.243   3.960  -0.108  1.00  0.00     0.048 A 
ATOM     32  C   UNL     1       2.191   3.031  -1.172  1.00  0.00     0.048 A 
ATOM     33  C   UNL     1       0.992   5.083   0.277  1.00  0.00     0.030 A 
ATOM     34  C   UNL     1       2.924   4.184  -0.847  1.00  0.00     0.030 A 
BRANCH  30  35
ATOM     35  O   UNL     1       0.126   1.770  -0.989  1.00  0.00    -0.497 OA
ATOM     36  C   UNL     1       0.692   0.565  -0.466  1.00  0.00     0.278 C 
ENDBRANCH  30  35
ENDBRANCH  19  29
ENDBRANCH  17  18
ENDBRANCH  16  17
ENDBRANCH  12  16
ENDBRANCH   6  11
ENDBRANCH   1   5
BRANCH   3  37
ATOM     37  C   UNL     1       0.123  -2.768   7.149  1.00  0.00     0.116 C 
BRANCH  37  38
ATOM     38  C   UNL     1       0.747  -2.092   8.381  1.00  0.00     0.023 C 
BRANCH  38  39
ATOM     39  C   UNL     1       0.346  -2.689   9.731  1.00  0.00     0.023 C 
BRANCH  39  40
ATOM     40  C   UNL     1       0.859  -4.099   9.988  1.00  0.00     0.116 C 
BRANCH  40  41
ATOM     41  N   UNL     1       2.323  -4.190  10.004  1.00  0.00    -0.352 N 
ATOM     42  C   UNL     1       3.115  -5.321   9.842  1.00  0.00     0.251 C 
ATOM     43  H   UNL     1       2.805  -3.344  10.147  1.00  0.00     0.163 HD
ATOM     44  O   UNL     1       4.250  -5.376  10.267  1.00  0.00    -0.269 OA
BRANCH  42  45
ATOM     45  C   UNL     1       2.540  -6.448   9.088  1.00  0.00     0.039 A 
ATOM     46  C   UNL     1       2.674  -7.779   9.483  1.00  0.00     0.014 A 
ATOM     47  C   UNL     1       1.785  -6.105   7.976  1.00  0.00     0.014 A 
ATOM     48  C   UNL     1       1.964  -8.752   8.780  1.00  0.00     0.010 A 
ATOM     49  C   UNL     1       0.914  -7.013   7.452  1.00  0.00     0.010 A 
ATOM     50  C   UNL     1       1.071  -8.352   7.772  1.00  0.00    -0.014 A 
BRANCH  50  51
ATOM     51  C   UNL     1       0.212  -9.296   7.073  1.00  0.00     0.031 A 
ATOM     52  C   UNL     1      -0.636 -10.133   7.958  1.00  0.00     0.074 A 
ATOM     53  C   UNL     1       0.028  -9.248   5.735  1.00  0.00     0.049 A 
ATOM     54  N   UNL     1      -0.551 -11.407   8.146  1.00  0.00    -0.248 NA
ATOM     55  C   UNL     1      -1.602  -9.464   8.844  1.00  0.00     0.031 C 
ATOM     56  C   UNL     1       0.541  -8.271   4.764  1.00  0.00     0.029 A 
ATOM     57  N   UNL     1      -0.765 -10.033   4.960  1.00  0.00    -0.354 N 
ATOM     58  C   UNL     1      -1.581 -11.737   9.020  1.00  0.00     0.074 A 
ATOM     59  C   UNL     1      -2.066 -10.493   9.557  1.00  0.00     0.031 C 
ATOM     60  C   UNL     1      -0.140  -8.379   3.602  1.00  0.00     0.029 A 
ATOM     61  C   UNL     1      -1.001  -9.541   3.682  1.00  0.00     0.049 A 
ATOM     62  H   UNL     1      -1.143 -10.884   5.280  1.00  0.00     0.167 HD
ATOM     63  C   UNL     1      -2.106 -12.995   9.029  1.00  0.00     0.037 A 
ATOM     64  C   UNL     1      -1.873 -10.048   2.775  1.00  0.00     0.037 A 
ATOM     65  C   UNL     1      -1.227 -13.923   8.358  1.00  0.00     0.049 A 
ATOM     66  C   UNL     1      -2.143 -11.455   3.177  1.00  0.00     0.074 A 
ATOM     67  C   UNL     1       0.085 -14.316   8.545  1.00  0.00     0.029 A 
ATOM     68  N   UNL     1      -1.539 -14.295   7.071  1.00  0.00    -0.354 N 
ATOM     69  N   UNL     1      -1.240 -12.397   3.145  1.00  0.00    -0.248 NA
ATOM     70  C   UNL     1      -3.256 -11.684   4.087  1.00  0.00     0.031 C 
ATOM     71  C   UNL     1       0.631 -14.406   7.229  1.00  0.00     0.029 A 
ATOM     72  C   UNL     1      -0.398 -14.155   6.321  1.00  0.00     0.049 A 
ATOM     73  H   UNL     1      -2.416 -14.604   6.748  1.00  0.00     0.167 HD
ATOM     74  C   UNL     1      -1.433 -13.111   4.319  1.00  0.00     0.074 A 
ATOM     75  C   UNL     1      -2.730 -12.664   4.827  1.00  0.00     0.031 C 
ATOM     76  C   UNL     1      -0.402 -13.766   4.930  1.00  0.00     0.037 A 
BRANCH  63  77
ATOM     77  C   UNL     1      -3.558 -13.317   9.291  1.00  0.00     0.064 A 
ATOM     78  C   UNL     1      -3.950 -14.669   9.373  1.00  0.00     0.173 A 
ATOM     79  C   UNL     1      -4.612 -12.388   9.156  1.00  0.00     0.173 A 
ATOM     80  F   UNL     1      -3.032 -15.640   9.496  1.00  0.00    -0.203 F 
ATOM     81  C   UNL     1      -5.282 -15.062   9.229  1.00  0.00     0.198 A 
ATOM     82  C   UNL     1      -5.946 -12.781   9.067  1.00  0.00     0.198 A 
ATOM     83  F   UNL     1      -4.397 -11.079   8.987  1.00  0.00    -0.203 F 
ATOM     84  F   UNL     1      -5.588 -16.365   9.173  1.00  0.00    -0.200 F 
ATOM     85  C   UNL     1      -6.278 -14.118   9.065  1.00  0.00     0.200 A 
ATOM     86  F   UNL     1      -6.895 -11.850   8.893  1.00  0.00    -0.200 F 
ATOM     87  F   UNL     1      -7.546 -14.493   8.856  1.00  0.00    -0.200 F 
ENDBRANCH  63  77
BRANCH  64  88
ATOM     88  C   UNL     1      -2.728  -9.303   1.819  1.00  0.00     0.064 A 
ATOM     89  C   UNL     1      -3.381  -9.958   0.761  1.00  0.00     0.173 A 
ATOM     90  C   UNL     1      -3.145  -7.982   2.084  1.00  0.00     0.173 A 
ATOM     91  F   UNL     1      -3.078 -11.231   0.470  1.00  0.00    -0.203 F 
ATOM     92  C   UNL     1      -4.404  -9.339   0.032  1.00  0.00     0.198 A 
ATOM     93  C   UNL     1      -4.162  -7.364   1.353  1.00  0.00     0.198 A 
ATOM     94  F   UNL     1      -2.639  -7.296   3.119  1.00  0.00    -0.203 F 
ATOM     95  F   UNL     1      -5.044 -10.018  -0.931  1.00  0.00    -0.200 F 
ATOM     96  C   UNL     1      -4.800  -8.047   0.336  1.00  0.00     0.200 A 
ATOM     97  F   UNL     1      -4.558  -6.127   1.682  1.00  0.00    -0.200 F 
ATOM     98  F   UNL     1      -5.819  -7.476  -0.322  1.00  0.00    -0.200 F 
ENDBRANCH  64  88
BRANCH  76  99
ATOM     99  C   UNL     1       0.903 -13.892   4.191  1.00  0.00     0.064 A 
ATOM    100  C   UNL     1       1.702 -12.801   3.801  1.00  0.00     0.173 A 
ATOM    101  C   UNL     1       1.445 -15.173   4.018  1.00  0.00     0.173 A 
ATOM    102  F   UNL     1       1.307 -11.542   4.022  1.00  0.00    -0.203 F 
ATOM    103  C   UNL     1       2.961 -12.988   3.232  1.00  0.00     0.198 A 
ATOM    104  C   UNL     1       2.717 -15.356   3.483  1.00  0.00     0.198 A 
ATOM    105  F   UNL     1       0.756 -16.252   4.422  1.00  0.00    -0.203 F 
ATOM    106  F   UNL     1       3.697 -11.928   2.865  1.00  0.00    -0.200 F 
ATOM    107  C   UNL     1       3.471 -14.266   3.081  1.00  0.00     0.200 A 
ATOM    108  F   UNL     1       3.226 -16.592   3.387  1.00  0.00    -0.200 F 
ATOM    109  F   UNL     1       4.699 -14.446   2.575  1.00  0.00    -0.200 F 
ENDBRANCH  76  99
ENDBRANCH  50  51
ENDBRANCH  42  45
ENDBRANCH  40  41
ENDBRANCH  39  40
ENDBRANCH  38  39
ENDBRANCH  37  38
ENDBRANCH   3  37
TORSDOF 17
