REMARK SMILES O=C(NCCCCNC(=O)c1ccc(-c2c3nc(c(-c4c(F)c(F)c(F)c(F)c4F)c4ccc([nH]4)c(-c4c(F)c(F)c(F)c(F)c4F)c4nc(c(-c5c(F)c(F)c(F)c(F)c5F)c5ccc2[nH]5)C=C4)C=C3)cc1)C1=CN(c2ccccc2)C[NH2+][C@H]1c1ccc(NC(=S)NC(=O)c2cc3ccccc3o2)cc1
REMARK SMILES IDX 4 1 3 2 1 3 2 4 74 6 75 7 85 8 76 9 84 10 83 11 86 14 87 15
REMARK SMILES IDX 106 16 88 17 105 18 89 19 90 20 91 22 92 23 93 24 94 25
REMARK SMILES IDX 95 27 96 28 97 29 104 30 98 31 103 32 99 33 102 34 100 35
REMARK SMILES IDX 101 36 77 37 78 38 82 39 79 40 81 41 80 42 5 43 6 44 7 45
REMARK SMILES IDX 8 46 9 47 10 49 11 50 12 51 73 52 13 53 72 54 14 55 15 56
REMARK SMILES IDX 16 57 66 58 17 59 71 60 65 61 67 62 18 63 70 64 64 65 63 66
REMARK SMILES IDX 19 68 51 69 31 70 50 71 32 72 35 73 49 74 68 75 33 76 34 77
REMARK SMILES IDX 48 79 69 80 36 81 20 82 21 83 29 84 22 85 23 86 27 87 30 88
REMARK SMILES IDX 24 89 25 90 28 91 26 92 52 93 53 94 61 95 54 96 55 97 59 98
REMARK SMILES IDX 62 99 56 100 57 101 60 102 58 103 37 104 38 105 46 106
REMARK SMILES IDX 39 107 40 108 44 109 47 110 41 111 42 112 45 113 43 114
REMARK H PARENT 3 5 84 12 84 13 90 21 93 26 8 48 67 67 35 78
REMARK Flexibility Score: inf
ROOT
ATOM      1  C   UNL     1       4.670  -0.922  -1.083  1.00  0.00     0.116 C 
ENDROOT
BRANCH   1   2
ATOM      2  N   UNL     1       3.254  -0.592  -1.218  1.00  0.00    -0.352 N 
ATOM      3  O   UNL     1       1.218   0.110  -0.590  1.00  0.00    -0.269 OA
ATOM      4  C   UNL     1       2.408  -0.007  -0.322  1.00  0.00     0.255 C 
ATOM      5  H   UNL     1       2.850  -0.827  -2.084  1.00  0.00     0.163 HD
BRANCH   4   6
ATOM      6  C   UNL     1       2.962   0.420   0.977  1.00  0.00     0.095 C 
ATOM      7  C   UNL     1       4.097   1.130   0.971  1.00  0.00     0.107 C 
ATOM      8  C   UNL     1       2.305  -0.090   2.221  1.00  0.00     0.253 C 
ATOM      9  N   UNL     1       4.912   1.280   2.071  1.00  0.00    -0.300 N 
ATOM     10  N   UNL     1       3.203  -0.114   3.404  1.00  0.00    -0.319 N 
ATOM     11  C   UNL     1       4.379   0.778   3.350  1.00  0.00     0.393 C 
ATOM     12  H   UNL     1       2.651   0.150   4.220  1.00  0.00     0.348 HD
ATOM     13  H   UNL     1       3.582  -1.060   3.440  1.00  0.00     0.348 HD
BRANCH   8  14
ATOM     14  C   UNL     1       0.955   0.573   2.559  1.00  0.00     0.014 A 
ATOM     15  C   UNL     1       0.526   1.785   1.985  1.00  0.00     0.012 A 
ATOM     16  C   UNL     1       0.133   0.003   3.546  1.00  0.00     0.012 A 
ATOM     17  C   UNL     1      -0.528   2.522   2.545  1.00  0.00     0.026 A 
ATOM     18  C   UNL     1      -0.938   0.723   4.085  1.00  0.00     0.026 A 
ATOM     19  C   UNL     1      -1.174   2.037   3.676  1.00  0.00     0.040 A 
BRANCH  19  20
ATOM     20  N   UNL     1      -2.064   2.802   4.442  1.00  0.00    -0.332 N 
ATOM     21  H   UNL     1      -2.643   2.276   5.040  1.00  0.00     0.169 HD
BRANCH  20  22
ATOM     22  C   UNL     1      -2.261   4.128   4.500  1.00  0.00     0.177 C 
ATOM     23  S   UNL     1      -3.837   4.676   4.684  1.00  0.00    -0.040 S 
BRANCH  22  24
ATOM     24  N   UNL     1      -1.276   5.083   4.527  1.00  0.00    -0.296 N 
ATOM     25  C   UNL     1       0.071   5.362   4.840  1.00  0.00     0.293 C 
ATOM     26  H   UNL     1      -1.673   5.918   4.188  1.00  0.00     0.172 HD
ATOM     27  O   UNL     1       0.357   6.565   4.794  1.00  0.00    -0.265 OA
BRANCH  25  28
ATOM     28  C   UNL     1       1.062   4.350   5.204  1.00  0.00     0.193 A 
ATOM     29  C   UNL     1       1.594   3.407   4.349  1.00  0.00     0.065 A 
ATOM     30  O   UNL     1       2.234   4.872   5.799  1.00  0.00    -0.451 OA
ATOM     31  C   UNL     1       2.659   4.095   3.735  1.00  0.00     0.021 A 
ATOM     32  C   UNL     1       3.177   4.824   4.795  1.00  0.00     0.135 A 
ATOM     33  C   UNL     1       3.322   4.101   2.507  1.00  0.00     0.012 A 
ATOM     34  C   UNL     1       4.426   5.428   4.774  1.00  0.00     0.048 A 
ATOM     35  C   UNL     1       4.503   4.838   2.408  1.00  0.00     0.001 A 
ATOM     36  C   UNL     1       5.081   5.426   3.536  1.00  0.00     0.004 A 
ENDBRANCH  25  28
ENDBRANCH  22  24
ENDBRANCH  20  22
ENDBRANCH  19  20
ENDBRANCH   8  14
BRANCH   9  37
ATOM     37  C   UNL     1       6.218   1.830   1.994  1.00  0.00     0.046 A 
ATOM     38  C   UNL     1       6.581   2.708   0.947  1.00  0.00     0.026 A 
ATOM     39  C   UNL     1       7.242   1.515   2.902  1.00  0.00     0.026 A 
ATOM     40  C   UNL     1       7.862   3.263   0.829  1.00  0.00     0.002 A 
ATOM     41  C   UNL     1       8.536   2.048   2.777  1.00  0.00     0.002 A 
ATOM     42  C   UNL     1       8.844   2.929   1.747  1.00  0.00     0.000 A 
ENDBRANCH   9  37
ENDBRANCH   4   6
ENDBRANCH   1   2
BRANCH   1  43
ATOM     43  C   UNL     1       4.949  -2.402  -1.262  1.00  0.00     0.023 C 
BRANCH  43  44
ATOM     44  C   UNL     1       4.487  -2.961  -2.597  1.00  0.00     0.023 C 
BRANCH  44  45
ATOM     45  C   UNL     1       4.885  -2.119  -3.799  1.00  0.00     0.116 C 
BRANCH  45  46
ATOM     46  N   UNL     1       6.326  -1.938  -3.916  1.00  0.00    -0.352 N 
ATOM     47  C   UNL     1       7.133  -2.219  -4.990  1.00  0.00     0.251 C 
ATOM     48  H   UNL     1       6.779  -1.568  -3.124  1.00  0.00     0.163 HD
ATOM     49  O   UNL     1       8.355  -2.147  -4.903  1.00  0.00    -0.269 OA
BRANCH  47  50
ATOM     50  C   UNL     1       6.497  -2.651  -6.247  1.00  0.00     0.039 A 
ATOM     51  C   UNL     1       6.900  -3.851  -6.834  1.00  0.00     0.014 A 
ATOM     52  C   UNL     1       5.432  -1.917  -6.776  1.00  0.00     0.014 A 
ATOM     53  C   UNL     1       6.176  -4.359  -7.912  1.00  0.00     0.010 A 
ATOM     54  C   UNL     1       4.657  -2.473  -7.784  1.00  0.00     0.010 A 
ATOM     55  C   UNL     1       5.021  -3.699  -8.364  1.00  0.00    -0.014 A 
BRANCH  55  56
ATOM     56  C   UNL     1       4.176  -4.260  -9.448  1.00  0.00     0.031 A 
ATOM     57  C   UNL     1       3.989  -3.479 -10.719  1.00  0.00     0.074 A 
ATOM     58  C   UNL     1       3.515  -5.420  -9.256  1.00  0.00     0.049 A 
ATOM     59  N   UNL     1       3.204  -3.729 -11.736  1.00  0.00    -0.248 NA
ATOM     60  C   UNL     1       4.764  -2.234 -10.854  1.00  0.00     0.031 C 
ATOM     61  C   UNL     1       3.584  -6.248  -8.051  1.00  0.00     0.029 A 
ATOM     62  N   UNL     1       2.637  -6.095 -10.069  1.00  0.00    -0.354 N 
ATOM     63  C   UNL     1       3.370  -2.663 -12.610  1.00  0.00     0.074 A 
ATOM     64  C   UNL     1       4.295  -1.742 -11.990  1.00  0.00     0.031 C 
ATOM     65  C   UNL     1       2.798  -7.325  -8.210  1.00  0.00     0.029 A 
ATOM     66  C   UNL     1       2.127  -7.239  -9.503  1.00  0.00     0.049 A 
ATOM     67  H   UNL     1       2.395  -5.787 -10.972  1.00  0.00     0.167 HD
ATOM     68  C   UNL     1       2.812  -2.481 -13.828  1.00  0.00     0.037 A 
ATOM     69  C   UNL     1       1.206  -8.107  -9.968  1.00  0.00     0.037 A 
ATOM     70  C   UNL     1       1.926  -3.423 -14.458  1.00  0.00     0.049 A 
ATOM     71  C   UNL     1       0.593  -7.864 -11.324  1.00  0.00     0.074 A 
ATOM     72  C   UNL     1       1.380  -3.370 -15.728  1.00  0.00     0.029 A 
ATOM     73  N   UNL     1       1.452  -4.581 -13.863  1.00  0.00    -0.354 N 
ATOM     74  N   UNL     1       0.827  -6.899 -12.180  1.00  0.00    -0.248 NA
ATOM     75  C   UNL     1      -0.413  -8.835 -11.781  1.00  0.00     0.031 C 
ATOM     76  C   UNL     1       0.517  -4.458 -15.875  1.00  0.00     0.029 A 
ATOM     77  C   UNL     1       0.587  -5.231 -14.727  1.00  0.00     0.049 A 
ATOM     78  H   UNL     1       1.693  -4.895 -12.961  1.00  0.00     0.167 HD
ATOM     79  C   UNL     1       0.035  -7.171 -13.288  1.00  0.00     0.074 A 
ATOM     80  C   UNL     1      -0.678  -8.396 -13.003  1.00  0.00     0.031 C 
ATOM     81  C   UNL     1      -0.092  -6.468 -14.440  1.00  0.00     0.037 A 
BRANCH  68  82
ATOM     82  C   UNL     1       3.129  -1.217 -14.572  1.00  0.00     0.064 A 
ATOM     83  C   UNL     1       4.397  -0.979 -15.122  1.00  0.00     0.173 A 
ATOM     84  C   UNL     1       2.121  -0.270 -14.811  1.00  0.00     0.173 A 
ATOM     85  F   UNL     1       5.399  -1.846 -14.913  1.00  0.00    -0.203 F 
ATOM     86  C   UNL     1       4.647   0.167 -15.873  1.00  0.00     0.198 A 
ATOM     87  C   UNL     1       2.365   0.857 -15.590  1.00  0.00     0.198 A 
ATOM     88  F   UNL     1       0.890  -0.453 -14.310  1.00  0.00    -0.203 F 
ATOM     89  F   UNL     1       5.875   0.391 -16.361  1.00  0.00    -0.200 F 
ATOM     90  C   UNL     1       3.628   1.076 -16.117  1.00  0.00     0.200 A 
ATOM     91  F   UNL     1       1.375   1.725 -15.838  1.00  0.00    -0.200 F 
ATOM     92  F   UNL     1       3.865   2.165 -16.862  1.00  0.00    -0.200 F 
ENDBRANCH  68  82
BRANCH  69  93
ATOM     93  C   UNL     1       0.790  -9.283  -9.154  1.00  0.00     0.064 A 
ATOM     94  C   UNL     1       1.038 -10.591  -9.596  1.00  0.00     0.173 A 
ATOM     95  C   UNL     1       0.080  -9.129  -7.955  1.00  0.00     0.173 A 
ATOM     96  F   UNL     1       1.697 -10.795 -10.747  1.00  0.00    -0.203 F 
ATOM     97  C   UNL     1       0.552 -11.695  -8.897  1.00  0.00     0.198 A 
ATOM     98  C   UNL     1      -0.372 -10.234  -7.236  1.00  0.00     0.198 A 
ATOM     99  F   UNL     1      -0.182  -7.902  -7.480  1.00  0.00    -0.203 F 
ATOM    100  F   UNL     1       0.736 -12.928  -9.386  1.00  0.00    -0.200 F 
ATOM    101  C   UNL     1      -0.151 -11.515  -7.716  1.00  0.00     0.200 A 
ATOM    102  F   UNL     1      -1.037 -10.056  -6.086  1.00  0.00    -0.200 F 
ATOM    103  F   UNL     1      -0.629 -12.575  -7.051  1.00  0.00    -0.200 F 
ENDBRANCH  69  93
BRANCH  81 104
ATOM    104  C   UNL     1      -0.980  -7.034 -15.510  1.00  0.00     0.064 A 
ATOM    105  C   UNL     1      -2.376  -7.063 -15.379  1.00  0.00     0.173 A 
ATOM    106  C   UNL     1      -0.424  -7.496 -16.714  1.00  0.00     0.173 A 
ATOM    107  F   UNL     1      -2.956  -6.645 -14.243  1.00  0.00    -0.203 F 
ATOM    108  C   UNL     1      -3.180  -7.554 -16.403  1.00  0.00     0.198 A 
ATOM    109  C   UNL     1      -1.234  -7.952 -17.750  1.00  0.00     0.198 A 
ATOM    110  F   UNL     1       0.905  -7.482 -16.895  1.00  0.00    -0.203 F 
ATOM    111  F   UNL     1      -4.509  -7.617 -16.237  1.00  0.00    -0.200 F 
ATOM    112  C   UNL     1      -2.610  -7.988 -17.591  1.00  0.00     0.200 A 
ATOM    113  F   UNL     1      -0.681  -8.350 -18.904  1.00  0.00    -0.200 F 
ATOM    114  F   UNL     1      -3.388  -8.444 -18.582  1.00  0.00    -0.200 F 
ENDBRANCH  81 104
ENDBRANCH  55  56
ENDBRANCH  47  50
ENDBRANCH  45  46
ENDBRANCH  44  45
ENDBRANCH  43  44
ENDBRANCH   1  43
TORSDOF 17
