REMARK SMILES COc1ccc(C(=O)N[C@@H](C(=O)NCCCCNC(=O)c2ccc(-c3c4nc(c(-c5c(F)c(F)c(F)c(F)c5F)c5ccc([nH]5)c(-c5c(F)c(F)c(F)c(F)c5F)c5nc(c(-c6c(F)c(F)c(F)c(F)c6F)c6ccc3[nH]6)C=C5)C=C4)cc2)C(C)C)cc1O
REMARK SMILES IDX 15 1 14 2 13 3 11 4 12 5 10 7 9 8 7 9 8 10 6 12 3 13 4 14
REMARK SMILES IDX 88 15 5 16 87 17 2 18 1 19 89 20 84 22 85 23 86 24 16 25
REMARK SMILES IDX 17 26 18 27 19 28 20 30 21 31 22 32 83 33 23 34 82 35 24 36
REMARK SMILES IDX 25 37 26 38 76 39 27 40 81 41 75 42 77 43 28 44 80 45 74 46
REMARK SMILES IDX 73 47 29 49 61 50 41 51 60 52 42 53 45 54 59 55 78 56 43 57
REMARK SMILES IDX 44 58 58 60 79 61 46 62 30 63 31 64 39 65 32 66 33 67 37 68
REMARK SMILES IDX 40 69 34 70 35 71 38 72 36 73 62 74 63 75 71 76 64 77 65 78
REMARK SMILES IDX 69 79 72 80 66 81 67 82 70 83 68 84 47 85 48 86 56 87 49 88
REMARK SMILES IDX 50 89 54 90 57 91 51 92 52 93 55 94 53 95
REMARK H PARENT 13 6 9 11 89 21 18 29 77 48 45 59
REMARK Flexibility Score: inf
ROOT
ATOM      1  C   UNL     1       1.567  -4.620   6.174  1.00  0.00     0.023 C 
ENDROOT
BRANCH   1   2
ATOM      2  C   UNL     1       1.431  -4.865   4.674  1.00  0.00     0.116 C 
BRANCH   2   3
ATOM      3  N   UNL     1       0.926  -6.199   4.418  1.00  0.00    -0.354 N 
ATOM      4  C   UNL     1      -0.309  -6.578   3.966  1.00  0.00     0.242 C 
ATOM      5  O   UNL     1      -0.552  -7.784   3.917  1.00  0.00    -0.273 OA
ATOM      6  H   UNL     1       1.558  -6.933   4.592  1.00  0.00     0.163 HD
BRANCH   4   7
ATOM      7  C   UNL     1      -1.286  -5.492   3.444  1.00  0.00     0.174 C 
BRANCH   7   8
ATOM      8  N   UNL     1      -1.723  -4.617   4.541  1.00  0.00    -0.340 N 
ATOM      9  C   UNL     1      -1.786  -3.253   4.702  1.00  0.00     0.252 C 
ATOM     10  O   UNL     1      -2.253  -2.838   5.764  1.00  0.00    -0.269 OA
ATOM     11  H   UNL     1      -2.039  -5.114   5.329  1.00  0.00     0.164 HD
BRANCH   9  12
ATOM     12  C   UNL     1      -1.231  -2.260   3.729  1.00  0.00     0.043 A 
ATOM     13  C   UNL     1       0.145  -0.379   2.108  1.00  0.00     0.160 A 
ATOM     14  C   UNL     1      -0.182  -0.076   3.432  1.00  0.00     0.051 A 
ATOM     15  C   UNL     1      -0.251  -1.616   1.606  1.00  0.00     0.158 A 
ATOM     16  C   UNL     1      -0.844  -1.012   4.240  1.00  0.00     0.018 A 
ATOM     17  C   UNL     1      -1.005  -2.504   2.376  1.00  0.00     0.064 A 
BRANCH  13  18
ATOM     18  O   UNL     1       0.860   0.590   1.466  1.00  0.00    -0.493 OA
ATOM     19  C   UNL     1       0.823   0.621   0.044  1.00  0.00     0.278 C 
ENDBRANCH  13  18
BRANCH  15  20
ATOM     20  O   UNL     1       0.140  -2.098   0.388  1.00  0.00    -0.504 OA
ATOM     21  H   UNL     1       0.649  -1.562  -0.187  1.00  0.00     0.293 HD
ENDBRANCH  15  20
ENDBRANCH   9  12
ENDBRANCH   7   8
BRANCH   7  22
ATOM     22  C   UNL     1      -2.508  -6.119   2.717  1.00  0.00     0.015 C 
ATOM     23  C   UNL     1      -3.706  -5.170   2.576  1.00  0.00     0.010 C 
ATOM     24  C   UNL     1      -2.102  -6.611   1.322  1.00  0.00     0.010 C 
ENDBRANCH   7  22
ENDBRANCH   4   7
ENDBRANCH   2   3
ENDBRANCH   1   2
BRANCH   1  25
ATOM     25  C   UNL     1       2.741  -5.372   6.808  1.00  0.00     0.023 C 
BRANCH  25  26
ATOM     26  C   UNL     1       4.111  -4.988   6.261  1.00  0.00     0.116 C 
BRANCH  26  27
ATOM     27  N   UNL     1       4.443  -3.590   6.488  1.00  0.00    -0.352 N 
ATOM     28  C   UNL     1       5.646  -3.051   6.874  1.00  0.00     0.251 C 
ATOM     29  H   UNL     1       3.710  -2.948   6.348  1.00  0.00     0.163 HD
ATOM     30  O   UNL     1       5.738  -1.861   7.156  1.00  0.00    -0.269 OA
BRANCH  28  31
ATOM     31  C   UNL     1       6.826  -3.932   6.982  1.00  0.00     0.039 A 
ATOM     32  C   UNL     1       7.584  -3.902   8.154  1.00  0.00     0.014 A 
ATOM     33  C   UNL     1       7.155  -4.812   5.947  1.00  0.00     0.014 A 
ATOM     34  C   UNL     1       8.636  -4.804   8.316  1.00  0.00     0.010 A 
ATOM     35  C   UNL     1       8.157  -5.758   6.140  1.00  0.00     0.010 A 
ATOM     36  C   UNL     1       8.907  -5.765   7.327  1.00  0.00    -0.014 A 
BRANCH  36  37
ATOM     37  C   UNL     1       9.964  -6.790   7.521  1.00  0.00     0.031 A 
ATOM     38  C   UNL     1      11.160  -6.821   6.611  1.00  0.00     0.074 A 
ATOM     39  C   UNL     1       9.812  -7.733   8.471  1.00  0.00     0.049 A 
ATOM     40  N   UNL     1      12.149  -7.679   6.572  1.00  0.00    -0.248 NA
ATOM     41  C   UNL     1      11.245  -5.765   5.589  1.00  0.00     0.031 C 
ATOM     42  C   UNL     1       8.669  -7.842   9.381  1.00  0.00     0.029 A 
ATOM     43  N   UNL     1      10.614  -8.790   8.822  1.00  0.00    -0.354 N 
ATOM     44  C   UNL     1      12.958  -7.276   5.518  1.00  0.00     0.074 A 
ATOM     45  C   UNL     1      12.323  -6.128   4.911  1.00  0.00     0.031 C 
ATOM     46  C   UNL     1       8.852  -8.894  10.194  1.00  0.00     0.029 A 
ATOM     47  C   UNL     1      10.103  -9.558   9.840  1.00  0.00     0.049 A 
ATOM     48  H   UNL     1      11.476  -8.981   8.384  1.00  0.00     0.167 HD
ATOM     49  C   UNL     1      14.135  -7.805   5.110  1.00  0.00     0.037 A 
ATOM     50  C   UNL     1      10.583 -10.678  10.414  1.00  0.00     0.037 A 
ATOM     51  C   UNL     1      14.781  -8.927   5.739  1.00  0.00     0.049 A 
ATOM     52  C   UNL     1      11.898 -11.239   9.942  1.00  0.00     0.074 A 
ATOM     53  C   UNL     1      16.012  -9.487   5.446  1.00  0.00     0.029 A 
ATOM     54  N   UNL     1      14.248  -9.659   6.788  1.00  0.00    -0.354 N 
ATOM     55  N   UNL     1      12.695 -10.799   8.998  1.00  0.00    -0.248 NA
ATOM     56  C   UNL     1      12.386 -12.447  10.621  1.00  0.00     0.031 C 
ATOM     57  C   UNL     1      16.201 -10.591   6.282  1.00  0.00     0.029 A 
ATOM     58  C   UNL     1      15.114 -10.684   7.136  1.00  0.00     0.049 A 
ATOM     59  H   UNL     1      13.382  -9.479   7.222  1.00  0.00     0.167 HD
ATOM     60  C   UNL     1      13.788 -11.655   8.992  1.00  0.00     0.074 A 
ATOM     61  C   UNL     1      13.562 -12.630  10.037  1.00  0.00     0.031 C 
ATOM     62  C   UNL     1      14.881 -11.637   8.190  1.00  0.00     0.037 A 
BRANCH  49  63
ATOM     63  C   UNL     1      14.815  -7.176   3.928  1.00  0.00     0.064 A 
ATOM     64  C   UNL     1      15.411  -5.909   4.010  1.00  0.00     0.173 A 
ATOM     65  C   UNL     1      14.931  -7.880   2.720  1.00  0.00     0.173 A 
ATOM     66  F   UNL     1      15.318  -5.191   5.139  1.00  0.00    -0.203 F 
ATOM     67  C   UNL     1      16.082  -5.362   2.920  1.00  0.00     0.198 A 
ATOM     68  C   UNL     1      15.629  -7.342   1.641  1.00  0.00     0.198 A 
ATOM     69  F   UNL     1      14.383  -9.098   2.590  1.00  0.00    -0.203 F 
ATOM     70  F   UNL     1      16.611  -4.134   3.009  1.00  0.00    -0.200 F 
ATOM     71  C   UNL     1      16.200  -6.082   1.741  1.00  0.00     0.200 A 
ATOM     72  F   UNL     1      15.753  -8.046   0.507  1.00  0.00    -0.200 F 
ATOM     73  F   UNL     1      16.861  -5.561   0.698  1.00  0.00    -0.200 F 
ENDBRANCH  49  63
BRANCH  50  74
ATOM     74  C   UNL     1       9.824 -11.345  11.506  1.00  0.00     0.064 A 
ATOM     75  C   UNL     1      10.322 -11.379  12.816  1.00  0.00     0.173 A 
ATOM     76  C   UNL     1       8.603 -11.989  11.257  1.00  0.00     0.173 A 
ATOM     77  F   UNL     1      11.496 -10.796  13.101  1.00  0.00    -0.203 F 
ATOM     78  C   UNL     1       9.646 -12.059  13.827  1.00  0.00     0.198 A 
ATOM     79  C   UNL     1       7.912 -12.641  12.276  1.00  0.00     0.198 A 
ATOM     80  F   UNL     1       8.079 -11.982  10.023  1.00  0.00    -0.203 F 
ATOM     81  F   UNL     1      10.177 -12.127  15.056  1.00  0.00    -0.200 F 
ATOM     82  C   UNL     1       8.440 -12.686  13.558  1.00  0.00     0.200 A 
ATOM     83  F   UNL     1       6.738 -13.233  12.014  1.00  0.00    -0.200 F 
ATOM     84  F   UNL     1       7.792 -13.343  14.529  1.00  0.00    -0.200 F 
ENDBRANCH  50  74
BRANCH  62  85
ATOM     85  C   UNL     1      15.937 -12.674   8.439  1.00  0.00     0.064 A 
ATOM     86  C   UNL     1      15.733 -14.026   8.125  1.00  0.00     0.173 A 
ATOM     87  C   UNL     1      17.186 -12.302   8.960  1.00  0.00     0.173 A 
ATOM     88  F   UNL     1      14.552 -14.434   7.638  1.00  0.00    -0.203 F 
ATOM     89  C   UNL     1      16.731 -14.970   8.348  1.00  0.00     0.198 A 
ATOM     90  C   UNL     1      18.193 -13.244   9.151  1.00  0.00     0.198 A 
ATOM     91  F   UNL     1      17.436 -11.021   9.270  1.00  0.00    -0.203 F 
ATOM     92  F   UNL     1      16.496 -16.264   8.087  1.00  0.00    -0.200 F 
ATOM     93  C   UNL     1      17.962 -14.578   8.853  1.00  0.00     0.200 A 
ATOM     94  F   UNL     1      19.387 -12.860   9.624  1.00  0.00    -0.200 F 
ATOM     95  F   UNL     1      18.924 -15.488   9.059  1.00  0.00    -0.200 F 
ENDBRANCH  62  85
ENDBRANCH  36  37
ENDBRANCH  28  31
ENDBRANCH  26  27
ENDBRANCH  25  26
ENDBRANCH   1  25
TORSDOF 16
