REMARK SMILES C[C@@]1(CN2C(=O)c3ccc(C(=O)NCCCCNC(=O)c4ccc(-c5c6nc(c(-c7c(F)c(F)c(F)c(F)c7F)c7ccc([nH]7)c(-c7c(F)c(F)c(F)c(F)c7F)c7nc(c(-c8c(F)c(F)c(F)c(F)c8F)c8ccc5[nH]8)C=C7)C=C6)cc4)cc3C2=O)CCCO1
REMARK SMILES IDX 15 1 14 2 13 3 11 4 12 5 10 7 4 8 5 9 86 10 6 11 7 12 85 13
REMARK SMILES IDX 87 14 8 15 84 16 9 17 3 18 2 19 1 20 88 21 91 22 89 23 90 24
REMARK SMILES IDX 16 25 17 26 18 27 19 28 20 30 21 31 22 32 83 33 23 34 82 35
REMARK SMILES IDX 24 36 25 37 26 38 76 39 27 40 81 41 75 42 77 43 28 44 80 45
REMARK SMILES IDX 74 46 73 47 29 49 61 50 41 51 60 52 42 53 45 54 59 55 78 56
REMARK SMILES IDX 43 57 44 58 58 60 79 61 46 62 30 63 31 64 39 65 32 66 33 67
REMARK SMILES IDX 37 68 40 69 34 70 35 71 38 72 36 73 62 74 63 75 71 76 64 77
REMARK SMILES IDX 65 78 69 79 72 80 66 81 67 82 70 83 68 84 47 85 48 86 56 87
REMARK SMILES IDX 49 88 50 89 54 90 57 91 51 92 52 93 55 94 53 95
REMARK H PARENT 13 6 18 29 77 48 45 59
REMARK Flexibility Score: inf
ROOT
ATOM      1  C   UNL     1      -1.290   8.239  -4.204  1.00  0.00     0.023 C 
ENDROOT
BRANCH   1   2
ATOM      2  C   UNL     1      -2.465   7.354  -3.776  1.00  0.00     0.116 C 
BRANCH   2   3
ATOM      3  N   UNL     1      -2.825   6.426  -4.829  1.00  0.00    -0.352 N 
ATOM      4  C   UNL     1      -2.489   5.119  -5.068  1.00  0.00     0.251 C 
ATOM      5  O   UNL     1      -3.014   4.572  -6.038  1.00  0.00    -0.269 OA
ATOM      6  H   UNL     1      -3.429   6.810  -5.505  1.00  0.00     0.163 HD
BRANCH   4   7
ATOM      7  C   UNL     1      -1.549   4.324  -4.220  1.00  0.00     0.040 A 
ATOM      8  N   UNL     1       0.475   0.501  -2.619  1.00  0.00    -0.271 N 
ATOM      9  C   UNL     1       1.018   1.680  -2.200  1.00  0.00     0.261 C 
ATOM     10  C   UNL     1      -0.566   0.703  -3.491  1.00  0.00     0.261 C 
ATOM     11  O   UNL     1       2.005   1.885  -1.517  1.00  0.00    -0.269 OA
ATOM     12  C   UNL     1       0.205   2.739  -2.776  1.00  0.00     0.053 A 
ATOM     13  C   UNL     1      -0.756   2.155  -3.576  1.00  0.00     0.054 A 
ATOM     14  O   UNL     1      -1.198  -0.103  -4.141  1.00  0.00    -0.269 OA
ATOM     15  C   UNL     1       0.336   4.102  -2.658  1.00  0.00     0.015 A 
ATOM     16  C   UNL     1      -1.646   2.918  -4.311  1.00  0.00     0.028 A 
ATOM     17  C   UNL     1      -0.540   4.892  -3.408  1.00  0.00     0.015 A 
BRANCH   8  18
ATOM     18  C   UNL     1       1.014  -0.799  -2.259  1.00  0.00     0.164 C 
BRANCH  18  19
ATOM     19  C   UNL     1       0.568  -1.310  -0.860  1.00  0.00     0.084 C 
ATOM     20  C   UNL     1       0.912  -0.346   0.276  1.00  0.00     0.044 C 
ATOM     21  C   UNL     1       1.166  -2.693  -0.582  1.00  0.00     0.039 C 
ATOM     22  O   UNL     1      -0.863  -1.502  -0.866  1.00  0.00    -0.373 OA
ATOM     23  C   UNL     1       0.150  -3.626  -1.191  1.00  0.00     0.031 C 
ATOM     24  C   UNL     1      -1.152  -2.906  -0.920  1.00  0.00     0.161 C 
ENDBRANCH  18  19
ENDBRANCH   8  18
ENDBRANCH   4   7
ENDBRANCH   2   3
ENDBRANCH   1   2
BRANCH   1  25
ATOM     25  C   UNL     1      -1.684   9.433  -5.074  1.00  0.00     0.023 C 
BRANCH  25  26
ATOM     26  C   UNL     1      -2.623  10.432  -4.408  1.00  0.00     0.116 C 
BRANCH  26  27
ATOM     27  N   UNL     1      -2.107  10.969  -3.157  1.00  0.00    -0.352 N 
ATOM     28  C   UNL     1      -2.269  12.233  -2.642  1.00  0.00     0.251 C 
ATOM     29  H   UNL     1      -1.573  10.348  -2.610  1.00  0.00     0.163 HD
ATOM     30  O   UNL     1      -1.691  12.575  -1.617  1.00  0.00    -0.269 OA
BRANCH  28  31
ATOM     31  C   UNL     1      -3.116  13.192  -3.377  1.00  0.00     0.039 A 
ATOM     32  C   UNL     1      -2.574  14.425  -3.743  1.00  0.00     0.014 A 
ATOM     33  C   UNL     1      -4.404  12.829  -3.780  1.00  0.00     0.014 A 
ATOM     34  C   UNL     1      -3.293  15.261  -4.596  1.00  0.00     0.010 A 
ATOM     35  C   UNL     1      -5.088  13.631  -4.685  1.00  0.00     0.010 A 
ATOM     36  C   UNL     1      -4.530  14.845  -5.117  1.00  0.00    -0.014 A 
BRANCH  36  37
ATOM     37  C   UNL     1      -5.231  15.634  -6.159  1.00  0.00     0.031 A 
ATOM     38  C   UNL     1      -6.577  16.233  -5.877  1.00  0.00     0.074 A 
ATOM     39  C   UNL     1      -4.687  15.732  -7.388  1.00  0.00     0.049 A 
ATOM     40  N   UNL     1      -7.383  16.873  -6.685  1.00  0.00    -0.248 NA
ATOM     41  C   UNL     1      -7.100  16.066  -4.512  1.00  0.00     0.031 C 
ATOM     42  C   UNL     1      -3.406  15.152  -7.794  1.00  0.00     0.029 A 
ATOM     43  N   UNL     1      -5.151  16.341  -8.528  1.00  0.00    -0.354 N 
ATOM     44  C   UNL     1      -8.507  17.179  -5.931  1.00  0.00     0.074 A 
ATOM     45  C   UNL     1      -8.305  16.607  -4.618  1.00  0.00     0.031 C 
ATOM     46  C   UNL     1      -3.178  15.447  -9.083  1.00  0.00     0.029 A 
ATOM     47  C   UNL     1      -4.314  16.197  -9.608  1.00  0.00     0.049 A 
ATOM     48  H   UNL     1      -6.002  16.835  -8.567  1.00  0.00     0.167 HD
ATOM     49  C   UNL     1      -9.599  17.891  -6.299  1.00  0.00     0.037 A 
ATOM     50  C   UNL     1      -4.457  16.607 -10.883  1.00  0.00     0.037 A 
ATOM     51  C   UNL     1      -9.786  18.467  -7.605  1.00  0.00     0.049 A 
ATOM     52  C   UNL     1      -5.698  17.362 -11.274  1.00  0.00     0.074 A 
ATOM     53  C   UNL     1     -10.825  19.263  -8.055  1.00  0.00     0.029 A 
ATOM     54  N   UNL     1      -8.920  18.297  -8.675  1.00  0.00    -0.354 N 
ATOM     55  N   UNL     1      -6.718  17.717 -10.532  1.00  0.00    -0.248 NA
ATOM     56  C   UNL     1      -5.808  17.773 -12.681  1.00  0.00     0.031 C 
ATOM     57  C   UNL     1     -10.617  19.526  -9.413  1.00  0.00     0.029 A 
ATOM     58  C   UNL     1      -9.420  18.941  -9.796  1.00  0.00     0.049 A 
ATOM     59  H   UNL     1      -8.075  17.793  -8.643  1.00  0.00     0.167 HD
ATOM     60  C   UNL     1      -7.581  18.407 -11.373  1.00  0.00     0.074 A 
ATOM     61  C   UNL     1      -6.954  18.439 -12.678  1.00  0.00     0.031 C 
ATOM     62  C   UNL     1      -8.785  18.961 -11.089  1.00  0.00     0.037 A 
BRANCH  49  63
ATOM     63  C   UNL     1     -10.678  18.086  -5.274  1.00  0.00     0.064 A 
ATOM     64  C   UNL     1     -10.485  18.898  -4.145  1.00  0.00     0.173 A 
ATOM     65  C   UNL     1     -11.935  17.485  -5.440  1.00  0.00     0.173 A 
ATOM     66  F   UNL     1      -9.299  19.487  -3.933  1.00  0.00    -0.203 F 
ATOM     67  C   UNL     1     -11.498  19.075  -3.207  1.00  0.00     0.198 A 
ATOM     68  C   UNL     1     -12.957  17.691  -4.517  1.00  0.00     0.198 A 
ATOM     69  F   UNL     1     -12.177  16.704  -6.504  1.00  0.00    -0.203 F 
ATOM     70  F   UNL     1     -11.273  19.813  -2.112  1.00  0.00    -0.200 F 
ATOM     71  C   UNL     1     -12.735  18.478  -3.397  1.00  0.00     0.200 A 
ATOM     72  F   UNL     1     -14.156  17.124  -4.710  1.00  0.00    -0.200 F 
ATOM     73  F   UNL     1     -13.712  18.657  -2.498  1.00  0.00    -0.200 F 
ENDBRANCH  49  63
BRANCH  50  74
ATOM     74  C   UNL     1      -3.393  16.316 -11.880  1.00  0.00     0.064 A 
ATOM     75  C   UNL     1      -2.612  17.347 -12.420  1.00  0.00     0.173 A 
ATOM     76  C   UNL     1      -3.136  15.007 -12.315  1.00  0.00     0.173 A 
ATOM     77  F   UNL     1      -2.834  18.617 -12.052  1.00  0.00    -0.203 F 
ATOM     78  C   UNL     1      -1.626  17.082 -13.369  1.00  0.00     0.198 A 
ATOM     79  C   UNL     1      -2.130  14.740 -13.241  1.00  0.00     0.198 A 
ATOM     80  F   UNL     1      -3.852  13.983 -11.826  1.00  0.00    -0.203 F 
ATOM     81  F   UNL     1      -0.925  18.092 -13.901  1.00  0.00    -0.200 F 
ATOM     82  C   UNL     1      -1.381  15.779 -13.773  1.00  0.00     0.200 A 
ATOM     83  F   UNL     1      -1.885  13.477 -13.617  1.00  0.00    -0.200 F 
ATOM     84  F   UNL     1      -0.429  15.525 -14.681  1.00  0.00    -0.200 F 
ENDBRANCH  50  74
BRANCH  62  85
ATOM     85  C   UNL     1      -9.501  19.663 -12.207  1.00  0.00     0.064 A 
ATOM     86  C   UNL     1     -10.089  18.951 -13.262  1.00  0.00     0.173 A 
ATOM     87  C   UNL     1      -9.648  21.058 -12.193  1.00  0.00     0.173 A 
ATOM     88  F   UNL     1      -9.962  17.617 -13.330  1.00  0.00    -0.203 F 
ATOM     89  C   UNL     1     -10.782  19.612 -14.273  1.00  0.00     0.198 A 
ATOM     90  C   UNL     1     -10.368  21.713 -13.188  1.00  0.00     0.198 A 
ATOM     91  F   UNL     1      -9.109  21.786 -11.203  1.00  0.00    -0.203 F 
ATOM     92  F   UNL     1     -11.300  18.915 -15.294  1.00  0.00    -0.200 F 
ATOM     93  C   UNL     1     -10.930  20.991 -14.229  1.00  0.00     0.200 A 
ATOM     94  F   UNL     1     -10.523  23.043 -13.136  1.00  0.00    -0.200 F 
ATOM     95  F   UNL     1     -11.610  21.624 -15.195  1.00  0.00    -0.200 F 
ENDBRANCH  62  85
ENDBRANCH  36  37
ENDBRANCH  28  31
ENDBRANCH  26  27
ENDBRANCH  25  26
ENDBRANCH   1  25
TORSDOF 13
