REMARK SMILES C[C@H]1[C@H](C(=O)NCCCCNC(=O)c2ccc(-c3c4nc(c(-c5c(F)c(F)c(F)c(F)c5F)c5ccc([nH]5)c(-c5c(F)c(F)c(F)c(F)c5F)c5nc(c(-c6c(F)c(F)c(F)c(F)c6F)c6ccc3[nH]6)C=C5)C=C4)cc2)CCN1c1ccc(C(N)=O)c(Cl)c1
REMARK SMILES IDX 8 1 7 2 6 3 4 4 5 5 3 7 1 8 2 9 79 10 77 11 78 12 80 13
REMARK SMILES IDX 81 14 89 15 82 16 87 17 83 18 88 19 84 20 85 21 86 22 9 25
REMARK SMILES IDX 10 26 11 27 12 28 13 30 14 31 15 32 76 33 16 34 75 35 17 36
REMARK SMILES IDX 18 37 19 38 69 39 20 40 74 41 68 42 70 43 21 44 73 45 67 46
REMARK SMILES IDX 66 47 22 49 54 50 34 51 53 52 35 53 38 54 52 55 71 56 36 57
REMARK SMILES IDX 37 58 51 60 72 61 39 62 23 63 24 64 32 65 25 66 26 67 30 68
REMARK SMILES IDX 33 69 27 70 28 71 31 72 29 73 55 74 56 75 64 76 57 77 58 78
REMARK SMILES IDX 62 79 65 80 59 81 60 82 63 83 61 84 40 85 41 86 49 87 42 88
REMARK SMILES IDX 43 89 47 90 50 91 44 92 45 93 48 94 46 95
REMARK H PARENT 6 6 85 23 85 24 11 29 70 48 38 59
REMARK Flexibility Score: inf
ROOT
ATOM      1  C   UNL     1       0.012   0.017   3.974  1.00  0.00     0.023 C 
ENDROOT
BRANCH   1   2
ATOM      2  C   UNL     1      -0.958   0.569   2.931  1.00  0.00     0.116 C 
BRANCH   2   3
ATOM      3  N   UNL     1      -0.503   1.838   2.392  1.00  0.00    -0.356 N 
ATOM      4  C   UNL     1      -0.054   2.166   1.149  1.00  0.00     0.225 C 
ATOM      5  O   UNL     1       0.311   3.331   0.970  1.00  0.00    -0.275 OA
ATOM      6  H   UNL     1      -0.521   2.585   3.032  1.00  0.00     0.163 HD
BRANCH   4   7
ATOM      7  C   UNL     1      -0.009   1.169   0.002  1.00  0.00     0.102 C 
ATOM      8  C   UNL     1       2.119  -0.068  -0.588  1.00  0.00     0.032 C 
ATOM      9  C   UNL     1       0.880  -0.048   0.308  1.00  0.00     0.091 C 
ATOM     10  N   UNL     1       0.030  -1.207   0.014  1.00  0.00    -0.368 N 
ATOM     11  C   UNL     1      -1.387   0.631  -0.387  1.00  0.00     0.037 C 
ATOM     12  C   UNL     1      -1.168  -0.838  -0.727  1.00  0.00     0.118 C 
BRANCH  10  13
ATOM     13  C   UNL     1       0.260  -2.494   0.432  1.00  0.00     0.038 A 
ATOM     14  C   UNL     1      -0.054  -3.590  -0.371  1.00  0.00     0.027 A 
ATOM     15  C   UNL     1       0.776  -2.780   1.698  1.00  0.00     0.047 A 
ATOM     16  C   UNL     1       0.120  -4.910   0.074  1.00  0.00     0.017 A 
ATOM     17  C   UNL     1       0.917  -4.093   2.184  1.00  0.00     0.055 A 
ATOM     18  C   UNL     1       0.597  -5.185   1.367  1.00  0.00     0.058 A 
ATOM     19  Cl  UNL     1       1.481  -4.216   3.817  1.00  0.00    -0.083 Cl
BRANCH  18  20
ATOM     20  C   UNL     1       0.723  -6.602   1.840  1.00  0.00     0.250 C 
ATOM     21  N   UNL     1       0.652  -7.610   0.915  1.00  0.00    -0.366 N 
ATOM     22  O   UNL     1       0.881  -6.914   3.014  1.00  0.00    -0.269 OA
ATOM     23  H   UNL     1       0.525  -7.396  -0.037  1.00  0.00     0.159 HD
ATOM     24  H   UNL     1       0.727  -8.548   1.203  1.00  0.00     0.159 HD
ENDBRANCH  18  20
ENDBRANCH  10  13
ENDBRANCH   4   7
ENDBRANCH   2   3
ENDBRANCH   1   2
BRANCH   1  25
ATOM     25  C   UNL     1       0.027   0.773   5.296  1.00  0.00     0.023 C 
BRANCH  25  26
ATOM     26  C   UNL     1      -1.327   0.876   5.981  1.00  0.00     0.116 C 
BRANCH  26  27
ATOM     27  N   UNL     1      -1.946  -0.418   6.234  1.00  0.00    -0.352 N 
ATOM     28  C   UNL     1      -2.546  -0.874   7.382  1.00  0.00     0.251 C 
ATOM     29  H   UNL     1      -1.932  -1.050   5.480  1.00  0.00     0.163 HD
ATOM     30  O   UNL     1      -2.925  -2.036   7.474  1.00  0.00    -0.269 OA
BRANCH  28  31
ATOM     31  C   UNL     1      -2.698   0.047   8.524  1.00  0.00     0.039 A 
ATOM     32  C   UNL     1      -2.284  -0.371   9.790  1.00  0.00     0.014 A 
ATOM     33  C   UNL     1      -3.190   1.340   8.328  1.00  0.00     0.014 A 
ATOM     34  C   UNL     1      -2.295   0.538  10.848  1.00  0.00     0.010 A 
ATOM     35  C   UNL     1      -3.111   2.267   9.358  1.00  0.00     0.010 A 
ATOM     36  C   UNL     1      -2.666   1.875  10.630  1.00  0.00    -0.014 A 
BRANCH  36  37
ATOM     37  C   UNL     1      -2.599   2.881  11.719  1.00  0.00     0.031 A 
ATOM     38  C   UNL     1      -3.852   3.570  12.182  1.00  0.00     0.074 A 
ATOM     39  C   UNL     1      -1.405   3.220  12.241  1.00  0.00     0.049 A 
ATOM     40  N   UNL     1      -3.994   4.522  13.069  1.00  0.00    -0.248 NA
ATOM     41  C   UNL     1      -5.110   3.158  11.539  1.00  0.00     0.031 C 
ATOM     42  C   UNL     1      -0.114   2.661  11.837  1.00  0.00     0.029 A 
ATOM     43  N   UNL     1      -1.081   4.125  13.221  1.00  0.00    -0.354 N 
ATOM     44  C   UNL     1      -5.348   4.827  13.080  1.00  0.00     0.074 A 
ATOM     45  C   UNL     1      -5.976   4.009  12.066  1.00  0.00     0.031 C 
ATOM     46  C   UNL     1       0.858   3.213  12.581  1.00  0.00     0.029 A 
ATOM     47  C   UNL     1       0.266   4.196  13.483  1.00  0.00     0.049 A 
ATOM     48  H   UNL     1      -1.750   4.673  13.691  1.00  0.00     0.167 HD
ATOM     49  C   UNL     1      -6.013   5.691  13.883  1.00  0.00     0.037 A 
ATOM     50  C   UNL     1       0.945   4.971  14.349  1.00  0.00     0.037 A 
ATOM     51  C   UNL     1      -5.385   6.486  14.905  1.00  0.00     0.049 A 
ATOM     52  C   UNL     1       0.184   5.934  15.220  1.00  0.00     0.074 A 
ATOM     53  C   UNL     1      -5.976   7.347  15.812  1.00  0.00     0.029 A 
ATOM     54  N   UNL     1      -4.020   6.521  15.151  1.00  0.00    -0.354 N 
ATOM     55  N   UNL     1      -1.106   6.160  15.276  1.00  0.00    -0.248 NA
ATOM     56  C   UNL     1       0.974   6.746  16.156  1.00  0.00     0.031 C 
ATOM     57  C   UNL     1      -4.964   7.946  16.569  1.00  0.00     0.029 A 
ATOM     58  C   UNL     1      -3.747   7.411  16.178  1.00  0.00     0.049 A 
ATOM     59  H   UNL     1      -3.345   5.992  14.667  1.00  0.00     0.167 HD
ATOM     60  C   UNL     1      -1.286   7.113  16.269  1.00  0.00     0.074 A 
ATOM     61  C   UNL     1       0.028   7.411  16.802  1.00  0.00     0.031 C 
ATOM     62  C   UNL     1      -2.434   7.691  16.701  1.00  0.00     0.037 A 
BRANCH  49  63
ATOM     63  C   UNL     1      -7.497   5.819  13.689  1.00  0.00     0.064 A 
ATOM     64  C   UNL     1      -8.376   4.772  14.005  1.00  0.00     0.173 A 
ATOM     65  C   UNL     1      -8.051   7.016  13.211  1.00  0.00     0.173 A 
ATOM     66  F   UNL     1      -7.898   3.601  14.454  1.00  0.00    -0.203 F 
ATOM     67  C   UNL     1      -9.749   4.906  13.820  1.00  0.00     0.198 A 
ATOM     68  C   UNL     1      -9.428   7.160  13.060  1.00  0.00     0.198 A 
ATOM     69  F   UNL     1      -7.258   8.052  12.897  1.00  0.00    -0.203 F 
ATOM     70  F   UNL     1     -10.563   3.872  14.077  1.00  0.00    -0.200 F 
ATOM     71  C   UNL     1     -10.275   6.102  13.356  1.00  0.00     0.200 A 
ATOM     72  F   UNL     1      -9.936   8.321  12.626  1.00  0.00    -0.200 F 
ATOM     73  F   UNL     1     -11.598   6.234  13.187  1.00  0.00    -0.200 F 
ENDBRANCH  49  63
BRANCH  50  74
ATOM     74  C   UNL     1       2.425   4.856  14.451  1.00  0.00     0.064 A 
ATOM     75  C   UNL     1       3.029   4.340  15.606  1.00  0.00     0.173 A 
ATOM     76  C   UNL     1       3.264   5.267  13.405  1.00  0.00     0.173 A 
ATOM     77  F   UNL     1       2.271   3.952  16.642  1.00  0.00    -0.203 F 
ATOM     78  C   UNL     1       4.416   4.264  15.722  1.00  0.00     0.198 A 
ATOM     79  C   UNL     1       4.650   5.161  13.509  1.00  0.00     0.198 A 
ATOM     80  F   UNL     1       2.738   5.763  12.276  1.00  0.00    -0.203 F 
ATOM     81  F   UNL     1       4.967   3.816  16.858  1.00  0.00    -0.200 F 
ATOM     82  C   UNL     1       5.225   4.669  14.671  1.00  0.00     0.200 A 
ATOM     83  F   UNL     1       5.427   5.539  12.486  1.00  0.00    -0.200 F 
ATOM     84  F   UNL     1       6.558   4.594  14.782  1.00  0.00    -0.200 F 
ENDBRANCH  50  74
BRANCH  62  85
ATOM     85  C   UNL     1      -2.328   8.675  17.831  1.00  0.00     0.064 A 
ATOM     86  C   UNL     1      -1.744   9.938  17.659  1.00  0.00     0.173 A 
ATOM     87  C   UNL     1      -2.856   8.363  19.093  1.00  0.00     0.173 A 
ATOM     88  F   UNL     1      -1.212  10.281  16.476  1.00  0.00    -0.203 F 
ATOM     89  C   UNL     1      -1.666  10.841  18.716  1.00  0.00     0.198 A 
ATOM     90  C   UNL     1      -2.808   9.281  20.138  1.00  0.00     0.198 A 
ATOM     91  F   UNL     1      -3.434   7.171  19.310  1.00  0.00    -0.203 F 
ATOM     92  F   UNL     1      -1.055  12.021  18.543  1.00  0.00    -0.200 F 
ATOM     93  C   UNL     1      -2.205  10.515  19.952  1.00  0.00     0.200 A 
ATOM     94  F   UNL     1      -3.346   8.971  21.326  1.00  0.00    -0.200 F 
ATOM     95  F   UNL     1      -2.138  11.389  20.965  1.00  0.00    -0.200 F 
ENDBRANCH  62  85
ENDBRANCH  36  37
ENDBRANCH  28  31
ENDBRANCH  26  27
ENDBRANCH  25  26
ENDBRANCH   1  25
TORSDOF 13
