REMARK SMILES CC[NH2+][C@@]1(C(=O)NCCCCNC(=O)c2ccc(-c3c4nc(c(-c5c(F)c(F)c(F)c(F)c5F)c5ccc([nH]5)c(-c5c(F)c(F)c(F)c(F)c5F)c5nc(c(-c6c(F)c(F)c(F)c(F)c6F)c6ccc3[nH]6)C=C5)C=C4)cc2)CC[C@@H](Oc2cccc(OC)c2)C1
REMARK SMILES IDX 9 1 8 2 7 3 5 4 6 5 4 7 78 8 90 9 79 10 80 11 3 12 2 15 1 16
REMARK SMILES IDX 81 17 82 18 83 19 89 20 84 21 86 22 85 23 87 24 88 25 10 26
REMARK SMILES IDX 11 27 12 28 13 29 14 31 15 32 16 33 77 34 17 35 76 36 18 37
REMARK SMILES IDX 19 38 20 39 70 40 21 41 75 42 69 43 71 44 22 45 74 46 68 47
REMARK SMILES IDX 67 48 23 50 55 51 35 52 54 53 36 54 39 55 53 56 72 57 37 58
REMARK SMILES IDX 38 59 52 61 73 62 40 63 24 64 25 65 33 66 26 67 27 68 31 69
REMARK SMILES IDX 34 70 28 71 29 72 32 73 30 74 56 75 57 76 65 77 58 78 59 79
REMARK SMILES IDX 63 80 66 81 60 82 61 83 64 84 62 85 41 86 42 87 50 88 43 89
REMARK SMILES IDX 44 90 48 91 51 92 45 93 46 94 49 95 47 96
REMARK H PARENT 7 6 3 13 3 14 12 30 71 49 39 60
REMARK Flexibility Score: inf
ROOT
ATOM      1  C   UNL     1       0.721  -4.548   6.215  1.00  0.00     0.023 C 
ENDROOT
BRANCH   1   2
ATOM      2  C   UNL     1      -0.255  -3.408   5.935  1.00  0.00     0.116 C 
BRANCH   2   3
ATOM      3  N   UNL     1       0.448  -2.181   5.642  1.00  0.00    -0.351 N 
ATOM      4  C   UNL     1       0.753  -1.550   4.478  1.00  0.00     0.281 C 
ATOM      5  O   UNL     1       1.544  -0.603   4.597  1.00  0.00    -0.268 OA
ATOM      6  H   UNL     1       0.769  -1.708   6.443  1.00  0.00     0.163 HD
BRANCH   4   7
ATOM      7  C   UNL     1       0.238  -2.002   3.051  1.00  0.00     0.179 C 
ATOM      8  C   UNL     1      -1.268  -2.317   3.019  1.00  0.00     0.083 C 
ATOM      9  C   UNL     1       0.987  -3.281   2.623  1.00  0.00     0.124 C 
ATOM     10  C   UNL     1      -1.419  -3.752   2.516  1.00  0.00     0.052 C 
ATOM     11  C   UNL     1      -0.041  -4.412   2.633  1.00  0.00     0.180 C 
BRANCH   7  12
ATOM     12  N   UNL     1       0.557  -0.854   2.162  1.00  0.00    -0.334 N 
ATOM     13  H   UNL     1       0.093  -0.034   2.555  1.00  0.00     0.347 HD
ATOM     14  H   UNL     1       1.576  -0.836   2.143  1.00  0.00     0.347 HD
BRANCH  12  15
ATOM     15  C   UNL     1       0.184  -0.922   0.759  1.00  0.00     0.257 C 
ATOM     16  C   UNL     1       0.945   0.143  -0.021  1.00  0.00     0.071 C 
ENDBRANCH  12  15
ENDBRANCH   7  12
BRANCH  11  17
ATOM     17  O   UNL     1       0.278  -5.504   1.754  1.00  0.00    -0.490 OA
BRANCH  17  18
ATOM     18  C   UNL     1      -0.198  -5.382   0.481  1.00  0.00     0.123 A 
ATOM     19  C   UNL     1      -1.397  -6.006   0.144  1.00  0.00     0.047 A 
ATOM     20  C   UNL     1       0.528  -4.670  -0.472  1.00  0.00     0.092 A 
ATOM     21  C   UNL     1      -1.928  -5.822  -1.131  1.00  0.00     0.008 A 
ATOM     22  C   UNL     1      -0.008  -4.465  -1.741  1.00  0.00     0.122 A 
ATOM     23  C   UNL     1      -1.242  -5.037  -2.061  1.00  0.00     0.046 A 
BRANCH  22  24
ATOM     24  O   UNL     1       0.566  -3.725  -2.738  1.00  0.00    -0.497 OA
ATOM     25  C   UNL     1       1.810  -3.103  -2.440  1.00  0.00     0.278 C 
ENDBRANCH  22  24
ENDBRANCH  17  18
ENDBRANCH  11  17
ENDBRANCH   4   7
ENDBRANCH   2   3
ENDBRANCH   1   2
BRANCH   1  26
ATOM     26  C   UNL     1       1.152  -4.658   7.676  1.00  0.00     0.023 C 
BRANCH  26  27
ATOM     27  C   UNL     1       0.006  -4.836   8.666  1.00  0.00     0.116 C 
BRANCH  27  28
ATOM     28  N   UNL     1      -0.894  -5.933   8.340  1.00  0.00    -0.352 N 
ATOM     29  C   UNL     1      -1.677  -6.663   9.201  1.00  0.00     0.251 C 
ATOM     30  H   UNL     1      -0.947  -6.182   7.389  1.00  0.00     0.163 HD
ATOM     31  O   UNL     1      -2.331  -7.620   8.803  1.00  0.00    -0.269 OA
BRANCH  29  32
ATOM     32  C   UNL     1      -1.676  -6.302  10.631  1.00  0.00     0.039 A 
ATOM     33  C   UNL     1      -1.384  -7.289  11.573  1.00  0.00     0.014 A 
ATOM     34  C   UNL     1      -1.885  -4.978  11.024  1.00  0.00     0.014 A 
ATOM     35  C   UNL     1      -1.237  -6.932  12.913  1.00  0.00     0.010 A 
ATOM     36  C   UNL     1      -1.656  -4.611  12.343  1.00  0.00     0.010 A 
ATOM     37  C   UNL     1      -1.337  -5.585  13.301  1.00  0.00    -0.014 A 
BRANCH  37  38
ATOM     38  C   UNL     1      -1.127  -5.181  14.712  1.00  0.00     0.031 A 
ATOM     39  C   UNL     1      -2.260  -4.582  15.495  1.00  0.00     0.074 A 
ATOM     40  C   UNL     1       0.095  -5.301  15.265  1.00  0.00     0.049 A 
ATOM     41  N   UNL     1      -2.272  -4.136  16.725  1.00  0.00    -0.248 NA
ATOM     42  C   UNL     1      -3.544  -4.431  14.791  1.00  0.00     0.031 C 
ATOM     43  C   UNL     1       1.289  -5.802  14.582  1.00  0.00     0.029 A 
ATOM     44  N   UNL     1       0.536  -5.004  16.530  1.00  0.00    -0.354 N 
ATOM     45  C   UNL     1      -3.552  -3.640  16.934  1.00  0.00     0.074 A 
ATOM     46  C   UNL     1      -4.271  -3.781  15.687  1.00  0.00     0.031 C 
ATOM     47  C   UNL     1       2.318  -5.809  15.445  1.00  0.00     0.029 A 
ATOM     48  C   UNL     1       1.864  -5.287  16.730  1.00  0.00     0.049 A 
ATOM     49  H   UNL     1      -0.045  -4.623  17.228  1.00  0.00     0.167 HD
ATOM     50  C   UNL     1      -4.090  -3.143  18.072  1.00  0.00     0.037 A 
ATOM     51  C   UNL     1       2.625  -5.149  17.832  1.00  0.00     0.037 A 
ATOM     52  C   UNL     1      -3.382  -3.040  19.320  1.00  0.00     0.049 A 
ATOM     53  C   UNL     1       1.994  -4.624  19.094  1.00  0.00     0.074 A 
ATOM     54  C   UNL     1      -3.853  -2.615  20.549  1.00  0.00     0.029 A 
ATOM     55  N   UNL     1      -2.046  -3.372  19.495  1.00  0.00    -0.354 N 
ATOM     56  N   UNL     1       0.760  -4.235  19.303  1.00  0.00    -0.248 NA
ATOM     57  C   UNL     1       2.861  -4.532  20.277  1.00  0.00     0.031 C 
ATOM     58  C   UNL     1      -2.793  -2.655  21.460  1.00  0.00     0.029 A 
ATOM     59  C   UNL     1      -1.673  -3.147  20.810  1.00  0.00     0.049 A 
ATOM     60  H   UNL     1      -1.452  -3.716  18.790  1.00  0.00     0.167 HD
ATOM     61  C   UNL     1       0.694  -3.878  20.643  1.00  0.00     0.074 A 
ATOM     62  C   UNL     1       2.009  -4.115  21.202  1.00  0.00     0.031 C 
ATOM     63  C   UNL     1      -0.360  -3.396  21.347  1.00  0.00     0.037 A 
BRANCH  50  64
ATOM     64  C   UNL     1      -5.519  -2.687  18.018  1.00  0.00     0.064 A 
ATOM     65  C   UNL     1      -6.576  -3.599  17.876  1.00  0.00     0.173 A 
ATOM     66  C   UNL     1      -5.838  -1.325  18.131  1.00  0.00     0.173 A 
ATOM     67  F   UNL     1      -6.324  -4.910  17.749  1.00  0.00    -0.203 F 
ATOM     68  C   UNL     1      -7.897  -3.162  17.814  1.00  0.00     0.198 A 
ATOM     69  C   UNL     1      -7.162  -0.895  18.100  1.00  0.00     0.198 A 
ATOM     70  F   UNL     1      -4.866  -0.412  18.271  1.00  0.00    -0.203 F 
ATOM     71  F   UNL     1      -8.885  -4.047  17.621  1.00  0.00    -0.200 F 
ATOM     72  C   UNL     1      -8.189  -1.812  17.933  1.00  0.00     0.200 A 
ATOM     73  F   UNL     1      -7.444   0.409  18.226  1.00  0.00    -0.200 F 
ATOM     74  F   UNL     1      -9.461  -1.394  17.878  1.00  0.00    -0.200 F 
ENDBRANCH  50  64
BRANCH  51  75
ATOM     75  C   UNL     1       4.053  -5.556  17.806  1.00  0.00     0.064 A 
ATOM     76  C   UNL     1       4.489  -6.690  18.506  1.00  0.00     0.173 A 
ATOM     77  C   UNL     1       5.011  -4.823  17.090  1.00  0.00     0.173 A 
ATOM     78  F   UNL     1       3.614  -7.412  19.221  1.00  0.00    -0.203 F 
ATOM     79  C   UNL     1       5.832  -7.062  18.510  1.00  0.00     0.198 A 
ATOM     80  C   UNL     1       6.349  -5.212  17.073  1.00  0.00     0.198 A 
ATOM     81  F   UNL     1       4.643  -3.734  16.399  1.00  0.00    -0.203 F 
ATOM     82  F   UNL     1       6.228  -8.124  19.225  1.00  0.00    -0.200 F 
ATOM     83  C   UNL     1       6.760  -6.326  17.790  1.00  0.00     0.200 A 
ATOM     84  F   UNL     1       7.240  -4.505  16.365  1.00  0.00    -0.200 F 
ATOM     85  F   UNL     1       8.050  -6.685  17.792  1.00  0.00    -0.200 F 
ENDBRANCH  51  75
BRANCH  63  86
ATOM     86  C   UNL     1      -0.139  -3.123  22.806  1.00  0.00     0.064 A 
ATOM     87  C   UNL     1       0.636  -2.039  23.242  1.00  0.00     0.173 A 
ATOM     88  C   UNL     1      -0.738  -3.939  23.778  1.00  0.00     0.173 A 
ATOM     89  F   UNL     1       1.241  -1.240  22.350  1.00  0.00    -0.203 F 
ATOM     90  C   UNL     1       0.828  -1.798  24.599  1.00  0.00     0.198 A 
ATOM     91  C   UNL     1      -0.568  -3.677  25.134  1.00  0.00     0.198 A 
ATOM     92  F   UNL     1      -1.495  -4.984  23.412  1.00  0.00    -0.203 F 
ATOM     93  F   UNL     1       1.614  -0.787  24.994  1.00  0.00    -0.200 F 
ATOM     94  C   UNL     1       0.221  -2.613  25.544  1.00  0.00     0.200 A 
ATOM     95  F   UNL     1      -1.166  -4.457  26.046  1.00  0.00    -0.200 F 
ATOM     96  F   UNL     1       0.404  -2.377  26.850  1.00  0.00    -0.200 F 
ENDBRANCH  63  86
ENDBRANCH  37  38
ENDBRANCH  29  32
ENDBRANCH  27  28
ENDBRANCH  26  27
ENDBRANCH   1  26
TORSDOF 16
