REMARK SMILES CSCC[NH2+]CC(C)(C)C(=O)NCCCCNC(=O)c1ccc(-c2c3nc(c(-c4c(F)c(F)c(F)c(F)c4F)c4ccc([nH]4)c(-c4c(F)c(F)c(F)c(F)c4F)c4nc(c(-c5c(F)c(F)c(F)c(F)c5F)c5ccc2[nH]5)C=C4)C=C3)cc1
REMARK SMILES IDX 13 1 12 2 10 3 11 4 7 6 8 7 9 8 6 9 5 10 4 13 3 14 2 15 1 16
REMARK SMILES IDX 14 17 15 18 16 19 17 20 18 21 19 23 20 24 21 25 82 26 22 27
REMARK SMILES IDX 81 28 23 29 24 30 25 31 75 32 26 33 80 34 74 35 76 36 27 37
REMARK SMILES IDX 79 38 73 39 72 40 28 42 60 43 40 44 59 45 41 46 44 47 58 48
REMARK SMILES IDX 77 49 42 50 43 51 57 53 78 54 45 55 29 56 30 57 38 58 31 59
REMARK SMILES IDX 32 60 36 61 39 62 33 63 34 64 37 65 35 66 61 67 62 68 70 69
REMARK SMILES IDX 63 70 64 71 68 72 71 73 65 74 66 75 69 76 67 77 46 78 47 79
REMARK SMILES IDX 55 80 48 81 49 82 53 83 56 84 50 85 51 86 54 87 52 88
REMARK H PARENT 12 5 5 11 5 12 17 22 76 41 44 52
REMARK Flexibility Score: inf
ROOT
ATOM      1  C   UNL     1      -4.052  -2.062   3.388  1.00  0.00     0.116 C 
ENDROOT
BRANCH   1   2
ATOM      2  N   UNL     1      -2.984  -1.239   3.910  1.00  0.00    -0.355 N 
ATOM      3  C   UNL     1      -1.661  -1.498   4.067  1.00  0.00     0.231 C 
ATOM      4  O   UNL     1      -1.115  -0.889   4.992  1.00  0.00    -0.274 OA
ATOM      5  H   UNL     1      -3.263  -0.341   4.201  1.00  0.00     0.163 HD
BRANCH   3   6
ATOM      6  C   UNL     1      -0.895  -2.496   3.176  1.00  0.00     0.092 C 
ATOM      7  C   UNL     1      -1.263  -2.395   1.683  1.00  0.00     0.027 C 
ATOM      8  C   UNL     1      -1.181  -3.917   3.699  1.00  0.00     0.027 C 
BRANCH   6   9
ATOM      9  C   UNL     1       0.648  -2.240   3.332  1.00  0.00     0.276 C 
BRANCH   9  10
ATOM     10  N   UNL     1       1.254  -1.139   2.559  1.00  0.00    -0.345 N 
ATOM     11  H   UNL     1       2.269  -1.210   2.636  1.00  0.00     0.346 HD
ATOM     12  H   UNL     1       0.932  -1.236   1.596  1.00  0.00     0.346 HD
BRANCH  10  13
ATOM     13  C   UNL     1       0.845   0.192   3.019  1.00  0.00     0.271 C 
BRANCH  13  14
ATOM     14  C   UNL     1       1.440   1.339   2.190  1.00  0.00     0.130 C 
BRANCH  14  15
ATOM     15  S   UNL     1       0.554   1.661   0.616  1.00  0.00    -0.160 SA
ATOM     16  C   UNL     1       1.249   0.364  -0.433  1.00  0.00     0.085 C 
ENDBRANCH  14  15
ENDBRANCH  13  14
ENDBRANCH  10  13
ENDBRANCH   9  10
ENDBRANCH   6   9
ENDBRANCH   3   6
ENDBRANCH   1   2
BRANCH   1  17
ATOM     17  C   UNL     1      -4.869  -2.650   4.538  1.00  0.00     0.023 C 
BRANCH  17  18
ATOM     18  C   UNL     1      -5.630  -1.610   5.367  1.00  0.00     0.023 C 
BRANCH  18  19
ATOM     19  C   UNL     1      -6.529  -0.679   4.561  1.00  0.00     0.116 C 
BRANCH  19  20
ATOM     20  N   UNL     1      -7.475  -1.403   3.727  1.00  0.00    -0.352 N 
ATOM     21  C   UNL     1      -8.822  -1.214   3.569  1.00  0.00     0.251 C 
ATOM     22  H   UNL     1      -7.090  -2.138   3.197  1.00  0.00     0.163 HD
ATOM     23  O   UNL     1      -9.485  -2.038   2.940  1.00  0.00    -0.269 OA
BRANCH  21  24
ATOM     24  C   UNL     1      -9.486  -0.043   4.175  1.00  0.00     0.039 A 
ATOM     25  C   UNL     1     -10.716  -0.231   4.809  1.00  0.00     0.014 A 
ATOM     26  C   UNL     1      -8.911   1.230   4.119  1.00  0.00     0.014 A 
ATOM     27  C   UNL     1     -11.340   0.847   5.436  1.00  0.00     0.010 A 
ATOM     28  C   UNL     1      -9.494   2.287   4.816  1.00  0.00     0.010 A 
ATOM     29  C   UNL     1     -10.716   2.106   5.479  1.00  0.00    -0.014 A 
BRANCH  29  30
ATOM     30  C   UNL     1     -11.335   3.222   6.238  1.00  0.00     0.031 A 
ATOM     31  C   UNL     1     -11.802   4.466   5.536  1.00  0.00     0.074 A 
ATOM     32  C   UNL     1     -11.459   3.114   7.576  1.00  0.00     0.049 A 
ATOM     33  N   UNL     1     -12.390   5.525   6.035  1.00  0.00    -0.248 NA
ATOM     34  C   UNL     1     -11.558   4.545   4.087  1.00  0.00     0.031 C 
ATOM     35  C   UNL     1     -10.982   1.985   8.379  1.00  0.00     0.029 A 
ATOM     36  N   UNL     1     -12.026   3.959   8.497  1.00  0.00    -0.354 N 
ATOM     37  C   UNL     1     -12.593   6.386   4.965  1.00  0.00     0.074 A 
ATOM     38  C   UNL     1     -12.004   5.760   3.801  1.00  0.00     0.031 C 
ATOM     39  C   UNL     1     -11.308   2.191   9.664  1.00  0.00     0.029 A 
ATOM     40  C   UNL     1     -11.982   3.479   9.783  1.00  0.00     0.049 A 
ATOM     41  H   UNL     1     -12.426   4.826   8.258  1.00  0.00     0.167 HD
ATOM     42  C   UNL     1     -13.242   7.575   4.948  1.00  0.00     0.037 A 
ATOM     43  C   UNL     1     -12.435   4.018  10.931  1.00  0.00     0.037 A 
ATOM     44  C   UNL     1     -13.830   8.194   6.108  1.00  0.00     0.049 A 
ATOM     45  C   UNL     1     -13.146   5.344  10.881  1.00  0.00     0.074 A 
ATOM     46  C   UNL     1     -14.537   9.381   6.189  1.00  0.00     0.029 A 
ATOM     47  N   UNL     1     -13.775   7.675   7.394  1.00  0.00    -0.354 N 
ATOM     48  N   UNL     1     -13.400   6.111   9.849  1.00  0.00    -0.248 NA
ATOM     49  C   UNL     1     -13.648   5.870  12.157  1.00  0.00     0.031 C 
ATOM     50  C   UNL     1     -14.868   9.605   7.530  1.00  0.00     0.029 A 
ATOM     51  C   UNL     1     -14.419   8.528   8.277  1.00  0.00     0.049 A 
ATOM     52  H   UNL     1     -13.342   6.826   7.642  1.00  0.00     0.167 HD
ATOM     53  C   UNL     1     -14.107   7.197  10.346  1.00  0.00     0.074 A 
ATOM     54  C   UNL     1     -14.273   6.970  11.766  1.00  0.00     0.031 C 
ATOM     55  C   UNL     1     -14.570   8.290   9.690  1.00  0.00     0.037 A 
BRANCH  42  56
ATOM     56  C   UNL     1     -13.367   8.282   3.628  1.00  0.00     0.064 A 
ATOM     57  C   UNL     1     -14.188   7.781   2.605  1.00  0.00     0.173 A 
ATOM     58  C   UNL     1     -12.710   9.501   3.401  1.00  0.00     0.173 A 
ATOM     59  F   UNL     1     -14.831   6.614   2.765  1.00  0.00    -0.203 F 
ATOM     60  C   UNL     1     -14.330   8.463   1.399  1.00  0.00     0.198 A 
ATOM     61  C   UNL     1     -12.879  10.195   2.205  1.00  0.00     0.198 A 
ATOM     62  F   UNL     1     -11.916  10.028   4.345  1.00  0.00    -0.203 F 
ATOM     63  F   UNL     1     -15.087   7.943   0.423  1.00  0.00    -0.200 F 
ATOM     64  C   UNL     1     -13.683   9.673   1.204  1.00  0.00     0.200 A 
ATOM     65  F   UNL     1     -12.265  11.373   2.024  1.00  0.00    -0.200 F 
ATOM     66  F   UNL     1     -13.833  10.336   0.049  1.00  0.00    -0.200 F 
ENDBRANCH  42  56
BRANCH  43  67
ATOM     67  C   UNL     1     -12.242   3.304  12.221  1.00  0.00     0.064 A 
ATOM     68  C   UNL     1     -13.334   2.804  12.945  1.00  0.00     0.173 A 
ATOM     69  C   UNL     1     -10.963   3.133  12.772  1.00  0.00     0.173 A 
ATOM     70  F   UNL     1     -14.579   2.957  12.471  1.00  0.00    -0.203 F 
ATOM     71  C   UNL     1     -13.157   2.194  14.186  1.00  0.00     0.198 A 
ATOM     72  C   UNL     1     -10.785   2.490  13.995  1.00  0.00     0.198 A 
ATOM     73  F   UNL     1      -9.884   3.584  12.117  1.00  0.00    -0.203 F 
ATOM     74  F   UNL     1     -14.224   1.785  14.886  1.00  0.00    -0.200 F 
ATOM     75  C   UNL     1     -11.883   2.034  14.707  1.00  0.00     0.200 A 
ATOM     76  F   UNL     1      -9.550   2.321  14.486  1.00  0.00    -0.200 F 
ATOM     77  F   UNL     1     -11.713   1.449  15.901  1.00  0.00    -0.200 F 
ENDBRANCH  43  67
BRANCH  55  78
ATOM     78  C   UNL     1     -15.319   9.307  10.505  1.00  0.00     0.064 A 
ATOM     79  C   UNL     1     -14.676  10.091  11.476  1.00  0.00     0.173 A 
ATOM     80  C   UNL     1     -16.696   9.497  10.316  1.00  0.00     0.173 A 
ATOM     81  F   UNL     1     -13.363   9.940  11.706  1.00  0.00    -0.203 F 
ATOM     82  C   UNL     1     -15.393  10.992  12.259  1.00  0.00     0.198 A 
ATOM     83  C   UNL     1     -17.403  10.427  11.075  1.00  0.00     0.198 A 
ATOM     84  F   UNL     1     -17.359   8.782   9.395  1.00  0.00    -0.203 F 
ATOM     85  F   UNL     1     -14.771  11.675  13.229  1.00  0.00    -0.200 F 
ATOM     86  C   UNL     1     -16.754  11.162  12.055  1.00  0.00     0.200 A 
ATOM     87  F   UNL     1     -18.715  10.602  10.864  1.00  0.00    -0.200 F 
ATOM     88  F   UNL     1     -17.444  12.027  12.812  1.00  0.00    -0.200 F 
ENDBRANCH  55  78
ENDBRANCH  29  30
ENDBRANCH  21  24
ENDBRANCH  19  20
ENDBRANCH  18  19
ENDBRANCH  17  18
ENDBRANCH   1  17
TORSDOF 16
