REMARK SMILES Nc1cc(-c2ccsc2)ccc1C(=O)NCCCCNC(=O)c1ccc(-c2c3nc(c(-c4c(F)c(F)c(F)c(F)c4F)c4ccc([nH]4)c(-c4c(F)c(F)c(F)c(F)c4F)c4nc(c(-c5c(F)c(F)c(F)c(F)c5F)c5ccc2[nH]5)C=C4)C=C3)cc1
REMARK SMILES IDX 18 1 17 2 16 3 15 4 13 5 14 6 12 8 2 9 3 10 4 11 11 12 10 13
REMARK SMILES IDX 1 14 5 17 6 18 9 19 7 20 8 21 19 22 20 23 21 24 22 26 23 27
REMARK SMILES IDX 24 28 85 29 25 30 84 31 26 32 27 33 28 34 78 35 29 36 83 37
REMARK SMILES IDX 77 38 79 39 30 40 82 41 76 42 75 43 31 45 63 46 43 47 62 48
REMARK SMILES IDX 44 49 47 50 61 51 80 52 45 53 46 54 60 56 81 57 48 58 32 59
REMARK SMILES IDX 33 60 41 61 34 62 35 63 39 64 42 65 36 66 37 67 40 68 38 69
REMARK SMILES IDX 64 70 65 71 73 72 66 73 67 74 71 75 74 76 68 77 69 78 72 79
REMARK SMILES IDX 70 80 49 81 50 82 58 83 51 84 52 85 56 86 59 87 53 88 54 89
REMARK SMILES IDX 57 90 55 91
REMARK H PARENT 15 7 1 15 1 16 20 25 79 44 47 55
REMARK Flexibility Score: inf
ROOT
ATOM      1  C   UNL     1       5.150   2.614  -1.696  1.00  0.00     0.023 C 
ENDROOT
BRANCH   1   2
ATOM      2  C   UNL     1       4.137   1.521  -2.035  1.00  0.00     0.023 C 
BRANCH   2   3
ATOM      3  C   UNL     1       3.170   1.125  -0.924  1.00  0.00     0.116 C 
BRANCH   3   4
ATOM      4  N   UNL     1       2.379   2.220  -0.392  1.00  0.00    -0.352 N 
ATOM      5  C   UNL     1       1.128   2.185   0.184  1.00  0.00     0.253 C 
ATOM      6  O   UNL     1       0.634   3.236   0.590  1.00  0.00    -0.269 OA
ATOM      7  H   UNL     1       2.794   3.111  -0.451  1.00  0.00     0.163 HD
BRANCH   5   8
ATOM      8  C   UNL     1       0.330   0.931   0.249  1.00  0.00     0.062 A 
ATOM      9  C   UNL     1       0.800  -0.291   0.761  1.00  0.00     0.045 A 
ATOM     10  C   UNL     1      -0.006  -1.429   0.603  1.00  0.00     0.035 A 
ATOM     11  C   UNL     1      -1.316  -1.348   0.103  1.00  0.00    -0.015 A 
ATOM     12  C   UNL     1      -0.996   1.029  -0.212  1.00  0.00     0.016 A 
ATOM     13  C   UNL     1      -1.816  -0.100  -0.274  1.00  0.00     0.010 A 
BRANCH   9  14
ATOM     14  N   UNL     1       2.057  -0.459   1.338  1.00  0.00    -0.398 N 
ATOM     15  H   UNL     1       2.328  -1.341   1.678  1.00  0.00     0.156 HD
ATOM     16  H   UNL     1       2.674   0.306   1.406  1.00  0.00     0.156 HD
ENDBRANCH   9  14
BRANCH  11  17
ATOM     17  C   UNL     1      -2.136  -2.550  -0.026  1.00  0.00    -0.008 A 
ATOM     18  C   UNL     1      -3.022  -2.887  -1.102  1.00  0.00     0.020 A 
ATOM     19  C   UNL     1      -2.134  -3.544   0.935  1.00  0.00     0.073 A 
ATOM     20  C   UNL     1      -3.622  -4.116  -0.930  1.00  0.00     0.065 A 
ATOM     21  S   UNL     1      -3.146  -4.863   0.530  1.00  0.00    -0.152 S 
ENDBRANCH  11  17
ENDBRANCH   5   8
ENDBRANCH   3   4
ENDBRANCH   2   3
ENDBRANCH   1   2
BRANCH   1  22
ATOM     22  C   UNL     1       5.869   2.488  -0.355  1.00  0.00     0.116 C 
BRANCH  22  23
ATOM     23  N   UNL     1       6.677   1.284  -0.231  1.00  0.00    -0.352 N 
ATOM     24  C   UNL     1       8.036   1.128  -0.088  1.00  0.00     0.251 C 
ATOM     25  H   UNL     1       6.167   0.442  -0.253  1.00  0.00     0.163 HD
ATOM     26  O   UNL     1       8.524  -0.000  -0.086  1.00  0.00    -0.269 OA
BRANCH  24  27
ATOM     27  C   UNL     1       8.926   2.305   0.015  1.00  0.00     0.039 A 
ATOM     28  C   UNL     1      10.095   2.333  -0.752  1.00  0.00     0.014 A 
ATOM     29  C   UNL     1       8.619   3.381   0.850  1.00  0.00     0.014 A 
ATOM     30  C   UNL     1      10.896   3.478  -0.761  1.00  0.00     0.010 A 
ATOM     31  C   UNL     1       9.367   4.553   0.774  1.00  0.00     0.010 A 
ATOM     32  C   UNL     1      10.509   4.620  -0.041  1.00  0.00    -0.014 A 
BRANCH  32  33
ATOM     33  C   UNL     1      11.267   5.895  -0.142  1.00  0.00     0.031 A 
ATOM     34  C   UNL     1      11.913   6.496   1.075  1.00  0.00     0.074 A 
ATOM     35  C   UNL     1      11.303   6.558  -1.316  1.00  0.00     0.049 A 
ATOM     36  N   UNL     1      12.534   7.642   1.205  1.00  0.00    -0.248 NA
ATOM     37  C   UNL     1      11.824   5.718   2.321  1.00  0.00     0.031 C 
ATOM     38  C   UNL     1      10.670   6.114  -2.559  1.00  0.00     0.029 A 
ATOM     39  N   UNL     1      11.885   7.756  -1.652  1.00  0.00    -0.354 N 
ATOM     40  C   UNL     1      12.889   7.730   2.545  1.00  0.00     0.074 A 
ATOM     41  C   UNL     1      12.369   6.548   3.198  1.00  0.00     0.031 C 
ATOM     42  C   UNL     1      10.917   7.012  -3.525  1.00  0.00     0.029 A 
ATOM     43  C   UNL     1      11.690   8.116  -2.964  1.00  0.00     0.049 A 
ATOM     44  H   UNL     1      12.395   8.305  -1.013  1.00  0.00     0.167 HD
ATOM     45  C   UNL     1      13.604   8.696   3.169  1.00  0.00     0.037 A 
ATOM     46  C   UNL     1      12.081   9.215  -3.636  1.00  0.00     0.037 A 
ATOM     47  C   UNL     1      14.148   9.856   2.513  1.00  0.00     0.049 A 
ATOM     48  C   UNL     1      12.876  10.273  -2.920  1.00  0.00     0.074 A 
ATOM     49  C   UNL     1      14.944  10.855   3.045  1.00  0.00     0.029 A 
ATOM     50  N   UNL     1      13.949  10.173   1.177  1.00  0.00    -0.354 N 
ATOM     51  N   UNL     1      13.267  10.310  -1.669  1.00  0.00    -0.248 NA
ATOM     52  C   UNL     1      13.289  11.441  -3.711  1.00  0.00     0.031 C 
ATOM     53  C   UNL     1      15.190  11.800   2.043  1.00  0.00     0.029 A 
ATOM     54  C   UNL     1      14.589  11.364   0.873  1.00  0.00     0.049 A 
ATOM     55  H   UNL     1      13.430   9.632   0.539  1.00  0.00     0.167 HD
ATOM     56  C   UNL     1      13.992  11.485  -1.531  1.00  0.00     0.074 A 
ATOM     57  C   UNL     1      14.001  12.127  -2.829  1.00  0.00     0.031 C 
ATOM     58  C   UNL     1      14.596  11.988  -0.426  1.00  0.00     0.037 A 
BRANCH  45  59
ATOM     59  C   UNL     1      13.846   8.536   4.643  1.00  0.00     0.064 A 
ATOM     60  C   UNL     1      14.698   7.540   5.144  1.00  0.00     0.173 A 
ATOM     61  C   UNL     1      13.246   9.409   5.563  1.00  0.00     0.173 A 
ATOM     62  F   UNL     1      15.289   6.673   4.308  1.00  0.00    -0.203 F 
ATOM     63  C   UNL     1      14.913   7.402   6.513  1.00  0.00     0.198 A 
ATOM     64  C   UNL     1      13.489   9.288   6.929  1.00  0.00     0.198 A 
ATOM     65  F   UNL     1      12.429  10.384   5.138  1.00  0.00    -0.203 F 
ATOM     66  F   UNL     1      15.688   6.409   6.971  1.00  0.00    -0.200 F 
ATOM     67  C   UNL     1      14.314   8.280   7.403  1.00  0.00     0.200 A 
ATOM     68  F   UNL     1      12.920  10.146   7.787  1.00  0.00    -0.200 F 
ATOM     69  F   UNL     1      14.527   8.149   8.720  1.00  0.00    -0.200 F 
ENDBRANCH  45  59
BRANCH  46  70
ATOM     70  C   UNL     1      11.748   9.362  -5.078  1.00  0.00     0.064 A 
ATOM     71  C   UNL     1      12.749   9.283  -6.056  1.00  0.00     0.173 A 
ATOM     72  C   UNL     1      10.432   9.588  -5.507  1.00  0.00     0.173 A 
ATOM     73  F   UNL     1      14.026   9.091  -5.694  1.00  0.00    -0.203 F 
ATOM     74  C   UNL     1      12.450   9.445  -7.407  1.00  0.00     0.198 A 
ATOM     75  C   UNL     1      10.130   9.721  -6.861  1.00  0.00     0.198 A 
ATOM     76  F   UNL     1       9.438   9.667  -4.611  1.00  0.00    -0.203 F 
ATOM     77  F   UNL     1      13.433   9.411  -8.318  1.00  0.00    -0.200 F 
ATOM     78  C   UNL     1      11.140   9.658  -7.809  1.00  0.00     0.200 A 
ATOM     79  F   UNL     1       8.861   9.913  -7.246  1.00  0.00    -0.200 F 
ATOM     80  F   UNL     1      10.852   9.809  -9.109  1.00  0.00    -0.200 F 
ENDBRANCH  46  70
BRANCH  58  81
ATOM     81  C   UNL     1      15.347  13.278  -0.579  1.00  0.00     0.064 A 
ATOM     82  C   UNL     1      14.682  14.501  -0.754  1.00  0.00     0.173 A 
ATOM     83  C   UNL     1      16.749  13.296  -0.509  1.00  0.00     0.173 A 
ATOM     84  F   UNL     1      13.344  14.535  -0.843  1.00  0.00    -0.203 F 
ATOM     85  C   UNL     1      15.395  15.691  -0.878  1.00  0.00     0.198 A 
ATOM     86  C   UNL     1      17.456  14.491  -0.604  1.00  0.00     0.198 A 
ATOM     87  F   UNL     1      17.432  12.154  -0.337  1.00  0.00    -0.203 F 
ATOM     88  F   UNL     1      14.741  16.841  -1.091  1.00  0.00    -0.200 F 
ATOM     89  C   UNL     1      16.779  15.686  -0.795  1.00  0.00     0.200 A 
ATOM     90  F   UNL     1      18.793  14.486  -0.510  1.00  0.00    -0.200 F 
ATOM     91  F   UNL     1      17.462  16.834  -0.907  1.00  0.00    -0.200 F 
ENDBRANCH  58  81
ENDBRANCH  32  33
ENDBRANCH  24  27
ENDBRANCH  22  23
ENDBRANCH   1  22
TORSDOF 13
