REMARK SMILES O=C(NCCCCNC(=O)[C@H]1CC[C@@]2(CC[N@@H+](C3CC3)C2)C1)c1ccc(-c2c3nc(c(-c4c(F)c(F)c(F)c(F)c4F)c4ccc([nH]4)c(-c4c(F)c(F)c(F)c(F)c4F)c4nc(c(-c5c(F)c(F)c(F)c(F)c5F)c5ccc2[nH]5)C=C4)C=C3)cc1
REMARK SMILES IDX 5 1 4 2 3 3 1 4 2 5 23 7 24 8 85 9 25 10 84 11 26 12 27 13
REMARK SMILES IDX 28 14 78 15 29 16 83 17 77 18 79 19 30 20 82 21 76 22 75 23
REMARK SMILES IDX 31 25 63 26 43 27 62 28 44 29 47 30 61 31 80 32 45 33 46 34
REMARK SMILES IDX 60 36 81 37 48 38 32 39 33 40 41 41 34 42 35 43 39 44 42 45
REMARK SMILES IDX 36 46 37 47 40 48 38 49 64 50 65 51 73 52 66 53 67 54 71 55
REMARK SMILES IDX 74 56 68 57 69 58 72 59 70 60 49 61 50 62 58 63 51 64 52 65
REMARK SMILES IDX 56 66 59 67 53 68 54 69 57 70 55 71 6 72 7 73 8 74 9 75
REMARK SMILES IDX 10 77 11 78 12 79 22 80 13 81 14 82 15 83 21 84 16 85 17 86
REMARK SMILES IDX 18 88 19 89 20 90
REMARK H PARENT 3 6 79 24 47 35 8 76 17 87
REMARK Flexibility Score: inf
ROOT
ATOM      1  C   UNL     1       4.696  -1.850   1.956  1.00  0.00     0.023 C 
ENDROOT
BRANCH   1   2
ATOM      2  C   UNL     1       4.411  -0.964   0.752  1.00  0.00     0.116 C 
BRANCH   2   3
ATOM      3  N   UNL     1       3.001  -0.927   0.398  1.00  0.00    -0.352 N 
ATOM      4  O   UNL     1       1.051   0.043  -0.202  1.00  0.00    -0.269 OA
ATOM      5  C   UNL     1       2.267   0.136  -0.067  1.00  0.00     0.251 C 
ATOM      6  H   UNL     1       2.509  -1.773   0.507  1.00  0.00     0.163 HD
BRANCH   5   7
ATOM      7  C   UNL     1       2.953   1.408  -0.372  1.00  0.00     0.039 A 
ATOM      8  C   UNL     1       4.124   1.420  -1.134  1.00  0.00     0.014 A 
ATOM      9  C   UNL     1       2.420   2.600   0.126  1.00  0.00     0.014 A 
ATOM     10  C   UNL     1       4.827   2.607  -1.297  1.00  0.00     0.010 A 
ATOM     11  C   UNL     1       3.090   3.803  -0.099  1.00  0.00     0.010 A 
ATOM     12  C   UNL     1       4.313   3.811  -0.789  1.00  0.00    -0.014 A 
BRANCH  12  13
ATOM     13  C   UNL     1       5.041   5.078  -1.037  1.00  0.00     0.031 A 
ATOM     14  C   UNL     1       5.667   5.843   0.093  1.00  0.00     0.074 A 
ATOM     15  C   UNL     1       5.143   5.527  -2.301  1.00  0.00     0.049 A 
ATOM     16  N   UNL     1       6.328   6.973   0.057  1.00  0.00    -0.248 NA
ATOM     17  C   UNL     1       5.528   5.272   1.441  1.00  0.00     0.031 C 
ATOM     18  C   UNL     1       4.567   4.868  -3.475  1.00  0.00     0.029 A 
ATOM     19  N   UNL     1       5.770   6.633  -2.814  1.00  0.00    -0.354 N 
ATOM     20  C   UNL     1       6.667   7.258   1.373  1.00  0.00     0.074 A 
ATOM     21  C   UNL     1       6.120   6.194   2.188  1.00  0.00     0.031 C 
ATOM     22  C   UNL     1       4.894   5.564  -4.574  1.00  0.00     0.029 A 
ATOM     23  C   UNL     1       5.652   6.745  -4.176  1.00  0.00     0.049 A 
ATOM     24  H   UNL     1       6.257   7.284  -2.258  1.00  0.00     0.167 HD
ATOM     25  C   UNL     1       7.377   8.308   1.851  1.00  0.00     0.037 A 
ATOM     26  C   UNL     1       6.091   7.703  -5.013  1.00  0.00     0.037 A 
ATOM     27  C   UNL     1       7.931   9.355   1.030  1.00  0.00     0.049 A 
ATOM     28  C   UNL     1       6.855   8.867  -4.452  1.00  0.00     0.074 A 
ATOM     29  C   UNL     1       8.697  10.442   1.415  1.00  0.00     0.029 A 
ATOM     30  N   UNL     1       7.774   9.446  -0.346  1.00  0.00    -0.354 N 
ATOM     31  N   UNL     1       7.196   9.109  -3.210  1.00  0.00    -0.248 NA
ATOM     32  C   UNL     1       7.294   9.891  -5.409  1.00  0.00     0.031 C 
ATOM     33  C   UNL     1       8.966  11.213   0.279  1.00  0.00     0.029 A 
ATOM     34  C   UNL     1       8.410  10.582  -0.822  1.00  0.00     0.049 A 
ATOM     35  H   UNL     1       7.284   8.798  -0.903  1.00  0.00     0.167 HD
ATOM     36  C   UNL     1       7.902  10.303  -3.235  1.00  0.00     0.074 A 
ATOM     37  C   UNL     1       7.956  10.726  -4.620  1.00  0.00     0.031 C 
ATOM     38  C   UNL     1       8.452  10.988  -2.204  1.00  0.00     0.037 A 
BRANCH  25  39
ATOM     39  C   UNL     1       7.582   8.393   3.336  1.00  0.00     0.064 A 
ATOM     40  C   UNL     1       8.452   7.525   4.011  1.00  0.00     0.173 A 
ATOM     41  C   UNL     1       6.932   9.385   4.086  1.00  0.00     0.173 A 
ATOM     42  F   UNL     1       9.089   6.552   3.342  1.00  0.00    -0.203 F 
ATOM     43  C   UNL     1       8.648   7.633   5.386  1.00  0.00     0.198 A 
ATOM     44  C   UNL     1       7.150   9.507   5.456  1.00  0.00     0.198 A 
ATOM     45  F   UNL     1       6.093  10.245   3.489  1.00  0.00    -0.203 F 
ATOM     46  F   UNL     1       9.453   6.767   6.017  1.00  0.00    -0.200 F 
ATOM     47  C   UNL     1       8.002   8.627   6.106  1.00  0.00     0.200 A 
ATOM     48  F   UNL     1       6.534  10.475   6.148  1.00  0.00    -0.200 F 
ATOM     49  F   UNL     1       8.197   8.734   7.428  1.00  0.00    -0.200 F 
ENDBRANCH  25  39
BRANCH  26  50
ATOM     50  C   UNL     1       5.810   7.590  -6.466  1.00  0.00     0.064 A 
ATOM     51  C   UNL     1       6.837   7.317  -7.378  1.00  0.00     0.173 A 
ATOM     52  C   UNL     1       4.507   7.724  -6.966  1.00  0.00     0.173 A 
ATOM     53  F   UNL     1       8.102   7.199  -6.948  1.00  0.00    -0.203 F 
ATOM     54  C   UNL     1       6.572   7.191  -8.740  1.00  0.00     0.198 A 
ATOM     55  C   UNL     1       4.239   7.569  -8.324  1.00  0.00     0.198 A 
ATOM     56  F   UNL     1       3.489   7.979  -6.131  1.00  0.00    -0.203 F 
ATOM     57  F   UNL     1       7.576   6.961  -9.597  1.00  0.00    -0.200 F 
ATOM     58  C   UNL     1       5.272   7.308  -9.210  1.00  0.00     0.200 A 
ATOM     59  F   UNL     1       2.979   7.666  -8.771  1.00  0.00    -0.200 F 
ATOM     60  F   UNL     1       5.016   7.173 -10.519  1.00  0.00    -0.200 F 
ENDBRANCH  26  50
BRANCH  38  61
ATOM     61  C   UNL     1       9.183  12.254  -2.540  1.00  0.00     0.064 A 
ATOM     62  C   UNL     1       8.497  13.420  -2.912  1.00  0.00     0.173 A 
ATOM     63  C   UNL     1      10.582  12.308  -2.463  1.00  0.00     0.173 A 
ATOM     64  F   UNL     1       7.160  13.412  -3.017  1.00  0.00    -0.203 F 
ATOM     65  C   UNL     1       9.189  14.588  -3.218  1.00  0.00     0.198 A 
ATOM     66  C   UNL     1      11.269  13.486  -2.743  1.00  0.00     0.198 A 
ATOM     67  F   UNL     1      11.283  11.220  -2.108  1.00  0.00    -0.203 F 
ATOM     68  F   UNL     1       8.518  15.678  -3.616  1.00  0.00    -0.200 F 
ATOM     69  C   UNL     1      10.573  14.622  -3.127  1.00  0.00     0.200 A 
ATOM     70  F   UNL     1      12.605  13.520  -2.645  1.00  0.00    -0.200 F 
ATOM     71  F   UNL     1      11.237  15.749  -3.418  1.00  0.00    -0.200 F 
ENDBRANCH  38  61
ENDBRANCH  12  13
ENDBRANCH   5   7
ENDBRANCH   2   3
ENDBRANCH   1   2
BRANCH   1  72
ATOM     72  C   UNL     1       4.321  -3.323   1.770  1.00  0.00     0.023 C 
BRANCH  72  73
ATOM     73  C   UNL     1       5.079  -4.034   0.641  1.00  0.00     0.116 C 
BRANCH  73  74
ATOM     74  N   UNL     1       6.477  -4.196   0.990  1.00  0.00    -0.356 N 
ATOM     75  C   UNL     1       7.165  -5.270   1.465  1.00  0.00     0.223 C 
ATOM     76  H   UNL     1       7.024  -3.388   0.860  1.00  0.00     0.163 HD
ATOM     77  O   UNL     1       8.326  -5.060   1.823  1.00  0.00    -0.275 OA
BRANCH  75  78
ATOM     78  C   UNL     1       6.564  -6.682   1.432  1.00  0.00     0.079 C 
ATOM     79  C   UNL     1       7.448  -7.696   2.172  1.00  0.00     0.014 C 
ATOM     80  C   UNL     1       5.190  -6.833   2.098  1.00  0.00     0.026 C 
ATOM     81  C   UNL     1       6.830  -7.770   3.564  1.00  0.00     0.014 C 
ATOM     82  C   UNL     1       5.324  -7.808   3.283  1.00  0.00     0.026 C 
ATOM     83  C   UNL     1       4.460  -7.380   4.479  1.00  0.00     0.074 C 
ATOM     84  C   UNL     1       4.826  -9.224   2.940  1.00  0.00     0.269 C 
ATOM     85  C   UNL     1       3.580  -8.575   4.813  1.00  0.00     0.263 C 
ATOM     86  N   UNL     1       3.536  -9.390   3.603  1.00  0.00    -0.332 N 
ATOM     87  H   UNL     1       3.468 -10.392   3.780  1.00  0.00     0.348 HD
BRANCH  86  88
ATOM     88  C   UNL     1       2.268  -9.349   2.873  1.00  0.00     0.184 C 
ATOM     89  C   UNL     1       1.805  -8.190   2.040  1.00  0.00     0.071 C 
ATOM     90  C   UNL     1       2.155  -9.494   1.381  1.00  0.00     0.071 C 
ENDBRANCH  86  88
ENDBRANCH  75  78
ENDBRANCH  73  74
ENDBRANCH  72  73
ENDBRANCH   1  72
TORSDOF 12
