REMARK SMILES CCc1cccc(C)c1Nc1ccccc1CC(=O)NCCCCNC(=O)c1ccc(-c2c3nc(c(-c4c(F)c(F)c(F)c(F)c4F)c4ccc([nH]4)c(-c4c(F)c(F)c(F)c(F)c4F)c4nc(c(-c5c(F)c(F)c(F)c(F)c5F)c5ccc2[nH]5)C=C4)C=C3)cc1
REMARK SMILES IDX 21 1 20 2 18 3 19 4 17 6 16 7 11 8 12 9 13 10 15 11 14 12
REMARK SMILES IDX 10 13 9 15 3 16 4 17 5 18 7 19 6 20 8 21 2 22 1 23 22 24
REMARK SMILES IDX 23 25 24 26 25 27 26 28 27 30 28 31 29 32 90 33 30 34 89 35
REMARK SMILES IDX 31 36 32 37 33 38 83 39 34 40 88 41 82 42 84 43 35 44 87 45
REMARK SMILES IDX 81 46 80 47 36 49 68 50 48 51 67 52 49 53 52 54 66 55 85 56
REMARK SMILES IDX 50 57 51 58 65 60 86 61 53 62 37 63 38 64 46 65 39 66 40 67
REMARK SMILES IDX 44 68 47 69 41 70 42 71 45 72 43 73 69 74 70 75 78 76 71 77
REMARK SMILES IDX 72 78 76 79 79 80 73 81 74 82 77 83 75 84 54 85 55 86 63 87
REMARK SMILES IDX 56 88 57 89 61 90 64 91 58 92 59 93 62 94 60 95
REMARK H PARENT 20 5 10 14 25 29 84 48 52 59
REMARK Flexibility Score: inf
ROOT
ATOM      1  C   UNL     1       4.771   4.619  -3.768  1.00  0.00     0.116 C 
ENDROOT
BRANCH   1   2
ATOM      2  N   UNL     1       4.256   4.484  -2.417  1.00  0.00    -0.356 N 
ATOM      3  C   UNL     1       4.214   3.421  -1.564  1.00  0.00     0.224 C 
ATOM      4  O   UNL     1       4.022   3.682  -0.371  1.00  0.00    -0.275 OA
ATOM      5  H   UNL     1       3.867   5.311  -2.050  1.00  0.00     0.163 HD
BRANCH   3   6
ATOM      6  C   UNL     1       4.536   2.006  -2.000  1.00  0.00     0.137 C 
BRANCH   6   7
ATOM      7  C   UNL     1       3.679   1.396  -3.089  1.00  0.00    -0.015 A 
ATOM      8  C   UNL     1       2.343   0.977  -2.905  1.00  0.00     0.042 A 
ATOM      9  C   UNL     1       1.679   0.346  -3.973  1.00  0.00     0.026 A 
ATOM     10  C   UNL     1       2.281   0.196  -5.222  1.00  0.00     0.002 A 
ATOM     11  C   UNL     1       4.288   1.188  -4.347  1.00  0.00     0.006 A 
ATOM     12  C   UNL     1       3.590   0.617  -5.409  1.00  0.00     0.000 A 
BRANCH   8  13
ATOM     13  N   UNL     1       1.678   0.978  -1.659  1.00  0.00    -0.355 N 
ATOM     14  H   UNL     1       1.578   0.088  -1.250  1.00  0.00     0.167 HD
BRANCH  13  15
ATOM     15  C   UNL     1       1.131   2.034  -0.898  1.00  0.00     0.045 A 
ATOM     16  C   UNL     1       0.923   1.909   0.497  1.00  0.00    -0.024 A 
ATOM     17  C   UNL     1       0.727   3.086   1.261  1.00  0.00     0.006 A 
ATOM     18  C   UNL     1       0.636   4.339   0.671  1.00  0.00     0.001 A 
ATOM     19  C   UNL     1       0.805   3.278  -1.497  1.00  0.00    -0.027 A 
ATOM     20  C   UNL     1       0.623   4.428  -0.709  1.00  0.00     0.005 A 
ATOM     21  C   UNL     1       0.550   3.403  -2.972  1.00  0.00     0.046 C 
BRANCH  16  22
ATOM     22  C   UNL     1       0.798   0.637   1.322  1.00  0.00     0.034 C 
ATOM     23  C   UNL     1       0.751  -0.742   0.683  1.00  0.00     0.009 C 
ENDBRANCH  16  22
ENDBRANCH  13  15
ENDBRANCH   8  13
ENDBRANCH   6   7
ENDBRANCH   3   6
ENDBRANCH   1   2
BRANCH   1  24
ATOM     24  C   UNL     1       3.711   4.632  -4.877  1.00  0.00     0.023 C 
BRANCH  24  25
ATOM     25  C   UNL     1       2.503   5.537  -4.637  1.00  0.00     0.023 C 
BRANCH  25  26
ATOM     26  C   UNL     1       2.741   7.017  -4.856  1.00  0.00     0.116 C 
BRANCH  26  27
ATOM     27  N   UNL     1       2.201   7.538  -6.109  1.00  0.00    -0.352 N 
ATOM     28  C   UNL     1       2.202   8.859  -6.542  1.00  0.00     0.251 C 
ATOM     29  H   UNL     1       1.789   6.880  -6.714  1.00  0.00     0.163 HD
ATOM     30  O   UNL     1       1.743   9.191  -7.617  1.00  0.00    -0.269 OA
BRANCH  28  31
ATOM     31  C   UNL     1       2.901   9.838  -5.678  1.00  0.00     0.039 A 
ATOM     32  C   UNL     1       4.128  10.323  -6.135  1.00  0.00     0.014 A 
ATOM     33  C   UNL     1       2.545   9.914  -4.333  1.00  0.00     0.014 A 
ATOM     34  C   UNL     1       5.111  10.633  -5.203  1.00  0.00     0.010 A 
ATOM     35  C   UNL     1       3.553  10.122  -3.411  1.00  0.00     0.010 A 
ATOM     36  C   UNL     1       4.855  10.398  -3.851  1.00  0.00    -0.014 A 
BRANCH  36  37
ATOM     37  C   UNL     1       5.923  10.282  -2.861  1.00  0.00     0.031 A 
ATOM     38  C   UNL     1       6.100  11.330  -1.834  1.00  0.00     0.074 A 
ATOM     39  C   UNL     1       6.740   9.204  -2.858  1.00  0.00     0.049 A 
ATOM     40  N   UNL     1       7.205  11.549  -1.201  1.00  0.00    -0.248 NA
ATOM     41  C   UNL     1       5.054  12.284  -1.500  1.00  0.00     0.031 C 
ATOM     42  C   UNL     1       7.673   8.812  -1.803  1.00  0.00     0.029 A 
ATOM     43  N   UNL     1       7.043   8.340  -3.927  1.00  0.00    -0.354 N 
ATOM     44  C   UNL     1       6.952  12.464  -0.205  1.00  0.00     0.074 A 
ATOM     45  C   UNL     1       5.635  12.966  -0.510  1.00  0.00     0.031 C 
ATOM     46  C   UNL     1       8.628   8.036  -2.334  1.00  0.00     0.029 A 
ATOM     47  C   UNL     1       8.407   8.000  -3.767  1.00  0.00     0.049 A 
ATOM     48  H   UNL     1       6.433   8.037  -4.638  1.00  0.00     0.167 HD
ATOM     49  C   UNL     1       7.848  12.581   0.820  1.00  0.00     0.037 A 
ATOM     50  C   UNL     1       9.346   8.291  -4.710  1.00  0.00     0.037 A 
ATOM     51  C   UNL     1       9.076  11.834   0.523  1.00  0.00     0.049 A 
ATOM     52  C   UNL     1      10.480   9.153  -4.215  1.00  0.00     0.074 A 
ATOM     53  C   UNL     1       9.577  10.616   0.956  1.00  0.00     0.029 A 
ATOM     54  N   UNL     1       9.867  12.220  -0.556  1.00  0.00    -0.354 N 
ATOM     55  N   UNL     1      10.434   9.841  -3.109  1.00  0.00    -0.248 NA
ATOM     56  C   UNL     1      11.733   9.347  -4.940  1.00  0.00     0.031 C 
ATOM     57  C   UNL     1      10.652  10.254   0.105  1.00  0.00     0.029 A 
ATOM     58  C   UNL     1      10.816  11.258  -0.835  1.00  0.00     0.049 A 
ATOM     59  H   UNL     1       9.762  13.064  -1.052  1.00  0.00     0.167 HD
ATOM     60  C   UNL     1      11.585  10.575  -2.976  1.00  0.00     0.074 A 
ATOM     61  C   UNL     1      12.378  10.209  -4.134  1.00  0.00     0.031 C 
ATOM     62  C   UNL     1      11.764  11.432  -1.927  1.00  0.00     0.037 A 
BRANCH  49  63
ATOM     63  C   UNL     1       7.544  13.142   2.207  1.00  0.00     0.064 A 
ATOM     64  C   UNL     1       8.389  12.839   3.302  1.00  0.00     0.173 A 
ATOM     65  C   UNL     1       6.408  13.896   2.562  1.00  0.00     0.173 A 
ATOM     66  F   UNL     1       9.561  12.213   3.132  1.00  0.00    -0.203 F 
ATOM     67  C   UNL     1       8.068  13.166   4.626  1.00  0.00     0.198 A 
ATOM     68  C   UNL     1       6.074  14.204   3.885  1.00  0.00     0.198 A 
ATOM     69  F   UNL     1       5.585  14.417   1.654  1.00  0.00    -0.203 F 
ATOM     70  F   UNL     1       8.903  12.823   5.617  1.00  0.00    -0.200 F 
ATOM     71  C   UNL     1       6.896  13.826   4.921  1.00  0.00     0.200 A 
ATOM     72  F   UNL     1       4.942  14.876   4.140  1.00  0.00    -0.200 F 
ATOM     73  F   UNL     1       6.571  14.118   6.187  1.00  0.00    -0.200 F 
ENDBRANCH  49  63
BRANCH  50  74
ATOM     74  C   UNL     1       8.814   8.269  -6.093  1.00  0.00     0.064 A 
ATOM     75  C   UNL     1       8.409   7.029  -6.621  1.00  0.00     0.173 A 
ATOM     76  C   UNL     1       8.336   9.428  -6.714  1.00  0.00     0.173 A 
ATOM     77  F   UNL     1       8.836   5.889  -6.055  1.00  0.00    -0.203 F 
ATOM     78  C   UNL     1       7.471   6.952  -7.647  1.00  0.00     0.198 A 
ATOM     79  C   UNL     1       7.401   9.346  -7.748  1.00  0.00     0.198 A 
ATOM     80  F   UNL     1       8.669  10.637  -6.239  1.00  0.00    -0.203 F 
ATOM     81  F   UNL     1       7.018   5.755  -8.048  1.00  0.00    -0.200 F 
ATOM     82  C   UNL     1       6.944   8.112  -8.189  1.00  0.00     0.200 A 
ATOM     83  F   UNL     1       6.867  10.468  -8.254  1.00  0.00    -0.200 F 
ATOM     84  F   UNL     1       5.966   8.040  -9.102  1.00  0.00    -0.200 F 
ENDBRANCH  50  74
BRANCH  62  85
ATOM     85  C   UNL     1      12.873  12.450  -1.773  1.00  0.00     0.064 A 
ATOM     86  C   UNL     1      13.560  13.043  -2.846  1.00  0.00     0.173 A 
ATOM     87  C   UNL     1      13.184  12.977  -0.494  1.00  0.00     0.173 A 
ATOM     88  F   UNL     1      13.277  12.727  -4.116  1.00  0.00    -0.203 F 
ATOM     89  C   UNL     1      14.526  14.036  -2.651  1.00  0.00     0.198 A 
ATOM     90  C   UNL     1      14.105  14.008  -0.309  1.00  0.00     0.198 A 
ATOM     91  F   UNL     1      12.583  12.525   0.616  1.00  0.00    -0.203 F 
ATOM     92  F   UNL     1      15.182  14.539  -3.707  1.00  0.00    -0.200 F 
ATOM     93  C   UNL     1      14.789  14.527  -1.386  1.00  0.00     0.200 A 
ATOM     94  F   UNL     1      14.308  14.508   0.919  1.00  0.00    -0.200 F 
ATOM     95  F   UNL     1      15.680  15.512  -1.211  1.00  0.00    -0.200 F 
ENDBRANCH  62  85
ENDBRANCH  36  37
ENDBRANCH  28  31
ENDBRANCH  26  27
ENDBRANCH  25  26
ENDBRANCH  24  25
ENDBRANCH   1  24
TORSDOF 15
