REMARK SMILES CCc1n[nH]c(C(=O)Nc2cc(C(=O)NCCCCNC(=O)c3ccc(-c4c5nc(c(-c6c(F)c(F)c(F)c(F)c6F)c6ccc([nH]6)c(-c6c(F)c(F)c(F)c(F)c6F)c6nc(c(-c7c(F)c(F)c(F)c(F)c7F)c7ccc4[nH]7)C=C6)C=C5)cc3)ccc2Cl)n1
REMARK SMILES IDX 17 1 16 2 15 3 13 4 14 5 12 7 10 8 11 9 88 10 87 11 89 12
REMARK SMILES IDX 86 13 9 14 7 15 8 16 6 18 3 19 4 20 90 21 5 22 2 24 1 25
REMARK SMILES IDX 18 26 19 27 20 28 21 29 22 31 23 32 24 33 85 34 25 35 84 36
REMARK SMILES IDX 26 37 27 38 28 39 78 40 29 41 83 42 77 43 79 44 30 45 82 46
REMARK SMILES IDX 76 47 75 48 31 50 63 51 43 52 62 53 44 54 47 55 61 56 80 57
REMARK SMILES IDX 45 58 46 59 60 61 81 62 48 63 32 64 33 65 41 66 34 67 35 68
REMARK SMILES IDX 39 69 42 70 36 71 37 72 40 73 38 74 64 75 65 76 73 77 66 78
REMARK SMILES IDX 67 79 71 80 74 81 68 82 69 83 72 84 70 85 49 86 50 87 58 88
REMARK SMILES IDX 51 89 52 90 56 91 59 92 53 93 54 94 57 95 55 96
REMARK H PARENT 15 6 9 17 5 23 20 30 79 49 47 60
REMARK Flexibility Score: inf
ROOT
ATOM      1  C   UNL     1      -3.749   1.553  -3.877  1.00  0.00     0.023 C 
ENDROOT
BRANCH   1   2
ATOM      2  C   UNL     1      -2.231   1.681  -3.731  1.00  0.00     0.116 C 
BRANCH   2   3
ATOM      3  N   UNL     1      -1.808   3.053  -3.923  1.00  0.00    -0.352 N 
ATOM      4  C   UNL     1      -1.544   4.070  -3.043  1.00  0.00     0.251 C 
ATOM      5  O   UNL     1      -1.151   5.137  -3.517  1.00  0.00    -0.269 OA
ATOM      6  H   UNL     1      -1.688   3.303  -4.867  1.00  0.00     0.163 HD
BRANCH   4   7
ATOM      7  C   UNL     1      -1.664   3.949  -1.561  1.00  0.00     0.041 A 
ATOM      8  C   UNL     1      -0.838   4.739   0.598  1.00  0.00     0.061 A 
ATOM      9  C   UNL     1      -0.857   4.814  -0.799  1.00  0.00     0.041 A 
ATOM     10  C   UNL     1      -1.726   3.869   1.253  1.00  0.00     0.064 A 
ATOM     11  C   UNL     1      -2.556   3.033   0.506  1.00  0.00     0.023 A 
ATOM     12  Cl  UNL     1      -1.930   3.860   2.972  1.00  0.00    -0.082 Cl
ATOM     13  C   UNL     1      -2.522   3.073  -0.891  1.00  0.00     0.015 A 
BRANCH   8  14
ATOM     14  N   UNL     1       0.122   5.530   1.263  1.00  0.00    -0.318 N 
ATOM     15  C   UNL     1       1.042   5.099   2.207  1.00  0.00     0.293 C 
ATOM     16  O   UNL     1       1.677   5.942   2.844  1.00  0.00    -0.265 OA
ATOM     17  H   UNL     1       0.140   6.487   1.033  1.00  0.00     0.170 HD
BRANCH  15  18
ATOM     18  C   UNL     1       1.304   3.681   2.344  1.00  0.00     0.214 A 
ATOM     19  C   UNL     1       1.337   1.577   2.135  1.00  0.00     0.151 A 
ATOM     20  N   UNL     1       2.021   1.770   3.269  1.00  0.00    -0.158 NA
ATOM     21  N   UNL     1       0.931   2.724   1.515  1.00  0.00    -0.207 NA
ATOM     22  N   UNL     1       2.009   3.115   3.365  1.00  0.00    -0.255 N 
ATOM     23  H   UNL     1       2.453   3.623   4.081  1.00  0.00     0.192 HD
BRANCH  19  24
ATOM     24  C   UNL     1       0.938   0.241   1.625  1.00  0.00     0.076 C 
ATOM     25  C   UNL     1       1.245   0.053   0.146  1.00  0.00     0.012 C 
ENDBRANCH  19  24
ENDBRANCH  15  18
ENDBRANCH   8  14
ENDBRANCH   4   7
ENDBRANCH   2   3
ENDBRANCH   1   2
BRANCH   1  26
ATOM     26  C   UNL     1      -4.255   1.574  -5.322  1.00  0.00     0.023 C 
BRANCH  26  27
ATOM     27  C   UNL     1      -3.748   0.441  -6.207  1.00  0.00     0.116 C 
BRANCH  27  28
ATOM     28  N   UNL     1      -4.013  -0.883  -5.664  1.00  0.00    -0.352 N 
ATOM     29  C   UNL     1      -4.280  -2.052  -6.338  1.00  0.00     0.251 C 
ATOM     30  H   UNL     1      -3.999  -0.951  -4.682  1.00  0.00     0.163 HD
ATOM     31  O   UNL     1      -4.570  -3.069  -5.728  1.00  0.00    -0.269 OA
BRANCH  29  32
ATOM     32  C   UNL     1      -4.258  -2.051  -7.816  1.00  0.00     0.039 A 
ATOM     33  C   UNL     1      -5.352  -2.582  -8.503  1.00  0.00     0.014 A 
ATOM     34  C   UNL     1      -3.183  -1.496  -8.515  1.00  0.00     0.014 A 
ATOM     35  C   UNL     1      -5.404  -2.487  -9.894  1.00  0.00     0.010 A 
ATOM     36  C   UNL     1      -3.266  -1.344  -9.895  1.00  0.00     0.010 A 
ATOM     37  C   UNL     1      -4.380  -1.831 -10.596  1.00  0.00    -0.014 A 
BRANCH  37  38
ATOM     38  C   UNL     1      -4.461  -1.627 -12.063  1.00  0.00     0.031 A 
ATOM     39  C   UNL     1      -3.464  -2.287 -12.972  1.00  0.00     0.074 A 
ATOM     40  C   UNL     1      -5.384  -0.785 -12.566  1.00  0.00     0.049 A 
ATOM     41  N   UNL     1      -3.314  -2.162 -14.266  1.00  0.00    -0.248 NA
ATOM     42  C   UNL     1      -2.486  -3.184 -12.336  1.00  0.00     0.031 C 
ATOM     43  C   UNL     1      -6.373  -0.046 -11.779  1.00  0.00     0.029 A 
ATOM     44  N   UNL     1      -5.630  -0.396 -13.859  1.00  0.00    -0.354 N 
ATOM     45  C   UNL     1      -2.219  -2.948 -14.595  1.00  0.00     0.074 A 
ATOM     46  C   UNL     1      -1.711  -3.507 -13.361  1.00  0.00     0.031 C 
ATOM     47  C   UNL     1      -7.129   0.693 -12.607  1.00  0.00     0.029 A 
ATOM     48  C   UNL     1      -6.657   0.508 -13.975  1.00  0.00     0.049 A 
ATOM     49  H   UNL     1      -5.119  -0.732 -14.630  1.00  0.00     0.167 HD
ATOM     50  C   UNL     1      -1.698  -3.198 -15.820  1.00  0.00     0.037 A 
ATOM     51  C   UNL     1      -7.156   1.124 -15.064  1.00  0.00     0.037 A 
ATOM     52  C   UNL     1      -2.224  -2.664 -17.048  1.00  0.00     0.049 A 
ATOM     53  C   UNL     1      -6.562   0.824 -16.413  1.00  0.00     0.074 A 
ATOM     54  C   UNL     1      -1.810  -2.911 -18.345  1.00  0.00     0.029 A 
ATOM     55  N   UNL     1      -3.284  -1.772 -17.130  1.00  0.00    -0.354 N 
ATOM     56  N   UNL     1      -5.570   0.025 -16.721  1.00  0.00    -0.248 NA
ATOM     57  C   UNL     1      -7.161   1.509 -17.567  1.00  0.00     0.031 C 
ATOM     58  C   UNL     1      -2.592  -2.137 -19.209  1.00  0.00     0.029 A 
ATOM     59  C   UNL     1      -3.524  -1.443 -18.454  1.00  0.00     0.049 A 
ATOM     60  H   UNL     1      -3.790  -1.424 -16.360  1.00  0.00     0.167 HD
ATOM     61  C   UNL     1      -5.443   0.089 -18.102  1.00  0.00     0.074 A 
ATOM     62  C   UNL     1      -6.468   0.996 -18.574  1.00  0.00     0.031 C 
ATOM     63  C   UNL     1      -4.555  -0.544 -18.906  1.00  0.00     0.037 A 
BRANCH  50  64
ATOM     64  C   UNL     1      -0.498  -4.096 -15.892  1.00  0.00     0.064 A 
ATOM     65  C   UNL     1      -0.595  -5.473 -15.634  1.00  0.00     0.173 A 
ATOM     66  C   UNL     1       0.756  -3.583 -16.253  1.00  0.00     0.173 A 
ATOM     67  F   UNL     1      -1.769  -6.011 -15.273  1.00  0.00    -0.203 F 
ATOM     68  C   UNL     1       0.526  -6.295 -15.707  1.00  0.00     0.198 A 
ATOM     69  C   UNL     1       1.869  -4.414 -16.353  1.00  0.00     0.198 A 
ATOM     70  F   UNL     1       0.903  -2.275 -16.514  1.00  0.00    -0.203 F 
ATOM     71  F   UNL     1       0.419  -7.598 -15.408  1.00  0.00    -0.200 F 
ATOM     72  C   UNL     1       1.755  -5.767 -16.073  1.00  0.00     0.200 A 
ATOM     73  F   UNL     1       3.054  -3.905 -16.718  1.00  0.00    -0.200 F 
ATOM     74  F   UNL     1       2.831  -6.562 -16.147  1.00  0.00    -0.200 F 
ENDBRANCH  50  64
BRANCH  51  75
ATOM     75  C   UNL     1      -8.297   2.065 -14.927  1.00  0.00     0.064 A 
ATOM     76  C   UNL     1      -9.569   1.725 -15.407  1.00  0.00     0.173 A 
ATOM     77  C   UNL     1      -8.142   3.320 -14.319  1.00  0.00     0.173 A 
ATOM     78  F   UNL     1      -9.761   0.544 -16.013  1.00  0.00    -0.203 F 
ATOM     79  C   UNL     1     -10.639   2.611 -15.302  1.00  0.00     0.198 A 
ATOM     80  C   UNL     1      -9.219   4.194 -14.191  1.00  0.00     0.198 A 
ATOM     81  F   UNL     1      -6.946   3.690 -13.839  1.00  0.00    -0.203 F 
ATOM     82  F   UNL     1     -11.834   2.278 -15.808  1.00  0.00    -0.200 F 
ATOM     83  C   UNL     1     -10.464   3.843 -14.690  1.00  0.00     0.200 A 
ATOM     84  F   UNL     1      -9.049   5.379 -13.588  1.00  0.00    -0.200 F 
ATOM     85  F   UNL     1     -11.494   4.694 -14.586  1.00  0.00    -0.200 F 
ENDBRANCH  51  75
BRANCH  63  86
ATOM     86  C   UNL     1      -4.673  -0.305 -20.382  1.00  0.00     0.064 A 
ATOM     87  C   UNL     1      -4.284   0.911 -20.962  1.00  0.00     0.173 A 
ATOM     88  C   UNL     1      -5.140  -1.320 -21.231  1.00  0.00     0.173 A 
ATOM     89  F   UNL     1      -3.846   1.918 -20.190  1.00  0.00    -0.203 F 
ATOM     90  C   UNL     1      -4.379   1.110 -22.337  1.00  0.00     0.198 A 
ATOM     91  C   UNL     1      -5.208  -1.127 -22.607  1.00  0.00     0.198 A 
ATOM     92  F   UNL     1      -5.519  -2.503 -20.725  1.00  0.00    -0.203 F 
ATOM     93  F   UNL     1      -4.043   2.295 -22.865  1.00  0.00    -0.200 F 
ATOM     94  C   UNL     1      -4.833   0.089 -23.158  1.00  0.00     0.200 A 
ATOM     95  F   UNL     1      -5.635  -2.119 -23.401  1.00  0.00    -0.200 F 
ATOM     96  F   UNL     1      -4.917   0.280 -24.482  1.00  0.00    -0.200 F 
ENDBRANCH  63  86
ENDBRANCH  37  38
ENDBRANCH  29  32
ENDBRANCH  27  28
ENDBRANCH  26  27
ENDBRANCH   1  26
TORSDOF 14
