REMARK SMILES Cc1cc(S(=O)(=O)Nc2ccc(Cl)cc2F)ccc1OCC(=O)NCCCCNC(=O)c1ccc(-c2c3nc(c(-c4c(F)c(F)c(F)c(F)c4F)c4ccc([nH]4)c(-c4c(F)c(F)c(F)c(F)c4F)c4nc(c(-c5c(F)c(F)c(F)c(F)c5F)c5ccc2[nH]5)C=C4)C=C3)cc1
REMARK SMILES IDX 25 1 24 2 22 3 23 4 21 6 20 7 19 8 1 9 2 10 3 11 4 12 18 13
REMARK SMILES IDX 17 14 5 15 6 16 7 17 8 18 9 20 10 21 15 22 11 23 14 24 16 25
REMARK SMILES IDX 12 26 13 27 26 28 27 29 28 30 29 31 30 32 31 34 32 35 33 36
REMARK SMILES IDX 94 37 34 38 93 39 35 40 36 41 37 42 87 43 38 44 92 45 86 46
REMARK SMILES IDX 88 47 39 48 91 49 85 50 84 51 40 53 72 54 52 55 71 56 53 57
REMARK SMILES IDX 56 58 70 59 89 60 54 61 55 62 69 64 90 65 57 66 41 67 42 68
REMARK SMILES IDX 50 69 43 70 44 71 48 72 51 73 45 74 46 75 49 76 47 77 73 78
REMARK SMILES IDX 74 79 82 80 75 81 76 82 80 83 83 84 77 85 78 86 81 87 79 88
REMARK SMILES IDX 58 89 59 90 67 91 60 92 61 93 65 94 68 95 62 96 63 97 66 98
REMARK SMILES IDX 64 99
REMARK H PARENT 24 5 8 19 29 33 88 52 56 63
REMARK Flexibility Score: inf
ROOT
ATOM      1  C   UNL     1       1.411   3.620   2.659  1.00  0.00     0.116 C 
ENDROOT
BRANCH   1   2
ATOM      2  N   UNL     1       2.458   2.620   2.548  1.00  0.00    -0.353 N 
ATOM      3  C   UNL     1       3.026   2.086   1.427  1.00  0.00     0.257 C 
ATOM      4  O   UNL     1       4.000   1.342   1.565  1.00  0.00    -0.271 OA
ATOM      5  H   UNL     1       2.808   2.279   3.402  1.00  0.00     0.163 HD
BRANCH   3   6
ATOM      6  C   UNL     1       2.502   2.472   0.042  1.00  0.00     0.329 C 
BRANCH   6   7
ATOM      7  O   UNL     1       1.141   2.248  -0.255  1.00  0.00    -0.484 OA
BRANCH   7   8
ATOM      8  C   UNL     1       0.573   1.017  -0.105  1.00  0.00     0.123 A 
ATOM      9  C   UNL     1       2.528  -0.560  -0.712  1.00  0.00     0.048 C 
ATOM     10  C   UNL     1       1.106  -0.253  -0.347  1.00  0.00    -0.008 A 
ATOM     11  C   UNL     1       0.240  -1.368  -0.240  1.00  0.00     0.029 A 
ATOM     12  C   UNL     1      -1.103  -1.240   0.144  1.00  0.00     0.088 A 
ATOM     13  C   UNL     1      -0.772   1.123   0.285  1.00  0.00     0.048 A 
ATOM     14  C   UNL     1      -1.577   0.007   0.503  1.00  0.00     0.026 A 
BRANCH  12  15
ATOM     15  S   UNL     1      -2.114  -2.695  -0.007  1.00  0.00     0.262 S 
ATOM     16  O   UNL     1      -1.870  -3.255  -1.312  1.00  0.00    -0.201 OA
ATOM     17  O   UNL     1      -1.844  -3.476   1.193  1.00  0.00    -0.201 OA
BRANCH  15  18
ATOM     18  N   UNL     1      -3.757  -2.361   0.110  1.00  0.00    -0.277 N 
ATOM     19  H   UNL     1      -4.340  -3.083   0.438  1.00  0.00     0.180 HD
BRANCH  18  20
ATOM     20  C   UNL     1      -4.378  -1.126  -0.224  1.00  0.00     0.085 A 
ATOM     21  C   UNL     1      -5.307  -0.645   0.709  1.00  0.00     0.031 A 
ATOM     22  C   UNL     1      -4.076  -0.346  -1.345  1.00  0.00     0.148 A 
ATOM     23  C   UNL     1      -5.833   0.641   0.584  1.00  0.00     0.023 A 
ATOM     24  C   UNL     1      -4.594   0.944  -1.472  1.00  0.00     0.062 A 
ATOM     25  F   UNL     1      -3.204  -0.777  -2.264  1.00  0.00    -0.205 F 
ATOM     26  C   UNL     1      -5.455   1.439  -0.494  1.00  0.00     0.044 A 
ATOM     27  Cl  UNL     1      -6.031   3.056  -0.588  1.00  0.00    -0.084 Cl
ENDBRANCH  18  20
ENDBRANCH  15  18
ENDBRANCH  12  15
ENDBRANCH   7   8
ENDBRANCH   6   7
ENDBRANCH   3   6
ENDBRANCH   1   2
BRANCH   1  28
ATOM     28  C   UNL     1       0.074   3.063   3.160  1.00  0.00     0.023 C 
BRANCH  28  29
ATOM     29  C   UNL     1       0.118   2.189   4.411  1.00  0.00     0.023 C 
BRANCH  29  30
ATOM     30  C   UNL     1       0.607   2.917   5.646  1.00  0.00     0.116 C 
BRANCH  30  31
ATOM     31  N   UNL     1      -0.396   3.724   6.322  1.00  0.00    -0.352 N 
ATOM     32  C   UNL     1      -0.269   4.578   7.402  1.00  0.00     0.251 C 
ATOM     33  H   UNL     1      -1.306   3.651   5.953  1.00  0.00     0.163 HD
ATOM     34  O   UNL     1      -1.284   5.048   7.911  1.00  0.00    -0.269 OA
BRANCH  32  35
ATOM     35  C   UNL     1       1.067   5.053   7.857  1.00  0.00     0.039 A 
ATOM     36  C   UNL     1       1.172   6.356   8.372  1.00  0.00     0.014 A 
ATOM     37  C   UNL     1       2.226   4.333   7.602  1.00  0.00     0.014 A 
ATOM     38  C   UNL     1       2.408   7.003   8.381  1.00  0.00     0.010 A 
ATOM     39  C   UNL     1       3.414   5.008   7.462  1.00  0.00     0.010 A 
ATOM     40  C   UNL     1       3.496   6.358   7.806  1.00  0.00    -0.014 A 
BRANCH  40  41
ATOM     41  C   UNL     1       4.752   6.989   7.436  1.00  0.00     0.031 A 
ATOM     42  C   UNL     1       5.996   6.636   8.152  1.00  0.00     0.074 A 
ATOM     43  C   UNL     1       4.798   7.671   6.269  1.00  0.00     0.049 A 
ATOM     44  N   UNL     1       7.100   7.289   8.041  1.00  0.00    -0.248 NA
ATOM     45  C   UNL     1       6.094   5.507   9.073  1.00  0.00     0.031 C 
ATOM     46  C   UNL     1       5.980   7.983   5.470  1.00  0.00     0.029 A 
ATOM     47  N   UNL     1       3.756   8.366   5.629  1.00  0.00    -0.354 N 
ATOM     48  C   UNL     1       8.096   6.542   8.628  1.00  0.00     0.074 A 
ATOM     49  C   UNL     1       7.411   5.462   9.298  1.00  0.00     0.031 C 
ATOM     50  C   UNL     1       5.694   9.006   4.649  1.00  0.00     0.029 A 
ATOM     51  C   UNL     1       4.374   9.483   5.016  1.00  0.00     0.049 A 
ATOM     52  H   UNL     1       2.801   8.126   5.610  1.00  0.00     0.167 HD
ATOM     53  C   UNL     1       9.396   6.863   8.372  1.00  0.00     0.037 A 
ATOM     54  C   UNL     1       4.099  10.757   5.423  1.00  0.00     0.037 A 
ATOM     55  C   UNL     1       9.478   8.038   7.512  1.00  0.00     0.049 A 
ATOM     56  C   UNL     1       5.309  11.513   5.917  1.00  0.00     0.074 A 
ATOM     57  C   UNL     1       9.636   8.187   6.144  1.00  0.00     0.029 A 
ATOM     58  N   UNL     1       9.055   9.268   7.999  1.00  0.00    -0.354 N 
ATOM     59  N   UNL     1       6.393  10.936   6.357  1.00  0.00    -0.248 NA
ATOM     60  C   UNL     1       5.397  12.969   5.958  1.00  0.00     0.031 C 
ATOM     61  C   UNL     1       9.279   9.514   5.803  1.00  0.00     0.029 A 
ATOM     62  C   UNL     1       8.921  10.173   6.967  1.00  0.00     0.049 A 
ATOM     63  H   UNL     1       8.876   9.466   8.947  1.00  0.00     0.167 HD
ATOM     64  C   UNL     1       7.305  11.891   6.727  1.00  0.00     0.074 A 
ATOM     65  C   UNL     1       6.636  13.147   6.451  1.00  0.00     0.031 C 
ATOM     66  C   UNL     1       8.531  11.549   7.228  1.00  0.00     0.037 A 
BRANCH  53  67
ATOM     67  C   UNL     1      10.582   5.983   8.684  1.00  0.00     0.064 A 
ATOM     68  C   UNL     1      11.742   6.020   7.876  1.00  0.00     0.173 A 
ATOM     69  C   UNL     1      10.636   5.066   9.748  1.00  0.00     0.173 A 
ATOM     70  F   UNL     1      11.873   6.901   6.876  1.00  0.00    -0.203 F 
ATOM     71  C   UNL     1      12.817   5.148   8.060  1.00  0.00     0.198 A 
ATOM     72  C   UNL     1      11.689   4.157   9.902  1.00  0.00     0.198 A 
ATOM     73  F   UNL     1       9.700   5.057  10.706  1.00  0.00    -0.203 F 
ATOM     74  F   UNL     1      13.888   5.234   7.259  1.00  0.00    -0.200 F 
ATOM     75  C   UNL     1      12.777   4.193   9.054  1.00  0.00     0.200 A 
ATOM     76  F   UNL     1      11.643   3.248  10.887  1.00  0.00    -0.200 F 
ATOM     77  F   UNL     1      13.790   3.331   9.208  1.00  0.00    -0.200 F 
ENDBRANCH  53  67
BRANCH  54  78
ATOM     78  C   UNL     1       2.713  10.902   5.942  1.00  0.00     0.064 A 
ATOM     79  C   UNL     1       1.653  10.712   5.034  1.00  0.00     0.173 A 
ATOM     80  C   UNL     1       2.432  10.763   7.307  1.00  0.00     0.173 A 
ATOM     81  F   UNL     1       1.874  10.833   3.715  1.00  0.00    -0.203 F 
ATOM     82  C   UNL     1       0.407  10.259   5.461  1.00  0.00     0.198 A 
ATOM     83  C   UNL     1       1.174  10.326   7.731  1.00  0.00     0.198 A 
ATOM     84  F   UNL     1       3.402  10.917   8.219  1.00  0.00    -0.203 F 
ATOM     85  F   UNL     1      -0.539   9.957   4.560  1.00  0.00    -0.200 F 
ATOM     86  C   UNL     1       0.180  10.034   6.808  1.00  0.00     0.200 A 
ATOM     87  F   UNL     1       0.957  10.085   9.033  1.00  0.00    -0.200 F 
ATOM     88  F   UNL     1      -0.977   9.492   7.212  1.00  0.00    -0.200 F 
ENDBRANCH  54  78
BRANCH  66  89
ATOM     89  C   UNL     1       9.529  12.452   7.923  1.00  0.00     0.064 A 
ATOM     90  C   UNL     1       9.200  13.664   8.548  1.00  0.00     0.173 A 
ATOM     91  C   UNL     1      10.869  12.019   8.120  1.00  0.00     0.173 A 
ATOM     92  F   UNL     1       7.948  14.138   8.543  1.00  0.00    -0.203 F 
ATOM     93  C   UNL     1      10.142  14.409   9.267  1.00  0.00     0.198 A 
ATOM     94  C   UNL     1      11.786  12.731   8.892  1.00  0.00     0.198 A 
ATOM     95  F   UNL     1      11.327  10.872   7.598  1.00  0.00    -0.203 F 
ATOM     96  F   UNL     1       9.783  15.579   9.812  1.00  0.00    -0.200 F 
ATOM     97  C   UNL     1      11.427  13.935   9.453  1.00  0.00     0.200 A 
ATOM     98  F   UNL     1      13.009  12.225   9.106  1.00  0.00    -0.200 F 
ATOM     99  F   UNL     1      12.307  14.625  10.190  1.00  0.00    -0.200 F 
ENDBRANCH  66  89
ENDBRANCH  40  41
ENDBRANCH  32  35
ENDBRANCH  30  31
ENDBRANCH  29  30
ENDBRANCH  28  29
ENDBRANCH   1  28
TORSDOF 16
