REMARK SMILES C/C(=N\[NH+]=C1\NC(=O)[C@H](CC(=O)NCCCCNC(=O)c2ccc(-c3c4nc(c(-c5c(F)c(F)c(F)c(F)c5F)c5ccc([nH]5)c(-c5c(F)c(F)c(F)c(F)c5F)c5nc(c(-c6c(F)c(F)c(F)c(F)c6F)c6ccc3[nH]6)C=C5)C=C4)cc2)S1)c1ccc([N+](=O)[O-])cc1
REMARK SMILES IDX 14 1 13 2 11 3 12 4 10 6 9 7 4 8 5 9 6 11 84 12 7 13 8 15
REMARK SMILES IDX 3 16 1 17 2 18 85 19 86 20 93 21 87 22 92 23 88 24 89 25
REMARK SMILES IDX 90 26 91 27 15 28 16 29 17 30 18 31 19 32 20 34 21 35 22 36
REMARK SMILES IDX 83 37 23 38 82 39 24 40 25 41 26 42 76 43 27 44 81 45 75 46
REMARK SMILES IDX 77 47 28 48 80 49 74 50 73 51 29 53 61 54 41 55 60 56 42 57
REMARK SMILES IDX 45 58 59 59 78 60 43 61 44 62 58 64 79 65 46 66 30 67 31 68
REMARK SMILES IDX 39 69 32 70 33 71 37 72 40 73 34 74 35 75 38 76 36 77 62 78
REMARK SMILES IDX 63 79 71 80 64 81 65 82 69 83 72 84 66 85 67 86 70 87 68 88
REMARK SMILES IDX 47 89 48 90 56 91 49 92 50 93 54 94 57 95 51 96 52 97 55 98
REMARK SMILES IDX 53 99
REMARK H PARENT 13 5 4 10 6 14 18 33 77 52 45 63
REMARK Flexibility Score: inf
ROOT
ATOM      1  C   UNL     1      -3.339   4.460  -2.069  1.00  0.00     0.116 C 
ENDROOT
BRANCH   1   2
ATOM      2  N   UNL     1      -3.302   3.834  -3.381  1.00  0.00    -0.356 N 
ATOM      3  C   UNL     1      -3.261   2.514  -3.724  1.00  0.00     0.221 C 
ATOM      4  O   UNL     1      -3.207   2.204  -4.912  1.00  0.00    -0.275 OA
ATOM      5  H   UNL     1      -3.307   4.461  -4.140  1.00  0.00     0.163 HD
BRANCH   3   6
ATOM      6  C   UNL     1      -3.256   1.456  -2.644  1.00  0.00     0.127 C 
BRANCH   6   7
ATOM      7  C   UNL     1      -1.835   1.026  -2.312  1.00  0.00     0.183 C 
ATOM      8  N   UNL     1      -0.406   1.308   1.257  1.00  0.00    -0.142 N 
ATOM      9  C   UNL     1      -0.983   1.323   0.105  1.00  0.00     0.337 C 
ATOM     10  H   UNL     1      -0.076   2.130   1.685  1.00  0.00     0.343 HD
ATOM     11  N   UNL     1      -0.803   2.409  -0.673  1.00  0.00    -0.202 N 
ATOM     12  S   UNL     1      -1.808   0.057  -0.756  1.00  0.00    -0.020 SA
ATOM     13  C   UNL     1      -0.930   2.198  -2.010  1.00  0.00     0.322 C 
ATOM     14  H   UNL     1      -0.593   3.295  -0.299  1.00  0.00     0.316 HD
ATOM     15  O   UNL     1      -0.326   2.852  -2.849  1.00  0.00    -0.246 OA
BRANCH   8  16
ATOM     16  N   UNL     1      -0.278   0.062   1.859  1.00  0.00    -0.090 NA
ATOM     17  C   UNL     1       1.775  -0.090   0.438  1.00  0.00     0.071 C 
ATOM     18  C   UNL     1       0.811  -0.579   1.518  1.00  0.00     0.088 C 
BRANCH  18  19
ATOM     19  C   UNL     1       1.111  -1.895   2.169  1.00  0.00    -0.000 A 
ATOM     20  C   UNL     1       0.120  -2.527   2.935  1.00  0.00     0.017 A 
ATOM     21  C   UNL     1       2.374  -2.494   2.055  1.00  0.00     0.017 A 
ATOM     22  C   UNL     1       0.389  -3.734   3.590  1.00  0.00     0.086 A 
ATOM     23  C   UNL     1       2.654  -3.695   2.713  1.00  0.00     0.086 A 
ATOM     24  C   UNL     1       1.661  -4.309   3.483  1.00  0.00     0.269 A 
BRANCH  24  25
ATOM     25  N   UNL     1       1.967  -5.557   4.191  1.00  0.00     0.062 N 
ATOM     26  O   UNL     1       1.061  -6.081   4.853  1.00  0.00    -0.258 OA
ATOM     27  O   UNL     1       3.115  -6.011   4.085  1.00  0.00    -0.258 OA
ENDBRANCH  24  25
ENDBRANCH  18  19
ENDBRANCH   8  16
ENDBRANCH   6   7
ENDBRANCH   3   6
ENDBRANCH   1   2
BRANCH   1  28
ATOM     28  C   UNL     1      -2.164   5.413  -1.845  1.00  0.00     0.023 C 
BRANCH  28  29
ATOM     29  C   UNL     1      -2.211   6.692  -2.673  1.00  0.00     0.023 C 
BRANCH  29  30
ATOM     30  C   UNL     1      -3.408   7.580  -2.373  1.00  0.00     0.116 C 
BRANCH  30  31
ATOM     31  N   UNL     1      -3.444   8.021  -0.984  1.00  0.00    -0.352 N 
ATOM     32  C   UNL     1      -3.486   9.300  -0.481  1.00  0.00     0.251 C 
ATOM     33  H   UNL     1      -3.436   7.302  -0.311  1.00  0.00     0.163 HD
ATOM     34  O   UNL     1      -3.342   9.509   0.714  1.00  0.00    -0.269 OA
BRANCH  32  35
ATOM     35  C   UNL     1      -3.681  10.423  -1.418  1.00  0.00     0.039 A 
ATOM     36  C   UNL     1      -2.818  11.519  -1.357  1.00  0.00     0.014 A 
ATOM     37  C   UNL     1      -4.676  10.353  -2.395  1.00  0.00     0.014 A 
ATOM     38  C   UNL     1      -2.898  12.508  -2.338  1.00  0.00     0.010 A 
ATOM     39  C   UNL     1      -4.695  11.288  -3.420  1.00  0.00     0.010 A 
ATOM     40  C   UNL     1      -3.804  12.373  -3.403  1.00  0.00    -0.014 A 
BRANCH  40  41
ATOM     41  C   UNL     1      -3.844  13.348  -4.519  1.00  0.00     0.031 A 
ATOM     42  C   UNL     1      -5.093  14.143  -4.769  1.00  0.00     0.074 A 
ATOM     43  C   UNL     1      -2.796  13.442  -5.361  1.00  0.00     0.049 A 
ATOM     44  N   UNL     1      -5.379  14.948  -5.759  1.00  0.00    -0.248 NA
ATOM     45  C   UNL     1      -6.183  13.981  -3.792  1.00  0.00     0.031 C 
ATOM     46  C   UNL     1      -1.551  12.679  -5.254  1.00  0.00     0.029 A 
ATOM     47  N   UNL     1      -2.620  14.208  -6.485  1.00  0.00    -0.354 N 
ATOM     48  C   UNL     1      -6.683  15.367  -5.537  1.00  0.00     0.074 A 
ATOM     49  C   UNL     1      -7.154  14.687  -4.351  1.00  0.00     0.031 C 
ATOM     50  C   UNL     1      -0.732  13.031  -6.258  1.00  0.00     0.029 A 
ATOM     51  C   UNL     1      -1.409  14.011  -7.102  1.00  0.00     0.049 A 
ATOM     52  H   UNL     1      -3.298  14.839  -6.819  1.00  0.00     0.167 HD
ATOM     53  C   UNL     1      -7.414  16.260  -6.246  1.00  0.00     0.037 A 
ATOM     54  C   UNL     1      -0.907  14.554  -8.227  1.00  0.00     0.037 A 
ATOM     55  C   UNL     1      -6.926  16.963  -7.401  1.00  0.00     0.049 A 
ATOM     56  C   UNL     1      -1.738  15.546  -8.994  1.00  0.00     0.074 A 
ATOM     57  C   UNL     1      -7.556  17.947  -8.143  1.00  0.00     0.029 A 
ATOM     58  N   UNL     1      -5.684  16.755  -7.983  1.00  0.00    -0.354 N 
ATOM     59  N   UNL     1      -2.944  15.990  -8.735  1.00  0.00    -0.248 NA
ATOM     60  C   UNL     1      -1.137  16.114 -10.209  1.00  0.00     0.031 C 
ATOM     61  C   UNL     1      -6.710  18.306  -9.198  1.00  0.00     0.029 A 
ATOM     62  C   UNL     1      -5.537  17.576  -9.089  1.00  0.00     0.049 A 
ATOM     63  H   UNL     1      -5.007  16.119  -7.657  1.00  0.00     0.167 HD
ATOM     64  C   UNL     1      -3.239  16.900  -9.741  1.00  0.00     0.074 A 
ATOM     65  C   UNL     1      -2.078  16.959 -10.604  1.00  0.00     0.031 C 
ATOM     66  C   UNL     1      -4.371  17.619  -9.934  1.00  0.00     0.037 A 
BRANCH  53  67
ATOM     67  C   UNL     1      -8.814  16.532  -5.781  1.00  0.00     0.064 A 
ATOM     68  C   UNL     1      -9.071  17.230  -4.591  1.00  0.00     0.173 A 
ATOM     69  C   UNL     1      -9.912  16.112  -6.546  1.00  0.00     0.173 A 
ATOM     70  F   UNL     1      -8.055  17.640  -3.816  1.00  0.00    -0.203 F 
ATOM     71  C   UNL     1     -10.375  17.469  -4.168  1.00  0.00     0.198 A 
ATOM     72  C   UNL     1     -11.216  16.379  -6.135  1.00  0.00     0.198 A 
ATOM     73  F   UNL     1      -9.722  15.444  -7.693  1.00  0.00    -0.203 F 
ATOM     74  F   UNL     1     -10.596  18.091  -3.001  1.00  0.00    -0.200 F 
ATOM     75  C   UNL     1     -11.446  17.050  -4.943  1.00  0.00     0.200 A 
ATOM     76  F   UNL     1     -12.250  15.983  -6.889  1.00  0.00    -0.200 F 
ATOM     77  F   UNL     1     -12.701  17.285  -4.536  1.00  0.00    -0.200 F 
ENDBRANCH  53  67
BRANCH  54  78
ATOM     78  C   UNL     1       0.458  14.186  -8.686  1.00  0.00     0.064 A 
ATOM     79  C   UNL     1       1.510  15.109  -8.615  1.00  0.00     0.173 A 
ATOM     80  C   UNL     1       0.739  12.913  -9.202  1.00  0.00     0.173 A 
ATOM     81  F   UNL     1       1.284  16.346  -8.147  1.00  0.00    -0.203 F 
ATOM     82  C   UNL     1       2.788  14.780  -9.060  1.00  0.00     0.198 A 
ATOM     83  C   UNL     1       2.024  12.576  -9.623  1.00  0.00     0.198 A 
ATOM     84  F   UNL     1      -0.232  11.992  -9.287  1.00  0.00    -0.203 F 
ATOM     85  F   UNL     1       3.766  15.695  -9.020  1.00  0.00    -0.200 F 
ATOM     86  C   UNL     1       3.046  13.511  -9.559  1.00  0.00     0.200 A 
ATOM     87  F   UNL     1       2.272  11.345 -10.092  1.00  0.00    -0.200 F 
ATOM     88  F   UNL     1       4.276  13.194  -9.983  1.00  0.00    -0.200 F 
ENDBRANCH  54  78
BRANCH  66  89
ATOM     89  C   UNL     1      -4.402  18.545 -11.114  1.00  0.00     0.064 A 
ATOM     90  C   UNL     1      -4.529  18.057 -12.422  1.00  0.00     0.173 A 
ATOM     91  C   UNL     1      -4.353  19.934 -10.929  1.00  0.00     0.173 A 
ATOM     92  F   UNL     1      -4.563  16.735 -12.650  1.00  0.00    -0.203 F 
ATOM     93  C   UNL     1      -4.585  18.928 -13.506  1.00  0.00     0.198 A 
ATOM     94  C   UNL     1      -4.437  20.803 -12.013  1.00  0.00     0.198 A 
ATOM     95  F   UNL     1      -4.238  20.449  -9.696  1.00  0.00    -0.203 F 
ATOM     96  F   UNL     1      -4.665  18.440 -14.752  1.00  0.00    -0.200 F 
ATOM     97  C   UNL     1      -4.548  20.300 -13.300  1.00  0.00     0.200 A 
ATOM     98  F   UNL     1      -4.414  22.128 -11.811  1.00  0.00    -0.200 F 
ATOM     99  F   UNL     1      -4.612  21.137 -14.345  1.00  0.00    -0.200 F 
ENDBRANCH  66  89
ENDBRANCH  40  41
ENDBRANCH  32  35
ENDBRANCH  30  31
ENDBRANCH  29  30
ENDBRANCH  28  29
ENDBRANCH   1  28
TORSDOF 15
