REMARK SMILES O=C(NCCCCNC(=O)C1CCN(c2nc(-c3ccc(F)cc3)cc(C(F)F)n2)CC1)c1ccc(-c2c3nc(c(-c4c(F)c(F)c(F)c(F)c4F)c4ccc([nH]4)c(-c4c(F)c(F)c(F)c(F)c4F)c4nc(c(-c5c(F)c(F)c(F)c(F)c5F)c5ccc2[nH]5)C=C4)C=C3)cc1
REMARK SMILES IDX 5 1 4 2 3 3 1 4 2 5 33 7 34 8 95 9 35 10 94 11 36 12 37 13
REMARK SMILES IDX 38 14 88 15 39 16 93 17 87 18 89 19 40 20 92 21 86 22 85 23
REMARK SMILES IDX 41 25 73 26 53 27 72 28 54 29 57 30 71 31 90 32 55 33 56 34
REMARK SMILES IDX 70 36 91 37 58 38 42 39 43 40 51 41 44 42 45 43 49 44 52 45
REMARK SMILES IDX 46 46 47 47 50 48 48 49 74 50 75 51 83 52 76 53 77 54 81 55
REMARK SMILES IDX 84 56 78 57 79 58 82 59 80 60 59 61 60 62 68 63 61 64 62 65
REMARK SMILES IDX 66 66 69 67 63 68 64 69 67 70 65 71 6 72 7 73 8 74 9 75
REMARK SMILES IDX 10 77 11 78 12 79 32 80 13 81 31 82 14 83 15 84 16 85 30 86
REMARK SMILES IDX 17 87 26 88 25 89 18 90 19 91 24 92 20 93 23 94 21 95 22 96
REMARK SMILES IDX 27 97 28 98 29 99
REMARK H PARENT 3 6 89 24 57 35 8 76
REMARK Flexibility Score: inf
ROOT
ATOM      1  C   UNL     1       4.685  -0.967  -2.617  1.00  0.00     0.023 C 
ENDROOT
BRANCH   1   2
ATOM      2  C   UNL     1       4.415  -0.173  -1.344  1.00  0.00     0.116 C 
BRANCH   2   3
ATOM      3  N   UNL     1       3.000   0.071  -1.112  1.00  0.00    -0.352 N 
ATOM      4  O   UNL     1       1.069   0.100   0.057  1.00  0.00    -0.269 OA
ATOM      5  C   UNL     1       2.291  -0.023   0.061  1.00  0.00     0.251 C 
ATOM      6  H   UNL     1       2.480   0.340  -1.904  1.00  0.00     0.163 HD
BRANCH   5   7
ATOM      7  C   UNL     1       3.000  -0.303   1.328  1.00  0.00     0.039 A 
ATOM      8  C   UNL     1       4.170   0.385   1.658  1.00  0.00     0.014 A 
ATOM      9  C   UNL     1       2.484  -1.269   2.197  1.00  0.00     0.014 A 
ATOM     10  C   UNL     1       4.891   0.016   2.788  1.00  0.00     0.010 A 
ATOM     11  C   UNL     1       3.172  -1.586   3.373  1.00  0.00     0.010 A 
ATOM     12  C   UNL     1       4.396  -0.965   3.663  1.00  0.00    -0.014 A 
BRANCH  12  13
ATOM     13  C   UNL     1       5.151  -1.277   4.903  1.00  0.00     0.031 A 
ATOM     14  C   UNL     1       5.803  -2.616   5.102  1.00  0.00     0.074 A 
ATOM     15  C   UNL     1       5.290  -0.311   5.831  1.00  0.00     0.049 A 
ATOM     16  N   UNL     1       6.530  -3.035   6.108  1.00  0.00    -0.248 NA
ATOM     17  C   UNL     1       5.618  -3.617   4.040  1.00  0.00     0.031 C 
ATOM     18  C   UNL     1       4.704   1.028   5.742  1.00  0.00     0.029 A 
ATOM     19  N   UNL     1       5.988  -0.289   7.012  1.00  0.00    -0.354 N 
ATOM     20  C   UNL     1       6.882  -4.343   5.806  1.00  0.00     0.074 A 
ATOM     21  C   UNL     1       6.268  -4.663   4.535  1.00  0.00     0.031 C 
ATOM     22  C   UNL     1       5.116   1.759   6.787  1.00  0.00     0.029 A 
ATOM     23  C   UNL     1       5.944   0.925   7.651  1.00  0.00     0.049 A 
ATOM     24  H   UNL     1       6.473  -1.069   7.366  1.00  0.00     0.167 HD
ATOM     25  C   UNL     1       7.657  -5.192   6.523  1.00  0.00     0.037 A 
ATOM     26  C   UNL     1       6.504   1.324   8.809  1.00  0.00     0.037 A 
ATOM     27  C   UNL     1       8.279  -4.863   7.780  1.00  0.00     0.049 A 
ATOM     28  C   UNL     1       7.328   0.346   9.596  1.00  0.00     0.074 A 
ATOM     29  C   UNL     1       9.087  -5.658   8.575  1.00  0.00     0.029 A 
ATOM     30  N   UNL     1       8.167  -3.639   8.422  1.00  0.00    -0.354 N 
ATOM     31  N   UNL     1       7.653  -0.887   9.298  1.00  0.00    -0.248 NA
ATOM     32  C   UNL     1       7.854   0.813  10.886  1.00  0.00     0.031 C 
ATOM     33  C   UNL     1       9.435  -4.929   9.715  1.00  0.00     0.029 A 
ATOM     34  C   UNL     1       8.880  -3.664   9.611  1.00  0.00     0.049 A 
ATOM     35  H   UNL     1       7.657  -2.868   8.085  1.00  0.00     0.167 HD
ATOM     36  C   UNL     1       8.430  -1.341  10.353  1.00  0.00     0.074 A 
ATOM     37  C   UNL     1       8.547  -0.243  11.290  1.00  0.00     0.031 C 
ATOM     38  C   UNL     1       8.991  -2.561  10.530  1.00  0.00     0.037 A 
BRANCH  25  39
ATOM     39  C   UNL     1       7.893  -6.569   5.974  1.00  0.00     0.064 A 
ATOM     40  C   UNL     1       7.314  -7.689   6.590  1.00  0.00     0.173 A 
ATOM     41  C   UNL     1       8.777  -6.788   4.908  1.00  0.00     0.173 A 
ATOM     42  F   UNL     1       6.468  -7.533   7.620  1.00  0.00    -0.203 F 
ATOM     43  C   UNL     1       7.628  -8.979   6.171  1.00  0.00     0.198 A 
ATOM     44  C   UNL     1       9.072  -8.079   4.478  1.00  0.00     0.198 A 
ATOM     45  F   UNL     1       9.348  -5.749   4.281  1.00  0.00    -0.203 F 
ATOM     46  F   UNL     1       7.092 -10.036   6.799  1.00  0.00    -0.200 F 
ATOM     47  C   UNL     1       8.507  -9.173   5.116  1.00  0.00     0.200 A 
ATOM     48  F   UNL     1       9.908  -8.265   3.447  1.00  0.00    -0.200 F 
ATOM     49  F   UNL     1       8.811 -10.415   4.716  1.00  0.00    -0.200 F 
ENDBRANCH  25  39
BRANCH  26  50
ATOM     50  C   UNL     1       6.310   2.719   9.278  1.00  0.00     0.064 A 
ATOM     51  C   UNL     1       5.054   3.179   9.699  1.00  0.00     0.173 A 
ATOM     52  C   UNL     1       7.377   3.627   9.290  1.00  0.00     0.173 A 
ATOM     53  F   UNL     1       4.000   2.349   9.702  1.00  0.00    -0.203 F 
ATOM     54  C   UNL     1       4.868   4.502  10.094  1.00  0.00     0.198 A 
ATOM     55  C   UNL     1       7.196   4.942   9.712  1.00  0.00     0.198 A 
ATOM     56  F   UNL     1       8.601   3.227   8.915  1.00  0.00    -0.203 F 
ATOM     57  F   UNL     1       3.650   4.925  10.457  1.00  0.00    -0.200 F 
ATOM     58  C   UNL     1       5.940   5.381  10.105  1.00  0.00     0.200 A 
ATOM     59  F   UNL     1       8.239   5.782   9.745  1.00  0.00    -0.200 F 
ATOM     60  F   UNL     1       5.764   6.649  10.499  1.00  0.00    -0.200 F 
ENDBRANCH  26  50
BRANCH  38  61
ATOM     61  C   UNL     1       9.798  -2.773  11.775  1.00  0.00     0.064 A 
ATOM     62  C   UNL     1      11.194  -2.882  11.708  1.00  0.00     0.173 A 
ATOM     63  C   UNL     1       9.183  -2.928  13.026  1.00  0.00     0.173 A 
ATOM     64  F   UNL     1      11.827  -2.748  10.533  1.00  0.00    -0.203 F 
ATOM     65  C   UNL     1      11.946  -3.147  12.848  1.00  0.00     0.198 A 
ATOM     66  C   UNL     1       9.940  -3.168  14.168  1.00  0.00     0.198 A 
ATOM     67  F   UNL     1       7.851  -2.818  13.141  1.00  0.00    -0.203 F 
ATOM     68  F   UNL     1      13.278  -3.273  12.757  1.00  0.00    -0.200 F 
ATOM     69  C   UNL     1      11.320  -3.286  14.078  1.00  0.00     0.200 A 
ATOM     70  F   UNL     1       9.336  -3.279  15.359  1.00  0.00    -0.200 F 
ATOM     71  F   UNL     1      12.046  -3.529  15.177  1.00  0.00    -0.200 F 
ENDBRANCH  38  61
ENDBRANCH  12  13
ENDBRANCH   5   7
ENDBRANCH   2   3
ENDBRANCH   1   2
BRANCH   1  72
ATOM     72  C   UNL     1       4.227  -0.295  -3.916  1.00  0.00     0.023 C 
BRANCH  72  73
ATOM     73  C   UNL     1       4.785   1.113  -4.131  1.00  0.00     0.116 C 
BRANCH  73  74
ATOM     74  N   UNL     1       6.233   1.093  -4.238  1.00  0.00    -0.356 N 
ATOM     75  C   UNL     1       7.020   1.101  -5.353  1.00  0.00     0.223 C 
ATOM     76  H   UNL     1       6.718   1.071  -3.381  1.00  0.00     0.163 HD
ATOM     77  O   UNL     1       8.227   0.909  -5.212  1.00  0.00    -0.275 OA
BRANCH  75  78
ATOM     78  C   UNL     1       6.391   1.425  -6.699  1.00  0.00     0.082 C 
ATOM     79  C   UNL     1       7.064   0.656  -7.847  1.00  0.00     0.035 C 
ATOM     80  C   UNL     1       6.405   2.953  -6.900  1.00  0.00     0.035 C 
ATOM     81  C   UNL     1       8.372   1.280  -8.318  1.00  0.00     0.120 C 
ATOM     82  C   UNL     1       7.774   3.480  -7.351  1.00  0.00     0.120 C 
ATOM     83  N   UNL     1       8.171   2.701  -8.498  1.00  0.00    -0.341 N 
BRANCH  83  84
ATOM     84  C   UNL     1       8.618   3.287  -9.646  1.00  0.00     0.226 A 
ATOM     85  N   UNL     1       8.175   2.781 -10.804  1.00  0.00    -0.213 NA
ATOM     86  N   UNL     1       9.447   4.335  -9.574  1.00  0.00    -0.212 NA
ATOM     87  C   UNL     1       8.589   3.355 -11.945  1.00  0.00     0.076 A 
ATOM     88  C   UNL     1       9.913   4.860 -10.732  1.00  0.00     0.112 A 
ATOM     89  C   UNL     1       9.495   4.393 -11.963  1.00  0.00     0.059 A 
BRANCH  87  90
ATOM     90  C   UNL     1       7.968   2.839 -13.169  1.00  0.00     0.001 A 
ATOM     91  C   UNL     1       8.730   2.227 -14.178  1.00  0.00     0.013 A 
ATOM     92  C   UNL     1       6.577   2.957 -13.357  1.00  0.00     0.013 A 
ATOM     93  C   UNL     1       8.121   1.760 -15.346  1.00  0.00     0.040 A 
ATOM     94  C   UNL     1       5.970   2.499 -14.528  1.00  0.00     0.040 A 
ATOM     95  C   UNL     1       6.749   1.906 -15.512  1.00  0.00     0.123 A 
ATOM     96  F   UNL     1       6.170   1.466 -16.637  1.00  0.00    -0.207 F 
ENDBRANCH  87  90
BRANCH  88  97
ATOM     97  C   UNL     1      10.936   5.972 -10.653  1.00  0.00     0.391 C 
ATOM     98  F   UNL     1      10.524   7.037  -9.909  1.00  0.00    -0.203 F 
ATOM     99  F   UNL     1      12.123   5.568 -10.114  1.00  0.00    -0.203 F 
ENDBRANCH  88  97
ENDBRANCH  83  84
ENDBRANCH  75  78
ENDBRANCH  73  74
ENDBRANCH  72  73
ENDBRANCH   1  72
TORSDOF 14
