REMARK SMILES CC[NH2+][C@@]1(C(=O)NCCCCNC(=O)c2ccc(-c3c4nc(c(-c5c(F)c(F)c(F)c(F)c5F)c5ccc([nH]5)c(-c5c(F)c(F)c(F)c(F)c5F)c5nc(c(-c6c(F)c(F)c(F)c(F)c6F)c6ccc3[nH]6)C=C5)C=C4)cc2)CC[C@@H]([NH+]2CCC(C)(CC)CC2)C1
REMARK SMILES IDX 9 1 8 2 7 3 5 4 6 5 4 7 78 8 90 9 79 10 80 11 3 12 2 15 1 16
REMARK SMILES IDX 81 17 82 18 89 19 83 21 88 22 84 23 85 24 86 25 87 26 10 27
REMARK SMILES IDX 11 28 12 29 13 30 14 32 15 33 16 34 77 35 17 36 76 37 18 38
REMARK SMILES IDX 19 39 20 40 70 41 21 42 75 43 69 44 71 45 22 46 74 47 68 48
REMARK SMILES IDX 67 49 23 51 55 52 35 53 54 54 36 55 39 56 53 57 72 58 37 59
REMARK SMILES IDX 38 60 52 62 73 63 40 64 24 65 25 66 33 67 26 68 27 69 31 70
REMARK SMILES IDX 34 71 28 72 29 73 32 74 30 75 56 76 57 77 65 78 58 79 59 80
REMARK SMILES IDX 63 81 66 82 60 83 61 84 64 85 62 86 41 87 42 88 50 89 43 90
REMARK SMILES IDX 44 91 48 92 51 93 45 94 46 95 49 96 47 97
REMARK H PARENT 7 6 3 13 3 14 81 20 12 31 71 50 39 61
REMARK Flexibility Score: inf
ROOT
ATOM      1  C   UNL     1       0.725  -4.554   6.289  1.00  0.00     0.023 C 
ENDROOT
BRANCH   1   2
ATOM      2  C   UNL     1      -0.231  -3.377   6.089  1.00  0.00     0.116 C 
BRANCH   2   3
ATOM      3  N   UNL     1       0.490  -2.161   5.800  1.00  0.00    -0.351 N 
ATOM      4  C   UNL     1       0.777  -1.510   4.645  1.00  0.00     0.281 C 
ATOM      5  O   UNL     1       1.566  -0.560   4.779  1.00  0.00    -0.268 OA
ATOM      6  H   UNL     1       0.846  -1.714   6.602  1.00  0.00     0.163 HD
BRANCH   4   7
ATOM      7  C   UNL     1       0.245  -1.912   3.205  1.00  0.00     0.181 C 
ATOM      8  C   UNL     1      -1.267  -2.171   3.172  1.00  0.00     0.085 C 
ATOM      9  C   UNL     1       0.933  -3.207   2.728  1.00  0.00     0.144 C 
ATOM     10  C   UNL     1      -1.482  -3.629   2.763  1.00  0.00     0.072 C 
ATOM     11  C   UNL     1      -0.113  -4.328   2.763  1.00  0.00     0.191 C 
BRANCH   7  12
ATOM     12  N   UNL     1       0.575  -0.720   2.368  1.00  0.00    -0.334 N 
ATOM     13  H   UNL     1      -0.014   0.044   2.698  1.00  0.00     0.347 HD
ATOM     14  H   UNL     1       1.583  -0.620   2.488  1.00  0.00     0.347 HD
BRANCH  12  15
ATOM     15  C   UNL     1       0.413  -0.782   0.925  1.00  0.00     0.257 C 
ATOM     16  C   UNL     1       0.966   0.489   0.293  1.00  0.00     0.071 C 
ENDBRANCH  12  15
ENDBRANCH   7  12
BRANCH  11  17
ATOM     17  N   UNL     1       0.020  -5.494   1.877  1.00  0.00    -0.332 N 
ATOM     18  C   UNL     1       1.329  -6.149   1.859  1.00  0.00     0.263 C 
ATOM     19  C   UNL     1      -0.511  -5.415   0.522  1.00  0.00     0.263 C 
ATOM     20  H   UNL     1      -0.635  -6.091   2.383  1.00  0.00     0.348 HD
ATOM     21  C   UNL     1       2.366  -5.526   0.914  1.00  0.00     0.068 C 
ATOM     22  C   UNL     1       0.361  -4.601  -0.425  1.00  0.00     0.068 C 
ATOM     23  C   UNL     1       1.846  -5.040  -0.470  1.00  0.00    -0.022 C 
ATOM     24  C   UNL     1       2.700  -3.810  -0.884  1.00  0.00     0.012 C 
BRANCH  23  25
ATOM     25  C   UNL     1       2.089  -6.095  -1.590  1.00  0.00     0.004 C 
ATOM     26  C   UNL     1       1.310  -7.396  -1.512  1.00  0.00     0.004 C 
ENDBRANCH  23  25
ENDBRANCH  11  17
ENDBRANCH   4   7
ENDBRANCH   2   3
ENDBRANCH   1   2
BRANCH   1  27
ATOM     27  C   UNL     1       1.135  -4.794   7.740  1.00  0.00     0.023 C 
BRANCH  27  28
ATOM     28  C   UNL     1      -0.023  -5.076   8.689  1.00  0.00     0.116 C 
BRANCH  28  29
ATOM     29  N   UNL     1      -0.878  -6.181   8.281  1.00  0.00    -0.352 N 
ATOM     30  C   UNL     1      -1.679  -6.962   9.085  1.00  0.00     0.251 C 
ATOM     31  H   UNL     1      -0.883  -6.395   7.321  1.00  0.00     0.163 HD
ATOM     32  O   UNL     1      -2.292  -7.916   8.635  1.00  0.00    -0.269 OA
BRANCH  30  33
ATOM     33  C   UNL     1      -1.735  -6.647  10.527  1.00  0.00     0.039 A 
ATOM     34  C   UNL     1      -1.425  -7.650  11.447  1.00  0.00     0.014 A 
ATOM     35  C   UNL     1      -1.998  -5.344  10.954  1.00  0.00     0.014 A 
ATOM     36  C   UNL     1      -1.309  -7.325  12.798  1.00  0.00     0.010 A 
ATOM     37  C   UNL     1      -1.795  -5.005  12.285  1.00  0.00     0.010 A 
ATOM     38  C   UNL     1      -1.453  -5.992  13.221  1.00  0.00    -0.014 A 
BRANCH  38  39
ATOM     39  C   UNL     1      -1.262  -5.617  14.643  1.00  0.00     0.031 A 
ATOM     40  C   UNL     1      -2.412  -5.054  15.430  1.00  0.00     0.074 A 
ATOM     41  C   UNL     1      -0.043  -5.725  15.205  1.00  0.00     0.049 A 
ATOM     42  N   UNL     1      -2.441  -4.634  16.670  1.00  0.00    -0.248 NA
ATOM     43  C   UNL     1      -3.693  -4.913  14.720  1.00  0.00     0.031 C 
ATOM     44  C   UNL     1       1.167  -6.189  14.523  1.00  0.00     0.029 A 
ATOM     45  N   UNL     1       0.382  -5.447  16.480  1.00  0.00    -0.354 N 
ATOM     46  C   UNL     1      -3.731  -4.167  16.878  1.00  0.00     0.074 A 
ATOM     47  C   UNL     1      -4.437  -4.292  15.623  1.00  0.00     0.031 C 
ATOM     48  C   UNL     1       2.188  -6.195  15.395  1.00  0.00     0.029 A 
ATOM     49  C   UNL     1       1.714  -5.710  16.687  1.00  0.00     0.049 A 
ATOM     50  H   UNL     1      -0.212  -5.093  17.181  1.00  0.00     0.167 HD
ATOM     51  C   UNL     1      -4.288  -3.705  18.023  1.00  0.00     0.037 A 
ATOM     52  C   UNL     1       2.463  -5.579  17.798  1.00  0.00     0.037 A 
ATOM     53  C   UNL     1      -3.593  -3.617  19.278  1.00  0.00     0.049 A 
ATOM     54  C   UNL     1       1.814  -5.090  19.065  1.00  0.00     0.074 A 
ATOM     55  C   UNL     1      -4.083  -3.229  20.512  1.00  0.00     0.029 A 
ATOM     56  N   UNL     1      -2.252  -3.925  19.458  1.00  0.00    -0.354 N 
ATOM     57  N   UNL     1       0.570  -4.730  19.272  1.00  0.00    -0.248 NA
ATOM     58  C   UNL     1       2.670  -5.002  20.256  1.00  0.00     0.031 C 
ATOM     59  C   UNL     1      -3.029  -3.264  21.431  1.00  0.00     0.029 A 
ATOM     60  C   UNL     1      -1.894  -3.720  20.781  1.00  0.00     0.049 A 
ATOM     61  H   UNL     1      -1.645  -4.242  18.751  1.00  0.00     0.167 HD
ATOM     62  C   UNL     1       0.488  -4.400  20.618  1.00  0.00     0.074 A 
ATOM     63  C   UNL     1       1.803  -4.621  21.183  1.00  0.00     0.031 C 
ATOM     64  C   UNL     1      -0.580  -3.952  21.324  1.00  0.00     0.037 A 
BRANCH  51  65
ATOM     65  C   UNL     1      -5.725  -3.276  17.967  1.00  0.00     0.064 A 
ATOM     66  C   UNL     1      -6.763  -4.204  17.789  1.00  0.00     0.173 A 
ATOM     67  C   UNL     1      -6.072  -1.925  18.114  1.00  0.00     0.173 A 
ATOM     68  F   UNL     1      -6.484  -5.506  17.629  1.00  0.00    -0.203 F 
ATOM     69  C   UNL     1      -8.091  -3.791  17.727  1.00  0.00     0.198 A 
ATOM     70  C   UNL     1      -7.404  -1.520  18.082  1.00  0.00     0.198 A 
ATOM     71  F   UNL     1      -5.120  -0.996  18.290  1.00  0.00    -0.203 F 
ATOM     72  F   UNL     1      -9.060  -4.690  17.500  1.00  0.00    -0.200 F 
ATOM     73  C   UNL     1      -8.412  -2.451  17.880  1.00  0.00     0.200 A 
ATOM     74  F   UNL     1      -7.714  -0.225  18.242  1.00  0.00    -0.200 F 
ATOM     75  F   UNL     1      -9.691  -2.056  17.824  1.00  0.00    -0.200 F 
ENDBRANCH  51  65
BRANCH  52  76
ATOM     76  C   UNL     1       3.900  -5.958  17.776  1.00  0.00     0.064 A 
ATOM     77  C   UNL     1       4.354  -7.092  18.465  1.00  0.00     0.173 A 
ATOM     78  C   UNL     1       4.848  -5.196  17.078  1.00  0.00     0.173 A 
ATOM     79  F   UNL     1       3.489  -7.842  19.163  1.00  0.00    -0.203 F 
ATOM     80  C   UNL     1       5.705  -7.436  18.475  1.00  0.00     0.198 A 
ATOM     81  C   UNL     1       6.194  -5.556  17.067  1.00  0.00     0.198 A 
ATOM     82  F   UNL     1       4.464  -4.105  16.399  1.00  0.00    -0.203 F 
ATOM     83  F   UNL     1       6.117  -8.498  19.180  1.00  0.00    -0.200 F 
ATOM     84  C   UNL     1       6.622  -6.671  17.772  1.00  0.00     0.200 A 
ATOM     85  F   UNL     1       7.076  -4.822  16.375  1.00  0.00    -0.200 F 
ATOM     86  F   UNL     1       7.921  -7.003  17.780  1.00  0.00    -0.200 F 
ENDBRANCH  52  76
BRANCH  64  87
ATOM     87  C   UNL     1      -0.376  -3.703  22.790  1.00  0.00     0.064 A 
ATOM     88  C   UNL     1       0.379  -2.616  23.253  1.00  0.00     0.173 A 
ATOM     89  C   UNL     1      -0.972  -4.544  23.741  1.00  0.00     0.173 A 
ATOM     90  F   UNL     1       0.981  -1.792  22.382  1.00  0.00    -0.203 F 
ATOM     91  C   UNL     1       0.554  -2.397  24.616  1.00  0.00     0.198 A 
ATOM     92  C   UNL     1      -0.820  -4.304  25.104  1.00  0.00     0.198 A 
ATOM     93  F   UNL     1      -1.711  -5.593  23.350  1.00  0.00    -0.203 F 
ATOM     94  F   UNL     1       1.322  -1.382  25.036  1.00  0.00    -0.200 F 
ATOM     95  C   UNL     1      -0.051  -3.236  25.540  1.00  0.00     0.200 A 
ATOM     96  F   UNL     1      -1.417  -5.108  25.995  1.00  0.00    -0.200 F 
ATOM     97  F   UNL     1       0.116  -3.021  26.852  1.00  0.00    -0.200 F 
ENDBRANCH  64  87
ENDBRANCH  38  39
ENDBRANCH  30  33
ENDBRANCH  28  29
ENDBRANCH  27  28
ENDBRANCH   1  27
TORSDOF 15
