REMARK SMILES O=C(NCCCCNC(=O)[C@@H](c1ccccc1)N1C(=O)/C(=C\c2ccc(-c3ccc(F)cc3)o2)SC1=S)c1ccc(-c2c3nc(c(-c4c(F)c(F)c(F)c(F)c4F)c4ccc([nH]4)c(-c4c(F)c(F)c(F)c(F)c4F)c4nc(c(-c5c(F)c(F)c(F)c(F)c5F)c5ccc2[nH]5)C=C4)C=C3)cc1
REMARK SMILES IDX 6 1 5 2 4 3 3 4 1 5 2 6 38 8 39 9 100 10 40 11 99 12 41 13
REMARK SMILES IDX 42 14 43 15 93 16 44 17 98 18 92 19 94 20 45 21 97 22 91 23
REMARK SMILES IDX 90 24 46 26 78 27 58 28 77 29 59 30 62 31 76 32 95 33 60 34
REMARK SMILES IDX 61 35 75 37 96 38 63 39 47 40 48 41 56 42 49 43 50 44 54 45
REMARK SMILES IDX 57 46 51 47 52 48 55 49 53 50 79 51 80 52 88 53 81 54 82 55
REMARK SMILES IDX 86 56 89 57 83 58 84 59 87 60 85 61 64 62 65 63 73 64 66 65
REMARK SMILES IDX 67 66 71 67 74 68 68 69 69 70 72 71 70 72 7 73 8 74 9 75
REMARK SMILES IDX 10 77 11 78 12 79 13 80 17 81 14 82 16 83 15 84 18 85 19 86
REMARK SMILES IDX 36 87 20 88 21 89 35 90 37 91 22 92 23 93 24 94 34 95 25 96
REMARK SMILES IDX 26 97 27 98 28 99 33 100 29 101 32 102 30 103 31 104
REMARK H PARENT 3 7 94 25 62 36 8 76
REMARK Flexibility Score: inf
ROOT
ATOM      1  C   UNL     1       4.698  -1.401  -3.275  1.00  0.00     0.023 C 
ENDROOT
BRANCH   1   2
ATOM      2  C   UNL     1       5.094  -1.336  -1.816  1.00  0.00     0.023 C 
BRANCH   2   3
ATOM      3  C   UNL     1       4.617  -0.093  -1.084  1.00  0.00     0.116 C 
BRANCH   3   4
ATOM      4  N   UNL     1       3.165   0.027  -1.011  1.00  0.00    -0.352 N 
ATOM      5  O   UNL     1       1.121   0.005  -0.037  1.00  0.00    -0.269 OA
ATOM      6  C   UNL     1       2.340  -0.004   0.091  1.00  0.00     0.251 C 
ATOM      7  H   UNL     1       2.709   0.147  -1.875  1.00  0.00     0.163 HD
BRANCH   6   8
ATOM      8  C   UNL     1       2.945  -0.090   1.435  1.00  0.00     0.039 A 
ATOM      9  C   UNL     1       4.022   0.732   1.766  1.00  0.00     0.014 A 
ATOM     10  C   UNL     1       2.481  -1.044   2.344  1.00  0.00     0.014 A 
ATOM     11  C   UNL     1       4.769   0.453   2.899  1.00  0.00     0.010 A 
ATOM     12  C   UNL     1       3.158  -1.232   3.553  1.00  0.00     0.010 A 
ATOM     13  C   UNL     1       4.335  -0.515   3.820  1.00  0.00    -0.014 A 
BRANCH  13  14
ATOM     14  C   UNL     1       5.098  -0.693   5.082  1.00  0.00     0.031 A 
ATOM     15  C   UNL     1       5.753  -2.001   5.429  1.00  0.00     0.074 A 
ATOM     16  C   UNL     1       5.228   0.370   5.899  1.00  0.00     0.049 A 
ATOM     17  N   UNL     1       6.458  -2.312   6.489  1.00  0.00    -0.248 NA
ATOM     18  C   UNL     1       5.594  -3.107   4.472  1.00  0.00     0.031 C 
ATOM     19  C   UNL     1       4.632   1.688   5.663  1.00  0.00     0.029 A 
ATOM     20  N   UNL     1       5.915   0.524   7.074  1.00  0.00    -0.354 N 
ATOM     21  C   UNL     1       6.813  -3.646   6.335  1.00  0.00     0.074 A 
ATOM     22  C   UNL     1       6.220  -4.097   5.095  1.00  0.00     0.031 C 
ATOM     23  C   UNL     1       5.024   2.529   6.629  1.00  0.00     0.029 A 
ATOM     24  C   UNL     1       5.824   1.791   7.597  1.00  0.00     0.049 A 
ATOM     25  H   UNL     1       6.424  -0.202   7.503  1.00  0.00     0.167 HD
ATOM     26  C   UNL     1       7.573  -4.416   7.154  1.00  0.00     0.037 A 
ATOM     27  C   UNL     1       6.304   2.299   8.745  1.00  0.00     0.037 A 
ATOM     28  C   UNL     1       8.163  -3.953   8.385  1.00  0.00     0.049 A 
ATOM     29  C   UNL     1       7.097   1.406   9.653  1.00  0.00     0.074 A 
ATOM     30  C   UNL     1       8.961  -4.649   9.277  1.00  0.00     0.029 A 
ATOM     31  N   UNL     1       8.014  -2.673   8.903  1.00  0.00    -0.354 N 
ATOM     32  N   UNL     1       7.444   0.154   9.485  1.00  0.00    -0.248 NA
ATOM     33  C   UNL     1       7.562   1.998  10.913  1.00  0.00     0.031 C 
ATOM     34  C   UNL     1       9.250  -3.809  10.357  1.00  0.00     0.029 A 
ATOM     35  C   UNL     1       8.685  -2.568  10.112  1.00  0.00     0.049 A 
ATOM     36  H   UNL     1       7.507  -1.946   8.474  1.00  0.00     0.167 HD
ATOM     37  C   UNL     1       8.186  -0.188  10.605  1.00  0.00     0.074 A 
ATOM     38  C   UNL     1       8.259   0.998  11.434  1.00  0.00     0.031 C 
ATOM     39  C   UNL     1       8.752  -1.378  10.922  1.00  0.00     0.037 A 
BRANCH  26  40
ATOM     40  C   UNL     1       7.799  -5.849   6.758  1.00  0.00     0.064 A 
ATOM     41  C   UNL     1       8.610  -6.195   5.666  1.00  0.00     0.173 A 
ATOM     42  C   UNL     1       7.242  -6.893   7.514  1.00  0.00     0.173 A 
ATOM     43  F   UNL     1       9.160  -5.239   4.904  1.00  0.00    -0.203 F 
ATOM     44  C   UNL     1       8.834  -7.530   5.332  1.00  0.00     0.198 A 
ATOM     45  C   UNL     1       7.493  -8.226   7.196  1.00  0.00     0.198 A 
ATOM     46  F   UNL     1       6.466  -6.621   8.574  1.00  0.00    -0.203 F 
ATOM     47  F   UNL     1       9.576  -7.834   4.259  1.00  0.00    -0.200 F 
ATOM     48  C   UNL     1       8.282  -8.543   6.102  1.00  0.00     0.200 A 
ATOM     49  F   UNL     1       6.972  -9.203   7.951  1.00  0.00    -0.200 F 
ATOM     50  F   UNL     1       8.507  -9.826   5.785  1.00  0.00    -0.200 F 
ENDBRANCH  26  40
BRANCH  27  51
ATOM     51  C   UNL     1       6.024   3.714   9.103  1.00  0.00     0.064 A 
ATOM     52  C   UNL     1       7.054   4.660   9.172  1.00  0.00     0.173 A 
ATOM     53  C   UNL     1       4.718   4.149   9.380  1.00  0.00     0.173 A 
ATOM     54  F   UNL     1       8.320   4.290   8.930  1.00  0.00    -0.203 F 
ATOM     55  C   UNL     1       6.794   5.981   9.530  1.00  0.00     0.198 A 
ATOM     56  C   UNL     1       4.454   5.477   9.701  1.00  0.00     0.198 A 
ATOM     57  F   UNL     1       3.694   3.285   9.318  1.00  0.00    -0.203 F 
ATOM     58  F   UNL     1       7.804   6.854   9.640  1.00  0.00    -0.200 F 
ATOM     59  C   UNL     1       5.494   6.390   9.787  1.00  0.00     0.200 A 
ATOM     60  F   UNL     1       3.194   5.871   9.926  1.00  0.00    -0.200 F 
ATOM     61  F   UNL     1       5.244   7.662  10.125  1.00  0.00    -0.200 F 
ENDBRANCH  27  51
BRANCH  39  62
ATOM     62  C   UNL     1       9.534  -1.439  12.203  1.00  0.00     0.064 A 
ATOM     63  C   UNL     1       8.905  -1.382  13.455  1.00  0.00     0.173 A 
ATOM     64  C   UNL     1      10.931  -1.571  12.174  1.00  0.00     0.173 A 
ATOM     65  F   UNL     1       7.573  -1.237  13.536  1.00  0.00    -0.203 F 
ATOM     66  C   UNL     1       9.648  -1.422  14.631  1.00  0.00     0.198 A 
ATOM     67  C   UNL     1      11.667  -1.645  13.352  1.00  0.00     0.198 A 
ATOM     68  F   UNL     1      11.581  -1.634  11.002  1.00  0.00    -0.203 F 
ATOM     69  F   UNL     1       9.032  -1.305  15.816  1.00  0.00    -0.200 F 
ATOM     70  C   UNL     1      11.027  -1.560  14.579  1.00  0.00     0.200 A 
ATOM     71  F   UNL     1      12.998  -1.793  13.300  1.00  0.00    -0.200 F 
ATOM     72  F   UNL     1      11.741  -1.602  15.713  1.00  0.00    -0.200 F 
ENDBRANCH  39  62
ENDBRANCH  13  14
ENDBRANCH   6   8
ENDBRANCH   3   4
ENDBRANCH   2   3
ENDBRANCH   1   2
BRANCH   1  73
ATOM     73  C   UNL     1       4.968  -0.146  -4.082  1.00  0.00     0.116 C 
BRANCH  73  74
ATOM     74  N   UNL     1       6.352   0.221  -4.274  1.00  0.00    -0.354 N 
ATOM     75  C   UNL     1       6.945   0.676  -5.425  1.00  0.00     0.247 C 
ATOM     76  H   UNL     1       6.938   0.133  -3.488  1.00  0.00     0.163 HD
ATOM     77  O   UNL     1       8.134   1.000  -5.339  1.00  0.00    -0.272 OA
BRANCH  75  78
ATOM     78  C   UNL     1       6.176   0.799  -6.790  1.00  0.00     0.211 C 
BRANCH  78  79
ATOM     79  C   UNL     1       5.552  -0.542  -7.233  1.00  0.00    -0.016 A 
ATOM     80  C   UNL     1       4.323  -0.640  -7.904  1.00  0.00     0.006 A 
ATOM     81  C   UNL     1       6.191  -1.750  -6.876  1.00  0.00     0.006 A 
ATOM     82  C   UNL     1       3.652  -1.864  -7.989  1.00  0.00     0.000 A 
ATOM     83  C   UNL     1       5.533  -2.976  -6.989  1.00  0.00     0.000 A 
ATOM     84  C   UNL     1       4.243  -3.026  -7.503  1.00  0.00     0.000 A 
ENDBRANCH  78  79
BRANCH  78  85
ATOM     85  N   UNL     1       5.329   2.038  -6.793  1.00  0.00    -0.276 N 
ATOM     86  C   UNL     1       4.012   2.037  -6.393  1.00  0.00     0.267 C 
ATOM     87  C   UNL     1       5.829   3.297  -7.083  1.00  0.00     0.149 C 
ATOM     88  O   UNL     1       3.398   1.099  -5.902  1.00  0.00    -0.268 OA
ATOM     89  C   UNL     1       3.348   3.343  -6.609  1.00  0.00     0.084 C 
ATOM     90  S   UNL     1       4.540   4.509  -7.000  1.00  0.00    -0.054 SA
ATOM     91  S   UNL     1       7.387   3.747  -7.470  1.00  0.00    -0.052 S 
ATOM     92  C   UNL     1       2.024   3.569  -6.573  1.00  0.00     0.068 C 
BRANCH  92  93
ATOM     93  C   UNL     1       1.078   2.532  -6.319  1.00  0.00     0.128 A 
ATOM     94  C   UNL     1       0.831   1.827  -5.145  1.00  0.00     0.051 A 
ATOM     95  O   UNL     1       0.245   2.019  -7.291  1.00  0.00    -0.457 OA
ATOM     96  C   UNL     1      -0.110   0.814  -5.434  1.00  0.00     0.051 A 
ATOM     97  C   UNL     1      -0.465   0.985  -6.752  1.00  0.00     0.134 A 
BRANCH  97  98
ATOM     98  C   UNL     1      -1.437   0.329  -7.614  1.00  0.00     0.017 A 
ATOM     99  C   UNL     1      -1.191   0.119  -8.979  1.00  0.00     0.015 A 
ATOM    100  C   UNL     1      -2.657  -0.109  -7.070  1.00  0.00     0.015 A 
ATOM    101  C   UNL     1      -2.151  -0.505  -9.783  1.00  0.00     0.040 A 
ATOM    102  C   UNL     1      -3.619  -0.721  -7.875  1.00  0.00     0.040 A 
ATOM    103  C   UNL     1      -3.357  -0.912  -9.224  1.00  0.00     0.123 A 
ATOM    104  F   UNL     1      -4.282  -1.494  -9.998  1.00  0.00    -0.207 F 
ENDBRANCH  97  98
ENDBRANCH  92  93
ENDBRANCH  78  85
ENDBRANCH  75  78
ENDBRANCH  73  74
ENDBRANCH   1  73
TORSDOF 15
