REMARK SMILES O=C(NCCCCNC(=O)[C@H](Cc1cccc(O)c1)Cc1cccc(F)c1)c1ccc(-c2c3nc(c(-c4c(F)c(F)c(F)c(F)c4F)c4ccc([nH]4)c(-c4c(F)c(F)c(F)c(F)c4F)c4nc(c(-c5c(F)c(F)c(F)c(F)c5F)c5ccc2[nH]5)C=C4)C=C3)cc1
REMARK SMILES IDX 6 1 5 2 4 3 3 4 1 5 2 6 28 8 29 9 90 10 30 11 89 12 31 13
REMARK SMILES IDX 32 14 33 15 83 16 34 17 88 18 82 19 84 20 35 21 87 22 81 23
REMARK SMILES IDX 80 24 36 26 68 27 48 28 67 29 49 30 52 31 66 32 85 33 50 34
REMARK SMILES IDX 51 35 65 37 86 38 53 39 37 40 38 41 46 42 39 43 40 44 44 45
REMARK SMILES IDX 47 46 41 47 42 48 45 49 43 50 69 51 70 52 78 53 71 54 72 55
REMARK SMILES IDX 76 56 79 57 73 58 74 59 77 60 75 61 54 62 55 63 63 64 56 65
REMARK SMILES IDX 57 66 61 67 64 68 58 69 59 70 62 71 60 72 7 73 8 74 9 75
REMARK SMILES IDX 10 77 11 78 20 79 21 80 22 81 27 82 23 83 25 84 24 85 26 86
REMARK SMILES IDX 12 87 13 88 14 89 19 90 15 91 17 92 16 93 18 94
REMARK H PARENT 3 7 84 25 52 36 8 76 18 95
REMARK Flexibility Score: inf
ROOT
ATOM      1  C   UNL     1       7.656  -6.958  -1.401  1.00  0.00     0.023 C 
ENDROOT
BRANCH   1   2
ATOM      2  C   UNL     1       7.263  -7.712  -0.138  1.00  0.00     0.023 C 
BRANCH   2   3
ATOM      3  C   UNL     1       7.624  -9.187  -0.146  1.00  0.00     0.116 C 
BRANCH   3   4
ATOM      4  N   UNL     1       9.044  -9.461  -0.334  1.00  0.00    -0.352 N 
ATOM      5  O   UNL     1      10.993 -10.576  -0.010  1.00  0.00    -0.269 OA
ATOM      6  C   UNL     1       9.784 -10.501   0.183  1.00  0.00     0.251 C 
ATOM      7  H   UNL     1       9.535  -8.823  -0.901  1.00  0.00     0.163 HD
BRANCH   6   8
ATOM      8  C   UNL     1       9.100 -11.492   1.038  1.00  0.00     0.039 A 
ATOM      9  C   UNL     1       7.892 -12.053   0.623  1.00  0.00     0.014 A 
ATOM     10  C   UNL     1       9.605 -11.755   2.314  1.00  0.00     0.014 A 
ATOM     11  C   UNL     1       7.089 -12.694   1.554  1.00  0.00     0.010 A 
ATOM     12  C   UNL     1       8.836 -12.492   3.219  1.00  0.00     0.010 A 
ATOM     13  C   UNL     1       7.544 -12.908   2.866  1.00  0.00    -0.014 A 
BRANCH  13  14
ATOM     14  C   UNL     1       6.628 -13.549   3.844  1.00  0.00     0.031 A 
ATOM     15  C   UNL     1       6.126 -12.796   5.047  1.00  0.00     0.074 A 
ATOM     16  C   UNL     1       6.174 -14.790   3.587  1.00  0.00     0.049 A 
ATOM     17  N   UNL     1       5.283 -13.188   5.970  1.00  0.00    -0.248 NA
ATOM     18  C   UNL     1       6.636 -11.431   5.248  1.00  0.00     0.031 C 
ATOM     19  C   UNL     1       6.583 -15.612   2.446  1.00  0.00     0.029 A 
ATOM     20  N   UNL     1       5.237 -15.556   4.231  1.00  0.00    -0.354 N 
ATOM     21  C   UNL     1       5.190 -12.138   6.874  1.00  0.00     0.074 A 
ATOM     22  C   UNL     1       6.069 -11.092   6.398  1.00  0.00     0.031 C 
ATOM     23  C   UNL     1       5.842 -16.728   2.422  1.00  0.00     0.029 A 
ATOM     24  C   UNL     1       4.954 -16.731   3.580  1.00  0.00     0.049 A 
ATOM     25  H   UNL     1       4.809 -15.289   5.077  1.00  0.00     0.167 HD
ATOM     26  C   UNL     1       4.437 -12.057   7.997  1.00  0.00     0.037 A 
ATOM     27  C   UNL     1       4.075 -17.705   3.879  1.00  0.00     0.037 A 
ATOM     28  C   UNL     1       3.533 -13.083   8.447  1.00  0.00     0.049 A 
ATOM     29  C   UNL     1       3.230 -17.575   5.111  1.00  0.00     0.074 A 
ATOM     30  C   UNL     1       2.730 -13.094   9.575  1.00  0.00     0.029 A 
ATOM     31  N   UNL     1       3.298 -14.275   7.777  1.00  0.00    -0.354 N 
ATOM     32  N   UNL     1       3.182 -16.593   5.976  1.00  0.00    -0.248 NA
ATOM     33  C   UNL     1       2.328 -18.693   5.415  1.00  0.00     0.031 C 
ATOM     34  C   UNL     1       2.026 -14.303   9.600  1.00  0.00     0.029 A 
ATOM     35  C   UNL     1       2.364 -15.029   8.470  1.00  0.00     0.049 A 
ATOM     36  H   UNL     1       3.730 -14.545   6.935  1.00  0.00     0.167 HD
ATOM     37  C   UNL     1       2.251 -16.972   6.930  1.00  0.00     0.074 A 
ATOM     38  C   UNL     1       1.736 -18.264   6.522  1.00  0.00     0.031 C 
ATOM     39  C   UNL     1       1.867 -16.313   8.050  1.00  0.00     0.037 A 
BRANCH  26  40
ATOM     40  C   UNL     1       4.565 -10.820   8.838  1.00  0.00     0.064 A 
ATOM     41  C   UNL     1       5.226 -10.870  10.075  1.00  0.00     0.173 A 
ATOM     42  C   UNL     1       3.980  -9.605   8.454  1.00  0.00     0.173 A 
ATOM     43  F   UNL     1       5.798 -12.011  10.490  1.00  0.00    -0.203 F 
ATOM     44  C   UNL     1       5.287  -9.751  10.901  1.00  0.00     0.198 A 
ATOM     45  C   UNL     1       4.062  -8.482   9.273  1.00  0.00     0.198 A 
ATOM     46  F   UNL     1       3.349  -9.503   7.275  1.00  0.00    -0.203 F 
ATOM     47  F   UNL     1       5.902  -9.830  12.089  1.00  0.00    -0.200 F 
ATOM     48  C   UNL     1       4.708  -8.558  10.499  1.00  0.00     0.200 A 
ATOM     49  F   UNL     1       3.520  -7.323   8.875  1.00  0.00    -0.200 F 
ATOM     50  F   UNL     1       4.774  -7.479  11.291  1.00  0.00    -0.200 F 
ENDBRANCH  26  40
BRANCH  27  51
ATOM     51  C   UNL     1       3.951 -18.870   2.970  1.00  0.00     0.064 A 
ATOM     52  C   UNL     1       4.978 -19.819   2.860  1.00  0.00     0.173 A 
ATOM     53  C   UNL     1       2.831 -19.016   2.142  1.00  0.00     0.173 A 
ATOM     54  F   UNL     1       6.073 -19.713   3.626  1.00  0.00    -0.203 F 
ATOM     55  C   UNL     1       4.902 -20.854   1.932  1.00  0.00     0.198 A 
ATOM     56  C   UNL     1       2.745 -20.066   1.231  1.00  0.00     0.198 A 
ATOM     57  F   UNL     1       1.819 -18.140   2.224  1.00  0.00    -0.203 F 
ATOM     58  F   UNL     1       5.917 -21.720   1.814  1.00  0.00    -0.200 F 
ATOM     59  C   UNL     1       3.785 -20.978   1.120  1.00  0.00     0.200 A 
ATOM     60  F   UNL     1       1.657 -20.193   0.459  1.00  0.00    -0.200 F 
ATOM     61  F   UNL     1       3.712 -21.974   0.226  1.00  0.00    -0.200 F 
ENDBRANCH  27  51
BRANCH  39  62
ATOM     62  C   UNL     1       0.839 -16.976   8.913  1.00  0.00     0.064 A 
ATOM     63  C   UNL     1      -0.481 -16.505   8.940  1.00  0.00     0.173 A 
ATOM     64  C   UNL     1       1.177 -18.047   9.753  1.00  0.00     0.173 A 
ATOM     65  F   UNL     1      -0.848 -15.479   8.158  1.00  0.00    -0.203 F 
ATOM     66  C   UNL     1      -1.427 -17.081   9.782  1.00  0.00     0.198 A 
ATOM     67  C   UNL     1       0.223 -18.634  10.579  1.00  0.00     0.198 A 
ATOM     68  F   UNL     1       2.425 -18.539   9.750  1.00  0.00    -0.203 F 
ATOM     69  F   UNL     1      -2.680 -16.605   9.805  1.00  0.00    -0.200 F 
ATOM     70  C   UNL     1      -1.076 -18.146  10.598  1.00  0.00     0.200 A 
ATOM     71  F   UNL     1       0.558 -19.677  11.351  1.00  0.00    -0.200 F 
ATOM     72  F   UNL     1      -1.991 -18.709  11.398  1.00  0.00    -0.200 F 
ENDBRANCH  39  62
ENDBRANCH  13  14
ENDBRANCH   6   8
ENDBRANCH   3   4
ENDBRANCH   2   3
ENDBRANCH   1   2
BRANCH   1  73
ATOM     73  C   UNL     1       6.916  -7.368  -2.672  1.00  0.00     0.116 C 
BRANCH  73  74
ATOM     74  N   UNL     1       5.663  -6.655  -2.783  1.00  0.00    -0.356 N 
ATOM     75  C   UNL     1       5.379  -5.486  -3.418  1.00  0.00     0.223 C 
ATOM     76  H   UNL     1       4.899  -7.080  -2.330  1.00  0.00     0.163 HD
ATOM     77  O   UNL     1       4.249  -5.022  -3.242  1.00  0.00    -0.275 OA
BRANCH  75  78
ATOM     78  C   UNL     1       6.412  -4.787  -4.316  1.00  0.00     0.087 C 
BRANCH  78  79
ATOM     79  C   UNL     1       5.602  -4.013  -5.392  1.00  0.00     0.049 C 
BRANCH  79  80
ATOM     80  C   UNL     1       6.418  -3.203  -6.371  1.00  0.00    -0.044 A 
ATOM     81  C   UNL     1       6.245  -1.809  -6.431  1.00  0.00     0.004 A 
ATOM     82  C   UNL     1       7.349  -3.805  -7.223  1.00  0.00     0.043 A 
ATOM     83  C   UNL     1       7.001  -1.030  -7.309  1.00  0.00     0.003 A 
ATOM     84  C   UNL     1       8.098  -3.018  -8.095  1.00  0.00     0.123 A 
ATOM     85  C   UNL     1       7.934  -1.638  -8.144  1.00  0.00     0.039 A 
ATOM     86  F   UNL     1       8.993  -3.602  -8.902  1.00  0.00    -0.207 F 
ENDBRANCH  79  80
ENDBRANCH  78  79
BRANCH  78  87
ATOM     87  C   UNL     1       7.302  -3.823  -3.489  1.00  0.00     0.049 C 
BRANCH  87  88
ATOM     88  C   UNL     1       8.662  -4.316  -3.030  1.00  0.00    -0.044 A 
ATOM     89  C   UNL     1       9.482  -5.152  -3.803  1.00  0.00     0.004 A 
ATOM     90  C   UNL     1       9.153  -3.876  -1.788  1.00  0.00     0.049 A 
ATOM     91  C   UNL     1      10.706  -5.615  -3.304  1.00  0.00     0.004 A 
ATOM     92  C   UNL     1      10.374  -4.335  -1.302  1.00  0.00     0.115 A 
ATOM     93  C   UNL     1      11.150  -5.216  -2.043  1.00  0.00     0.046 A 
BRANCH  92  94
ATOM     94  O   UNL     1      10.768  -3.904  -0.069  1.00  0.00    -0.508 OA
ATOM     95  H   UNL     1      11.584  -4.192   0.289  1.00  0.00     0.293 HD
ENDBRANCH  92  94
ENDBRANCH  87  88
ENDBRANCH  78  87
ENDBRANCH  75  78
ENDBRANCH  73  74
ENDBRANCH   1  73
TORSDOF 16
