REMARK SMILES Cc1cc(C(=O)N[C@@H](Cc2ccccc2)C(=O)NCCCCNC(=O)c2ccc(-c3c4nc(c(-c5c(F)c(F)c(F)c(F)c5F)c5ccc([nH]5)c(-c5c(F)c(F)c(F)c(F)c5F)c5nc(c(-c6c(F)c(F)c(F)c(F)c6F)c6ccc3[nH]6)C=C5)C=C4)cc2)c(C)o1
REMARK SMILES IDX 20 1 19 2 18 3 16 4 17 5 8 7 7 8 5 9 6 10 4 12 1 13 2 14
REMARK SMILES IDX 3 15 91 16 89 17 90 18 9 19 10 20 11 21 15 22 12 23 14 24
REMARK SMILES IDX 13 25 21 26 22 27 23 28 24 29 25 31 26 32 27 33 88 34 28 35
REMARK SMILES IDX 87 36 29 37 30 38 31 39 81 40 32 41 86 42 80 43 82 44 33 45
REMARK SMILES IDX 85 46 79 47 78 48 34 50 66 51 46 52 65 53 47 54 50 55 64 56
REMARK SMILES IDX 83 57 48 58 49 59 63 61 84 62 51 63 35 64 36 65 44 66 37 67
REMARK SMILES IDX 38 68 42 69 45 70 39 71 40 72 43 73 41 74 67 75 68 76 76 77
REMARK SMILES IDX 69 78 70 79 74 80 77 81 71 82 72 83 75 84 73 85 52 86 53 87
REMARK SMILES IDX 61 88 54 89 55 90 59 91 62 92 56 93 57 94 60 95 58 96
REMARK H PARENT 18 6 7 11 23 30 82 49 50 60
REMARK Flexibility Score: inf
ROOT
ATOM      1  C   UNL     1      -2.158   6.731   2.316  1.00  0.00     0.023 C 
ENDROOT
BRANCH   1   2
ATOM      2  C   UNL     1      -1.062   6.487   1.289  1.00  0.00     0.116 C 
BRANCH   2   3
ATOM      3  N   UNL     1       0.081   5.741   1.769  1.00  0.00    -0.354 N 
ATOM      4  C   UNL     1       0.871   4.846   1.098  1.00  0.00     0.242 C 
ATOM      5  O   UNL     1       2.002   4.646   1.557  1.00  0.00    -0.273 OA
ATOM      6  H   UNL     1       0.325   5.898   2.709  1.00  0.00     0.163 HD
BRANCH   4   7
ATOM      7  C   UNL     1       0.443   4.149  -0.220  1.00  0.00     0.176 C 
BRANCH   7   8
ATOM      8  N   UNL     1      -0.895   3.569  -0.126  1.00  0.00    -0.340 N 
ATOM      9  C   UNL     1      -1.360   2.309   0.145  1.00  0.00     0.255 C 
ATOM     10  O   UNL     1      -2.578   2.239   0.323  1.00  0.00    -0.269 OA
ATOM     11  H   UNL     1      -1.614   4.221  -0.292  1.00  0.00     0.164 HD
BRANCH   9  12
ATOM     12  C   UNL     1      -0.514   1.118   0.150  1.00  0.00     0.081 A 
ATOM     13  C   UNL     1       2.378  -1.238   0.106  1.00  0.00     0.087 C 
ATOM     14  C   UNL     1       1.147  -0.424   0.136  1.00  0.00     0.101 A 
ATOM     15  C   UNL     1       0.894   0.918   0.309  1.00  0.00     0.059 A 
ATOM     16  O   UNL     1      -0.018  -1.094  -0.027  1.00  0.00    -0.466 OA
ATOM     17  C   UNL     1      -1.021  -0.175   0.009  1.00  0.00     0.113 A 
ATOM     18  C   UNL     1      -2.377  -0.761  -0.115  1.00  0.00     0.088 C 
ENDBRANCH   9  12
ENDBRANCH   7   8
BRANCH   7  19
ATOM     19  C   UNL     1       0.719   4.941  -1.517  1.00  0.00     0.070 C 
BRANCH  19  20
ATOM     20  C   UNL     1       0.054   6.280  -1.715  1.00  0.00    -0.045 A 
ATOM     21  C   UNL     1       0.791   7.462  -1.541  1.00  0.00     0.004 A 
ATOM     22  C   UNL     1      -1.298   6.373  -2.076  1.00  0.00     0.004 A 
ATOM     23  C   UNL     1       0.175   8.709  -1.674  1.00  0.00     0.000 A 
ATOM     24  C   UNL     1      -1.916   7.621  -2.184  1.00  0.00     0.000 A 
ATOM     25  C   UNL     1      -1.182   8.787  -1.976  1.00  0.00     0.000 A 
ENDBRANCH  19  20
ENDBRANCH   7  19
ENDBRANCH   4   7
ENDBRANCH   2   3
ENDBRANCH   1   2
BRANCH   1  26
ATOM     26  C   UNL     1      -1.868   7.809   3.355  1.00  0.00     0.023 C 
BRANCH  26  27
ATOM     27  C   UNL     1      -1.347   9.144   2.829  1.00  0.00     0.116 C 
BRANCH  27  28
ATOM     28  N   UNL     1      -2.151   9.742   1.774  1.00  0.00    -0.352 N 
ATOM     29  C   UNL     1      -2.478  11.065   1.573  1.00  0.00     0.251 C 
ATOM     30  H   UNL     1      -2.514   9.112   1.111  1.00  0.00     0.163 HD
ATOM     31  O   UNL     1      -3.190  11.390   0.631  1.00  0.00    -0.269 OA
BRANCH  29  32
ATOM     32  C   UNL     1      -2.000  12.096   2.525  1.00  0.00     0.039 A 
ATOM     33  C   UNL     1      -2.912  13.035   3.015  1.00  0.00     0.014 A 
ATOM     34  C   UNL     1      -0.670  12.124   2.952  1.00  0.00     0.014 A 
ATOM     35  C   UNL     1      -2.508  13.950   3.992  1.00  0.00     0.010 A 
ATOM     36  C   UNL     1      -0.291  12.981   3.982  1.00  0.00     0.010 A 
ATOM     37  C   UNL     1      -1.204  13.905   4.512  1.00  0.00    -0.014 A 
BRANCH  37  38
ATOM     38  C   UNL     1      -0.780  14.822   5.601  1.00  0.00     0.031 A 
ATOM     39  C   UNL     1       0.306  15.834   5.358  1.00  0.00     0.074 A 
ATOM     40  C   UNL     1      -1.323  14.702   6.829  1.00  0.00     0.049 A 
ATOM     41  N   UNL     1       0.842  16.693   6.190  1.00  0.00    -0.248 NA
ATOM     42  C   UNL     1       0.893  15.864   4.009  1.00  0.00     0.031 C 
ATOM     43  C   UNL     1      -2.329  13.711   7.218  1.00  0.00     0.029 A 
ATOM     44  N   UNL     1      -1.100  15.416   7.980  1.00  0.00    -0.354 N 
ATOM     45  C   UNL     1       1.838  17.343   5.474  1.00  0.00     0.074 A 
ATOM     46  C   UNL     1       1.870  16.746   4.156  1.00  0.00     0.031 C 
ATOM     47  C   UNL     1      -2.652  13.896   8.508  1.00  0.00     0.029 A 
ATOM     48  C   UNL     1      -1.866  15.003   9.043  1.00  0.00     0.049 A 
ATOM     49  H   UNL     1      -0.452  16.154   8.039  1.00  0.00     0.167 HD
ATOM     50  C   UNL     1       2.636  18.363   5.868  1.00  0.00     0.037 A 
ATOM     51  C   UNL     1      -1.931  15.472  10.304  1.00  0.00     0.037 A 
ATOM     52  C   UNL     1       2.574  18.988   7.162  1.00  0.00     0.049 A 
ATOM     53  C   UNL     1      -1.085  16.653  10.694  1.00  0.00     0.074 A 
ATOM     54  C   UNL     1       3.294  20.071   7.636  1.00  0.00     0.029 A 
ATOM     55  N   UNL     1       1.731  18.589   8.189  1.00  0.00    -0.354 N 
ATOM     56  N   UNL     1      -0.204  17.312   9.982  1.00  0.00    -0.248 NA
ATOM     57  C   UNL     1      -1.258  17.170  12.059  1.00  0.00     0.031 C 
ATOM     58  C   UNL     1       2.906  20.311   8.959  1.00  0.00     0.029 A 
ATOM     59  C   UNL     1       1.915  19.403   9.295  1.00  0.00     0.049 A 
ATOM     60  H   UNL     1       1.096  17.839   8.139  1.00  0.00     0.167 HD
ATOM     61  C   UNL     1       0.256  18.337  10.797  1.00  0.00     0.074 A 
ATOM     62  C   UNL     1      -0.454  18.223  12.053  1.00  0.00     0.031 C 
ATOM     63  C   UNL     1       1.185  19.288  10.530  1.00  0.00     0.037 A 
BRANCH  50  64
ATOM     64  C   UNL     1       3.637  18.881   4.878  1.00  0.00     0.064 A 
ATOM     65  C   UNL     1       3.240  19.616   3.750  1.00  0.00     0.173 A 
ATOM     66  C   UNL     1       5.010  18.671   5.074  1.00  0.00     0.173 A 
ATOM     67  F   UNL     1       1.938  19.832   3.510  1.00  0.00    -0.203 F 
ATOM     68  C   UNL     1       4.178  20.096   2.840  1.00  0.00     0.198 A 
ATOM     69  C   UNL     1       5.947  19.177   4.177  1.00  0.00     0.198 A 
ATOM     70  F   UNL     1       5.443  17.979   6.138  1.00  0.00    -0.203 F 
ATOM     71  F   UNL     1       3.772  20.752   1.745  1.00  0.00    -0.200 F 
ATOM     72  C   UNL     1       5.531  19.882   3.058  1.00  0.00     0.200 A 
ATOM     73  F   UNL     1       7.255  18.979   4.394  1.00  0.00    -0.200 F 
ATOM     74  F   UNL     1       6.433  20.350   2.184  1.00  0.00    -0.200 F 
ENDBRANCH  50  64
BRANCH  51  75
ATOM     75  C   UNL     1      -2.871  14.861  11.279  1.00  0.00     0.064 A 
ATOM     76  C   UNL     1      -4.016  15.551  11.702  1.00  0.00     0.173 A 
ATOM     77  C   UNL     1      -2.637  13.591  11.823  1.00  0.00     0.173 A 
ATOM     78  F   UNL     1      -4.272  16.778  11.224  1.00  0.00    -0.203 F 
ATOM     79  C   UNL     1      -4.876  15.007  12.653  1.00  0.00     0.198 A 
ATOM     80  C   UNL     1      -3.511  13.036  12.756  1.00  0.00     0.198 A 
ATOM     81  F   UNL     1      -1.559  12.887  11.447  1.00  0.00    -0.203 F 
ATOM     82  F   UNL     1      -5.934  15.711  13.078  1.00  0.00    -0.200 F 
ATOM     83  C   UNL     1      -4.624  13.748  13.177  1.00  0.00     0.200 A 
ATOM     84  F   UNL     1      -3.272  11.814  13.252  1.00  0.00    -0.200 F 
ATOM     85  F   UNL     1      -5.449  13.226  14.095  1.00  0.00    -0.200 F 
ENDBRANCH  51  75
BRANCH  63  86
ATOM     86  C   UNL     1       1.450  20.306  11.598  1.00  0.00     0.064 A 
ATOM     87  C   UNL     1       2.146  19.980  12.771  1.00  0.00     0.173 A 
ATOM     88  C   UNL     1       1.019  21.631  11.435  1.00  0.00     0.173 A 
ATOM     89  F   UNL     1       2.566  18.723  12.980  1.00  0.00    -0.203 F 
ATOM     90  C   UNL     1       2.373  20.937  13.756  1.00  0.00     0.198 A 
ATOM     91  C   UNL     1       1.272  22.592  12.409  1.00  0.00     0.198 A 
ATOM     92  F   UNL     1       0.355  21.995  10.327  1.00  0.00    -0.203 F 
ATOM     93  F   UNL     1       2.995  20.592  14.892  1.00  0.00    -0.200 F 
ATOM     94  C   UNL     1       1.941  22.242  13.572  1.00  0.00     0.200 A 
ATOM     95  F   UNL     1       0.864  23.855  12.226  1.00  0.00    -0.200 F 
ATOM     96  F   UNL     1       2.161  23.162  14.522  1.00  0.00    -0.200 F 
ENDBRANCH  63  86
ENDBRANCH  37  38
ENDBRANCH  29  32
ENDBRANCH  27  28
ENDBRANCH  26  27
ENDBRANCH   1  26
TORSDOF 15
