REMARK SMILES O=C(NCCCCNC(=O)[C@@H]1CCCC[C@@H]1C(=O)Nc1cc(C(F)(F)F)cc(C(F)(F)F)c1)c1ccc(-c2c3nc(c(-c4c(F)c(F)c(F)c(F)c4F)c4ccc([nH]4)c(-c4c(F)c(F)c(F)c(F)c4F)c4nc(c(-c5c(F)c(F)c(F)c(F)c5F)c5ccc2[nH]5)C=C4)C=C3)cc1
REMARK SMILES IDX 6 1 5 2 4 3 3 4 1 5 2 6 34 8 35 9 96 10 36 11 95 12 37 13
REMARK SMILES IDX 38 14 39 15 89 16 40 17 94 18 88 19 90 20 41 21 93 22 87 23
REMARK SMILES IDX 86 24 42 26 74 27 54 28 73 29 55 30 58 31 72 32 91 33 56 34
REMARK SMILES IDX 57 35 71 37 92 38 59 39 43 40 44 41 52 42 45 43 46 44 50 45
REMARK SMILES IDX 53 46 47 47 48 48 51 49 49 50 75 51 76 52 84 53 77 54 78 55
REMARK SMILES IDX 82 56 85 57 79 58 80 59 83 60 81 61 60 62 61 63 69 64 62 65
REMARK SMILES IDX 63 66 67 67 70 68 64 69 65 70 68 71 66 72 7 73 8 74 9 75
REMARK SMILES IDX 10 77 11 78 12 79 16 80 13 81 15 82 14 83 17 84 18 85 19 86
REMARK SMILES IDX 20 88 21 89 33 90 22 91 28 92 27 93 23 94 24 95 25 96 26 97
REMARK SMILES IDX 29 98 30 99 31 100 32 101
REMARK H PARENT 3 7 90 25 58 36 8 76 19 87
REMARK Flexibility Score: inf
ROOT
ATOM      1  C   UNL     1       4.157  -3.793  -0.151  1.00  0.00     0.023 C 
ENDROOT
BRANCH   1   2
ATOM      2  C   UNL     1       4.632  -2.664   0.765  1.00  0.00     0.023 C 
BRANCH   2   3
ATOM      3  C   UNL     1       4.373  -1.264   0.234  1.00  0.00     0.116 C 
BRANCH   3   4
ATOM      4  N   UNL     1       2.979  -1.034  -0.113  1.00  0.00    -0.352 N 
ATOM      5  O   UNL     1       1.067   0.158  -0.277  1.00  0.00    -0.269 OA
ATOM      6  C   UNL     1       2.267   0.138  -0.043  1.00  0.00     0.251 C 
ATOM      7  H   UNL     1       2.483  -1.819  -0.440  1.00  0.00     0.163 HD
BRANCH   6   8
ATOM      8  C   UNL     1       2.970   1.369   0.363  1.00  0.00     0.039 A 
ATOM      9  C   UNL     1       4.172   1.730  -0.249  1.00  0.00     0.014 A 
ATOM     10  C   UNL     1       2.434   2.138   1.398  1.00  0.00     0.014 A 
ATOM     11  C   UNL     1       4.908   2.790   0.264  1.00  0.00     0.010 A 
ATOM     12  C   UNL     1       3.140   3.247   1.863  1.00  0.00     0.010 A 
ATOM     13  C   UNL     1       4.397   3.559   1.321  1.00  0.00    -0.014 A 
BRANCH  13  14
ATOM     14  C   UNL     1       5.179   4.713   1.820  1.00  0.00     0.031 A 
ATOM     15  C   UNL     1       5.773   4.704   3.197  1.00  0.00     0.074 A 
ATOM     16  C   UNL     1       5.369   5.762   0.999  1.00  0.00     0.049 A 
ATOM     17  N   UNL     1       6.497   5.621   3.789  1.00  0.00    -0.248 NA
ATOM     18  C   UNL     1       5.516   3.516   4.025  1.00  0.00     0.031 C 
ATOM     19  C   UNL     1       4.832   5.873  -0.358  1.00  0.00     0.029 A 
ATOM     20  N   UNL     1       6.080   6.919   1.174  1.00  0.00    -0.354 N 
ATOM     21  C   UNL     1       6.759   5.135   5.062  1.00  0.00     0.074 A 
ATOM     22  C   UNL     1       6.102   3.849   5.167  1.00  0.00     0.031 C 
ATOM     23  C   UNL     1       5.272   7.012  -0.911  1.00  0.00     0.029 A 
ATOM     24  C   UNL     1       6.075   7.734   0.070  1.00  0.00     0.049 A 
ATOM     25  H   UNL     1       6.548   7.145   2.010  1.00  0.00     0.167 HD
ATOM     26  C   UNL     1       7.485   5.712   6.050  1.00  0.00     0.037 A 
ATOM     27  C   UNL     1       6.650   8.933  -0.127  1.00  0.00     0.037 A 
ATOM     28  C   UNL     1       8.155   6.981   5.926  1.00  0.00     0.049 A 
ATOM     29  C   UNL     1       7.445   9.550   0.985  1.00  0.00     0.074 A 
ATOM     30  C   UNL     1       8.950   7.634   6.853  1.00  0.00     0.029 A 
ATOM     31  N   UNL     1       8.106   7.793   4.801  1.00  0.00    -0.354 N 
ATOM     32  N   UNL     1       7.707   9.071   2.177  1.00  0.00    -0.248 NA
ATOM     33  C   UNL     1       8.020  10.876   0.727  1.00  0.00     0.031 C 
ATOM     34  C   UNL     1       9.350   8.857   6.302  1.00  0.00     0.029 A 
ATOM     35  C   UNL     1       8.840   8.948   5.017  1.00  0.00     0.049 A 
ATOM     36  H   UNL     1       7.622   7.579   3.971  1.00  0.00     0.167 HD
ATOM     37  C   UNL     1       8.491  10.026   2.806  1.00  0.00     0.074 A 
ATOM     38  C   UNL     1       8.674  11.106   1.857  1.00  0.00     0.031 C 
ATOM     39  C   UNL     1       9.010  10.011   4.058  1.00  0.00     0.037 A 
BRANCH  26  40
ATOM     40  C   UNL     1       7.571   4.988   7.362  1.00  0.00     0.064 A 
ATOM     41  C   UNL     1       8.336   3.822   7.515  1.00  0.00     0.173 A 
ATOM     42  C   UNL     1       6.899   5.484   8.489  1.00  0.00     0.173 A 
ATOM     43  F   UNL     1       8.987   3.299   6.465  1.00  0.00    -0.203 F 
ATOM     44  C   UNL     1       8.404   3.167   8.742  1.00  0.00     0.198 A 
ATOM     45  C   UNL     1       6.990   4.840   9.720  1.00  0.00     0.198 A 
ATOM     46  F   UNL     1       6.157   6.598   8.398  1.00  0.00    -0.203 F 
ATOM     47  F   UNL     1       9.105   2.030   8.854  1.00  0.00    -0.200 F 
ATOM     48  C   UNL     1       7.736   3.679   9.844  1.00  0.00     0.200 A 
ATOM     49  F   UNL     1       6.351   5.342  10.787  1.00  0.00    -0.200 F 
ATOM     50  F   UNL     1       7.805   3.047  11.025  1.00  0.00    -0.200 F 
ENDBRANCH  26  40
BRANCH  27  51
ATOM     51  C   UNL     1       6.505   9.604  -1.442  1.00  0.00     0.064 A 
ATOM     52  C   UNL     1       7.590   9.700  -2.321  1.00  0.00     0.173 A 
ATOM     53  C   UNL     1       5.271  10.122  -1.863  1.00  0.00     0.173 A 
ATOM     54  F   UNL     1       8.793   9.232  -1.954  1.00  0.00    -0.203 F 
ATOM     55  C   UNL     1       7.449  10.292  -3.574  1.00  0.00     0.198 A 
ATOM     56  C   UNL     1       5.125  10.691  -3.126  1.00  0.00     0.198 A 
ATOM     57  F   UNL     1       4.201  10.046  -1.058  1.00  0.00    -0.203 F 
ATOM     58  F   UNL     1       8.509  10.393  -4.388  1.00  0.00    -0.200 F 
ATOM     59  C   UNL     1       6.215  10.779  -3.978  1.00  0.00     0.200 A 
ATOM     60  F   UNL     1       3.927  11.145  -3.519  1.00  0.00    -0.200 F 
ATOM     61  F   UNL     1       6.077  11.335  -5.190  1.00  0.00    -0.200 F 
ENDBRANCH  27  51
BRANCH  39  62
ATOM     62  C   UNL     1       9.848  11.188   4.457  1.00  0.00     0.064 A 
ATOM     63  C   UNL     1       9.272  12.432   4.752  1.00  0.00     0.173 A 
ATOM     64  C   UNL     1      11.241  11.062   4.565  1.00  0.00     0.173 A 
ATOM     65  F   UNL     1       7.946  12.604   4.645  1.00  0.00    -0.203 F 
ATOM     66  C   UNL     1      10.065  13.517   5.116  1.00  0.00     0.198 A 
ATOM     67  C   UNL     1      12.027  12.142   4.953  1.00  0.00     0.198 A 
ATOM     68  F   UNL     1      11.837   9.891   4.296  1.00  0.00    -0.203 F 
ATOM     69  F   UNL     1       9.499  14.709   5.347  1.00  0.00    -0.200 F 
ATOM     70  C   UNL     1      11.440  13.370   5.221  1.00  0.00     0.200 A 
ATOM     71  F   UNL     1      13.355  11.997   5.063  1.00  0.00    -0.200 F 
ATOM     72  F   UNL     1      12.201  14.415   5.572  1.00  0.00    -0.200 F 
ENDBRANCH  39  62
ENDBRANCH  13  14
ENDBRANCH   6   8
ENDBRANCH   3   4
ENDBRANCH   2   3
ENDBRANCH   1   2
BRANCH   1  73
ATOM     73  C   UNL     1       4.790  -3.791  -1.544  1.00  0.00     0.116 C 
BRANCH  73  74
ATOM     74  N   UNL     1       6.189  -4.128  -1.462  1.00  0.00    -0.356 N 
ATOM     75  C   UNL     1       6.817  -5.328  -1.432  1.00  0.00     0.223 C 
ATOM     76  H   UNL     1       6.793  -3.351  -1.421  1.00  0.00     0.163 HD
ATOM     77  O   UNL     1       8.037  -5.266  -1.247  1.00  0.00    -0.275 OA
BRANCH  75  78
ATOM     78  C   UNL     1       6.112  -6.660  -1.760  1.00  0.00     0.091 C 
ATOM     79  C   UNL     1       4.802  -6.961  -1.017  1.00  0.00     0.014 C 
ATOM     80  C   UNL     1       7.129  -7.830  -1.614  1.00  0.00     0.091 C 
ATOM     81  C   UNL     1       4.214  -8.319  -1.383  1.00  0.00     0.001 C 
ATOM     82  C   UNL     1       6.502  -9.213  -1.871  1.00  0.00     0.014 C 
ATOM     83  C   UNL     1       5.197  -9.443  -1.119  1.00  0.00     0.001 C 
BRANCH  80  84
ATOM     84  C   UNL     1       7.811  -7.850  -0.238  1.00  0.00     0.228 C 
ATOM     85  O   UNL     1       7.148  -7.722   0.797  1.00  0.00    -0.274 OA
ATOM     86  N   UNL     1       9.126  -8.191  -0.093  1.00  0.00    -0.326 N 
ATOM     87  H   UNL     1       9.345  -8.525   0.807  1.00  0.00     0.169 HD
BRANCH  86  88
ATOM     88  C   UNL     1      10.230  -8.163  -0.960  1.00  0.00     0.042 A 
ATOM     89  C   UNL     1      11.344  -8.925  -0.592  1.00  0.00     0.039 A 
ATOM     90  C   UNL     1      10.320  -7.361  -2.096  1.00  0.00     0.039 A 
ATOM     91  C   UNL     1      12.508  -8.944  -1.380  1.00  0.00     0.058 A 
ATOM     92  C   UNL     1      11.468  -7.354  -2.904  1.00  0.00     0.058 A 
ATOM     93  C   UNL     1      12.555  -8.161  -2.542  1.00  0.00     0.026 A 
BRANCH  91  94
ATOM     94  C   UNL     1      13.679  -9.799  -0.961  1.00  0.00     0.416 C 
ATOM     95  F   UNL     1      14.175  -9.438   0.254  1.00  0.00    -0.166 F 
ATOM     96  F   UNL     1      13.347 -11.114  -0.856  1.00  0.00    -0.166 F 
ATOM     97  F   UNL     1      14.728  -9.744  -1.827  1.00  0.00    -0.166 F 
ENDBRANCH  91  94
BRANCH  92  98
ATOM     98  C   UNL     1      11.537  -6.483  -4.137  1.00  0.00     0.416 C 
ATOM     99  F   UNL     1      12.593  -5.625  -4.109  1.00  0.00    -0.166 F 
ATOM    100  F   UNL     1      11.682  -7.218  -5.275  1.00  0.00    -0.166 F 
ATOM    101  F   UNL     1      10.431  -5.713  -4.333  1.00  0.00    -0.166 F 
ENDBRANCH  92  98
ENDBRANCH  86  88
ENDBRANCH  80  84
ENDBRANCH  75  78
ENDBRANCH  73  74
ENDBRANCH   1  73
TORSDOF 15
