REMARK SMILES CN1C(=O)C[C@@H](C(=O)NCCCCNC(=O)c2ccc(-c3c4nc(c(-c5c(F)c(F)c(F)c(F)c5F)c5ccc([nH]5)c(-c5c(F)c(F)c(F)c(F)c5F)c5nc(c(-c6c(F)c(F)c(F)c(F)c6F)c6ccc3[nH]6)C=C5)C=C4)cc2)C12CCN(c1ccc(Cl)cn1)CC2
REMARK SMILES IDX 12 1 11 2 10 3 9 4 7 5 8 6 6 8 1 9 2 10 3 11 80 12 4 13 5 14
REMARK SMILES IDX 81 15 92 16 82 17 91 18 83 19 84 20 85 21 90 22 86 23 89 24
REMARK SMILES IDX 87 25 88 26 13 27 14 28 15 29 16 31 17 32 18 33 79 34 19 35
REMARK SMILES IDX 78 36 20 37 21 38 22 39 72 40 23 41 77 42 71 43 73 44 24 45
REMARK SMILES IDX 76 46 70 47 69 48 25 50 57 51 37 52 56 53 38 54 41 55 55 56
REMARK SMILES IDX 74 57 39 58 40 59 54 61 75 62 42 63 26 64 27 65 35 66 28 67
REMARK SMILES IDX 29 68 33 69 36 70 30 71 31 72 34 73 32 74 58 75 59 76 67 77
REMARK SMILES IDX 60 78 61 79 65 80 68 81 62 82 63 83 66 84 64 85 43 86 44 87
REMARK SMILES IDX 52 88 45 89 46 90 50 91 53 92 47 93 48 94 51 95 49 96
REMARK H PARENT 9 7 14 30 73 49 41 60
REMARK Flexibility Score: inf
ROOT
ATOM      1  C   UNL     1       1.077   0.253  -5.235  1.00  0.00     0.023 C 
ENDROOT
BRANCH   1   2
ATOM      2  C   UNL     1       0.864   0.081  -3.735  1.00  0.00     0.023 C 
BRANCH   2   3
ATOM      3  C   UNL     1      -0.382  -0.727  -3.360  1.00  0.00     0.116 C 
BRANCH   3   4
ATOM      4  N   UNL     1      -0.312  -2.126  -3.744  1.00  0.00    -0.356 N 
ATOM      5  C   UNL     1      -0.231  -3.285  -3.044  1.00  0.00     0.226 C 
ATOM      6  O   UNL     1      -0.218  -4.321  -3.720  1.00  0.00    -0.275 OA
ATOM      7  H   UNL     1      -0.328  -2.262  -4.719  1.00  0.00     0.163 HD
BRANCH   5   8
ATOM      8  C   UNL     1      -0.128  -3.403  -1.520  1.00  0.00     0.113 C 
ATOM      9  C   UNL     1       1.326  -0.436   0.246  1.00  0.00     0.147 C 
ATOM     10  N   UNL     1       0.551  -1.538  -0.288  1.00  0.00    -0.339 N 
ATOM     11  C   UNL     1      -0.832  -1.564  -0.164  1.00  0.00     0.223 C 
ATOM     12  C   UNL     1       1.111  -2.793  -0.818  1.00  0.00     0.058 C 
ATOM     13  O   UNL     1      -1.529  -0.699   0.340  1.00  0.00    -0.275 OA
ATOM     14  C   UNL     1      -1.347  -2.823  -0.802  1.00  0.00     0.116 C 
ATOM     15  C   UNL     1       2.313  -2.590  -1.766  1.00  0.00     0.051 C 
ATOM     16  C   UNL     1       1.548  -3.670   0.401  1.00  0.00     0.051 C 
ATOM     17  C   UNL     1       3.009  -3.892  -2.114  1.00  0.00     0.120 C 
ATOM     18  C   UNL     1       2.380  -4.908   0.027  1.00  0.00     0.120 C 
ATOM     19  N   UNL     1       3.441  -4.471  -0.861  1.00  0.00    -0.356 N 
BRANCH  19  20
ATOM     20  C   UNL     1       4.694  -5.042  -0.811  1.00  0.00     0.128 A 
ATOM     21  C   UNL     1       5.810  -4.267  -1.148  1.00  0.00     0.048 A 
ATOM     22  N   UNL     1       4.827  -6.326  -0.428  1.00  0.00    -0.238 NA
ATOM     23  C   UNL     1       7.087  -4.821  -1.121  1.00  0.00     0.026 A 
ATOM     24  C   UNL     1       6.078  -6.856  -0.430  1.00  0.00     0.134 A 
ATOM     25  C   UNL     1       7.223  -6.151  -0.765  1.00  0.00     0.059 A 
ATOM     26  Cl  UNL     1       8.768  -6.892  -0.738  1.00  0.00    -0.083 Cl
ENDBRANCH  19  20
ENDBRANCH   5   8
ENDBRANCH   3   4
ENDBRANCH   2   3
ENDBRANCH   1   2
BRANCH   1  27
ATOM     27  C   UNL     1      -0.063   0.974  -5.935  1.00  0.00     0.116 C 
BRANCH  27  28
ATOM     28  N   UNL     1      -0.377   2.257  -5.318  1.00  0.00    -0.352 N 
ATOM     29  C   UNL     1      -0.590   3.470  -5.920  1.00  0.00     0.251 C 
ATOM     30  H   UNL     1      -0.445   2.252  -4.336  1.00  0.00     0.163 HD
ATOM     31  O   UNL     1      -0.687   4.496  -5.257  1.00  0.00    -0.269 OA
BRANCH  29  32
ATOM     32  C   UNL     1      -0.672   3.518  -7.389  1.00  0.00     0.039 A 
ATOM     33  C   UNL     1       0.098   4.451  -8.083  1.00  0.00     0.014 A 
ATOM     34  C   UNL     1      -1.462   2.588  -8.069  1.00  0.00     0.014 A 
ATOM     35  C   UNL     1       0.129   4.405  -9.476  1.00  0.00     0.010 A 
ATOM     36  C   UNL     1      -1.357   2.485  -9.447  1.00  0.00     0.010 A 
ATOM     37  C   UNL     1      -0.568   3.397 -10.162  1.00  0.00    -0.014 A 
BRANCH  37  38
ATOM     38  C   UNL     1      -0.506   3.283 -11.637  1.00  0.00     0.031 A 
ATOM     39  C   UNL     1      -1.761   3.454 -12.444  1.00  0.00     0.074 A 
ATOM     40  C   UNL     1       0.653   2.944 -12.232  1.00  0.00     0.049 A 
ATOM     41  N   UNL     1      -1.947   3.294 -13.729  1.00  0.00    -0.248 NA
ATOM     42  C   UNL     1      -2.980   3.813 -11.701  1.00  0.00     0.031 C 
ATOM     43  C   UNL     1       1.919   2.693 -11.542  1.00  0.00     0.029 A 
ATOM     44  N   UNL     1       0.950   2.739 -13.555  1.00  0.00    -0.354 N 
ATOM     45  C   UNL     1      -3.302   3.508 -13.940  1.00  0.00     0.074 A 
ATOM     46  C   UNL     1      -3.903   3.749 -12.648  1.00  0.00     0.031 C 
ATOM     47  C   UNL     1       2.862   2.392 -12.449  1.00  0.00     0.029 A 
ATOM     48  C   UNL     1       2.260   2.394 -13.778  1.00  0.00     0.049 A 
ATOM     49  H   UNL     1       0.286   2.830 -14.277  1.00  0.00     0.167 HD
ATOM     50  C   UNL     1      -3.978   3.529 -15.112  1.00  0.00     0.037 A 
ATOM     51  C   UNL     1       2.898   2.110 -14.929  1.00  0.00     0.037 A 
ATOM     52  C   UNL     1      -3.364   3.331 -16.396  1.00  0.00     0.049 A 
ATOM     53  C   UNL     1       2.128   2.167 -16.221  1.00  0.00     0.074 A 
ATOM     54  C   UNL     1      -3.941   3.404 -17.651  1.00  0.00     0.029 A 
ATOM     55  N   UNL     1      -2.024   3.025 -16.587  1.00  0.00    -0.354 N 
ATOM     56  N   UNL     1       0.862   2.440 -16.418  1.00  0.00    -0.248 NA
ATOM     57  C   UNL     1       2.880   1.883 -17.451  1.00  0.00     0.031 C 
ATOM     58  C   UNL     1      -2.958   3.106 -18.600  1.00  0.00     0.029 A 
ATOM     59  C   UNL     1      -1.759   2.891 -17.940  1.00  0.00     0.049 A 
ATOM     60  H   UNL     1      -1.360   2.920 -15.868  1.00  0.00     0.167 HD
ATOM     61  C   UNL     1       0.669   2.389 -17.791  1.00  0.00     0.074 A 
ATOM     62  C   UNL     1       1.954   2.072 -18.380  1.00  0.00     0.031 C 
ATOM     63  C   UNL     1      -0.468   2.587 -18.502  1.00  0.00     0.037 A 
BRANCH  50  64
ATOM     64  C   UNL     1      -5.455   3.789 -15.054  1.00  0.00     0.064 A 
ATOM     65  C   UNL     1      -5.967   5.046 -14.698  1.00  0.00     0.173 A 
ATOM     66  C   UNL     1      -6.369   2.776 -15.377  1.00  0.00     0.173 A 
ATOM     67  F   UNL     1      -5.135   6.044 -14.364  1.00  0.00    -0.203 F 
ATOM     68  C   UNL     1      -7.340   5.270 -14.638  1.00  0.00     0.198 A 
ATOM     69  C   UNL     1      -7.741   3.012 -15.346  1.00  0.00     0.198 A 
ATOM     70  F   UNL     1      -5.933   1.556 -15.726  1.00  0.00    -0.203 F 
ATOM     71  F   UNL     1      -7.805   6.463 -14.242  1.00  0.00    -0.200 F 
ATOM     72  C   UNL     1      -8.225   4.256 -14.968  1.00  0.00     0.200 A 
ATOM     73  F   UNL     1      -8.596   2.034 -15.676  1.00  0.00    -0.200 F 
ATOM     74  F   UNL     1      -9.546   4.474 -14.915  1.00  0.00    -0.200 F 
ENDBRANCH  50  64
BRANCH  51  75
ATOM     75  C   UNL     1       4.347   1.783 -14.914  1.00  0.00     0.064 A 
ATOM     76  C   UNL     1       5.289   2.682 -15.433  1.00  0.00     0.173 A 
ATOM     77  C   UNL     1       4.821   0.575 -14.383  1.00  0.00     0.173 A 
ATOM     78  F   UNL     1       4.882   3.843 -15.967  1.00  0.00    -0.203 F 
ATOM     79  C   UNL     1       6.648   2.377 -15.442  1.00  0.00     0.198 A 
ATOM     80  C   UNL     1       6.183   0.282 -14.368  1.00  0.00     0.198 A 
ATOM     81  F   UNL     1       3.961  -0.315 -13.867  1.00  0.00    -0.203 F 
ATOM     82  F   UNL     1       7.522   3.236 -15.983  1.00  0.00    -0.200 F 
ATOM     83  C   UNL     1       7.094   1.179 -14.904  1.00  0.00     0.200 A 
ATOM     84  F   UNL     1       6.612  -0.870 -13.835  1.00  0.00    -0.200 F 
ATOM     85  F   UNL     1       8.402   0.887 -14.909  1.00  0.00    -0.200 F 
ENDBRANCH  51  75
BRANCH  63  86
ATOM     86  C   UNL     1      -0.366   2.500 -19.995  1.00  0.00     0.064 A 
ATOM     87  C   UNL     1      -0.207   1.271 -20.651  1.00  0.00     0.173 A 
ATOM     88  C   UNL     1      -0.477   3.657 -20.780  1.00  0.00     0.173 A 
ATOM     89  F   UNL     1      -0.081   0.139 -19.941  1.00  0.00    -0.203 F 
ATOM     90  C   UNL     1      -0.140   1.206 -22.039  1.00  0.00     0.198 A 
ATOM     91  C   UNL     1      -0.439   3.585 -22.169  1.00  0.00     0.198 A 
ATOM     92  F   UNL     1      -0.638   4.856 -20.200  1.00  0.00    -0.203 F 
ATOM     93  F   UNL     1       0.056   0.026 -22.644  1.00  0.00    -0.200 F 
ATOM     94  C   UNL     1      -0.264   2.361 -22.797  1.00  0.00     0.200 A 
ATOM     95  F   UNL     1      -0.572   4.701 -22.901  1.00  0.00    -0.200 F 
ATOM     96  F   UNL     1      -0.208   2.296 -24.134  1.00  0.00    -0.200 F 
ENDBRANCH  63  86
ENDBRANCH  37  38
ENDBRANCH  29  32
ENDBRANCH  27  28
ENDBRANCH   1  27
TORSDOF 12
