REMARK SMILES CC[NH+](CC)[C@@H](C(=O)NCCCCNC(=O)c1ccc(-c2c3nc(c(-c4c(F)c(F)c(F)c(F)c4F)c4ccc([nH]4)c(-c4c(F)c(F)c(F)c(F)c4F)c4nc(c(-c5c(F)c(F)c(F)c(F)c5F)c5ccc2[nH]5)C=C4)C=C3)cc1)c1ccc(C2CC2)cc1
REMARK SMILES IDX 11 1 10 2 9 3 7 4 8 5 6 7 3 8 2 10 1 11 4 12 5 13 80 14
REMARK SMILES IDX 81 15 88 16 82 17 87 18 83 19 84 20 85 21 86 22 12 23 13 24
REMARK SMILES IDX 14 25 15 26 16 28 17 29 18 30 79 31 19 32 78 33 20 34 21 35
REMARK SMILES IDX 22 36 72 37 23 38 77 39 71 40 73 41 24 42 76 43 70 44 69 45
REMARK SMILES IDX 25 47 57 48 37 49 56 50 38 51 41 52 55 53 74 54 39 55 40 56
REMARK SMILES IDX 54 58 75 59 42 60 26 61 27 62 35 63 28 64 29 65 33 66 36 67
REMARK SMILES IDX 30 68 31 69 34 70 32 71 58 72 59 73 67 74 60 75 61 76 65 77
REMARK SMILES IDX 68 78 62 79 63 80 66 81 64 82 43 83 44 84 52 85 45 86 46 87
REMARK SMILES IDX 50 88 53 89 47 90 48 91 51 92 49 93
REMARK H PARENT 9 6 3 9 14 27 73 46 41 57
REMARK Flexibility Score: inf
ROOT
ATOM      1  C   UNL     1       0.978   5.176   3.148  1.00  0.00     0.023 C 
ENDROOT
BRANCH   1   2
ATOM      2  C   UNL     1       2.259   4.700   2.443  1.00  0.00     0.116 C 
BRANCH   2   3
ATOM      3  N   UNL     1       2.678   3.353   2.803  1.00  0.00    -0.351 N 
ATOM      4  C   UNL     1       2.640   2.146   2.149  1.00  0.00     0.283 C 
ATOM      5  O   UNL     1       3.043   1.181   2.811  1.00  0.00    -0.268 OA
ATOM      6  H   UNL     1       3.070   3.295   3.704  1.00  0.00     0.163 HD
BRANCH   4   7
ATOM      7  C   UNL     1       2.102   2.016   0.693  1.00  0.00     0.305 C 
BRANCH   7   8
ATOM      8  N   UNL     1       0.661   1.587   0.611  1.00  0.00    -0.321 N 
ATOM      9  H   UNL     1       0.510   1.811  -0.373  1.00  0.00     0.349 HD
BRANCH   8  10
ATOM     10  C   UNL     1       0.348   0.160   0.671  1.00  0.00     0.259 C 
ATOM     11  C   UNL     1       0.315  -0.486  -0.714  1.00  0.00     0.071 C 
ENDBRANCH   8  10
BRANCH   8  12
ATOM     12  C   UNL     1      -0.285   2.390   1.379  1.00  0.00     0.259 C 
ATOM     13  C   UNL     1      -0.484   1.998   2.847  1.00  0.00     0.071 C 
ENDBRANCH   8  12
ENDBRANCH   7   8
BRANCH   7  14
ATOM     14  C   UNL     1       3.015   1.178  -0.226  1.00  0.00     0.019 A 
ATOM     15  C   UNL     1       3.447  -0.110   0.127  1.00  0.00     0.011 A 
ATOM     16  C   UNL     1       3.278   1.611  -1.534  1.00  0.00     0.011 A 
ATOM     17  C   UNL     1       3.950  -0.990  -0.837  1.00  0.00     0.004 A 
ATOM     18  C   UNL     1       3.802   0.728  -2.491  1.00  0.00     0.004 A 
ATOM     19  C   UNL     1       4.074  -0.612  -2.180  1.00  0.00    -0.045 A 
BRANCH  19  20
ATOM     20  C   UNL     1       4.333  -1.659  -3.236  1.00  0.00     0.019 C 
ATOM     21  C   UNL     1       5.183  -1.394  -4.451  1.00  0.00     0.009 C 
ATOM     22  C   UNL     1       5.695  -2.293  -3.364  1.00  0.00     0.009 C 
ENDBRANCH  19  20
ENDBRANCH   7  14
ENDBRANCH   4   7
ENDBRANCH   2   3
ENDBRANCH   1   2
BRANCH   1  23
ATOM     23  C   UNL     1       0.878   4.880   4.646  1.00  0.00     0.023 C 
BRANCH  23  24
ATOM     24  C   UNL     1       1.653   5.857   5.511  1.00  0.00     0.116 C 
BRANCH  24  25
ATOM     25  N   UNL     1       1.064   7.189   5.467  1.00  0.00    -0.352 N 
ATOM     26  C   UNL     1       0.707   8.019   6.494  1.00  0.00     0.251 C 
ATOM     27  H   UNL     1       0.897   7.545   4.564  1.00  0.00     0.163 HD
ATOM     28  O   UNL     1       0.022   9.020   6.262  1.00  0.00    -0.269 OA
BRANCH  26  29
ATOM     29  C   UNL     1       1.128   7.725   7.876  1.00  0.00     0.039 A 
ATOM     30  C   UNL     1       0.244   7.990   8.926  1.00  0.00     0.014 A 
ATOM     31  C   UNL     1       2.407   7.229   8.144  1.00  0.00     0.014 A 
ATOM     32  C   UNL     1       0.631   7.729  10.240  1.00  0.00     0.010 A 
ATOM     33  C   UNL     1       2.760   6.888   9.443  1.00  0.00     0.010 A 
ATOM     34  C   UNL     1       1.887   7.161  10.504  1.00  0.00    -0.014 A 
BRANCH  34  35
ATOM     35  C   UNL     1       2.336   6.900  11.891  1.00  0.00     0.031 A 
ATOM     36  C   UNL     1       3.509   7.661  12.444  1.00  0.00     0.074 A 
ATOM     37  C   UNL     1       1.734   5.940  12.616  1.00  0.00     0.049 A 
ATOM     38  N   UNL     1       4.112   7.532  13.598  1.00  0.00    -0.248 NA
ATOM     39  C   UNL     1       4.109   8.679  11.566  1.00  0.00     0.031 C 
ATOM     40  C   UNL     1       0.626   5.102  12.156  1.00  0.00     0.029 A 
ATOM     41  N   UNL     1       1.978   5.501  13.892  1.00  0.00    -0.354 N 
ATOM     42  C   UNL     1       5.171   8.429  13.571  1.00  0.00     0.074 A 
ATOM     43  C   UNL     1       5.166   9.057  12.269  1.00  0.00     0.031 C 
ATOM     44  C   UNL     1       0.270   4.265  13.144  1.00  0.00     0.029 A 
ATOM     45  C   UNL     1       1.141   4.489  14.293  1.00  0.00     0.049 A 
ATOM     46  H   UNL     1       2.685   5.876  14.465  1.00  0.00     0.167 HD
ATOM     47  C   UNL     1       6.053   8.722  14.556  1.00  0.00     0.037 A 
ATOM     48  C   UNL     1       1.088   3.822  15.461  1.00  0.00     0.037 A 
ATOM     49  C   UNL     1       6.019   8.123  15.864  1.00  0.00     0.049 A 
ATOM     50  C   UNL     1       2.050   4.197  16.554  1.00  0.00     0.074 A 
ATOM     51  C   UNL     1       6.818   8.393  16.960  1.00  0.00     0.029 A 
ATOM     52  N   UNL     1       5.125   7.135  16.250  1.00  0.00    -0.354 N 
ATOM     53  N   UNL     1       3.007   5.094  16.543  1.00  0.00    -0.248 NA
ATOM     54  C   UNL     1       1.918   3.476  17.827  1.00  0.00     0.031 C 
ATOM     55  C   UNL     1       6.428   7.545  18.002  1.00  0.00     0.029 A 
ATOM     56  C   UNL     1       5.360   6.775  17.567  1.00  0.00     0.049 A 
ATOM     57  H   UNL     1       4.428   6.746  15.674  1.00  0.00     0.167 HD
ATOM     58  C   UNL     1       3.574   5.063  17.809  1.00  0.00     0.074 A 
ATOM     59  C   UNL     1       2.842   4.070  18.568  1.00  0.00     0.031 C 
ATOM     60  C   UNL     1       4.609   5.789  18.300  1.00  0.00     0.037 A 
BRANCH  47  61
ATOM     61  C   UNL     1       7.115   9.739  14.257  1.00  0.00     0.064 A 
ATOM     62  C   UNL     1       6.807  11.098  14.087  1.00  0.00     0.173 A 
ATOM     63  C   UNL     1       8.461   9.355  14.154  1.00  0.00     0.173 A 
ATOM     64  F   UNL     1       5.534  11.515  14.159  1.00  0.00    -0.203 F 
ATOM     65  C   UNL     1       7.801  12.028  13.794  1.00  0.00     0.198 A 
ATOM     66  C   UNL     1       9.456  10.294  13.891  1.00  0.00     0.198 A 
ATOM     67  F   UNL     1       8.813   8.070  14.310  1.00  0.00    -0.203 F 
ATOM     68  F   UNL     1       7.473  13.310  13.581  1.00  0.00    -0.200 F 
ATOM     69  C   UNL     1       9.124  11.627  13.702  1.00  0.00     0.200 A 
ATOM     70  F   UNL     1      10.737   9.907  13.813  1.00  0.00    -0.200 F 
ATOM     71  F   UNL     1      10.080  12.524  13.423  1.00  0.00    -0.200 F 
ENDBRANCH  47  61
BRANCH  48  72
ATOM     72  C   UNL     1       0.059   2.772  15.667  1.00  0.00     0.064 A 
ATOM     73  C   UNL     1      -1.024   2.989  16.530  1.00  0.00     0.173 A 
ATOM     74  C   UNL     1       0.126   1.540  15.000  1.00  0.00     0.173 A 
ATOM     75  F   UNL     1      -1.121   4.145  17.203  1.00  0.00    -0.203 F 
ATOM     76  C   UNL     1      -1.991   2.007  16.733  1.00  0.00     0.198 A 
ATOM     77  C   UNL     1      -0.856   0.569  15.184  1.00  0.00     0.198 A 
ATOM     78  F   UNL     1       1.137   1.287  14.156  1.00  0.00    -0.203 F 
ATOM     79  F   UNL     1      -2.994   2.226  17.594  1.00  0.00    -0.200 F 
ATOM     80  C   UNL     1      -1.910   0.800  16.056  1.00  0.00     0.200 A 
ATOM     81  F   UNL     1      -0.782  -0.591  14.516  1.00  0.00    -0.200 F 
ATOM     82  F   UNL     1      -2.844  -0.142  16.247  1.00  0.00    -0.200 F 
ENDBRANCH  48  72
BRANCH  60  83
ATOM     83  C   UNL     1       4.987   5.554  19.731  1.00  0.00     0.064 A 
ATOM     84  C   UNL     1       5.655   4.388  20.131  1.00  0.00     0.173 A 
ATOM     85  C   UNL     1       4.712   6.525  20.705  1.00  0.00     0.173 A 
ATOM     86  F   UNL     1       5.925   3.425  19.237  1.00  0.00    -0.203 F 
ATOM     87  C   UNL     1       6.013   4.191  21.461  1.00  0.00     0.198 A 
ATOM     88  C   UNL     1       5.096   6.338  22.029  1.00  0.00     0.198 A 
ATOM     89  F   UNL     1       4.081   7.660  20.369  1.00  0.00    -0.203 F 
ATOM     90  F   UNL     1       6.610   3.050  21.831  1.00  0.00    -0.200 F 
ATOM     91  C   UNL     1       5.739   5.169  22.407  1.00  0.00     0.200 A 
ATOM     92  F   UNL     1       4.842   7.287  22.940  1.00  0.00    -0.200 F 
ATOM     93  F   UNL     1       6.090   4.980  23.687  1.00  0.00    -0.200 F 
ENDBRANCH  60  83
ENDBRANCH  34  35
ENDBRANCH  26  29
ENDBRANCH  24  25
ENDBRANCH  23  24
ENDBRANCH   1  23
TORSDOF 16
