REMARK SMILES O=C(NCCCCNC(=O)[C@H]1Cc2[nH]cnc2CN1C(=O)N1CCC[C@H](O)C1)c1ccc(-c2c3nc(c(-c4c(F)c(F)c(F)c(F)c4F)c4ccc([nH]4)c(-c4c(F)c(F)c(F)c(F)c4F)c4nc(c(-c5c(F)c(F)c(F)c(F)c5F)c5ccc2[nH]5)C=C4)C=C3)cc1
REMARK SMILES IDX 6 1 5 2 4 3 3 4 1 5 2 6 29 8 30 9 91 10 31 11 90 12 32 13
REMARK SMILES IDX 33 14 34 15 84 16 35 17 89 18 83 19 85 20 36 21 88 22 82 23
REMARK SMILES IDX 81 24 37 26 69 27 49 28 68 29 50 30 53 31 67 32 86 33 51 34
REMARK SMILES IDX 52 35 66 37 87 38 54 39 38 40 39 41 47 42 40 43 41 44 45 45
REMARK SMILES IDX 48 46 42 47 43 48 46 49 44 50 70 51 71 52 79 53 72 54 73 55
REMARK SMILES IDX 77 56 80 57 74 58 75 59 78 60 76 61 55 62 56 63 64 64 57 65
REMARK SMILES IDX 58 66 62 67 65 68 59 69 60 70 63 71 61 72 7 73 8 74 9 75
REMARK SMILES IDX 10 77 11 78 12 79 19 80 13 81 18 82 14 83 17 84 15 85 16 87
REMARK SMILES IDX 20 88 21 89 22 90 23 91 28 92 24 93 26 94 25 95 27 96
REMARK H PARENT 3 7 85 25 53 36 8 76 14 86 27 97
REMARK Flexibility Score: inf
ROOT
ATOM      1  C   UNL     1       4.393  -3.521   0.524  1.00  0.00     0.023 C 
ENDROOT
BRANCH   1   2
ATOM      2  C   UNL     1       4.955  -2.114   0.737  1.00  0.00     0.023 C 
BRANCH   2   3
ATOM      3  C   UNL     1       4.766  -1.122  -0.412  1.00  0.00     0.116 C 
BRANCH   3   4
ATOM      4  N   UNL     1       3.397  -0.895  -0.832  1.00  0.00    -0.352 N 
ATOM      5  O   UNL     1       1.325  -0.135  -0.994  1.00  0.00    -0.269 OA
ATOM      6  C   UNL     1       2.331  -0.232  -0.292  1.00  0.00     0.251 C 
ATOM      7  H   UNL     1       3.189  -1.311  -1.699  1.00  0.00     0.163 HD
BRANCH   6   8
ATOM      8  C   UNL     1       2.296   0.322   1.087  1.00  0.00     0.039 A 
ATOM      9  C   UNL     1       3.418   0.649   1.848  1.00  0.00     0.014 A 
ATOM     10  C   UNL     1       1.021   0.551   1.638  1.00  0.00     0.014 A 
ATOM     11  C   UNL     1       3.281   1.101   3.156  1.00  0.00     0.010 A 
ATOM     12  C   UNL     1       0.877   1.050   2.931  1.00  0.00     0.010 A 
ATOM     13  C   UNL     1       2.011   1.303   3.702  1.00  0.00    -0.014 A 
BRANCH  13  14
ATOM     14  C   UNL     1       1.937   1.945   5.019  1.00  0.00     0.031 A 
ATOM     15  C   UNL     1       2.495   3.327   5.098  1.00  0.00     0.074 A 
ATOM     16  C   UNL     1       1.266   1.444   6.075  1.00  0.00     0.049 A 
ATOM     17  N   UNL     1       3.340   3.804   5.957  1.00  0.00    -0.248 NA
ATOM     18  C   UNL     1       2.074   4.294   4.071  1.00  0.00     0.031 C 
ATOM     19  C   UNL     1       0.404   0.264   6.081  1.00  0.00     0.029 A 
ATOM     20  N   UNL     1       1.116   1.960   7.338  1.00  0.00    -0.354 N 
ATOM     21  C   UNL     1       3.430   5.168   5.686  1.00  0.00     0.074 A 
ATOM     22  C   UNL     1       2.710   5.398   4.461  1.00  0.00     0.031 C 
ATOM     23  C   UNL     1      -0.345   0.275   7.203  1.00  0.00     0.029 A 
ATOM     24  C   UNL     1       0.064   1.394   8.040  1.00  0.00     0.049 A 
ATOM     25  H   UNL     1       1.697   2.663   7.708  1.00  0.00     0.167 HD
ATOM     26  C   UNL     1       3.895   6.048   6.611  1.00  0.00     0.037 A 
ATOM     27  C   UNL     1      -0.492   1.829   9.195  1.00  0.00     0.037 A 
ATOM     28  C   UNL     1       4.659   5.404   7.642  1.00  0.00     0.049 A 
ATOM     29  C   UNL     1       0.474   2.691   9.913  1.00  0.00     0.074 A 
ATOM     30  C   UNL     1       5.894   4.807   7.760  1.00  0.00     0.029 A 
ATOM     31  N   UNL     1       3.970   5.124   8.787  1.00  0.00    -0.354 N 
ATOM     32  N   UNL     1       1.562   2.261  10.488  1.00  0.00    -0.248 NA
ATOM     33  C   UNL     1       0.336   4.143   9.849  1.00  0.00     0.031 C 
ATOM     34  C   UNL     1       5.823   3.966   8.910  1.00  0.00     0.029 A 
ATOM     35  C   UNL     1       4.537   4.063   9.437  1.00  0.00     0.049 A 
ATOM     36  H   UNL     1       3.176   5.616   9.100  1.00  0.00     0.167 HD
ATOM     37  C   UNL     1       2.410   3.350  10.473  1.00  0.00     0.074 A 
ATOM     38  C   UNL     1       1.550   4.503  10.272  1.00  0.00     0.031 C 
ATOM     39  C   UNL     1       3.745   3.180  10.262  1.00  0.00     0.037 A 
BRANCH  26  40
ATOM     40  C   UNL     1       3.292   7.419   6.855  1.00  0.00     0.064 A 
ATOM     41  C   UNL     1       3.928   8.288   7.769  1.00  0.00     0.173 A 
ATOM     42  C   UNL     1       1.959   7.747   6.530  1.00  0.00     0.173 A 
ATOM     43  F   UNL     1       5.192   8.062   8.159  1.00  0.00    -0.203 F 
ATOM     44  C   UNL     1       3.245   9.340   8.386  1.00  0.00     0.198 A 
ATOM     45  C   UNL     1       1.298   8.832   7.109  1.00  0.00     0.198 A 
ATOM     46  F   UNL     1       1.208   6.969   5.741  1.00  0.00    -0.203 F 
ATOM     47  F   UNL     1       3.845  10.047   9.353  1.00  0.00    -0.200 F 
ATOM     48  C   UNL     1       1.927   9.604   8.063  1.00  0.00     0.200 A 
ATOM     49  F   UNL     1       0.014   9.062   6.799  1.00  0.00    -0.200 F 
ATOM     50  F   UNL     1       1.248  10.563   8.706  1.00  0.00    -0.200 F 
ENDBRANCH  26  40
BRANCH  27  51
ATOM     51  C   UNL     1      -1.880   1.639   9.678  1.00  0.00     0.064 A 
ATOM     52  C   UNL     1      -2.208   1.808  11.034  1.00  0.00     0.173 A 
ATOM     53  C   UNL     1      -2.963   1.513   8.786  1.00  0.00     0.173 A 
ATOM     54  F   UNL     1      -1.244   1.992  11.947  1.00  0.00    -0.203 F 
ATOM     55  C   UNL     1      -3.536   1.854  11.467  1.00  0.00     0.198 A 
ATOM     56  C   UNL     1      -4.287   1.536   9.223  1.00  0.00     0.198 A 
ATOM     57  F   UNL     1      -2.762   1.451   7.462  1.00  0.00    -0.203 F 
ATOM     58  F   UNL     1      -3.807   2.079  12.760  1.00  0.00    -0.200 F 
ATOM     59  C   UNL     1      -4.574   1.718  10.562  1.00  0.00     0.200 A 
ATOM     60  F   UNL     1      -5.282   1.434   8.330  1.00  0.00    -0.200 F 
ATOM     61  F   UNL     1      -5.847   1.804  10.971  1.00  0.00    -0.200 F 
ENDBRANCH  27  51
BRANCH  39  62
ATOM     62  C   UNL     1       4.343   1.881  10.695  1.00  0.00     0.064 A 
ATOM     63  C   UNL     1       4.017   0.637  10.134  1.00  0.00     0.173 A 
ATOM     64  C   UNL     1       5.322   1.911  11.698  1.00  0.00     0.173 A 
ATOM     65  F   UNL     1       3.163   0.547   9.105  1.00  0.00    -0.203 F 
ATOM     66  C   UNL     1       4.598  -0.535  10.612  1.00  0.00     0.198 A 
ATOM     67  C   UNL     1       5.929   0.742  12.145  1.00  0.00     0.198 A 
ATOM     68  F   UNL     1       5.708   3.082  12.229  1.00  0.00    -0.203 F 
ATOM     69  F   UNL     1       4.245  -1.719  10.091  1.00  0.00    -0.200 F 
ATOM     70  C   UNL     1       5.554  -0.481  11.615  1.00  0.00     0.200 A 
ATOM     71  F   UNL     1       6.886   0.804  13.082  1.00  0.00    -0.200 F 
ATOM     72  F   UNL     1       6.128  -1.609  12.058  1.00  0.00    -0.200 F 
ENDBRANCH  39  62
ENDBRANCH  13  14
ENDBRANCH   6   8
ENDBRANCH   3   4
ENDBRANCH   2   3
ENDBRANCH   1   2
BRANCH   1  73
ATOM     73  C   UNL     1       4.710  -4.178  -0.812  1.00  0.00     0.116 C 
BRANCH  73  74
ATOM     74  N   UNL     1       6.113  -4.107  -1.186  1.00  0.00    -0.354 N 
ATOM     75  C   UNL     1       6.713  -4.890  -2.138  1.00  0.00     0.243 C 
ATOM     76  H   UNL     1       6.675  -3.446  -0.721  1.00  0.00     0.163 HD
ATOM     77  O   UNL     1       7.446  -4.322  -2.946  1.00  0.00    -0.273 OA
BRANCH  75  78
ATOM     78  C   UNL     1       6.383  -6.387  -2.188  1.00  0.00     0.182 C 
ATOM     79  C   UNL     1       5.535  -6.551  -3.484  1.00  0.00     0.091 C 
ATOM     80  N   UNL     1       7.435  -7.456  -2.102  1.00  0.00    -0.306 N 
ATOM     81  C   UNL     1       5.161  -7.972  -3.616  1.00  0.00     0.042 A 
ATOM     82  C   UNL     1       6.924  -8.846  -2.015  1.00  0.00     0.180 C 
ATOM     83  N   UNL     1       4.202  -8.530  -4.402  1.00  0.00    -0.348 N 
ATOM     84  C   UNL     1       5.780  -9.012  -2.964  1.00  0.00     0.081 A 
ATOM     85  C   UNL     1       4.251  -9.880  -4.172  1.00  0.00     0.197 A 
ATOM     86  H   UNL     1       3.592  -8.058  -5.015  1.00  0.00     0.167 HD
ATOM     87  N   UNL     1       5.186 -10.199  -3.300  1.00  0.00    -0.240 NA
BRANCH  80  88
ATOM     88  C   UNL     1       8.761  -7.288  -1.754  1.00  0.00     0.321 C 
ATOM     89  O   UNL     1       9.429  -8.168  -1.213  1.00  0.00    -0.248 OA
BRANCH  88  90
ATOM     90  N   UNL     1       9.359  -6.126  -2.195  1.00  0.00    -0.322 N 
ATOM     91  C   UNL     1       9.928  -5.244  -1.188  1.00  0.00     0.121 C 
ATOM     92  C   UNL     1      10.212  -6.299  -3.372  1.00  0.00     0.153 C 
ATOM     93  C   UNL     1      10.264  -3.865  -1.754  1.00  0.00     0.024 C 
ATOM     94  C   UNL     1      10.534  -4.966  -4.051  1.00  0.00     0.134 C 
ATOM     95  C   UNL     1      11.069  -3.932  -3.056  1.00  0.00     0.035 C 
BRANCH  94  96
ATOM     96  O   UNL     1       9.377  -4.454  -4.711  1.00  0.00    -0.391 OA
ATOM     97  H   UNL     1       8.680  -4.285  -4.057  1.00  0.00     0.211 HD
ENDBRANCH  94  96
ENDBRANCH  88  90
ENDBRANCH  80  88
ENDBRANCH  75  78
ENDBRANCH  73  74
ENDBRANCH   1  73
TORSDOF 14
