REMARK SMILES O=C(NCCCCNC(=O)[C@@H]1[C@H](C(=O)NCc2ccccc2Cl)[C@@H]2C=C[C@H]1C2)c1ccc(-c2c3nc(c(-c4c(F)c(F)c(F)c(F)c4F)c4ccc([nH]4)c(-c4c(F)c(F)c(F)c(F)c4F)c4nc(c(-c5c(F)c(F)c(F)c(F)c5F)c5ccc2[nH]5)C=C4)C=C3)cc1
REMARK SMILES IDX 6 1 5 2 4 3 3 4 1 5 2 6 29 8 30 9 91 10 31 11 90 12 32 13
REMARK SMILES IDX 33 14 34 15 84 16 35 17 89 18 83 19 85 20 36 21 88 22 82 23
REMARK SMILES IDX 81 24 37 26 69 27 49 28 68 29 50 30 53 31 67 32 86 33 51 34
REMARK SMILES IDX 52 35 66 37 87 38 54 39 38 40 39 41 47 42 40 43 41 44 45 45
REMARK SMILES IDX 48 46 42 47 43 48 46 49 44 50 70 51 71 52 79 53 72 54 73 55
REMARK SMILES IDX 77 56 80 57 74 58 75 59 78 60 76 61 55 62 56 63 64 64 57 65
REMARK SMILES IDX 58 66 62 67 65 68 59 69 60 70 63 71 61 72 7 73 8 74 9 75
REMARK SMILES IDX 10 77 11 78 12 79 27 80 24 81 26 82 28 83 25 84 13 85 14 86
REMARK SMILES IDX 15 87 16 89 17 90 18 91 22 92 19 93 21 94 23 95 20 96
REMARK H PARENT 3 7 85 25 53 36 8 76 15 88
REMARK Flexibility Score: inf
ROOT
ATOM      1  C   UNL     1       4.309  -3.922  -0.706  1.00  0.00     0.023 C 
ENDROOT
BRANCH   1   2
ATOM      2  C   UNL     1       4.857  -2.793   0.171  1.00  0.00     0.023 C 
BRANCH   2   3
ATOM      3  C   UNL     1       4.579  -1.380  -0.327  1.00  0.00     0.116 C 
BRANCH   3   4
ATOM      4  N   UNL     1       3.162  -1.098  -0.494  1.00  0.00    -0.352 N 
ATOM      5  O   UNL     1       1.221   0.016  -0.237  1.00  0.00    -0.269 OA
ATOM      6  C   UNL     1       2.433   0.003  -0.102  1.00  0.00     0.251 C 
ATOM      7  H   UNL     1       2.647  -1.798  -0.957  1.00  0.00     0.163 HD
BRANCH   6   8
ATOM      8  C   UNL     1       3.122   1.157   0.521  1.00  0.00     0.039 A 
ATOM      9  C   UNL     1       4.311   1.659  -0.008  1.00  0.00     0.014 A 
ATOM     10  C   UNL     1       2.563   1.736   1.665  1.00  0.00     0.014 A 
ATOM     11  C   UNL     1       5.024   2.627   0.693  1.00  0.00     0.010 A 
ATOM     12  C   UNL     1       3.240   2.767   2.323  1.00  0.00     0.010 A 
ATOM     13  C   UNL     1       4.499   3.188   1.869  1.00  0.00    -0.014 A 
BRANCH  13  14
ATOM     14  C   UNL     1       5.283   4.220   2.596  1.00  0.00     0.031 A 
ATOM     15  C   UNL     1       5.823   3.952   3.975  1.00  0.00     0.074 A 
ATOM     16  C   UNL     1       5.544   5.392   1.987  1.00  0.00     0.049 A 
ATOM     17  N   UNL     1       6.567   4.719   4.734  1.00  0.00    -0.248 NA
ATOM     18  C   UNL     1       5.478   2.660   4.587  1.00  0.00     0.031 C 
ATOM     19  C   UNL     1       5.066   5.772   0.657  1.00  0.00     0.029 A 
ATOM     20  N   UNL     1       6.290   6.468   2.393  1.00  0.00    -0.354 N 
ATOM     21  C   UNL     1       6.756   4.016   5.918  1.00  0.00     0.074 A 
ATOM     22  C   UNL     1       6.029   2.771   5.788  1.00  0.00     0.031 C 
ATOM     23  C   UNL     1       5.574   6.970   0.334  1.00  0.00     0.029 A 
ATOM     24  C   UNL     1       6.368   7.466   1.454  1.00  0.00     0.049 A 
ATOM     25  H   UNL     1       6.728   6.520   3.274  1.00  0.00     0.167 HD
ATOM     26  C   UNL     1       7.476   4.375   7.008  1.00  0.00     0.037 A 
ATOM     27  C   UNL     1       7.006   8.650   1.490  1.00  0.00     0.037 A 
ATOM     28  C   UNL     1       8.222   5.602   7.123  1.00  0.00     0.049 A 
ATOM     29  C   UNL     1       7.794   9.022   2.713  1.00  0.00     0.074 A 
ATOM     30  C   UNL     1       9.023   6.032   8.168  1.00  0.00     0.029 A 
ATOM     31  N   UNL     1       8.257   6.599   6.159  1.00  0.00    -0.354 N 
ATOM     32  N   UNL     1       8.001   8.330   3.806  1.00  0.00    -0.248 NA
ATOM     33  C   UNL     1       8.440  10.341   2.704  1.00  0.00     0.031 C 
ATOM     34  C   UNL     1       9.505   7.308   7.855  1.00  0.00     0.029 A 
ATOM     35  C   UNL     1       9.048   7.652   6.593  1.00  0.00     0.049 A 
ATOM     36  H   UNL     1       7.790   6.564   5.293  1.00  0.00     0.167 HD
ATOM     37  C   UNL     1       8.821   9.115   4.604  1.00  0.00     0.074 A 
ATOM     38  C   UNL     1       9.085  10.331   3.862  1.00  0.00     0.031 C 
ATOM     39  C   UNL     1       9.311   8.851   5.840  1.00  0.00     0.037 A 
BRANCH  26  40
ATOM     40  C   UNL     1       7.478   3.435   8.181  1.00  0.00     0.064 A 
ATOM     41  C   UNL     1       8.160   2.210   8.148  1.00  0.00     0.173 A 
ATOM     42  C   UNL     1       6.819   3.786   9.369  1.00  0.00     0.173 A 
ATOM     43  F   UNL     1       8.797   1.822   7.033  1.00  0.00    -0.203 F 
ATOM     44  C   UNL     1       8.158   1.358   9.250  1.00  0.00     0.198 A 
ATOM     45  C   UNL     1       6.843   2.945  10.479  1.00  0.00     0.198 A 
ATOM     46  F   UNL     1       6.159   4.950   9.458  1.00  0.00    -0.203 F 
ATOM     47  F   UNL     1       8.777   0.172   9.180  1.00  0.00    -0.200 F 
ATOM     48  C   UNL     1       7.505   1.729  10.416  1.00  0.00     0.200 A 
ATOM     49  F   UNL     1       6.223   3.312  11.610  1.00  0.00    -0.200 F 
ATOM     50  F   UNL     1       7.509   0.911  11.478  1.00  0.00    -0.200 F 
ENDBRANCH  26  40
BRANCH  27  51
ATOM     51  C   UNL     1       6.943   9.556   0.315  1.00  0.00     0.064 A 
ATOM     52  C   UNL     1       8.075   9.780  -0.480  1.00  0.00     0.173 A 
ATOM     53  C   UNL     1       5.751  10.200  -0.047  1.00  0.00     0.173 A 
ATOM     54  F   UNL     1       9.242   9.200  -0.163  1.00  0.00    -0.203 F 
ATOM     55  C   UNL     1       8.020  10.627  -1.585  1.00  0.00     0.198 A 
ATOM     56  C   UNL     1       5.690  11.023  -1.169  1.00  0.00     0.198 A 
ATOM     57  F   UNL     1       4.639  10.011   0.679  1.00  0.00    -0.203 F 
ATOM     58  F   UNL     1       9.126  10.854  -2.307  1.00  0.00    -0.200 F 
ATOM     59  C   UNL     1       6.826  11.241  -1.933  1.00  0.00     0.200 A 
ATOM     60  F   UNL     1       4.531  11.601  -1.510  1.00  0.00    -0.200 F 
ATOM     61  F   UNL     1       6.772  12.047  -3.002  1.00  0.00    -0.200 F 
ENDBRANCH  27  51
BRANCH  39  62
ATOM     62  C   UNL     1      10.222   9.878   6.447  1.00  0.00     0.064 A 
ATOM     63  C   UNL     1       9.739  11.108   6.915  1.00  0.00     0.173 A 
ATOM     64  C   UNL     1      11.594   9.617   6.577  1.00  0.00     0.173 A 
ATOM     65  F   UNL     1       8.437  11.412   6.797  1.00  0.00    -0.203 F 
ATOM     66  C   UNL     1      10.602  12.052   7.465  1.00  0.00     0.198 A 
ATOM     67  C   UNL     1      12.450  10.551   7.154  1.00  0.00     0.198 A 
ATOM     68  F   UNL     1      12.105   8.453   6.149  1.00  0.00    -0.203 F 
ATOM     69  F   UNL     1      10.127  13.243   7.857  1.00  0.00    -0.200 F 
ATOM     70  C   UNL     1      11.955  11.771   7.588  1.00  0.00     0.200 A 
ATOM     71  F   UNL     1      13.754  10.274   7.282  1.00  0.00    -0.200 F 
ATOM     72  F   UNL     1      12.784  12.681   8.118  1.00  0.00    -0.200 F 
ENDBRANCH  39  62
ENDBRANCH  13  14
ENDBRANCH   6   8
ENDBRANCH   3   4
ENDBRANCH   2   3
ENDBRANCH   1   2
BRANCH   1  73
ATOM     73  C   UNL     1       4.703  -3.850  -2.183  1.00  0.00     0.116 C 
BRANCH  73  74
ATOM     74  N   UNL     1       6.137  -3.944  -2.354  1.00  0.00    -0.356 N 
ATOM     75  C   UNL     1       6.891  -5.066  -2.512  1.00  0.00     0.224 C 
ATOM     76  H   UNL     1       6.628  -3.091  -2.358  1.00  0.00     0.163 HD
ATOM     77  O   UNL     1       8.021  -5.031  -2.033  1.00  0.00    -0.275 OA
BRANCH  75  78
ATOM     78  C   UNL     1       6.278  -6.325  -3.084  1.00  0.00     0.098 C 
ATOM     79  C   UNL     1       7.197  -7.570  -3.293  1.00  0.00     0.098 C 
ATOM     80  C   UNL     1       5.481  -6.280  -4.424  1.00  0.00     0.025 C 
ATOM     81  C   UNL     1       6.681  -8.165  -4.635  1.00  0.00     0.025 C 
ATOM     82  C   UNL     1       6.351  -6.140  -5.650  1.00  0.00    -0.027 C 
ATOM     83  C   UNL     1       5.190  -7.784  -4.579  1.00  0.00     0.017 C 
ATOM     84  C   UNL     1       7.054  -7.274  -5.787  1.00  0.00    -0.027 C 
BRANCH  79  85
ATOM     85  C   UNL     1       8.721  -7.585  -3.104  1.00  0.00     0.224 C 
ATOM     86  O   UNL     1       9.204  -8.505  -2.424  1.00  0.00    -0.275 OA
ATOM     87  N   UNL     1       9.630  -6.754  -3.668  1.00  0.00    -0.352 N 
ATOM     88  H   UNL     1      10.561  -6.981  -3.442  1.00  0.00     0.163 HD
BRANCH  87  89
ATOM     89  C   UNL     1       9.514  -5.597  -4.538  1.00  0.00     0.153 C 
BRANCH  89  90
ATOM     90  C   UNL     1      10.053  -4.287  -4.002  1.00  0.00    -0.010 A 
ATOM     91  C   UNL     1      11.101  -4.244  -3.068  1.00  0.00     0.007 A 
ATOM     92  C   UNL     1       9.517  -3.057  -4.441  1.00  0.00     0.046 A 
ATOM     93  C   UNL     1      11.564  -3.025  -2.560  1.00  0.00     0.000 A 
ATOM     94  C   UNL     1       9.977  -1.841  -3.925  1.00  0.00     0.021 A 
ATOM     95  Cl  UNL     1       8.267  -2.959  -5.635  1.00  0.00    -0.084 Cl
ATOM     96  C   UNL     1      10.997  -1.825  -2.980  1.00  0.00     0.002 A 
ENDBRANCH  89  90
ENDBRANCH  87  89
ENDBRANCH  79  85
ENDBRANCH  75  78
ENDBRANCH  73  74
ENDBRANCH   1  73
TORSDOF 14
