REMARK SMILES CS(=O)(=O)N1C[C@@H]2CN(C(=O)C3CCOCC3)C[C@]2(C(=O)NCCCCNC(=O)c2ccc(-c3c4nc(c(-c5c(F)c(F)c(F)c(F)c5F)c5ccc([nH]5)c(-c5c(F)c(F)c(F)c(F)c5F)c5nc(c(-c6c(F)c(F)c(F)c(F)c6F)c6ccc3[nH]6)C=C5)C=C4)cc2)C1
REMARK SMILES IDX 24 1 23 2 22 3 20 4 21 5 19 7 5 8 6 9 93 10 7 11 8 12 18 13
REMARK SMILES IDX 9 14 2 15 1 16 3 17 4 18 10 19 11 20 12 21 13 22 17 23 14 24
REMARK SMILES IDX 16 25 15 26 25 27 26 28 27 29 28 30 29 32 30 33 31 34 92 35
REMARK SMILES IDX 32 36 91 37 33 38 34 39 35 40 85 41 36 42 90 43 84 44 86 45
REMARK SMILES IDX 37 46 89 47 83 48 82 49 38 51 70 52 50 53 69 54 51 55 54 56
REMARK SMILES IDX 68 57 87 58 52 59 53 60 67 62 88 63 55 64 39 65 40 66 48 67
REMARK SMILES IDX 41 68 42 69 46 70 49 71 43 72 44 73 47 74 45 75 71 76 72 77
REMARK SMILES IDX 80 78 73 79 74 80 78 81 81 82 75 83 76 84 79 85 77 86 56 87
REMARK SMILES IDX 57 88 65 89 58 90 59 91 63 92 66 93 60 94 61 95 64 96 62 97
REMARK H PARENT 22 6 27 31 86 50 54 61
REMARK Flexibility Score: inf
ROOT
ATOM      1  C   UNL     1       2.259   5.713   6.353  1.00  0.00     0.023 C 
ENDROOT
BRANCH   1   2
ATOM      2  C   UNL     1       1.330   4.702   5.678  1.00  0.00     0.116 C 
BRANCH   2   3
ATOM      3  N   UNL     1       1.211   5.077   4.288  1.00  0.00    -0.356 N 
ATOM      4  C   UNL     1       2.132   4.716   3.329  1.00  0.00     0.229 C 
ATOM      5  O   UNL     1       2.460   5.547   2.484  1.00  0.00    -0.274 OA
ATOM      6  H   UNL     1       0.435   5.617   4.013  1.00  0.00     0.163 HD
BRANCH   4   7
ATOM      7  C   UNL     1       2.624   3.229   3.388  1.00  0.00     0.086 C 
ATOM      8  N   UNL     1       1.442   1.661   1.812  1.00  0.00    -0.201 NA
ATOM      9  C   UNL     1       2.655   0.983   2.225  1.00  0.00     0.108 C 
ATOM     10  C   UNL     1       1.688   3.113   2.078  1.00  0.00     0.121 C 
ATOM     11  C   UNL     1       3.532   2.114   2.727  1.00  0.00     0.042 C 
ATOM     12  C   UNL     1       4.480   1.602   3.796  1.00  0.00     0.125 C 
ATOM     13  C   UNL     1       3.990   3.869   3.975  1.00  0.00     0.138 C 
ATOM     14  N   UNL     1       4.774   2.781   4.550  1.00  0.00    -0.341 N 
BRANCH   8  15
ATOM     15  S   UNL     1       0.743   1.372   0.297  1.00  0.00     0.211 S 
ATOM     16  C   UNL     1       0.874  -0.390   0.080  1.00  0.00     0.176 C 
ATOM     17  O   UNL     1       1.592   1.994  -0.702  1.00  0.00    -0.213 OA
ATOM     18  O   UNL     1      -0.653   1.723   0.409  1.00  0.00    -0.213 OA
ENDBRANCH   8  15
BRANCH  14  19
ATOM     19  C   UNL     1       5.651   2.695   5.609  1.00  0.00     0.225 C 
ATOM     20  O   UNL     1       6.141   1.588   5.884  1.00  0.00    -0.275 OA
BRANCH  19  21
ATOM     21  C   UNL     1       5.988   3.853   6.564  1.00  0.00     0.083 C 
ATOM     22  C   UNL     1       5.066   3.800   7.793  1.00  0.00     0.042 C 
ATOM     23  C   UNL     1       6.205   5.245   5.969  1.00  0.00     0.042 C 
ATOM     24  C   UNL     1       5.165   5.041   8.672  1.00  0.00     0.161 C 
ATOM     25  C   UNL     1       6.260   6.328   7.037  1.00  0.00     0.161 C 
ATOM     26  O   UNL     1       5.124   6.232   7.891  1.00  0.00    -0.381 OA
ENDBRANCH  19  21
ENDBRANCH  14  19
ENDBRANCH   4   7
ENDBRANCH   2   3
ENDBRANCH   1   2
BRANCH   1  27
ATOM     27  C   UNL     1       1.603   6.710   7.274  1.00  0.00     0.023 C 
BRANCH  27  28
ATOM     28  C   UNL     1       0.755   6.090   8.362  1.00  0.00     0.116 C 
BRANCH  28  29
ATOM     29  N   UNL     1       1.459   5.165   9.246  1.00  0.00    -0.352 N 
ATOM     30  C   UNL     1       1.569   5.185  10.621  1.00  0.00     0.251 C 
ATOM     31  H   UNL     1       1.921   4.420   8.796  1.00  0.00     0.163 HD
ATOM     32  O   UNL     1       2.272   4.368  11.206  1.00  0.00    -0.269 OA
BRANCH  30  33
ATOM     33  C   UNL     1       0.873   6.250  11.374  1.00  0.00     0.039 A 
ATOM     34  C   UNL     1       1.567   6.981  12.338  1.00  0.00     0.014 A 
ATOM     35  C   UNL     1      -0.419   6.617  11.010  1.00  0.00     0.014 A 
ATOM     36  C   UNL     1       1.005   8.160  12.835  1.00  0.00     0.010 A 
ATOM     37  C   UNL     1      -0.885   7.873  11.360  1.00  0.00     0.010 A 
ATOM     38  C   UNL     1      -0.191   8.659  12.290  1.00  0.00    -0.014 A 
BRANCH  38  39
ATOM     39  C   UNL     1      -0.751   9.984  12.672  1.00  0.00     0.031 A 
ATOM     40  C   UNL     1      -2.178  10.080  13.152  1.00  0.00     0.074 A 
ATOM     41  C   UNL     1      -0.025  11.106  12.492  1.00  0.00     0.049 A 
ATOM     42  N   UNL     1      -2.898  11.142  13.412  1.00  0.00    -0.248 NA
ATOM     43  C   UNL     1      -2.915   8.813  13.306  1.00  0.00     0.031 C 
ATOM     44  C   UNL     1       1.335  11.166  11.954  1.00  0.00     0.029 A 
ATOM     45  N   UNL     1      -0.337  12.422  12.736  1.00  0.00    -0.354 N 
ATOM     46  C   UNL     1      -4.168  10.669  13.720  1.00  0.00     0.074 A 
ATOM     47  C   UNL     1      -4.147   9.238  13.528  1.00  0.00     0.031 C 
ATOM     48  C   UNL     1       1.756  12.441  11.952  1.00  0.00     0.029 A 
ATOM     49  C   UNL     1       0.681  13.297  12.440  1.00  0.00     0.049 A 
ATOM     50  H   UNL     1      -1.209  12.711  13.090  1.00  0.00     0.167 HD
ATOM     51  C   UNL     1      -5.245  11.357  14.165  1.00  0.00     0.037 A 
ATOM     52  C   UNL     1       0.738  14.638  12.546  1.00  0.00     0.037 A 
ATOM     53  C   UNL     1      -5.245  12.774  14.408  1.00  0.00     0.049 A 
ATOM     54  C   UNL     1      -0.463  15.379  13.070  1.00  0.00     0.074 A 
ATOM     55  C   UNL     1      -6.253  13.557  14.941  1.00  0.00     0.029 A 
ATOM     56  N   UNL     1      -4.180  13.619  14.136  1.00  0.00    -0.354 N 
ATOM     57  N   UNL     1      -1.630  14.911  13.441  1.00  0.00    -0.248 NA
ATOM     58  C   UNL     1      -0.335  16.837  13.198  1.00  0.00     0.031 C 
ATOM     59  C   UNL     1      -5.817  14.886  14.940  1.00  0.00     0.029 A 
ATOM     60  C   UNL     1      -4.515  14.922  14.466  1.00  0.00     0.049 A 
ATOM     61  H   UNL     1      -3.314  13.336  13.763  1.00  0.00     0.167 HD
ATOM     62  C   UNL     1      -2.365  16.008  13.868  1.00  0.00     0.074 A 
ATOM     63  C   UNL     1      -1.502  17.163  13.735  1.00  0.00     0.031 C 
ATOM     64  C   UNL     1      -3.641  16.059  14.326  1.00  0.00     0.037 A 
BRANCH  51  65
ATOM     65  C   UNL     1      -6.504  10.581  14.433  1.00  0.00     0.064 A 
ATOM     66  C   UNL     1      -6.585   9.636  15.469  1.00  0.00     0.173 A 
ATOM     67  C   UNL     1      -7.653  10.798  13.658  1.00  0.00     0.173 A 
ATOM     68  F   UNL     1      -5.513   9.377  16.233  1.00  0.00    -0.203 F 
ATOM     69  C   UNL     1      -7.753   8.912  15.693  1.00  0.00     0.198 A 
ATOM     70  C   UNL     1      -8.832  10.100  13.909  1.00  0.00     0.198 A 
ATOM     71  F   UNL     1      -7.635  11.691  12.656  1.00  0.00    -0.203 F 
ATOM     72  F   UNL     1      -7.783   7.969  16.645  1.00  0.00    -0.200 F 
ATOM     73  C   UNL     1      -8.878   9.151  14.918  1.00  0.00     0.200 A 
ATOM     74  F   UNL     1      -9.922  10.342  13.169  1.00  0.00    -0.200 F 
ATOM     75  F   UNL     1     -10.004   8.459  15.139  1.00  0.00    -0.200 F 
ENDBRANCH  51  65
BRANCH  52  76
ATOM     76  C   UNL     1       1.984  15.366  12.181  1.00  0.00     0.064 A 
ATOM     77  C   UNL     1       2.760  16.002  13.161  1.00  0.00     0.173 A 
ATOM     78  C   UNL     1       2.421  15.451  10.851  1.00  0.00     0.173 A 
ATOM     79  F   UNL     1       2.374  15.967  14.445  1.00  0.00    -0.203 F 
ATOM     80  C   UNL     1       3.909  16.714  12.824  1.00  0.00     0.198 A 
ATOM     81  C   UNL     1       3.589  16.136  10.518  1.00  0.00     0.198 A 
ATOM     82  F   UNL     1       1.721  14.857   9.874  1.00  0.00    -0.203 F 
ATOM     83  F   UNL     1       4.601  17.356  13.775  1.00  0.00    -0.200 F 
ATOM     84  C   UNL     1       4.326  16.776  11.503  1.00  0.00     0.200 A 
ATOM     85  F   UNL     1       3.997  16.180   9.243  1.00  0.00    -0.200 F 
ATOM     86  F   UNL     1       5.433  17.457  11.179  1.00  0.00    -0.200 F 
ENDBRANCH  52  76
BRANCH  64  87
ATOM     87  C   UNL     1      -4.167  17.402  14.745  1.00  0.00     0.064 A 
ATOM     88  C   UNL     1      -4.430  18.415  13.811  1.00  0.00     0.173 A 
ATOM     89  C   UNL     1      -4.435  17.668  16.096  1.00  0.00     0.173 A 
ATOM     90  F   UNL     1      -4.179  18.215  12.508  1.00  0.00    -0.203 F 
ATOM     91  C   UNL     1      -4.907  19.657  14.219  1.00  0.00     0.198 A 
ATOM     92  C   UNL     1      -4.948  18.899  16.496  1.00  0.00     0.198 A 
ATOM     93  F   UNL     1      -4.212  16.731  17.029  1.00  0.00    -0.203 F 
ATOM     94  F   UNL     1      -5.092  20.631  13.316  1.00  0.00    -0.200 F 
ATOM     95  C   UNL     1      -5.172  19.896  15.559  1.00  0.00     0.200 A 
ATOM     96  F   UNL     1      -5.221  19.121  17.789  1.00  0.00    -0.200 F 
ATOM     97  F   UNL     1      -5.635  21.091  15.949  1.00  0.00    -0.200 F 
ENDBRANCH  64  87
ENDBRANCH  38  39
ENDBRANCH  30  33
ENDBRANCH  28  29
ENDBRANCH  27  28
ENDBRANCH   1  27
TORSDOF 14
