REMARK SMILES O=C(NCCCCNC(=O)c1ccccc1Sc1ccc(S(=O)(=O)N2CCCC2)cc1[N+](=O)[O-])c1ccc(-c2c3nc(c(-c4c(F)c(F)c(F)c(F)c4F)c4ccc([nH]4)c(-c4c(F)c(F)c(F)c(F)c4F)c4nc(c(-c5c(F)c(F)c(F)c(F)c5F)c5ccc2[nH]5)C=C4)C=C3)cc1
REMARK SMILES IDX 6 1 5 2 4 3 3 4 1 5 2 6 35 8 36 9 97 10 37 11 96 12 38 13
REMARK SMILES IDX 39 14 40 15 90 16 41 17 95 18 89 19 91 20 42 21 94 22 88 23
REMARK SMILES IDX 87 24 43 26 75 27 55 28 74 29 56 30 59 31 73 32 92 33 57 34
REMARK SMILES IDX 58 35 72 37 93 38 60 39 44 40 45 41 53 42 46 43 47 44 51 45
REMARK SMILES IDX 54 46 48 47 49 48 52 49 50 50 76 51 77 52 85 53 78 54 79 55
REMARK SMILES IDX 83 56 86 57 80 58 81 59 84 60 82 61 61 62 62 63 70 64 63 65
REMARK SMILES IDX 64 66 68 67 71 68 65 69 66 70 69 71 67 72 7 73 8 74 9 75
REMARK SMILES IDX 10 77 11 78 12 79 16 80 13 81 15 82 14 83 17 84 18 85 19 86
REMARK SMILES IDX 31 87 20 88 30 89 21 90 32 91 33 92 34 93 22 94 23 95 24 96
REMARK SMILES IDX 25 97 26 98 29 99 27 100 28 101
REMARK H PARENT 3 7 91 25 59 36 8 76
REMARK Flexibility Score: inf
ROOT
ATOM      1  C   UNL     1       4.168  -0.536  -4.013  1.00  0.00     0.023 C 
ENDROOT
BRANCH   1   2
ATOM      2  C   UNL     1       4.661  -1.067  -2.666  1.00  0.00     0.023 C 
BRANCH   2   3
ATOM      3  C   UNL     1       4.394  -0.168  -1.470  1.00  0.00     0.116 C 
BRANCH   3   4
ATOM      4  N   UNL     1       2.981   0.019  -1.176  1.00  0.00    -0.352 N 
ATOM      5  O   UNL     1       1.089  -0.074   0.060  1.00  0.00    -0.269 OA
ATOM      6  C   UNL     1       2.306  -0.211   0.002  1.00  0.00     0.251 C 
ATOM      7  H   UNL     1       2.433   0.356  -1.921  1.00  0.00     0.163 HD
BRANCH   6   8
ATOM      8  C   UNL     1       3.059  -0.663   1.191  1.00  0.00     0.039 A 
ATOM      9  C   UNL     1       4.215   0.008   1.589  1.00  0.00     0.014 A 
ATOM     10  C   UNL     1       2.633  -1.801   1.879  1.00  0.00     0.014 A 
ATOM     11  C   UNL     1       5.039  -0.555   2.554  1.00  0.00     0.010 A 
ATOM     12  C   UNL     1       3.414  -2.311   2.922  1.00  0.00     0.010 A 
ATOM     13  C   UNL     1       4.645  -1.716   3.241  1.00  0.00    -0.014 A 
BRANCH  13  14
ATOM     14  C   UNL     1       5.515  -2.249   4.322  1.00  0.00     0.031 A 
ATOM     15  C   UNL     1       6.142  -3.614   4.227  1.00  0.00     0.074 A 
ATOM     16  C   UNL     1       5.767  -1.465   5.389  1.00  0.00     0.049 A 
ATOM     17  N   UNL     1       6.929  -4.222   5.082  1.00  0.00    -0.248 NA
ATOM     18  C   UNL     1       5.839  -4.407   3.027  1.00  0.00     0.031 C 
ATOM     19  C   UNL     1       5.205  -0.129   5.601  1.00  0.00     0.029 A 
ATOM     20  N   UNL     1       6.566  -1.666   6.485  1.00  0.00    -0.354 N 
ATOM     21  C   UNL     1       7.213  -5.463   4.526  1.00  0.00     0.074 A 
ATOM     22  C   UNL     1       6.476  -5.542   3.282  1.00  0.00     0.031 C 
ATOM     23  C   UNL     1       5.709   0.387   6.729  1.00  0.00     0.029 A 
ATOM     24  C   UNL     1       6.574  -0.605   7.357  1.00  0.00     0.049 A 
ATOM     25  H   UNL     1       7.085  -2.490   6.632  1.00  0.00     0.167 HD
ATOM     26  C   UNL     1       8.026  -6.437   5.003  1.00  0.00     0.037 A 
ATOM     27  C   UNL     1       7.188  -0.453   8.543  1.00  0.00     0.037 A 
ATOM     28  C   UNL     1       8.761  -6.350   6.242  1.00  0.00     0.049 A 
ATOM     29  C   UNL     1       8.056  -1.564   9.061  1.00  0.00     0.074 A 
ATOM     30  C   UNL     1       9.616  -7.281   6.808  1.00  0.00     0.029 A 
ATOM     31  N   UNL     1       8.727  -5.266   7.108  1.00  0.00    -0.354 N 
ATOM     32  N   UNL     1       8.333  -2.722   8.514  1.00  0.00    -0.248 NA
ATOM     33  C   UNL     1       8.700  -1.343  10.362  1.00  0.00     0.031 C 
ATOM     34  C   UNL     1      10.061  -6.782   8.037  1.00  0.00     0.029 A 
ATOM     35  C   UNL     1       9.532  -5.514   8.211  1.00  0.00     0.049 A 
ATOM     36  H   UNL     1       8.209  -4.442   6.962  1.00  0.00     0.167 HD
ATOM     37  C   UNL     1       9.197  -3.360   9.392  1.00  0.00     0.074 A 
ATOM     38  C   UNL     1       9.423  -2.446  10.492  1.00  0.00     0.031 C 
ATOM     39  C   UNL     1       9.748  -4.595   9.300  1.00  0.00     0.037 A 
BRANCH  26  40
ATOM     40  C   UNL     1       8.171  -7.693   4.188  1.00  0.00     0.064 A 
ATOM     41  C   UNL     1       8.862  -7.701   2.967  1.00  0.00     0.173 A 
ATOM     42  C   UNL     1       7.672  -8.916   4.664  1.00  0.00     0.173 A 
ATOM     43  F   UNL     1       9.355  -6.560   2.462  1.00  0.00    -0.203 F 
ATOM     44  C   UNL     1       9.030  -8.880   2.244  1.00  0.00     0.198 A 
ATOM     45  C   UNL     1       7.868 -10.098   3.953  1.00  0.00     0.198 A 
ATOM     46  F   UNL     1       7.012  -8.970   5.830  1.00  0.00    -0.203 F 
ATOM     47  F   UNL     1       9.660  -8.855   1.061  1.00  0.00    -0.200 F 
ATOM     48  C   UNL     1       8.541 -10.078   2.741  1.00  0.00     0.200 A 
ATOM     49  F   UNL     1       7.410 -11.258   4.445  1.00  0.00    -0.200 F 
ATOM     50  F   UNL     1       8.717 -11.214   2.052  1.00  0.00    -0.200 F 
ENDBRANCH  26  40
BRANCH  27  51
ATOM     51  C   UNL     1       6.983   0.793   9.328  1.00  0.00     0.064 A 
ATOM     52  C   UNL     1       8.036   1.685   9.566  1.00  0.00     0.173 A 
ATOM     53  C   UNL     1       5.725   1.109   9.865  1.00  0.00     0.173 A 
ATOM     54  F   UNL     1       9.261   1.420   9.090  1.00  0.00    -0.203 F 
ATOM     55  C   UNL     1       7.846   2.830  10.338  1.00  0.00     0.198 A 
ATOM     56  C   UNL     1       5.528   2.273  10.602  1.00  0.00     0.198 A 
ATOM     57  F   UNL     1       4.681   0.292   9.660  1.00  0.00    -0.203 F 
ATOM     58  F   UNL     1       8.884   3.636  10.602  1.00  0.00    -0.200 F 
ATOM     59  C   UNL     1       6.592   3.127  10.849  1.00  0.00     0.200 A 
ATOM     60  F   UNL     1       4.309   2.565  11.076  1.00  0.00    -0.200 F 
ATOM     61  F   UNL     1       6.410   4.229  11.588  1.00  0.00    -0.200 F 
ENDBRANCH  27  51
BRANCH  39  62
ATOM     62  C   UNL     1      10.674  -5.011  10.408  1.00  0.00     0.064 A 
ATOM     63  C   UNL     1      10.204  -5.273  11.704  1.00  0.00     0.173 A 
ATOM     64  C   UNL     1      12.050  -5.148  10.169  1.00  0.00     0.173 A 
ATOM     65  F   UNL     1       8.899  -5.139  11.989  1.00  0.00    -0.203 F 
ATOM     66  C   UNL     1      11.081  -5.616  12.729  1.00  0.00     0.198 A 
ATOM     67  C   UNL     1      12.920  -5.527  11.188  1.00  0.00     0.198 A 
ATOM     68  F   UNL     1      12.552  -4.916   8.947  1.00  0.00    -0.203 F 
ATOM     69  F   UNL     1      10.618  -5.794  13.973  1.00  0.00    -0.200 F 
ATOM     70  C   UNL     1      12.437  -5.747  12.469  1.00  0.00     0.200 A 
ATOM     71  F   UNL     1      14.228  -5.667  10.932  1.00  0.00    -0.200 F 
ATOM     72  F   UNL     1      13.281  -6.076  13.457  1.00  0.00    -0.200 F 
ENDBRANCH  39  62
ENDBRANCH  13  14
ENDBRANCH   6   8
ENDBRANCH   3   4
ENDBRANCH   2   3
ENDBRANCH   1   2
BRANCH   1  73
ATOM     73  C   UNL     1       4.595   0.887  -4.361  1.00  0.00     0.116 C 
BRANCH  73  74
ATOM     74  N   UNL     1       6.033   1.059  -4.335  1.00  0.00    -0.352 N 
ATOM     75  C   UNL     1       6.802   1.879  -5.110  1.00  0.00     0.252 C 
ATOM     76  H   UNL     1       6.518   0.514  -3.674  1.00  0.00     0.163 HD
ATOM     77  O   UNL     1       8.024   1.854  -4.990  1.00  0.00    -0.269 OA
BRANCH  75  78
ATOM     78  C   UNL     1       6.191   2.763  -6.120  1.00  0.00     0.053 A 
ATOM     79  C   UNL     1       6.595   2.456  -7.436  1.00  0.00     0.015 A 
ATOM     80  C   UNL     1       5.321   3.842  -5.870  1.00  0.00     0.025 A 
ATOM     81  C   UNL     1       6.080   3.154  -8.522  1.00  0.00     0.001 A 
ATOM     82  C   UNL     1       4.791   4.506  -6.996  1.00  0.00     0.016 A 
ATOM     83  C   UNL     1       5.156   4.165  -8.302  1.00  0.00     0.001 A 
BRANCH  80  84
ATOM     84  S   UNL     1       4.752   4.566  -4.324  1.00  0.00    -0.082 SA
BRANCH  84  85
ATOM     85  C   UNL     1       5.901   4.155  -3.031  1.00  0.00     0.090 A 
ATOM     86  C   UNL     1       5.298   3.729  -1.828  1.00  0.00     0.024 A 
ATOM     87  C   UNL     1       7.294   4.099  -3.102  1.00  0.00     0.284 A 
ATOM     88  C   UNL     1       6.037   3.100  -0.822  1.00  0.00     0.023 A 
ATOM     89  C   UNL     1       8.001   3.314  -2.178  1.00  0.00     0.108 A 
ATOM     90  C   UNL     1       7.375   2.799  -1.049  1.00  0.00     0.089 A 
BRANCH  87  91
ATOM     91  N   UNL     1       8.082   4.851  -4.094  1.00  0.00     0.063 N 
ATOM     92  O   UNL     1       9.296   4.607  -4.166  1.00  0.00    -0.258 OA
ATOM     93  O   UNL     1       7.525   5.758  -4.723  1.00  0.00    -0.258 OA
ENDBRANCH  87  91
BRANCH  90  94
ATOM     94  S   UNL     1       8.213   1.714   0.090  1.00  0.00     0.243 S 
ATOM     95  O   UNL     1       7.719   2.068   1.407  1.00  0.00    -0.207 OA
ATOM     96  O   UNL     1       8.022   0.383  -0.442  1.00  0.00    -0.207 OA
BRANCH  94  97
ATOM     97  N   UNL     1       9.843   2.104   0.036  1.00  0.00    -0.198 NA
ATOM     98  C   UNL     1      10.321   3.406   0.520  1.00  0.00     0.102 C 
ATOM     99  C   UNL     1      10.701   1.651  -1.076  1.00  0.00     0.102 C 
ATOM    100  C   UNL     1      10.941   4.054  -0.705  1.00  0.00     0.018 C 
ATOM    101  C   UNL     1      11.482   2.889  -1.524  1.00  0.00     0.018 C 
ENDBRANCH  94  97
ENDBRANCH  90  94
ENDBRANCH  84  85
ENDBRANCH  80  84
ENDBRANCH  75  78
ENDBRANCH  73  74
ENDBRANCH   1  73
TORSDOF 16
