REMARK SMILES C[C@@H]([C@H](C)O)[C@@H](Cc1ccccc1)C(=O)NCCCCNC(=O)c1ccc(-c2c3nc(c(-c4c(F)c(F)c(F)c(F)c4F)c4ccc([nH]4)c(-c4c(F)c(F)c(F)c(F)c4F)c4nc(c(-c5c(F)c(F)c(F)c(F)c5F)c5ccc2[nH]5)C=C4)C=C3)cc1
REMARK SMILES IDX 18 1 17 2 16 3 14 4 15 5 6 7 2 8 1 9 3 10 4 11 5 12 7 14
REMARK SMILES IDX 8 15 9 16 13 17 10 18 12 19 11 20 19 21 20 22 21 23 22 24
REMARK SMILES IDX 23 26 24 27 25 28 86 29 26 30 85 31 27 32 28 33 29 34 79 35
REMARK SMILES IDX 30 36 84 37 78 38 80 39 31 40 83 41 77 42 76 43 32 45 64 46
REMARK SMILES IDX 44 47 63 48 45 49 48 50 62 51 81 52 46 53 47 54 61 56 82 57
REMARK SMILES IDX 49 58 33 59 34 60 42 61 35 62 36 63 40 64 43 65 37 66 38 67
REMARK SMILES IDX 41 68 39 69 65 70 66 71 74 72 67 73 68 74 72 75 75 76 69 77
REMARK SMILES IDX 70 78 73 79 71 80 50 81 51 82 59 83 52 84 53 85 57 86 60 87
REMARK SMILES IDX 54 88 55 89 58 90 56 91
REMARK H PARENT 16 6 5 13 21 25 80 44 48 55
REMARK Flexibility Score: inf
ROOT
ATOM      1  C   UNL     1       3.236   1.321   5.126  1.00  0.00     0.023 C 
ENDROOT
BRANCH   1   2
ATOM      2  C   UNL     1       2.283   2.088   4.223  1.00  0.00     0.116 C 
BRANCH   2   3
ATOM      3  N   UNL     1       2.572   1.979   2.810  1.00  0.00    -0.356 N 
ATOM      4  C   UNL     1       1.721   1.837   1.757  1.00  0.00     0.223 C 
ATOM      5  O   UNL     1       2.191   2.014   0.628  1.00  0.00    -0.275 OA
ATOM      6  H   UNL     1       3.527   2.012   2.574  1.00  0.00     0.163 HD
BRANCH   4   7
ATOM      7  C   UNL     1       0.243   1.442   1.907  1.00  0.00     0.088 C 
BRANCH   7   8
ATOM      8  C   UNL     1       0.016   0.113   2.688  1.00  0.00     0.027 C 
ATOM      9  C   UNL     1      -1.463  -0.305   2.730  1.00  0.00     0.011 C 
BRANCH   8  10
ATOM     10  C   UNL     1       0.914  -1.042   2.147  1.00  0.00     0.115 C 
ATOM     11  C   UNL     1       0.687  -1.425   0.685  1.00  0.00     0.038 C 
BRANCH  10  12
ATOM     12  O   UNL     1       0.733  -2.201   2.965  1.00  0.00    -0.393 OA
ATOM     13  H   UNL     1      -0.185  -2.507   2.893  1.00  0.00     0.210 HD
ENDBRANCH  10  12
ENDBRANCH   8  10
ENDBRANCH   7   8
BRANCH   7  14
ATOM     14  C   UNL     1      -0.673   2.659   2.205  1.00  0.00     0.049 C 
BRANCH  14  15
ATOM     15  C   UNL     1      -0.501   3.422   3.495  1.00  0.00    -0.047 A 
ATOM     16  C   UNL     1       0.191   4.644   3.500  1.00  0.00     0.004 A 
ATOM     17  C   UNL     1      -1.003   2.932   4.709  1.00  0.00     0.004 A 
ATOM     18  C   UNL     1       0.429   5.324   4.697  1.00  0.00     0.000 A 
ATOM     19  C   UNL     1      -0.752   3.607   5.907  1.00  0.00     0.000 A 
ATOM     20  C   UNL     1      -0.026   4.796   5.902  1.00  0.00     0.000 A 
ENDBRANCH  14  15
ENDBRANCH   7  14
ENDBRANCH   4   7
ENDBRANCH   2   3
ENDBRANCH   1   2
BRANCH   1  21
ATOM     21  C   UNL     1       4.565   2.021   5.399  1.00  0.00     0.023 C 
BRANCH  21  22
ATOM     22  C   UNL     1       4.479   3.469   5.879  1.00  0.00     0.116 C 
BRANCH  22  23
ATOM     23  N   UNL     1       3.621   3.671   7.037  1.00  0.00    -0.352 N 
ATOM     24  C   UNL     1       3.808   4.512   8.111  1.00  0.00     0.251 C 
ATOM     25  H   UNL     1       2.797   3.133   7.055  1.00  0.00     0.163 HD
ATOM     26  O   UNL     1       3.009   4.530   9.036  1.00  0.00    -0.269 OA
BRANCH  24  27
ATOM     27  C   UNL     1       5.006   5.380   8.153  1.00  0.00     0.039 A 
ATOM     28  C   UNL     1       5.780   5.408   9.316  1.00  0.00     0.014 A 
ATOM     29  C   UNL     1       5.374   6.148   7.045  1.00  0.00     0.014 A 
ATOM     30  C   UNL     1       6.959   6.159   9.345  1.00  0.00     0.010 A 
ATOM     31  C   UNL     1       6.586   6.831   7.048  1.00  0.00     0.010 A 
ATOM     32  C   UNL     1       7.386   6.853   8.201  1.00  0.00    -0.014 A 
BRANCH  32  33
ATOM     33  C   UNL     1       8.649   7.636   8.204  1.00  0.00     0.031 A 
ATOM     34  C   UNL     1       8.605   9.130   8.037  1.00  0.00     0.074 A 
ATOM     35  C   UNL     1       9.835   7.004   8.304  1.00  0.00     0.049 A 
ATOM     36  N   UNL     1       9.593   9.988   7.973  1.00  0.00    -0.248 NA
ATOM     37  C   UNL     1       7.274   9.739   7.893  1.00  0.00     0.031 C 
ATOM     38  C   UNL     1      10.016   5.556   8.414  1.00  0.00     0.029 A 
ATOM     39  N   UNL     1      11.114   7.501   8.322  1.00  0.00    -0.354 N 
ATOM     40  C   UNL     1       9.002  11.228   7.766  1.00  0.00     0.074 A 
ATOM     41  C   UNL     1       7.578  11.005   7.654  1.00  0.00     0.031 C 
ATOM     42  C   UNL     1      11.327   5.283   8.515  1.00  0.00     0.029 A 
ATOM     43  C   UNL     1      12.080   6.532   8.449  1.00  0.00     0.049 A 
ATOM     44  H   UNL     1      11.320   8.461   8.252  1.00  0.00     0.167 HD
ATOM     45  C   UNL     1       9.590  12.447   7.705  1.00  0.00     0.037 A 
ATOM     46  C   UNL     1      13.421   6.643   8.510  1.00  0.00     0.037 A 
ATOM     47  C   UNL     1      11.005  12.670   7.848  1.00  0.00     0.049 A 
ATOM     48  C   UNL     1      14.050   8.011   8.461  1.00  0.00     0.074 A 
ATOM     49  C   UNL     1      11.694  13.870   7.851  1.00  0.00     0.029 A 
ATOM     50  N   UNL     1      11.947  11.667   8.015  1.00  0.00    -0.354 N 
ATOM     51  N   UNL     1      13.475   9.182   8.338  1.00  0.00    -0.248 NA
ATOM     52  C   UNL     1      15.514   8.071   8.577  1.00  0.00     0.031 C 
ATOM     53  C   UNL     1      13.058  13.590   7.983  1.00  0.00     0.029 A 
ATOM     54  C   UNL     1      13.214  12.220   8.114  1.00  0.00     0.049 A 
ATOM     55  H   UNL     1      11.746  10.704   8.058  1.00  0.00     0.167 HD
ATOM     56  C   UNL     1      14.499  10.118   8.401  1.00  0.00     0.074 A 
ATOM     57  C   UNL     1      15.730   9.378   8.583  1.00  0.00     0.031 C 
ATOM     58  C   UNL     1      14.427  11.470   8.318  1.00  0.00     0.037 A 
BRANCH  45  59
ATOM     59  C   UNL     1       8.698  13.634   7.484  1.00  0.00     0.064 A 
ATOM     60  C   UNL     1       7.800  14.073   8.470  1.00  0.00     0.173 A 
ATOM     61  C   UNL     1       8.754  14.355   6.282  1.00  0.00     0.173 A 
ATOM     62  F   UNL     1       7.697  13.410   9.632  1.00  0.00    -0.203 F 
ATOM     63  C   UNL     1       6.969  15.167   8.248  1.00  0.00     0.198 A 
ATOM     64  C   UNL     1       7.944  15.469   6.076  1.00  0.00     0.198 A 
ATOM     65  F   UNL     1       9.597  13.982   5.308  1.00  0.00    -0.203 F 
ATOM     66  F   UNL     1       6.080  15.532   9.182  1.00  0.00    -0.200 F 
ATOM     67  C   UNL     1       7.046  15.868   7.054  1.00  0.00     0.200 A 
ATOM     68  F   UNL     1       8.028  16.154   4.927  1.00  0.00    -0.200 F 
ATOM     69  F   UNL     1       6.248  16.924   6.843  1.00  0.00    -0.200 F 
ENDBRANCH  45  59
BRANCH  46  70
ATOM     70  C   UNL     1      14.262   5.428   8.671  1.00  0.00     0.064 A 
ATOM     71  C   UNL     1      14.945   5.181   9.871  1.00  0.00     0.173 A 
ATOM     72  C   UNL     1      14.413   4.498   7.633  1.00  0.00     0.173 A 
ATOM     73  F   UNL     1      14.849   6.051  10.887  1.00  0.00    -0.203 F 
ATOM     74  C   UNL     1      15.767   4.065  10.017  1.00  0.00     0.198 A 
ATOM     75  C   UNL     1      15.213   3.368   7.789  1.00  0.00     0.198 A 
ATOM     76  F   UNL     1      13.777   4.685   6.467  1.00  0.00    -0.203 F 
ATOM     77  F   UNL     1      16.448   3.881  11.156  1.00  0.00    -0.200 F 
ATOM     78  C   UNL     1      15.896   3.157   8.977  1.00  0.00     0.200 A 
ATOM     79  F   UNL     1      15.325   2.486   6.787  1.00  0.00    -0.200 F 
ATOM     80  F   UNL     1      16.686   2.084   9.117  1.00  0.00    -0.200 F 
ENDBRANCH  46  70
BRANCH  58  81
ATOM     81  C   UNL     1      15.704  12.241   8.482  1.00  0.00     0.064 A 
ATOM     82  C   UNL     1      16.701  12.243   7.495  1.00  0.00     0.173 A 
ATOM     83  C   UNL     1      15.916  13.017   9.632  1.00  0.00     0.173 A 
ATOM     84  F   UNL     1      16.551  11.507   6.383  1.00  0.00    -0.203 F 
ATOM     85  C   UNL     1      17.876  12.969   7.667  1.00  0.00     0.198 A 
ATOM     86  C   UNL     1      17.079  13.766   9.787  1.00  0.00     0.198 A 
ATOM     87  F   UNL     1      14.991  13.056  10.602  1.00  0.00    -0.203 F 
ATOM     88  F   UNL     1      18.837  12.916   6.735  1.00  0.00    -0.200 F 
ATOM     89  C   UNL     1      18.061  13.735   8.809  1.00  0.00     0.200 A 
ATOM     90  F   UNL     1      17.249  14.517  10.884  1.00  0.00    -0.200 F 
ATOM     91  F   UNL     1      19.191  14.438   8.970  1.00  0.00    -0.200 F 
ENDBRANCH  58  81
ENDBRANCH  32  33
ENDBRANCH  24  27
ENDBRANCH  22  23
ENDBRANCH  21  22
ENDBRANCH   1  21
TORSDOF 16
