REMARK SMILES C[N@H+]1CCCN(c2nc3ccccc3c(=O)n2CC(=O)NCCCCNC(=O)c2ccc(-c3c4nc(c(-c5c(F)c(F)c(F)c(F)c5F)c5ccc([nH]5)c(-c5c(F)c(F)c(F)c(F)c5F)c5nc(c(-c6c(F)c(F)c(F)c(F)c6F)c6ccc3[nH]6)C=C5)C=C4)cc2)CC1
REMARK SMILES IDX 19 1 20 2 21 3 18 5 17 6 7 7 8 8 9 9 15 10 10 11 14 12 16 13
REMARK SMILES IDX 11 14 13 15 12 16 6 17 5 18 4 19 3 20 2 21 1 22 93 24 92 26
REMARK SMILES IDX 22 28 23 29 24 30 25 31 26 32 27 33 28 35 29 36 30 37 91 38
REMARK SMILES IDX 31 39 90 40 32 41 33 42 34 43 84 44 35 45 89 46 83 47 85 48
REMARK SMILES IDX 36 49 88 50 82 51 81 52 37 54 69 55 49 56 68 57 50 58 53 59
REMARK SMILES IDX 67 60 86 61 51 62 52 63 66 65 87 66 54 67 38 68 39 69 47 70
REMARK SMILES IDX 40 71 41 72 45 73 48 74 42 75 43 76 46 77 44 78 70 79 71 80
REMARK SMILES IDX 79 81 72 82 73 83 77 84 80 85 74 86 75 87 78 88 76 89 55 90
REMARK SMILES IDX 56 91 64 92 57 93 58 94 62 95 65 96 59 97 60 98 63 99 61 100
REMARK H PARENT 21 4 2 23 26 34 85 53 53 64
REMARK Flexibility Score: 80.00
ROOT
ATOM      1  C   UNL     1      -2.005   3.695  -6.004  1.00  0.00     0.240 C 
ATOM      2  O   UNL     1      -2.983   3.427  -6.708  1.00  0.00    -0.273 OA
ATOM      3  N   UNL     1      -2.078   4.836  -5.254  1.00  0.00    -0.355 N 
ATOM      4  H   UNL     1      -2.748   5.498  -5.540  1.00  0.00     0.163 HD
ENDROOT
BRANCH   1   5
ATOM      5  C   UNL     1      -0.852   2.689  -5.826  1.00  0.00     0.229 C 
BRANCH   5   6
ATOM      6  N   UNL     1       0.487   3.268  -5.949  1.00  0.00    -0.269 N 
ATOM      7  C   UNL     1       1.425   3.313  -4.917  1.00  0.00     0.209 A 
ATOM      8  N   UNL     1       2.553   3.956  -5.057  1.00  0.00    -0.214 NA
ATOM      9  C   UNL     1       2.845   4.613  -6.253  1.00  0.00     0.080 A 
ATOM     10  C   UNL     1       0.772   3.775  -7.219  1.00  0.00     0.263 A 
ATOM     11  C   UNL     1       4.011   5.378  -6.339  1.00  0.00     0.029 A 
ATOM     12  C   UNL     1       2.006   4.556  -7.355  1.00  0.00     0.066 A 
ATOM     13  O   UNL     1       0.045   3.633  -8.200  1.00  0.00    -0.268 OA
ATOM     14  C   UNL     1       4.317   6.086  -7.506  1.00  0.00     0.002 A 
ATOM     15  C   UNL     1       2.297   5.259  -8.531  1.00  0.00     0.016 A 
ATOM     16  C   UNL     1       3.457   6.030  -8.602  1.00  0.00     0.001 A 
BRANCH   7  17
ATOM     17  N   UNL     1       1.183   2.723  -3.681  1.00  0.00    -0.336 N 
BRANCH  17  18
ATOM     18  C   UNL     1       1.579   3.473  -2.484  1.00  0.00     0.125 C 
BRANCH  18  19
ATOM     19  C   UNL     1       0.559   3.311  -1.366  1.00  0.00     0.083 C 
BRANCH  19  20
ATOM     20  C   UNL     1       0.878   2.134  -0.455  1.00  0.00     0.263 C 
BRANCH  20  21
ATOM     21  N   UNL     1       0.730   0.814  -1.082  1.00  0.00    -0.336 N 
ATOM     22  C   UNL     1       1.004  -0.218  -0.074  1.00  0.00     0.332 C 
ATOM     23  H   UNL     1      -0.228   0.741  -1.427  1.00  0.00     0.347 HD
BRANCH  21  24
ATOM     24  C   UNL     1       1.605   0.624  -2.259  1.00  0.00     0.283 CG0
ATOM     25  G   UNL     1       1.060   1.258  -3.561  1.00  0.00     0.000 G0
ENDBRANCH  21  24
ENDBRANCH  20  21
ENDBRANCH  19  20
ENDBRANCH  18  19
ENDBRANCH  17  18
BRANCH  17  26
ATOM     26  C   UNL     1       1.060   1.258  -3.561  1.00  0.00     0.181 CG0
ATOM     27  G   UNL     1       1.605   0.624  -2.259  1.00  0.00     0.000 G0
ENDBRANCH  17  26
ENDBRANCH   7  17
ENDBRANCH   5   6
ENDBRANCH   1   5
BRANCH   3  28
ATOM     28  C   UNL     1      -1.293   5.189  -4.097  1.00  0.00     0.116 C 
BRANCH  28  29
ATOM     29  C   UNL     1      -0.291   6.305  -4.374  1.00  0.00     0.023 C 
BRANCH  29  30
ATOM     30  C   UNL     1      -0.898   7.705  -4.427  1.00  0.00     0.023 C 
BRANCH  30  31
ATOM     31  C   UNL     1      -1.632   8.140  -3.164  1.00  0.00     0.116 C 
BRANCH  31  32
ATOM     32  N   UNL     1      -0.809   8.142  -1.962  1.00  0.00    -0.352 N 
ATOM     33  C   UNL     1      -0.959   8.934  -0.844  1.00  0.00     0.251 C 
ATOM     34  H   UNL     1      -0.059   7.504  -1.946  1.00  0.00     0.163 HD
ATOM     35  O   UNL     1      -0.157   8.888   0.080  1.00  0.00    -0.269 OA
BRANCH  33  36
ATOM     36  C   UNL     1      -2.086   9.890  -0.811  1.00  0.00     0.039 A 
ATOM     37  C   UNL     1      -3.383   9.449  -1.076  1.00  0.00     0.014 A 
ATOM     38  C   UNL     1      -1.818  11.250  -0.633  1.00  0.00     0.014 A 
ATOM     39  C   UNL     1      -4.378  10.381  -1.342  1.00  0.00     0.010 A 
ATOM     40  C   UNL     1      -2.841  12.182  -0.825  1.00  0.00     0.010 A 
ATOM     41  C   UNL     1      -4.113  11.757  -1.239  1.00  0.00    -0.014 A 
BRANCH  41  42
ATOM     42  C   UNL     1      -5.175  12.728  -1.605  1.00  0.00     0.031 A 
ATOM     43  C   UNL     1      -5.031  13.605  -2.819  1.00  0.00     0.074 A 
ATOM     44  C   UNL     1      -6.311  12.757  -0.884  1.00  0.00     0.049 A 
ATOM     45  N   UNL     1      -5.873  14.481  -3.309  1.00  0.00    -0.248 NA
ATOM     46  C   UNL     1      -3.781  13.484  -3.586  1.00  0.00     0.031 C 
ATOM     47  C   UNL     1      -6.577  11.934   0.295  1.00  0.00     0.029 A 
ATOM     48  N   UNL     1      -7.466  13.475  -1.059  1.00  0.00    -0.354 N 
ATOM     49  C   UNL     1      -5.250  15.026  -4.424  1.00  0.00     0.074 A 
ATOM     50  C   UNL     1      -3.949  14.401  -4.529  1.00  0.00     0.031 C 
ATOM     51  C   UNL     1      -7.839  12.142   0.699  1.00  0.00     0.029 A 
ATOM     52  C   UNL     1      -8.449  13.156  -0.156  1.00  0.00     0.049 A 
ATOM     53  H   UNL     1      -7.579  14.153  -1.764  1.00  0.00     0.167 HD
ATOM     54  C   UNL     1      -5.726  15.955  -5.288  1.00  0.00     0.037 A 
ATOM     55  C   UNL     1      -9.702  13.629  -0.028  1.00  0.00     0.037 A 
ATOM     56  C   UNL     1      -7.030  16.559  -5.198  1.00  0.00     0.049 A 
ATOM     57  C   UNL     1     -10.190  14.687  -0.973  1.00  0.00     0.074 A 
ATOM     58  C   UNL     1      -7.602  17.507  -6.028  1.00  0.00     0.029 A 
ATOM     59  N   UNL     1      -7.970  16.265  -4.221  1.00  0.00    -0.354 N 
ATOM     60  N   UNL     1      -9.580  15.214  -2.006  1.00  0.00    -0.248 NA
ATOM     61  C   UNL     1     -11.533  15.228  -0.724  1.00  0.00     0.031 C 
ATOM     62  C   UNL     1      -8.876  17.811  -5.535  1.00  0.00     0.029 A 
ATOM     63  C   UNL     1      -9.112  17.024  -4.420  1.00  0.00     0.049 A 
ATOM     64  H   UNL     1      -7.844  15.613  -3.494  1.00  0.00     0.167 HD
ATOM     65  C   UNL     1     -10.462  16.145  -2.533  1.00  0.00     0.074 A 
ATOM     66  C   UNL     1     -11.659  16.097  -1.718  1.00  0.00     0.031 C 
ATOM     67  C   UNL     1     -10.290  16.971  -3.594  1.00  0.00     0.037 A 
BRANCH  54  68
ATOM     68  C   UNL     1      -4.828  16.389  -6.409  1.00  0.00     0.064 A 
ATOM     69  C   UNL     1      -4.589  15.566  -7.519  1.00  0.00     0.173 A 
ATOM     70  C   UNL     1      -4.245  17.665  -6.398  1.00  0.00     0.173 A 
ATOM     71  F   UNL     1      -5.114  14.333  -7.569  1.00  0.00    -0.203 F 
ATOM     72  C   UNL     1      -3.786  16.000  -8.571  1.00  0.00     0.198 A 
ATOM     73  C   UNL     1      -3.461  18.104  -7.462  1.00  0.00     0.198 A 
ATOM     74  F   UNL     1      -4.447  18.492  -5.362  1.00  0.00    -0.203 F 
ATOM     75  F   UNL     1      -3.545  15.185  -9.607  1.00  0.00    -0.200 F 
ATOM     76  C   UNL     1      -3.229  17.270  -8.546  1.00  0.00     0.200 A 
ATOM     77  F   UNL     1      -2.932  19.335  -7.441  1.00  0.00    -0.200 F 
ATOM     78  F   UNL     1      -2.465  17.688  -9.564  1.00  0.00    -0.200 F 
ENDBRANCH  54  68
BRANCH  55  79
ATOM     79  C   UNL     1     -10.579  13.080   1.035  1.00  0.00     0.064 A 
ATOM     80  C   UNL     1     -11.644  12.229   0.715  1.00  0.00     0.173 A 
ATOM     81  C   UNL     1     -10.337  13.348   2.390  1.00  0.00     0.173 A 
ATOM     82  F   UNL     1     -11.923  11.960  -0.569  1.00  0.00    -0.203 F 
ATOM     83  C   UNL     1     -12.433  11.661   1.712  1.00  0.00     0.198 A 
ATOM     84  C   UNL     1     -11.111  12.761   3.387  1.00  0.00     0.198 A 
ATOM     85  F   UNL     1      -9.325  14.154   2.745  1.00  0.00    -0.203 F 
ATOM     86  F   UNL     1     -13.456  10.862   1.381  1.00  0.00    -0.200 F 
ATOM     87  C   UNL     1     -12.159  11.919   3.048  1.00  0.00     0.200 A 
ATOM     88  F   UNL     1     -10.834  13.000   4.676  1.00  0.00    -0.200 F 
ATOM     89  F   UNL     1     -12.905  11.356   4.007  1.00  0.00    -0.200 F 
ENDBRANCH  55  79
BRANCH  67  90
ATOM     90  C   UNL     1     -11.422  17.890  -3.938  1.00  0.00     0.064 A 
ATOM     91  C   UNL     1     -11.681  19.040  -3.178  1.00  0.00     0.173 A 
ATOM     92  C   UNL     1     -12.220  17.649  -5.066  1.00  0.00     0.173 A 
ATOM     93  F   UNL     1     -10.953  19.303  -2.083  1.00  0.00    -0.203 F 
ATOM     94  C   UNL     1     -12.708  19.911  -3.529  1.00  0.00     0.198 A 
ATOM     95  C   UNL     1     -13.233  18.533  -5.426  1.00  0.00     0.198 A 
ATOM     96  F   UNL     1     -12.007  16.565  -5.825  1.00  0.00    -0.203 F 
ATOM     97  F   UNL     1     -12.959  20.988  -2.773  1.00  0.00    -0.200 F 
ATOM     98  C   UNL     1     -13.478  19.661  -4.656  1.00  0.00     0.200 A 
ATOM     99  F   UNL     1     -13.970  18.296  -6.519  1.00  0.00    -0.200 F 
ATOM    100  F   UNL     1     -14.462  20.505  -4.997  1.00  0.00    -0.200 F 
ENDBRANCH  67  90
ENDBRANCH  41  42
ENDBRANCH  33  36
ENDBRANCH  31  32
ENDBRANCH  30  31
ENDBRANCH  29  30
ENDBRANCH  28  29
ENDBRANCH   3  28
TORSDOF 13
