REMARK SMILES C[C@H](C(=O)Nc1ccc(C(F)(F)F)cc1)n1nc(C(=O)NCCCCNC(=O)c2ccc(-c3c4nc(c(-c5c(F)c(F)c(F)c(F)c5F)c5ccc([nH]5)c(-c5c(F)c(F)c(F)c(F)c5F)c5nc(c(-c6c(F)c(F)c(F)c(F)c6F)c6ccc3[nH]6)C=C5)C=C4)cc2)c2ccccc2c1=O
REMARK SMILES IDX 22 1 21 2 19 3 20 4 18 6 16 7 17 8 98 9 97 10 99 11 92 12
REMARK SMILES IDX 96 13 93 14 95 15 94 16 2 17 1 18 3 19 4 20 5 21 6 23 7 24
REMARK SMILES IDX 15 25 8 26 14 27 9 28 10 29 11 30 12 31 13 32 23 33 24 34
REMARK SMILES IDX 25 35 26 36 27 37 28 39 29 40 30 41 91 42 31 43 90 44 32 45
REMARK SMILES IDX 33 46 34 47 84 48 35 49 89 50 83 51 85 52 36 53 88 54 82 55
REMARK SMILES IDX 81 56 37 58 69 59 49 60 68 61 50 62 53 63 67 64 86 65 51 66
REMARK SMILES IDX 52 67 66 69 87 70 54 71 38 72 39 73 47 74 40 75 41 76 45 77
REMARK SMILES IDX 48 78 42 79 43 80 46 81 44 82 70 83 71 84 79 85 72 86 73 87
REMARK SMILES IDX 77 88 80 89 74 90 75 91 78 92 76 93 55 94 56 95 64 96 57 97
REMARK SMILES IDX 58 98 62 99 65 100 59 101 60 102 63 103 61 104
REMARK H PARENT 21 5 5 22 26 38 85 57 53 68
REMARK Flexibility Score: inf
ROOT
ATOM      1  C   UNL     1      -2.741  -0.005   3.561  1.00  0.00     0.116 C 
ENDROOT
BRANCH   1   2
ATOM      2  N   UNL     1      -3.829   0.934   3.367  1.00  0.00    -0.351 N 
ATOM      3  C   UNL     1      -4.003   1.851   2.349  1.00  0.00     0.272 C 
ATOM      4  O   UNL     1      -4.849   2.723   2.467  1.00  0.00    -0.267 OA
ATOM      5  H   UNL     1      -4.537   0.916   4.051  1.00  0.00     0.163 HD
BRANCH   3   6
ATOM      6  C   UNL     1      -3.151   1.738   1.069  1.00  0.00     0.156 A 
ATOM      7  N   UNL     1      -1.154   1.013   0.118  1.00  0.00    -0.216 N 
ATOM      8  N   UNL     1      -1.927   1.325   1.215  1.00  0.00    -0.163 NA
ATOM      9  C   UNL     1      -1.620   1.112  -1.187  1.00  0.00     0.275 A 
ATOM     10  C   UNL     1      -2.972   1.681  -1.365  1.00  0.00     0.051 A 
ATOM     11  O   UNL     1      -1.002   0.743  -2.179  1.00  0.00    -0.267 OA
ATOM     12  C   UNL     1      -3.730   2.044  -0.255  1.00  0.00     0.020 A 
ATOM     13  C   UNL     1      -3.467   1.891  -2.662  1.00  0.00     0.014 A 
ATOM     14  C   UNL     1      -4.962   2.683  -0.452  1.00  0.00     0.011 A 
ATOM     15  C   UNL     1      -4.701   2.510  -2.849  1.00  0.00     0.001 A 
ATOM     16  C   UNL     1      -5.439   2.923  -1.744  1.00  0.00     0.001 A 
BRANCH   7  17
ATOM     17  C   UNL     1       0.251   0.687   0.443  1.00  0.00     0.197 C 
ATOM     18  C   UNL     1       1.054   1.968   0.691  1.00  0.00     0.044 C 
BRANCH  17  19
ATOM     19  C   UNL     1       1.049  -0.229  -0.512  1.00  0.00     0.249 C 
ATOM     20  O   UNL     1       1.722   0.234  -1.441  1.00  0.00    -0.272 OA
ATOM     21  N   UNL     1       1.167  -1.573  -0.279  1.00  0.00    -0.324 N 
ATOM     22  H   UNL     1       1.844  -2.017  -0.838  1.00  0.00     0.170 HD
BRANCH  21  23
ATOM     23  C   UNL     1       0.507  -2.436   0.603  1.00  0.00     0.041 A 
ATOM     24  C   UNL     1       1.223  -3.541   1.073  1.00  0.00     0.027 A 
ATOM     25  C   UNL     1      -0.826  -2.287   0.973  1.00  0.00     0.027 A 
ATOM     26  C   UNL     1       0.636  -4.445   1.964  1.00  0.00     0.015 A 
ATOM     27  C   UNL     1      -1.426  -3.205   1.843  1.00  0.00     0.015 A 
ATOM     28  C   UNL     1      -0.695  -4.280   2.367  1.00  0.00     0.056 A 
BRANCH  28  29
ATOM     29  C   UNL     1      -1.345  -5.267   3.303  1.00  0.00     0.416 C 
ATOM     30  F   UNL     1      -1.917  -6.314   2.651  1.00  0.00    -0.166 F 
ATOM     31  F   UNL     1      -0.477  -5.809   4.202  1.00  0.00    -0.166 F 
ATOM     32  F   UNL     1      -2.337  -4.705   4.053  1.00  0.00    -0.166 F 
ENDBRANCH  28  29
ENDBRANCH  21  23
ENDBRANCH  17  19
ENDBRANCH   7  17
ENDBRANCH   3   6
ENDBRANCH   1   2
BRANCH   1  33
ATOM     33  C   UNL     1      -1.554   0.679   4.251  1.00  0.00     0.023 C 
BRANCH  33  34
ATOM     34  C   UNL     1      -1.503   0.406   5.756  1.00  0.00     0.023 C 
BRANCH  34  35
ATOM     35  C   UNL     1      -1.098  -1.024   6.095  1.00  0.00     0.116 C 
BRANCH  35  36
ATOM     36  N   UNL     1       0.281  -1.327   5.743  1.00  0.00    -0.352 N 
ATOM     37  C   UNL     1       1.089  -2.304   6.274  1.00  0.00     0.251 C 
ATOM     38  H   UNL     1       0.683  -0.765   5.042  1.00  0.00     0.163 HD
ATOM     39  O   UNL     1       2.271  -2.382   5.960  1.00  0.00    -0.269 OA
BRANCH  37  40
ATOM     40  C   UNL     1       0.522  -3.240   7.268  1.00  0.00     0.039 A 
ATOM     41  C   UNL     1       1.184  -3.421   8.484  1.00  0.00     0.014 A 
ATOM     42  C   UNL     1      -0.676  -3.909   7.010  1.00  0.00     0.014 A 
ATOM     43  C   UNL     1       0.610  -4.230   9.467  1.00  0.00     0.010 A 
ATOM     44  C   UNL     1      -1.275  -4.671   8.006  1.00  0.00     0.010 A 
ATOM     45  C   UNL     1      -0.636  -4.838   9.242  1.00  0.00    -0.014 A 
BRANCH  45  46
ATOM     46  C   UNL     1      -1.287  -5.661  10.288  1.00  0.00     0.031 A 
ATOM     47  C   UNL     1      -1.426  -7.143  10.097  1.00  0.00     0.074 A 
ATOM     48  C   UNL     1      -1.814  -5.059  11.370  1.00  0.00     0.049 A 
ATOM     49  N   UNL     1      -1.992  -8.028  10.878  1.00  0.00    -0.248 NA
ATOM     50  C   UNL     1      -0.883  -7.702   8.848  1.00  0.00     0.031 C 
ATOM     51  C   UNL     1      -1.809  -3.617  11.624  1.00  0.00     0.029 A 
ATOM     52  N   UNL     1      -2.471  -5.586  12.453  1.00  0.00    -0.354 N 
ATOM     53  C   UNL     1      -1.873  -9.243  10.217  1.00  0.00     0.074 A 
ATOM     54  C   UNL     1      -1.235  -8.976   8.947  1.00  0.00     0.031 C 
ATOM     55  C   UNL     1      -2.427  -3.375  12.791  1.00  0.00     0.029 A 
ATOM     56  C   UNL     1      -2.877  -4.641  13.362  1.00  0.00     0.049 A 
ATOM     57  H   UNL     1      -2.636  -6.550  12.567  1.00  0.00     0.167 HD
ATOM     58  C   UNL     1      -2.238 -10.475  10.645  1.00  0.00     0.037 A 
ATOM     59  C   UNL     1      -3.530  -4.787  14.530  1.00  0.00     0.037 A 
ATOM     60  C   UNL     1      -2.864 -10.738  11.914  1.00  0.00     0.049 A 
ATOM     61  C   UNL     1      -3.868  -6.171  15.010  1.00  0.00     0.074 A 
ATOM     62  C   UNL     1      -3.264 -11.950  12.450  1.00  0.00     0.029 A 
ATOM     63  N   UNL     1      -3.174  -9.764  12.851  1.00  0.00    -0.354 N 
ATOM     64  N   UNL     1      -3.690  -7.321  14.408  1.00  0.00    -0.248 NA
ATOM     65  C   UNL     1      -4.472  -6.280  16.346  1.00  0.00     0.031 C 
ATOM     66  C   UNL     1      -3.828 -11.707  13.708  1.00  0.00     0.029 A 
ATOM     67  C   UNL     1      -3.749 -10.348  13.967  1.00  0.00     0.049 A 
ATOM     68  H   UNL     1      -3.010  -8.800  12.739  1.00  0.00     0.167 HD
ATOM     69  C   UNL     1      -4.125  -8.290  15.301  1.00  0.00     0.074 A 
ATOM     70  C   UNL     1      -4.566  -7.594  16.491  1.00  0.00     0.031 C 
ATOM     71  C   UNL     1      -4.157  -9.637  15.150  1.00  0.00     0.037 A 
BRANCH  58  72
ATOM     72  C   UNL     1      -1.942 -11.633   9.739  1.00  0.00     0.064 A 
ATOM     73  C   UNL     1      -0.626 -12.080   9.541  1.00  0.00     0.173 A 
ATOM     74  C   UNL     1      -2.975 -12.318   9.084  1.00  0.00     0.173 A 
ATOM     75  F   UNL     1       0.398 -11.447  10.134  1.00  0.00    -0.203 F 
ATOM     76  C   UNL     1      -0.354 -13.156   8.702  1.00  0.00     0.198 A 
ATOM     77  C   UNL     1      -2.701 -13.411   8.265  1.00  0.00     0.198 A 
ATOM     78  F   UNL     1      -4.250 -11.932   9.241  1.00  0.00    -0.203 F 
ATOM     79  F   UNL     1       0.914 -13.537   8.494  1.00  0.00    -0.200 F 
ATOM     80  C   UNL     1      -1.391 -13.824   8.069  1.00  0.00     0.200 A 
ATOM     81  F   UNL     1      -3.704 -14.062   7.661  1.00  0.00    -0.200 F 
ATOM     82  F   UNL     1      -1.128 -14.864   7.265  1.00  0.00    -0.200 F 
ENDBRANCH  58  72
BRANCH  59  83
ATOM     83  C   UNL     1      -3.852  -3.595  15.354  1.00  0.00     0.064 A 
ATOM     84  C   UNL     1      -3.151  -3.330  16.539  1.00  0.00     0.173 A 
ATOM     85  C   UNL     1      -4.867  -2.704  14.980  1.00  0.00     0.173 A 
ATOM     86  F   UNL     1      -2.183  -4.164  16.944  1.00  0.00    -0.203 F 
ATOM     87  C   UNL     1      -3.472  -2.232  17.334  1.00  0.00     0.198 A 
ATOM     88  C   UNL     1      -5.172  -1.593  15.765  1.00  0.00     0.198 A 
ATOM     89  F   UNL     1      -5.559  -2.909  13.851  1.00  0.00    -0.203 F 
ATOM     90  F   UNL     1      -2.817  -2.028  18.485  1.00  0.00    -0.200 F 
ATOM     91  C   UNL     1      -4.480  -1.363  16.945  1.00  0.00     0.200 A 
ATOM     92  F   UNL     1      -6.138  -0.748  15.380  1.00  0.00    -0.200 F 
ATOM     93  F   UNL     1      -4.790  -0.308  17.711  1.00  0.00    -0.200 F 
ENDBRANCH  59  83
BRANCH  71  94
ATOM     94  C   UNL     1      -4.636 -10.443  16.318  1.00  0.00     0.064 A 
ATOM     95  C   UNL     1      -5.992 -10.494  16.670  1.00  0.00     0.173 A 
ATOM     96  C   UNL     1      -3.726 -11.189  17.082  1.00  0.00     0.173 A 
ATOM     97  F   UNL     1      -6.896  -9.785  15.978  1.00  0.00    -0.203 F 
ATOM     98  C   UNL     1      -6.417 -11.243  17.764  1.00  0.00     0.198 A 
ATOM     99  C   UNL     1      -4.158 -11.955  18.160  1.00  0.00     0.198 A 
ATOM    100  F   UNL     1      -2.419 -11.174  16.781  1.00  0.00    -0.203 F 
ATOM    101  F   UNL     1      -7.712 -11.241  18.112  1.00  0.00    -0.200 F 
ATOM    102  C   UNL     1      -5.502 -11.975  18.505  1.00  0.00     0.200 A 
ATOM    103  F   UNL     1      -3.274 -12.668  18.870  1.00  0.00    -0.200 F 
ATOM    104  F   UNL     1      -5.913 -12.694  19.558  1.00  0.00    -0.200 F 
ENDBRANCH  71  94
ENDBRANCH  45  46
ENDBRANCH  37  40
ENDBRANCH  35  36
ENDBRANCH  34  35
ENDBRANCH  33  34
ENDBRANCH   1  33
TORSDOF 15
