REMARK SMILES CC(C)c1ccc(NC(=O)C(=O)N/N=C/c2ccccc2C(=O)NCCCCNC(=O)c2ccc(-c3c4nc(c(-c5c(F)c(F)c(F)c(F)c5F)c5ccc([nH]5)c(-c5c(F)c(F)c(F)c(F)c5F)c5nc(c(-c6c(F)c(F)c(F)c(F)c6F)c6ccc3[nH]6)C=C5)C=C4)cc2)cc1
REMARK SMILES IDX 25 1 24 2 22 3 23 4 21 6 16 7 17 8 18 9 20 10 19 11 15 12
REMARK SMILES IDX 14 13 13 14 11 15 12 16 9 18 8 19 10 21 7 22 4 23 5 24 96 25
REMARK SMILES IDX 6 26 95 27 2 28 1 29 3 30 26 31 27 32 28 33 29 34 30 35
REMARK SMILES IDX 31 37 32 38 33 39 94 40 34 41 93 42 35 43 36 44 37 45 87 46
REMARK SMILES IDX 38 47 92 48 86 49 88 50 39 51 91 52 85 53 84 54 40 56 72 57
REMARK SMILES IDX 52 58 71 59 53 60 56 61 70 62 89 63 54 64 55 65 69 67 90 68
REMARK SMILES IDX 57 69 41 70 42 71 50 72 43 73 44 74 48 75 51 76 45 77 46 78
REMARK SMILES IDX 49 79 47 80 73 81 74 82 82 83 75 84 76 85 80 86 83 87 77 88
REMARK SMILES IDX 78 89 81 90 79 91 58 92 59 93 67 94 60 95 61 96 65 97 68 98
REMARK SMILES IDX 62 99 63 100 66 101 64 102
REMARK H PARENT 24 5 13 17 8 20 29 36 88 55 56 66
REMARK Flexibility Score: inf
ROOT
ATOM      1  C   UNL     1      -7.370   2.190  -1.549  1.00  0.00     0.116 C 
ENDROOT
BRANCH   1   2
ATOM      2  N   UNL     1      -8.361   3.218  -1.698  1.00  0.00    -0.352 N 
ATOM      3  C   UNL     1      -9.634   3.314  -1.195  1.00  0.00     0.251 C 
ATOM      4  O   UNL     1     -10.214   4.383  -1.417  1.00  0.00    -0.269 OA
ATOM      5  H   UNL     1      -8.080   3.981  -2.254  1.00  0.00     0.163 HD
BRANCH   3   6
ATOM      6  C   UNL     1     -10.409   2.240  -0.490  1.00  0.00     0.048 A 
ATOM      7  C   UNL     1      -9.997   1.281   0.446  1.00  0.00     0.007 A 
ATOM      8  C   UNL     1     -10.929   0.409   1.053  1.00  0.00     0.010 A 
ATOM      9  C   UNL     1     -12.280   0.467   0.737  1.00  0.00     0.001 A 
ATOM     10  C   UNL     1     -11.794   2.267  -0.792  1.00  0.00     0.014 A 
ATOM     11  C   UNL     1     -12.714   1.392  -0.199  1.00  0.00     0.001 A 
BRANCH   7  12
ATOM     12  C   UNL     1      -8.630   0.896   0.792  1.00  0.00     0.142 C 
ATOM     13  N   UNL     1      -7.885   1.502   1.660  1.00  0.00    -0.180 NA
BRANCH  13  14
ATOM     14  N   UNL     1      -6.657   0.893   1.939  1.00  0.00    -0.239 N 
ATOM     15  C   UNL     1      -5.967   0.132   1.000  1.00  0.00     0.329 C 
ATOM     16  O   UNL     1      -5.440   0.603   0.001  1.00  0.00    -0.262 OA
ATOM     17  H   UNL     1      -6.265   1.008   2.835  1.00  0.00     0.194 HD
BRANCH  15  18
ATOM     18  C   UNL     1      -6.063  -1.387   1.185  1.00  0.00     0.315 C 
ATOM     19  N   UNL     1      -5.035  -2.216   0.790  1.00  0.00    -0.318 N 
ATOM     20  H   UNL     1      -5.303  -3.158   0.693  1.00  0.00     0.170 HD
ATOM     21  O   UNL     1      -7.128  -1.873   1.563  1.00  0.00    -0.263 OA
BRANCH  19  22
ATOM     22  C   UNL     1      -3.680  -1.982   0.499  1.00  0.00     0.041 A 
ATOM     23  C   UNL     1      -0.893  -1.753   0.002  1.00  0.00    -0.045 A 
ATOM     24  C   UNL     1      -1.618  -0.700   0.565  1.00  0.00     0.006 A 
ATOM     25  C   UNL     1      -1.591  -2.923  -0.327  1.00  0.00     0.006 A 
ATOM     26  C   UNL     1      -2.992  -0.818   0.819  1.00  0.00     0.026 A 
ATOM     27  C   UNL     1      -2.964  -3.036  -0.077  1.00  0.00     0.026 A 
BRANCH  23  28
ATOM     28  C   UNL     1       0.617  -1.710  -0.174  1.00  0.00     0.013 C 
ATOM     29  C   UNL     1       1.215  -0.305  -0.313  1.00  0.00     0.012 C 
ATOM     30  C   UNL     1       1.283  -2.442   0.996  1.00  0.00     0.012 C 
ENDBRANCH  23  28
ENDBRANCH  19  22
ENDBRANCH  15  18
ENDBRANCH  13  14
ENDBRANCH   7  12
ENDBRANCH   3   6
ENDBRANCH   1   2
BRANCH   1  31
ATOM     31  C   UNL     1      -6.362   2.054  -2.684  1.00  0.00     0.023 C 
BRANCH  31  32
ATOM     32  C   UNL     1      -5.210   3.056  -2.795  1.00  0.00     0.023 C 
BRANCH  32  33
ATOM     33  C   UNL     1      -4.728   3.792  -1.552  1.00  0.00     0.116 C 
BRANCH  33  34
ATOM     34  N   UNL     1      -4.135   2.955  -0.523  1.00  0.00    -0.352 N 
ATOM     35  C   UNL     1      -2.960   3.100   0.174  1.00  0.00     0.251 C 
ATOM     36  H   UNL     1      -4.659   2.156  -0.288  1.00  0.00     0.163 HD
ATOM     37  O   UNL     1      -2.700   2.392   1.143  1.00  0.00    -0.269 OA
BRANCH  35  38
ATOM     38  C   UNL     1      -1.954   4.077  -0.277  1.00  0.00     0.039 A 
ATOM     39  C   UNL     1      -0.654   3.626  -0.541  1.00  0.00     0.014 A 
ATOM     40  C   UNL     1      -2.284   5.420  -0.452  1.00  0.00     0.014 A 
ATOM     41  C   UNL     1       0.300   4.512  -1.043  1.00  0.00     0.010 A 
ATOM     42  C   UNL     1      -1.359   6.281  -1.027  1.00  0.00     0.010 A 
ATOM     43  C   UNL     1      -0.055   5.840  -1.313  1.00  0.00    -0.014 A 
BRANCH  43  44
ATOM     44  C   UNL     1       0.930   6.828  -1.813  1.00  0.00     0.031 A 
ATOM     45  C   UNL     1       1.289   7.992  -0.933  1.00  0.00     0.074 A 
ATOM     46  C   UNL     1       1.420   6.735  -3.063  1.00  0.00     0.049 A 
ATOM     47  N   UNL     1       1.962   9.077  -1.218  1.00  0.00    -0.248 NA
ATOM     48  C   UNL     1       0.777   7.947   0.447  1.00  0.00     0.031 C 
ATOM     49  C   UNL     1       1.120   5.666  -4.016  1.00  0.00     0.029 A 
ATOM     50  N   UNL     1       2.259   7.572  -3.756  1.00  0.00    -0.354 N 
ATOM     51  C   UNL     1       1.910   9.860  -0.071  1.00  0.00     0.074 A 
ATOM     52  C   UNL     1       1.108   9.146   0.897  1.00  0.00     0.031 C 
ATOM     53  C   UNL     1       1.770   5.908  -5.167  1.00  0.00     0.029 A 
ATOM     54  C   UNL     1       2.501   7.166  -5.045  1.00  0.00     0.049 A 
ATOM     55  H   UNL     1       2.650   8.387  -3.365  1.00  0.00     0.167 HD
ATOM     56  C   UNL     1       2.496  11.059   0.157  1.00  0.00     0.037 A 
ATOM     57  C   UNL     1       3.224   7.756  -6.017  1.00  0.00     0.037 A 
ATOM     58  C   UNL     1       3.337  11.730  -0.796  1.00  0.00     0.049 A 
ATOM     59  C   UNL     1       3.912   9.062  -5.719  1.00  0.00     0.074 A 
ATOM     60  C   UNL     1       4.019  12.926  -0.659  1.00  0.00     0.029 A 
ATOM     61  N   UNL     1       3.623  11.246  -2.065  1.00  0.00    -0.354 N 
ATOM     62  N   UNL     1       3.880   9.784  -4.624  1.00  0.00    -0.248 NA
ATOM     63  C   UNL     1       4.748   9.629  -6.786  1.00  0.00     0.031 C 
ATOM     64  C   UNL     1       4.703  13.175  -1.854  1.00  0.00     0.029 A 
ATOM     65  C   UNL     1       4.479  12.115  -2.719  1.00  0.00     0.049 A 
ATOM     66  H   UNL     1       3.270  10.409  -2.444  1.00  0.00     0.167 HD
ATOM     67  C   UNL     1       4.714  10.869  -4.857  1.00  0.00     0.074 A 
ATOM     68  C   UNL     1       5.247  10.704  -6.194  1.00  0.00     0.031 C 
ATOM     69  C   UNL     1       5.013  11.909  -4.041  1.00  0.00     0.037 A 
BRANCH  56  70
ATOM     70  C   UNL     1       2.244  11.709   1.486  1.00  0.00     0.064 A 
ATOM     71  C   UNL     1       2.773  11.183   2.676  1.00  0.00     0.173 A 
ATOM     72  C   UNL     1       1.468  12.874   1.574  1.00  0.00     0.173 A 
ATOM     73  F   UNL     1       3.508  10.061   2.650  1.00  0.00    -0.203 F 
ATOM     74  C   UNL     1       2.505  11.779   3.905  1.00  0.00     0.198 A 
ATOM     75  C   UNL     1       1.229  13.486   2.802  1.00  0.00     0.198 A 
ATOM     76  F   UNL     1       0.940  13.420   0.468  1.00  0.00    -0.203 F 
ATOM     77  F   UNL     1       2.970  11.224   5.032  1.00  0.00    -0.200 F 
ATOM     78  C   UNL     1       1.738  12.933   3.967  1.00  0.00     0.200 A 
ATOM     79  F   UNL     1       0.497  14.607   2.859  1.00  0.00    -0.200 F 
ATOM     80  F   UNL     1       1.482  13.506   5.151  1.00  0.00    -0.200 F 
ENDBRANCH  56  70
BRANCH  57  81
ATOM     81  C   UNL     1       3.365   7.103  -7.345  1.00  0.00     0.064 A 
ATOM     82  C   UNL     1       4.591   6.551  -7.744  1.00  0.00     0.173 A 
ATOM     83  C   UNL     1       2.292   7.023  -8.244  1.00  0.00     0.173 A 
ATOM     84  F   UNL     1       5.653   6.620  -6.928  1.00  0.00    -0.203 F 
ATOM     85  C   UNL     1       4.744   5.964  -8.999  1.00  0.00     0.198 A 
ATOM     86  C   UNL     1       2.439   6.412  -9.488  1.00  0.00     0.198 A 
ATOM     87  F   UNL     1       1.097   7.531  -7.910  1.00  0.00    -0.203 F 
ATOM     88  F   UNL     1       5.939   5.486  -9.371  1.00  0.00    -0.200 F 
ATOM     89  C   UNL     1       3.666   5.891  -9.868  1.00  0.00     0.200 A 
ATOM     90  F   UNL     1       1.392   6.331 -10.321  1.00  0.00    -0.200 F 
ATOM     91  F   UNL     1       3.813   5.325 -11.074  1.00  0.00    -0.200 F 
ENDBRANCH  57  81
BRANCH  69  92
ATOM     92  C   UNL     1       6.004  12.913  -4.548  1.00  0.00     0.064 A 
ATOM     93  C   UNL     1       5.670  13.841  -5.545  1.00  0.00     0.173 A 
ATOM     94  C   UNL     1       7.294  12.969  -3.999  1.00  0.00     0.173 A 
ATOM     95  F   UNL     1       4.453  13.817  -6.109  1.00  0.00    -0.203 F 
ATOM     96  C   UNL     1       6.602  14.772  -5.993  1.00  0.00     0.198 A 
ATOM     97  C   UNL     1       8.214  13.919  -4.431  1.00  0.00     0.198 A 
ATOM     98  F   UNL     1       7.658  12.107  -3.038  1.00  0.00    -0.203 F 
ATOM     99  F   UNL     1       6.278  15.620  -6.980  1.00  0.00    -0.200 F 
ATOM    100  C   UNL     1       7.870  14.815  -5.432  1.00  0.00     0.200 A 
ATOM    101  F   UNL     1       9.434  13.967  -3.879  1.00  0.00    -0.200 F 
ATOM    102  F   UNL     1       8.764  15.715  -5.863  1.00  0.00    -0.200 F 
ENDBRANCH  69  92
ENDBRANCH  43  44
ENDBRANCH  35  38
ENDBRANCH  33  34
ENDBRANCH  32  33
ENDBRANCH  31  32
ENDBRANCH   1  31
TORSDOF 16
