REMARK SMILES C[C@@H](CC(=O)NCCCCNC(=O)c1ccc(-c2c3nc(c(-c4c(F)c(F)c(F)c(F)c4F)c4ccc([nH]4)c(-c4c(F)c(F)c(F)c(F)c4F)c4nc(c(-c5c(F)c(F)c(F)c(F)c5F)c5ccc2[nH]5)C=C4)C=C3)cc1)CC(=O)N1C[C@H](C)[C@@H](C)C1
REMARK SMILES IDX 8 1 7 2 6 3 4 4 5 5 3 7 2 8 1 9 77 10 78 11 79 12 80 13
REMARK SMILES IDX 81 14 86 15 82 16 84 17 83 18 85 19 9 20 10 21 11 22 12 23
REMARK SMILES IDX 13 25 14 26 15 27 76 28 16 29 75 30 17 31 18 32 19 33 69 34
REMARK SMILES IDX 20 35 74 36 68 37 70 38 21 39 73 40 67 41 66 42 22 44 54 45
REMARK SMILES IDX 34 46 53 47 35 48 38 49 52 50 71 51 36 52 37 53 51 55 72 56
REMARK SMILES IDX 39 57 23 58 24 59 32 60 25 61 26 62 30 63 33 64 27 65 28 66
REMARK SMILES IDX 31 67 29 68 55 69 56 70 64 71 57 72 58 73 62 74 65 75 59 76
REMARK SMILES IDX 60 77 63 78 61 79 40 80 41 81 49 82 42 83 43 84 47 85 50 86
REMARK SMILES IDX 44 87 45 88 48 89 46 90
REMARK H PARENT 6 6 11 24 70 43 38 54
REMARK Flexibility Score: inf
ROOT
ATOM      1  C   UNL     1       1.175  -2.031   1.093  1.00  0.00     0.023 C 
ENDROOT
BRANCH   1   2
ATOM      2  C   UNL     1       1.740  -2.464  -0.257  1.00  0.00     0.116 C 
BRANCH   2   3
ATOM      3  N   UNL     1       0.681  -2.760  -1.200  1.00  0.00    -0.356 N 
ATOM      4  C   UNL     1       0.151  -1.993  -2.192  1.00  0.00     0.220 C 
ATOM      5  O   UNL     1      -0.812  -2.443  -2.815  1.00  0.00    -0.275 OA
ATOM      6  H   UNL     1       0.283  -3.655  -1.109  1.00  0.00     0.163 HD
BRANCH   4   7
ATOM      7  C   UNL     1       0.735  -0.630  -2.534  1.00  0.00     0.103 C 
BRANCH   7   8
ATOM      8  C   UNL     1       0.306   0.590  -1.676  1.00  0.00     0.004 C 
ATOM      9  C   UNL     1       1.501   1.115  -0.882  1.00  0.00     0.009 C 
BRANCH   8  10
ATOM     10  C   UNL     1      -0.974   0.344  -0.865  1.00  0.00     0.104 C 
BRANCH  10  11
ATOM     11  C   UNL     1      -1.494   1.444   0.053  1.00  0.00     0.222 C 
ATOM     12  O   UNL     1      -2.205   2.350  -0.379  1.00  0.00    -0.275 OA
ATOM     13  N   UNL     1      -1.266   1.252   1.409  1.00  0.00    -0.342 N 
ATOM     14  C   UNL     1      -2.303   1.562   2.384  1.00  0.00     0.123 C 
ATOM     15  C   UNL     1       0.051   1.421   2.002  1.00  0.00     0.123 C 
ATOM     16  C   UNL     1      -1.578   2.200   3.572  1.00  0.00     0.010 C 
ATOM     17  C   UNL     1      -0.173   1.581   3.505  1.00  0.00     0.010 C 
ATOM     18  C   UNL     1      -1.534   3.721   3.418  1.00  0.00     0.010 C 
ATOM     19  C   UNL     1      -0.085   0.239   4.234  1.00  0.00     0.010 C 
ENDBRANCH  10  11
ENDBRANCH   8  10
ENDBRANCH   7   8
ENDBRANCH   4   7
ENDBRANCH   2   3
ENDBRANCH   1   2
BRANCH   1  20
ATOM     20  C   UNL     1       0.543  -3.139   1.930  1.00  0.00     0.023 C 
BRANCH  20  21
ATOM     21  C   UNL     1       1.553  -4.100   2.528  1.00  0.00     0.116 C 
BRANCH  21  22
ATOM     22  N   UNL     1       2.488  -3.453   3.438  1.00  0.00    -0.352 N 
ATOM     23  C   UNL     1       3.048  -3.950   4.591  1.00  0.00     0.251 C 
ATOM     24  H   UNL     1       2.755  -2.537   3.195  1.00  0.00     0.163 HD
ATOM     25  O   UNL     1       3.743  -3.239   5.302  1.00  0.00    -0.269 OA
BRANCH  23  26
ATOM     26  C   UNL     1       2.755  -5.344   4.983  1.00  0.00     0.039 A 
ATOM     27  C   UNL     1       2.382  -5.610   6.302  1.00  0.00     0.014 A 
ATOM     28  C   UNL     1       2.796  -6.372   4.038  1.00  0.00     0.014 A 
ATOM     29  C   UNL     1       1.981  -6.899   6.656  1.00  0.00     0.010 A 
ATOM     30  C   UNL     1       2.305  -7.627   4.367  1.00  0.00     0.010 A 
ATOM     31  C   UNL     1       1.904  -7.906   5.681  1.00  0.00    -0.014 A 
BRANCH  31  32
ATOM     32  C   UNL     1       1.439  -9.274   6.014  1.00  0.00     0.031 A 
ATOM     33  C   UNL     1       2.376 -10.438   5.840  1.00  0.00     0.074 A 
ATOM     34  C   UNL     1       0.163  -9.478   6.391  1.00  0.00     0.049 A 
ATOM     35  N   UNL     1       2.142 -11.718   5.971  1.00  0.00    -0.248 NA
ATOM     36  C   UNL     1       3.751 -10.120   5.422  1.00  0.00     0.031 C 
ATOM     37  C   UNL     1      -0.856  -8.437   6.537  1.00  0.00     0.029 A 
ATOM     38  N   UNL     1      -0.500 -10.637   6.708  1.00  0.00    -0.354 N 
ATOM     39  C   UNL     1       3.327 -12.354   5.626  1.00  0.00     0.074 A 
ATOM     40  C   UNL     1       4.259 -11.325   5.221  1.00  0.00     0.031 C 
ATOM     41  C   UNL     1      -2.006  -9.000   6.942  1.00  0.00     0.029 A 
ATOM     42  C   UNL     1      -1.816 -10.443   7.049  1.00  0.00     0.049 A 
ATOM     43  H   UNL     1      -0.072 -11.523   6.693  1.00  0.00     0.167 HD
ATOM     44  C   UNL     1       3.622 -13.674   5.671  1.00  0.00     0.037 A 
ATOM     45  C   UNL     1      -2.760 -11.334   7.406  1.00  0.00     0.037 A 
ATOM     46  C   UNL     1       2.705 -14.688   6.119  1.00  0.00     0.049 A 
ATOM     47  C   UNL     1      -2.398 -12.793   7.480  1.00  0.00     0.074 A 
ATOM     48  C   UNL     1       2.922 -16.046   6.263  1.00  0.00     0.029 A 
ATOM     49  N   UNL     1       1.394 -14.447   6.504  1.00  0.00    -0.354 N 
ATOM     50  N   UNL     1      -1.255 -13.377   7.213  1.00  0.00    -0.248 NA
ATOM     51  C   UNL     1      -3.455 -13.715   7.916  1.00  0.00     0.031 C 
ATOM     52  C   UNL     1       1.732 -16.633   6.705  1.00  0.00     0.029 A 
ATOM     53  C   UNL     1       0.787 -15.633   6.879  1.00  0.00     0.049 A 
ATOM     54  H   UNL     1       0.960 -13.563   6.510  1.00  0.00     0.167 HD
ATOM     55  C   UNL     1      -1.444 -14.726   7.480  1.00  0.00     0.074 A 
ATOM     56  C   UNL     1      -2.809 -14.872   7.941  1.00  0.00     0.031 C 
ATOM     57  C   UNL     1      -0.567 -15.752   7.354  1.00  0.00     0.037 A 
BRANCH  44  58
ATOM     58  C   UNL     1       4.997 -14.091   5.238  1.00  0.00     0.064 A 
ATOM     59  C   UNL     1       6.135 -13.771   5.996  1.00  0.00     0.173 A 
ATOM     60  C   UNL     1       5.181 -14.831   4.061  1.00  0.00     0.173 A 
ATOM     61  F   UNL     1       6.015 -13.050   7.121  1.00  0.00    -0.203 F 
ATOM     62  C   UNL     1       7.407 -14.149   5.574  1.00  0.00     0.198 A 
ATOM     63  C   UNL     1       6.451 -15.235   3.659  1.00  0.00     0.198 A 
ATOM     64  F   UNL     1       4.127 -15.165   3.300  1.00  0.00    -0.203 F 
ATOM     65  F   UNL     1       8.482 -13.781   6.285  1.00  0.00    -0.200 F 
ATOM     66  C   UNL     1       7.563 -14.885   4.411  1.00  0.00     0.200 A 
ATOM     67  F   UNL     1       6.601 -15.956   2.540  1.00  0.00    -0.200 F 
ATOM     68  F   UNL     1       8.788 -15.251   4.008  1.00  0.00    -0.200 F 
ENDBRANCH  44  58
BRANCH  45  69
ATOM     69  C   UNL     1      -4.126 -10.870   7.763  1.00  0.00     0.064 A 
ATOM     70  C   UNL     1      -4.576 -10.923   9.090  1.00  0.00     0.173 A 
ATOM     71  C   UNL     1      -5.008 -10.373   6.794  1.00  0.00     0.173 A 
ATOM     72  F   UNL     1      -3.774 -11.408  10.049  1.00  0.00    -0.203 F 
ATOM     73  C   UNL     1      -5.865 -10.520   9.430  1.00  0.00     0.198 A 
ATOM     74  C   UNL     1      -6.289  -9.945   7.139  1.00  0.00     0.198 A 
ATOM     75  F   UNL     1      -4.623 -10.294   5.512  1.00  0.00    -0.203 F 
ATOM     76  F   UNL     1      -6.285 -10.627  10.698  1.00  0.00    -0.200 F 
ATOM     77  C   UNL     1      -6.719 -10.027   8.455  1.00  0.00     0.200 A 
ATOM     78  F   UNL     1      -7.107  -9.456   6.197  1.00  0.00    -0.200 F 
ATOM     79  F   UNL     1      -7.959  -9.639   8.783  1.00  0.00    -0.200 F 
ENDBRANCH  45  69
BRANCH  57  80
ATOM     80  C   UNL     1      -1.041 -17.114   7.768  1.00  0.00     0.064 A 
ATOM     81  C   UNL     1      -1.962 -17.839   6.998  1.00  0.00     0.173 A 
ATOM     82  C   UNL     1      -0.533 -17.716   8.929  1.00  0.00     0.173 A 
ATOM     83  F   UNL     1      -2.486 -17.300   5.887  1.00  0.00    -0.203 F 
ATOM     84  C   UNL     1      -2.377 -19.109   7.391  1.00  0.00     0.198 A 
ATOM     85  C   UNL     1      -0.928 -18.997   9.303  1.00  0.00     0.198 A 
ATOM     86  F   UNL     1       0.356 -17.066   9.695  1.00  0.00    -0.203 F 
ATOM     87  F   UNL     1      -3.293 -19.766   6.666  1.00  0.00    -0.200 F 
ATOM     88  C   UNL     1      -1.855 -19.689   8.538  1.00  0.00     0.200 A 
ATOM     89  F   UNL     1      -0.413 -19.561  10.404  1.00  0.00    -0.200 F 
ATOM     90  F   UNL     1      -2.251 -20.914   8.911  1.00  0.00    -0.200 F 
ENDBRANCH  57  80
ENDBRANCH  31  32
ENDBRANCH  23  26
ENDBRANCH  21  22
ENDBRANCH  20  21
ENDBRANCH   1  20
TORSDOF 14
