REMARK SMILES O=C(NCCCCNC(=O)C1(NC(=O)c2nc(C3CC3)n[nH]2)CCCCC1)c1ccc(-c2c3nc(c(-c4c(F)c(F)c(F)c(F)c4F)c4ccc([nH]4)c(-c4c(F)c(F)c(F)c(F)c4F)c4nc(c(-c5c(F)c(F)c(F)c(F)c5F)c5ccc2[nH]5)C=C4)C=C3)cc1
REMARK SMILES IDX 6 1 5 2 4 3 3 4 1 5 2 6 28 8 29 9 90 10 30 11 89 12 31 13
REMARK SMILES IDX 32 14 33 15 83 16 34 17 88 18 82 19 84 20 35 21 87 22 81 23
REMARK SMILES IDX 80 24 36 26 68 27 48 28 67 29 49 30 52 31 66 32 85 33 50 34
REMARK SMILES IDX 51 35 65 37 86 38 53 39 37 40 38 41 46 42 39 43 40 44 44 45
REMARK SMILES IDX 47 46 41 47 42 48 45 49 43 50 69 51 70 52 78 53 71 54 72 55
REMARK SMILES IDX 76 56 79 57 73 58 74 59 77 60 75 61 54 62 55 63 63 64 56 65
REMARK SMILES IDX 57 66 61 67 64 68 58 69 59 70 62 71 60 72 7 73 8 74 9 75
REMARK SMILES IDX 10 77 11 78 23 79 27 80 24 81 26 82 25 83 12 84 13 85 14 87
REMARK SMILES IDX 15 88 16 89 22 90 17 91 21 92 18 94 19 95 20 96
REMARK H PARENT 3 7 84 25 52 36 8 76 12 86 22 93
REMARK Flexibility Score: inf
ROOT
ATOM      1  C   UNL     1       3.679   1.433   3.785  1.00  0.00     0.023 C 
ENDROOT
BRANCH   1   2
ATOM      2  C   UNL     1       4.185   1.426   2.347  1.00  0.00     0.023 C 
BRANCH   2   3
ATOM      3  C   UNL     1       4.025   0.121   1.594  1.00  0.00     0.116 C 
BRANCH   3   4
ATOM      4  N   UNL     1       2.642  -0.134   1.231  1.00  0.00    -0.352 N 
ATOM      5  O   UNL     1       0.880  -0.403  -0.140  1.00  0.00    -0.269 OA
ATOM      6  C   UNL     1       2.105  -0.421   0.002  1.00  0.00     0.251 C 
ATOM      7  H   UNL     1       1.998  -0.094   1.974  1.00  0.00     0.163 HD
BRANCH   6   8
ATOM      8  C   UNL     1       2.967  -0.763  -1.155  1.00  0.00     0.039 A 
ATOM      9  C   UNL     1       4.126  -1.530  -0.998  1.00  0.00     0.014 A 
ATOM     10  C   UNL     1       2.553  -0.394  -2.441  1.00  0.00     0.014 A 
ATOM     11  C   UNL     1       4.903  -1.862  -2.103  1.00  0.00     0.010 A 
ATOM     12  C   UNL     1       3.286  -0.803  -3.560  1.00  0.00     0.010 A 
ATOM     13  C   UNL     1       4.460  -1.553  -3.397  1.00  0.00    -0.014 A 
BRANCH  13  14
ATOM     14  C   UNL     1       5.136  -2.177  -4.562  1.00  0.00     0.031 A 
ATOM     15  C   UNL     1       5.859  -1.355  -5.584  1.00  0.00     0.074 A 
ATOM     16  C   UNL     1       5.058  -3.517  -4.690  1.00  0.00     0.049 A 
ATOM     17  N   UNL     1       6.456  -1.748  -6.681  1.00  0.00    -0.248 NA
ATOM     18  C   UNL     1       5.917   0.096  -5.356  1.00  0.00     0.031 C 
ATOM     19  C   UNL     1       4.355  -4.409  -3.763  1.00  0.00     0.029 A 
ATOM     20  N   UNL     1       5.566  -4.366  -5.640  1.00  0.00    -0.354 N 
ATOM     21  C   UNL     1       6.938  -0.597  -7.287  1.00  0.00     0.074 A 
ATOM     22  C   UNL     1       6.557   0.515  -6.441  1.00  0.00     0.031 C 
ATOM     23  C   UNL     1       4.497  -5.676  -4.173  1.00  0.00     0.029 A 
ATOM     24  C   UNL     1       5.236  -5.683  -5.428  1.00  0.00     0.049 A 
ATOM     25  H   UNL     1       6.113  -4.062  -6.399  1.00  0.00     0.167 HD
ATOM     26  C   UNL     1       7.634  -0.489  -8.444  1.00  0.00     0.037 A 
ATOM     27  C   UNL     1       5.468  -6.775  -6.180  1.00  0.00     0.037 A 
ATOM     28  C   UNL     1       8.024  -1.611  -9.262  1.00  0.00     0.049 A 
ATOM     29  C   UNL     1       6.219  -6.615  -7.469  1.00  0.00     0.074 A 
ATOM     30  C   UNL     1       8.799  -1.613 -10.409  1.00  0.00     0.029 A 
ATOM     31  N   UNL     1       7.657  -2.928  -9.026  1.00  0.00    -0.354 N 
ATOM     32  N   UNL     1       6.727  -5.529  -7.997  1.00  0.00    -0.248 NA
ATOM     33  C   UNL     1       6.420  -7.827  -8.273  1.00  0.00     0.031 C 
ATOM     34  C   UNL     1       8.852  -2.921 -10.899  1.00  0.00     0.029 A 
ATOM     35  C   UNL     1       8.154  -3.745 -10.030  1.00  0.00     0.049 A 
ATOM     36  H   UNL     1       7.123  -3.237  -8.259  1.00  0.00     0.167 HD
ATOM     37  C   UNL     1       7.314  -5.924  -9.189  1.00  0.00     0.074 A 
ATOM     38  C   UNL     1       7.123  -7.356  -9.293  1.00  0.00     0.031 C 
ATOM     39  C   UNL     1       7.947  -5.168 -10.118  1.00  0.00     0.037 A 
BRANCH  26  40
ATOM     40  C   UNL     1       8.006   0.884  -8.922  1.00  0.00     0.064 A 
ATOM     41  C   UNL     1       9.012   1.639  -8.301  1.00  0.00     0.173 A 
ATOM     42  C   UNL     1       7.401   1.419 -10.071  1.00  0.00     0.173 A 
ATOM     43  F   UNL     1       9.619   1.176  -7.198  1.00  0.00    -0.203 F 
ATOM     44  C   UNL     1       9.388   2.883  -8.803  1.00  0.00     0.198 A 
ATOM     45  C   UNL     1       7.796   2.651 -10.585  1.00  0.00     0.198 A 
ATOM     46  F   UNL     1       6.440   0.734 -10.709  1.00  0.00    -0.203 F 
ATOM     47  F   UNL     1      10.333   3.599  -8.178  1.00  0.00    -0.200 F 
ATOM     48  C   UNL     1       8.787   3.383  -9.949  1.00  0.00     0.200 A 
ATOM     49  F   UNL     1       7.224   3.125 -11.700  1.00  0.00    -0.200 F 
ATOM     50  F   UNL     1       9.161   4.573 -10.440  1.00  0.00    -0.200 F 
ENDBRANCH  26  40
BRANCH  27  51
ATOM     51  C   UNL     1       4.946  -8.097  -5.747  1.00  0.00     0.064 A 
ATOM     52  C   UNL     1       5.812  -9.130  -5.365  1.00  0.00     0.173 A 
ATOM     53  C   UNL     1       3.566  -8.353  -5.702  1.00  0.00     0.173 A 
ATOM     54  F   UNL     1       7.139  -8.941  -5.409  1.00  0.00    -0.203 F 
ATOM     55  C   UNL     1       5.319 -10.373  -4.973  1.00  0.00     0.198 A 
ATOM     56  C   UNL     1       3.074  -9.584  -5.277  1.00  0.00     0.198 A 
ATOM     57  F   UNL     1       2.693  -7.396  -6.052  1.00  0.00    -0.203 F 
ATOM     58  F   UNL     1       6.170 -11.358  -4.657  1.00  0.00    -0.200 F 
ATOM     59  C   UNL     1       3.951 -10.597  -4.921  1.00  0.00     0.200 A 
ATOM     60  F   UNL     1       1.751  -9.788  -5.211  1.00  0.00    -0.200 F 
ATOM     61  F   UNL     1       3.479 -11.790  -4.537  1.00  0.00    -0.200 F 
ENDBRANCH  27  51
BRANCH  39  62
ATOM     62  C   UNL     1       8.486  -5.880 -11.322  1.00  0.00     0.064 A 
ATOM     63  C   UNL     1       7.634  -6.363 -12.326  1.00  0.00     0.173 A 
ATOM     64  C   UNL     1       9.868  -6.045 -11.493  1.00  0.00     0.173 A 
ATOM     65  F   UNL     1       6.303  -6.247 -12.197  1.00  0.00    -0.203 F 
ATOM     66  C   UNL     1       8.147  -7.003 -13.451  1.00  0.00     0.198 A 
ATOM     67  C   UNL     1      10.378  -6.659 -12.633  1.00  0.00     0.198 A 
ATOM     68  F   UNL     1      10.723  -5.598 -10.562  1.00  0.00    -0.203 F 
ATOM     69  F   UNL     1       7.314  -7.495 -14.378  1.00  0.00    -0.200 F 
ATOM     70  C   UNL     1       9.518  -7.142 -13.608  1.00  0.00     0.200 A 
ATOM     71  F   UNL     1      11.704  -6.782 -12.789  1.00  0.00    -0.200 F 
ATOM     72  F   UNL     1      10.011  -7.748 -14.696  1.00  0.00    -0.200 F 
ENDBRANCH  39  62
ENDBRANCH  13  14
ENDBRANCH   6   8
ENDBRANCH   3   4
ENDBRANCH   2   3
ENDBRANCH   1   2
BRANCH   1  73
ATOM     73  C   UNL     1       4.398   0.541   4.808  1.00  0.00     0.116 C 
BRANCH  73  74
ATOM     74  N   UNL     1       5.854   0.536   4.887  1.00  0.00    -0.354 N 
ATOM     75  C   UNL     1       6.780   1.268   5.600  1.00  0.00     0.245 C 
ATOM     76  H   UNL     1       6.268  -0.139   4.302  1.00  0.00     0.163 HD
ATOM     77  O   UNL     1       7.867   0.721   5.824  1.00  0.00    -0.272 OA
BRANCH  75  78
ATOM     78  C   UNL     1       6.412   2.613   6.286  1.00  0.00     0.119 C 
ATOM     79  C   UNL     1       5.766   2.110   7.619  1.00  0.00     0.038 C 
ATOM     80  C   UNL     1       7.609   3.525   6.664  1.00  0.00     0.038 C 
ATOM     81  C   UNL     1       5.528   3.123   8.731  1.00  0.00     0.003 C 
ATOM     82  C   UNL     1       7.166   4.652   7.618  1.00  0.00     0.003 C 
ATOM     83  C   UNL     1       6.695   4.072   8.942  1.00  0.00     0.000 C 
BRANCH  78  84
ATOM     84  N   UNL     1       5.526   3.416   5.425  1.00  0.00    -0.335 N 
ATOM     85  C   UNL     1       5.834   3.976   4.185  1.00  0.00     0.289 C 
ATOM     86  H   UNL     1       4.615   3.575   5.762  1.00  0.00     0.165 HD
ATOM     87  O   UNL     1       5.143   4.948   3.842  1.00  0.00    -0.266 OA
BRANCH  85  88
ATOM     88  C   UNL     1       6.834   3.430   3.275  1.00  0.00     0.214 A 
ATOM     89  N   UNL     1       7.503   2.296   3.371  1.00  0.00    -0.207 NA
ATOM     90  N   UNL     1       7.083   3.940   2.029  1.00  0.00    -0.255 N 
ATOM     91  C   UNL     1       8.055   2.101   2.132  1.00  0.00     0.154 A 
ATOM     92  N   UNL     1       7.842   3.111   1.283  1.00  0.00    -0.158 NA
ATOM     93  H   UNL     1       6.748   4.810   1.715  1.00  0.00     0.192 HD
BRANCH  91  94
ATOM     94  C   UNL     1       8.768   0.815   1.711  1.00  0.00     0.060 C 
ATOM     95  C   UNL     1       9.421  -0.045   2.776  1.00  0.00     0.012 C 
ATOM     96  C   UNL     1       8.183  -0.531   2.109  1.00  0.00     0.012 C 
ENDBRANCH  91  94
ENDBRANCH  85  88
ENDBRANCH  78  84
ENDBRANCH  75  78
ENDBRANCH  73  74
ENDBRANCH   1  73
TORSDOF 14
