REMARK SMILES O=C(NCCCCNC(=O)[C@H]1C[N@H+](Cc2ccc(Cl)c(Cl)c2)CC12CCCCC2)c1ccc(-c2c3nc(c(-c4c(F)c(F)c(F)c(F)c4F)c4ccc([nH]4)c(-c4c(F)c(F)c(F)c(F)c4F)c4nc(c(-c5c(F)c(F)c(F)c(F)c5F)c5ccc2[nH]5)C=C4)C=C3)cc1
REMARK SMILES IDX 5 1 4 2 3 3 1 4 2 5 30 7 31 8 92 9 32 10 91 11 33 12 34 13
REMARK SMILES IDX 35 14 85 15 36 16 90 17 84 18 86 19 37 20 89 21 83 22 82 23
REMARK SMILES IDX 38 25 70 26 50 27 69 28 51 29 54 30 68 31 87 32 52 33 53 34
REMARK SMILES IDX 67 36 88 37 55 38 39 39 40 40 48 41 41 42 42 43 46 44 49 45
REMARK SMILES IDX 43 46 44 47 47 48 45 49 71 50 72 51 80 52 73 53 74 54 78 55
REMARK SMILES IDX 81 56 75 57 76 58 79 59 77 60 56 61 57 62 65 63 58 64 59 65
REMARK SMILES IDX 63 66 66 67 60 68 61 69 64 70 62 71 6 72 7 73 8 74 9 75
REMARK SMILES IDX 10 77 11 78 12 79 24 80 13 81 23 82 25 83 29 84 26 86 28 87
REMARK SMILES IDX 27 88 14 89 15 90 16 91 22 92 17 93 20 94 18 95 21 96 19 97
REMARK H PARENT 3 6 86 24 54 35 8 76 13 85
REMARK Flexibility Score: inf
ROOT
ATOM      1  C   UNL     1       4.719   1.252   2.339  1.00  0.00     0.023 C 
ENDROOT
BRANCH   1   2
ATOM      2  C   UNL     1       4.417   0.379   1.129  1.00  0.00     0.116 C 
BRANCH   2   3
ATOM      3  N   UNL     1       3.014   0.003   1.028  1.00  0.00    -0.352 N 
ATOM      4  O   UNL     1       1.040  -0.306  -0.039  1.00  0.00    -0.269 OA
ATOM      5  C   UNL     1       2.240  -0.069  -0.103  1.00  0.00     0.251 C 
ATOM      6  H   UNL     1       2.566  -0.227   1.874  1.00  0.00     0.163 HD
BRANCH   5   7
ATOM      7  C   UNL     1       2.884   0.185  -1.403  1.00  0.00     0.039 A 
ATOM      8  C   UNL     1       4.035  -0.524  -1.758  1.00  0.00     0.014 A 
ATOM      9  C   UNL     1       2.374   1.188  -2.228  1.00  0.00     0.014 A 
ATOM     10  C   UNL     1       4.748  -0.143  -2.886  1.00  0.00     0.010 A 
ATOM     11  C   UNL     1       3.053   1.519  -3.399  1.00  0.00     0.010 A 
ATOM     12  C   UNL     1       4.258   0.874  -3.721  1.00  0.00    -0.014 A 
BRANCH  12  13
ATOM     13  C   UNL     1       4.982   1.200  -4.971  1.00  0.00     0.031 A 
ATOM     14  C   UNL     1       5.641   2.533  -5.162  1.00  0.00     0.074 A 
ATOM     15  C   UNL     1       5.029   0.266  -5.938  1.00  0.00     0.049 A 
ATOM     16  N   UNL     1       6.287   2.989  -6.205  1.00  0.00    -0.248 NA
ATOM     17  C   UNL     1       5.559   3.483  -4.043  1.00  0.00     0.031 C 
ATOM     18  C   UNL     1       4.403  -1.056  -5.858  1.00  0.00     0.029 A 
ATOM     19  N   UNL     1       5.625   0.280  -7.170  1.00  0.00    -0.354 N 
ATOM     20  C   UNL     1       6.667   4.284  -5.881  1.00  0.00     0.074 A 
ATOM     21  C   UNL     1       6.165   4.550  -4.550  1.00  0.00     0.031 C 
ATOM     22  C   UNL     1       4.666  -1.734  -6.982  1.00  0.00     0.029 A 
ATOM     23  C   UNL     1       5.427  -0.876  -7.883  1.00  0.00     0.049 A 
ATOM     24  H   UNL     1       6.144   1.043  -7.512  1.00  0.00     0.167 HD
ATOM     25  C   UNL     1       7.373   5.164  -6.631  1.00  0.00     0.037 A 
ATOM     26  C   UNL     1       5.793  -1.200  -9.135  1.00  0.00     0.037 A 
ATOM     27  C   UNL     1       7.882   4.878  -7.949  1.00  0.00     0.049 A 
ATOM     28  C   UNL     1       6.570  -0.206  -9.944  1.00  0.00     0.074 A 
ATOM     29  C   UNL     1       8.659   5.679  -8.768  1.00  0.00     0.029 A 
ATOM     30  N   UNL     1       7.657   3.697  -8.643  1.00  0.00    -0.354 N 
ATOM     31  N   UNL     1       6.960   1.000  -9.612  1.00  0.00    -0.248 NA
ATOM     32  C   UNL     1       6.955  -0.614 -11.300  1.00  0.00     0.031 C 
ATOM     33  C   UNL     1       8.866   5.001  -9.975  1.00  0.00     0.029 A 
ATOM     34  C   UNL     1       8.257   3.759  -9.892  1.00  0.00     0.049 A 
ATOM     35  H   UNL     1       7.147   2.928  -8.299  1.00  0.00     0.167 HD
ATOM     36  C   UNL     1       7.642   1.496 -10.713  1.00  0.00     0.074 A 
ATOM     37  C   UNL     1       7.630   0.449 -11.715  1.00  0.00     0.031 C 
ATOM     38  C   UNL     1       8.222   2.709 -10.879  1.00  0.00     0.037 A 
BRANCH  25  39
ATOM     39  C   UNL     1       7.618   6.529  -6.058  1.00  0.00     0.064 A 
ATOM     40  C   UNL     1       8.518   6.739  -5.002  1.00  0.00     0.173 A 
ATOM     41  C   UNL     1       6.971   7.651  -6.599  1.00  0.00     0.173 A 
ATOM     42  F   UNL     1       9.154   5.699  -4.441  1.00  0.00    -0.203 F 
ATOM     43  C   UNL     1       8.741   8.016  -4.493  1.00  0.00     0.198 A 
ATOM     44  C   UNL     1       7.216   8.930  -6.105  1.00  0.00     0.198 A 
ATOM     45  F   UNL     1       6.105   7.508  -7.614  1.00  0.00    -0.203 F 
ATOM     46  F   UNL     1       9.572   8.186  -3.455  1.00  0.00    -0.200 F 
ATOM     47  C   UNL     1       8.095   9.111  -5.048  1.00  0.00     0.200 A 
ATOM     48  F   UNL     1       6.598   9.988  -6.649  1.00  0.00    -0.200 F 
ATOM     49  F   UNL     1       8.314  10.339  -4.559  1.00  0.00    -0.200 F 
ENDBRANCH  25  39
BRANCH  26  50
ATOM     50  C   UNL     1       5.407  -2.525  -9.680  1.00  0.00     0.064 A 
ATOM     51  C   UNL     1       6.358  -3.534  -9.868  1.00  0.00     0.173 A 
ATOM     52  C   UNL     1       4.066  -2.824  -9.966  1.00  0.00     0.173 A 
ATOM     53  F   UNL     1       7.653  -3.289  -9.621  1.00  0.00    -0.203 F 
ATOM     54  C   UNL     1       5.983  -4.796 -10.324  1.00  0.00     0.198 A 
ATOM     55  C   UNL     1       3.689  -4.093 -10.395  1.00  0.00     0.198 A 
ATOM     56  F   UNL     1       3.118  -1.892  -9.790  1.00  0.00    -0.203 F 
ATOM     57  F   UNL     1       6.914  -5.740 -10.517  1.00  0.00    -0.200 F 
ATOM     58  C   UNL     1       4.648  -5.077 -10.577  1.00  0.00     0.200 A 
ATOM     59  F   UNL     1       2.396  -4.366 -10.618  1.00  0.00    -0.200 F 
ATOM     60  F   UNL     1       4.286  -6.297 -10.997  1.00  0.00    -0.200 F 
ENDBRANCH  26  50
BRANCH  38  61
ATOM     61  C   UNL     1       8.896   2.963 -12.194  1.00  0.00     0.064 A 
ATOM     62  C   UNL     1       8.155   3.199 -13.361  1.00  0.00     0.173 A 
ATOM     63  C   UNL     1      10.295   3.002 -12.280  1.00  0.00     0.173 A 
ATOM     64  F   UNL     1       6.814   3.153 -13.329  1.00  0.00    -0.203 F 
ATOM     65  C   UNL     1       8.792   3.444 -14.573  1.00  0.00     0.198 A 
ATOM     66  C   UNL     1      10.928   3.272 -13.489  1.00  0.00     0.198 A 
ATOM     67  F   UNL     1      11.046   2.785 -11.190  1.00  0.00    -0.203 F 
ATOM     68  F   UNL     1       8.066   3.624 -15.685  1.00  0.00    -0.200 F 
ATOM     69  C   UNL     1      10.177   3.487 -14.635  1.00  0.00     0.200 A 
ATOM     70  F   UNL     1      12.266   3.322 -13.546  1.00  0.00    -0.200 F 
ATOM     71  F   UNL     1      10.789   3.728 -15.803  1.00  0.00    -0.200 F 
ENDBRANCH  38  61
ENDBRANCH  12  13
ENDBRANCH   5   7
ENDBRANCH   2   3
ENDBRANCH   1   2
BRANCH   1  72
ATOM     72  C   UNL     1       4.298   0.658   3.682  1.00  0.00     0.023 C 
BRANCH  72  73
ATOM     73  C   UNL     1       4.757  -0.778   3.900  1.00  0.00     0.116 C 
BRANCH  73  74
ATOM     74  N   UNL     1       6.201  -0.883   3.985  1.00  0.00    -0.356 N 
ATOM     75  C   UNL     1       7.005  -1.381   4.959  1.00  0.00     0.229 C 
ATOM     76  H   UNL     1       6.681  -0.533   3.200  1.00  0.00     0.163 HD
ATOM     77  O   UNL     1       8.219  -1.389   4.730  1.00  0.00    -0.275 OA
BRANCH  75  78
ATOM     78  C   UNL     1       6.477  -1.927   6.276  1.00  0.00     0.145 C 
ATOM     79  C   UNL     1       5.614  -0.925   7.039  1.00  0.00     0.276 C 
ATOM     80  C   UNL     1       5.733  -3.297   6.269  1.00  0.00     0.037 C 
ATOM     81  N   UNL     1       4.587  -1.693   7.724  1.00  0.00    -0.330 N 
ATOM     82  C   UNL     1       4.426  -2.978   7.041  1.00  0.00     0.270 C 
ATOM     83  C   UNL     1       5.454  -3.897   4.866  1.00  0.00     0.014 C 
ATOM     84  C   UNL     1       6.613  -4.347   7.005  1.00  0.00     0.014 C 
ATOM     85  H   UNL     1       3.698  -1.201   7.635  1.00  0.00     0.348 HD
ATOM     86  C   UNL     1       4.848  -5.302   4.891  1.00  0.00     0.001 C 
ATOM     87  C   UNL     1       5.987  -5.739   7.085  1.00  0.00     0.001 C 
ATOM     88  C   UNL     1       5.692  -6.280   5.695  1.00  0.00     0.000 C 
BRANCH  81  89
ATOM     89  C   UNL     1       4.625  -1.686   9.187  1.00  0.00     0.299 C 
BRANCH  89  90
ATOM     90  C   UNL     1       5.783  -2.407   9.842  1.00  0.00     0.008 A 
ATOM     91  C   UNL     1       7.063  -1.833   9.893  1.00  0.00     0.011 A 
ATOM     92  C   UNL     1       5.606  -3.697  10.366  1.00  0.00     0.031 A 
ATOM     93  C   UNL     1       8.157  -2.567  10.357  1.00  0.00     0.022 A 
ATOM     94  C   UNL     1       6.698  -4.430  10.848  1.00  0.00     0.060 A 
ATOM     95  C   UNL     1       7.980  -3.872  10.819  1.00  0.00     0.059 A 
ATOM     96  Cl  UNL     1       6.400  -6.036  11.409  1.00  0.00    -0.083 Cl
ATOM     97  Cl  UNL     1       9.387  -4.748  11.306  1.00  0.00    -0.083 Cl
ENDBRANCH  89  90
ENDBRANCH  81  89
ENDBRANCH  75  78
ENDBRANCH  73  74
ENDBRANCH  72  73
ENDBRANCH   1  72
TORSDOF 13
