REMARK SMILES Cc1cccc(C(=O)NCCCCNC(=O)c2ccc(-c3c4nc(c(-c5c(F)c(F)c(F)c(F)c5F)c5ccc([nH]5)c(-c5c(F)c(F)c(F)c(F)c5F)c5nc(c(-c6c(F)c(F)c(F)c(F)c6F)c6ccc3[nH]6)C=C5)C=C4)cc2)c1OC[C@@H]1C[C@H]2CC[C@@H]1C2
REMARK SMILES IDX 11 1 10 2 9 3 7 4 8 5 6 7 1 8 2 9 3 10 80 11 4 12 5 13 81 14
REMARK SMILES IDX 82 15 83 16 84 17 88 18 85 19 87 20 89 21 86 22 12 23 13 24
REMARK SMILES IDX 14 25 15 26 16 28 17 29 18 30 79 31 19 32 78 33 20 34 21 35
REMARK SMILES IDX 22 36 72 37 23 38 77 39 71 40 73 41 24 42 76 43 70 44 69 45
REMARK SMILES IDX 25 47 57 48 37 49 56 50 38 51 41 52 55 53 74 54 39 55 40 56
REMARK SMILES IDX 54 58 75 59 42 60 26 61 27 62 35 63 28 64 29 65 33 66 36 67
REMARK SMILES IDX 30 68 31 69 34 70 32 71 58 72 59 73 67 74 60 75 61 76 65 77
REMARK SMILES IDX 68 78 62 79 63 80 66 81 64 82 43 83 44 84 52 85 45 86 46 87
REMARK SMILES IDX 50 88 53 89 47 90 48 91 51 92 49 93
REMARK H PARENT 9 6 14 27 73 46 41 57
REMARK Flexibility Score: inf
ROOT
ATOM      1  C   UNL     1       0.909   4.473  -1.244  1.00  0.00     0.023 C 
ENDROOT
BRANCH   1   2
ATOM      2  C   UNL     1       0.279   4.143   0.119  1.00  0.00     0.116 C 
BRANCH   2   3
ATOM      3  N   UNL     1      -1.050   3.603  -0.026  1.00  0.00    -0.352 N 
ATOM      4  C   UNL     1      -1.568   2.342  -0.086  1.00  0.00     0.255 C 
ATOM      5  O   UNL     1      -2.802   2.321  -0.207  1.00  0.00    -0.269 OA
ATOM      6  H   UNL     1      -1.739   4.302  -0.099  1.00  0.00     0.163 HD
BRANCH   4   7
ATOM      7  C   UNL     1      -0.850   1.020  -0.008  1.00  0.00     0.082 A 
ATOM      8  C   UNL     1       1.907  -1.175  -1.511  1.00  0.00     0.048 C 
ATOM      9  C   UNL     1       0.768  -0.690  -0.652  1.00  0.00    -0.008 A 
ATOM     10  C   UNL     1      -0.121  -1.691  -0.221  1.00  0.00     0.007 A 
ATOM     11  C   UNL     1       0.455   0.674  -0.437  1.00  0.00     0.134 A 
ATOM     12  C   UNL     1      -1.346  -1.363   0.332  1.00  0.00     0.001 A 
ATOM     13  C   UNL     1      -1.714  -0.025   0.402  1.00  0.00     0.018 A 
BRANCH  11  14
ATOM     14  O   UNL     1       1.338   1.654  -0.768  1.00  0.00    -0.492 OA
BRANCH  14  15
ATOM     15  C   UNL     1       2.672   1.683  -0.214  1.00  0.00     0.233 C 
BRANCH  15  16
ATOM     16  C   UNL     1       2.886   1.209   1.241  1.00  0.00     0.030 C 
ATOM     17  C   UNL     1       3.792   2.182   2.055  1.00  0.00     0.011 C 
ATOM     18  C   UNL     1       3.734  -0.092   1.305  1.00  0.00    -0.004 C 
ATOM     19  C   UNL     1       4.974   1.302   2.503  1.00  0.00    -0.010 C 
ATOM     20  C   UNL     1       3.642  -0.682   2.721  1.00  0.00     0.004 C 
ATOM     21  C   UNL     1       5.175   0.422   1.278  1.00  0.00     0.007 C 
ATOM     22  C   UNL     1       4.486   0.291   3.552  1.00  0.00     0.004 C 
ENDBRANCH  15  16
ENDBRANCH  14  15
ENDBRANCH  11  14
ENDBRANCH   4   7
ENDBRANCH   2   3
ENDBRANCH   1   2
BRANCH   1  23
ATOM     23  C   UNL     1       0.292   5.667  -1.975  1.00  0.00     0.023 C 
BRANCH  23  24
ATOM     24  C   UNL     1       0.657   7.003  -1.351  1.00  0.00     0.116 C 
BRANCH  24  25
ATOM     25  N   UNL     1       1.954   7.536  -1.751  1.00  0.00    -0.352 N 
ATOM     26  C   UNL     1       2.693   8.576  -1.206  1.00  0.00     0.251 C 
ATOM     27  H   UNL     1       2.368   7.090  -2.525  1.00  0.00     0.163 HD
ATOM     28  O   UNL     1       3.720   8.944  -1.750  1.00  0.00    -0.269 OA
BRANCH  26  29
ATOM     29  C   UNL     1       2.319   9.132   0.123  1.00  0.00     0.039 A 
ATOM     30  C   UNL     1       3.347   9.346   1.050  1.00  0.00     0.014 A 
ATOM     31  C   UNL     1       0.992   9.199   0.532  1.00  0.00     0.014 A 
ATOM     32  C   UNL     1       3.052   9.327   2.411  1.00  0.00     0.010 A 
ATOM     33  C   UNL     1       0.709   9.049   1.874  1.00  0.00     0.010 A 
ATOM     34  C   UNL     1       1.752   9.028   2.805  1.00  0.00    -0.014 A 
BRANCH  34  35
ATOM     35  C   UNL     1       1.405   8.538   4.132  1.00  0.00     0.031 A 
ATOM     36  C   UNL     1       0.603   9.376   5.048  1.00  0.00     0.074 A 
ATOM     37  C   UNL     1       1.716   7.260   4.455  1.00  0.00     0.049 A 
ATOM     38  N   UNL     1       0.444   9.119   6.301  1.00  0.00    -0.248 NA
ATOM     39  C   UNL     1      -0.024  10.632   4.641  1.00  0.00     0.031 C 
ATOM     40  C   UNL     1       1.174   6.460   5.553  1.00  0.00     0.029 A 
ATOM     41  N   UNL     1       2.768   6.475   3.943  1.00  0.00    -0.354 N 
ATOM     42  C   UNL     1      -0.500   9.986   6.792  1.00  0.00     0.074 A 
ATOM     43  C   UNL     1      -0.664  10.979   5.763  1.00  0.00     0.031 C 
ATOM     44  C   UNL     1       2.034   5.469   5.834  1.00  0.00     0.029 A 
ATOM     45  C   UNL     1       3.225   5.704   5.039  1.00  0.00     0.049 A 
ATOM     46  H   UNL     1       3.111   6.464   3.020  1.00  0.00     0.167 HD
ATOM     47  C   UNL     1      -1.112   9.680   7.969  1.00  0.00     0.037 A 
ATOM     48  C   UNL     1       4.476   5.873   5.558  1.00  0.00     0.037 A 
ATOM     49  C   UNL     1      -0.369   8.635   8.673  1.00  0.00     0.049 A 
ATOM     50  C   UNL     1       4.494   6.260   7.016  1.00  0.00     0.074 A 
ATOM     51  C   UNL     1      -0.582   7.286   8.886  1.00  0.00     0.029 A 
ATOM     52  N   UNL     1       0.947   8.895   9.054  1.00  0.00    -0.354 N 
ATOM     53  N   UNL     1       3.480   6.791   7.641  1.00  0.00    -0.248 NA
ATOM     54  C   UNL     1       5.667   6.110   7.872  1.00  0.00     0.031 C 
ATOM     55  C   UNL     1       0.653   6.715   9.302  1.00  0.00     0.029 A 
ATOM     56  C   UNL     1       1.597   7.726   9.392  1.00  0.00     0.049 A 
ATOM     57  H   UNL     1       1.356   9.790   9.078  1.00  0.00     0.167 HD
ATOM     58  C   UNL     1       3.847   7.095   8.925  1.00  0.00     0.074 A 
ATOM     59  C   UNL     1       5.215   6.622   9.029  1.00  0.00     0.031 C 
ATOM     60  C   UNL     1       3.002   7.740   9.782  1.00  0.00     0.037 A 
BRANCH  47  61
ATOM     61  C   UNL     1      -2.468  10.185   8.424  1.00  0.00     0.064 A 
ATOM     62  C   UNL     1      -2.989   9.782   9.675  1.00  0.00     0.173 A 
ATOM     63  C   UNL     1      -3.364  10.943   7.638  1.00  0.00     0.173 A 
ATOM     64  F   UNL     1      -2.259   9.047  10.526  1.00  0.00    -0.203 F 
ATOM     65  C   UNL     1      -4.290  10.097  10.089  1.00  0.00     0.198 A 
ATOM     66  C   UNL     1      -4.644  11.300   8.075  1.00  0.00     0.198 A 
ATOM     67  F   UNL     1      -3.078  11.322   6.390  1.00  0.00    -0.203 F 
ATOM     68  F   UNL     1      -4.747   9.633  11.261  1.00  0.00    -0.200 F 
ATOM     69  C   UNL     1      -5.114  10.865   9.293  1.00  0.00     0.200 A 
ATOM     70  F   UNL     1      -5.429  12.044   7.281  1.00  0.00    -0.200 F 
ATOM     71  F   UNL     1      -6.359  11.167   9.685  1.00  0.00    -0.200 F 
ENDBRANCH  47  61
BRANCH  48  72
ATOM     72  C   UNL     1       5.482   6.300   4.553  1.00  0.00     0.064 A 
ATOM     73  C   UNL     1       5.811   5.397   3.527  1.00  0.00     0.173 A 
ATOM     74  C   UNL     1       5.808   7.646   4.359  1.00  0.00     0.173 A 
ATOM     75  F   UNL     1       5.530   4.095   3.678  1.00  0.00    -0.203 F 
ATOM     76  C   UNL     1       6.322   5.834   2.308  1.00  0.00     0.198 A 
ATOM     77  C   UNL     1       6.337   8.081   3.141  1.00  0.00     0.198 A 
ATOM     78  F   UNL     1       5.502   8.559   5.291  1.00  0.00    -0.203 F 
ATOM     79  F   UNL     1       6.510   4.959   1.310  1.00  0.00    -0.200 F 
ATOM     80  C   UNL     1       6.557   7.183   2.106  1.00  0.00     0.200 A 
ATOM     81  F   UNL     1       6.538   9.391   2.933  1.00  0.00    -0.200 F 
ATOM     82  F   UNL     1       6.954   7.623   0.904  1.00  0.00    -0.200 F 
ENDBRANCH  48  72
BRANCH  60  83
ATOM     83  C   UNL     1       3.403   8.383  11.090  1.00  0.00     0.064 A 
ATOM     84  C   UNL     1       4.694   8.868  11.366  1.00  0.00     0.173 A 
ATOM     85  C   UNL     1       2.427   8.671  12.075  1.00  0.00     0.173 A 
ATOM     86  F   UNL     1       5.680   8.785  10.464  1.00  0.00    -0.203 F 
ATOM     87  C   UNL     1       5.003   9.520  12.564  1.00  0.00     0.198 A 
ATOM     88  C   UNL     1       2.725   9.377  13.241  1.00  0.00     0.198 A 
ATOM     89  F   UNL     1       1.147   8.302  11.921  1.00  0.00    -0.203 F 
ATOM     90  F   UNL     1       6.261   9.919  12.796  1.00  0.00    -0.200 F 
ATOM     91  C   UNL     1       4.017   9.784  13.495  1.00  0.00     0.200 A 
ATOM     92  F   UNL     1       1.746   9.679  14.105  1.00  0.00    -0.200 F 
ATOM     93  F   UNL     1       4.308  10.451  14.620  1.00  0.00    -0.200 F 
ENDBRANCH  60  83
ENDBRANCH  34  35
ENDBRANCH  26  29
ENDBRANCH  24  25
ENDBRANCH  23  24
ENDBRANCH   1  23
TORSDOF 14
