REMARK SMILES Cc1cccc(CN(C)C(=O)N[C@@H](CC(C)C)C(=O)NCCCCNC(=O)c2ccc(-c3c4nc(c(-c5c(F)c(F)c(F)c(F)c5F)c5ccc([nH]5)c(-c5c(F)c(F)c(F)c(F)c5F)c5nc(c(-c6c(F)c(F)c(F)c(F)c6F)c6ccc3[nH]6)C=C5)C=C4)cc2)n1
REMARK SMILES IDX 21 1 20 2 18 3 19 4 13 6 12 7 10 8 11 9 8 11 9 12 7 13 6 14
REMARK SMILES IDX 1 15 2 16 3 17 91 18 4 19 5 20 14 21 15 22 16 23 17 24 22 25
REMARK SMILES IDX 23 26 24 27 25 28 26 29 27 31 28 32 29 33 90 34 30 35 89 36
REMARK SMILES IDX 31 37 32 38 33 39 83 40 34 41 88 42 82 43 84 44 35 45 87 46
REMARK SMILES IDX 81 47 80 48 36 50 68 51 48 52 67 53 49 54 52 55 66 56 85 57
REMARK SMILES IDX 50 58 51 59 65 61 86 62 53 63 37 64 38 65 46 66 39 67 40 68
REMARK SMILES IDX 44 69 47 70 41 71 42 72 45 73 43 74 69 75 70 76 78 77 71 78
REMARK SMILES IDX 72 79 76 80 79 81 73 82 74 83 77 84 75 85 54 86 55 87 63 88
REMARK SMILES IDX 56 89 57 90 61 91 64 92 58 93 59 94 62 95 60 96
REMARK H PARENT 20 5 12 10 25 30 84 49 52 60
REMARK Flexibility Score: inf
ROOT
ATOM      1  C   UNL     1      -0.247   3.006   6.341  1.00  0.00     0.116 C 
ENDROOT
BRANCH   1   2
ATOM      2  N   UNL     1       0.824   3.472   5.483  1.00  0.00    -0.354 N 
ATOM      3  C   UNL     1       0.824   4.367   4.453  1.00  0.00     0.242 C 
ATOM      4  O   UNL     1       1.927   4.845   4.158  1.00  0.00    -0.273 OA
ATOM      5  H   UNL     1       1.703   3.074   5.677  1.00  0.00     0.163 HD
BRANCH   3   6
ATOM      6  C   UNL     1      -0.452   4.907   3.760  1.00  0.00     0.173 C 
BRANCH   6   7
ATOM      7  N   UNL     1      -1.445   3.882   3.434  1.00  0.00    -0.326 N 
ATOM      8  C   UNL     1      -1.772   3.153   2.350  1.00  0.00     0.318 C 
ATOM      9  O   UNL     1      -2.582   2.245   2.571  1.00  0.00    -0.249 OA
ATOM     10  H   UNL     1      -2.021   3.671   4.205  1.00  0.00     0.166 HD
BRANCH   8  11
ATOM     11  N   UNL     1      -1.301   3.400   1.093  1.00  0.00    -0.322 N 
ATOM     12  C   UNL     1      -0.433   4.477   0.657  1.00  0.00     0.149 C 
BRANCH  11  13
ATOM     13  C   UNL     1      -1.740   2.479   0.035  1.00  0.00     0.177 C 
BRANCH  13  14
ATOM     14  C   UNL     1      -1.028   1.139   0.038  1.00  0.00     0.060 A 
ATOM     15  C   UNL     1       2.455  -0.058  -0.048  1.00  0.00     0.067 C 
ATOM     16  C   UNL     1       0.956  -0.076  -0.035  1.00  0.00     0.038 A 
ATOM     17  C   UNL     1       0.264  -1.283  -0.022  1.00  0.00     0.023 A 
ATOM     18  N   UNL     1       0.331   1.128  -0.024  1.00  0.00    -0.256 NA
ATOM     19  C   UNL     1      -1.124  -1.258   0.013  1.00  0.00     0.004 A 
ATOM     20  C   UNL     1      -1.780  -0.034   0.045  1.00  0.00     0.026 A 
ENDBRANCH  13  14
ENDBRANCH  11  13
ENDBRANCH   8  11
ENDBRANCH   6   7
BRANCH   6  21
ATOM     21  C   UNL     1      -1.122   6.159   4.372  1.00  0.00     0.038 C 
BRANCH  21  22
ATOM     22  C   UNL     1      -1.412   6.175   5.882  1.00  0.00    -0.015 C 
ATOM     23  C   UNL     1      -0.187   6.616   6.691  1.00  0.00     0.007 C 
ATOM     24  C   UNL     1      -2.568   7.129   6.209  1.00  0.00     0.007 C 
ENDBRANCH  21  22
ENDBRANCH   6  21
ENDBRANCH   3   6
ENDBRANCH   1   2
BRANCH   1  25
ATOM     25  C   UNL     1       0.098   1.760   7.149  1.00  0.00     0.023 C 
BRANCH  25  26
ATOM     26  C   UNL     1       1.261   1.912   8.133  1.00  0.00     0.023 C 
BRANCH  26  27
ATOM     27  C   UNL     1       1.204   3.127   9.056  1.00  0.00     0.116 C 
BRANCH  27  28
ATOM     28  N   UNL     1       0.040   3.134   9.931  1.00  0.00    -0.352 N 
ATOM     29  C   UNL     1      -0.039   3.036  11.302  1.00  0.00     0.251 C 
ATOM     30  H   UNL     1      -0.825   3.222   9.470  1.00  0.00     0.163 HD
ATOM     31  O   UNL     1      -1.125   2.927  11.851  1.00  0.00    -0.269 OA
BRANCH  29  32
ATOM     32  C   UNL     1       1.199   3.027  12.112  1.00  0.00     0.039 A 
ATOM     33  C   UNL     1       1.356   2.045  13.093  1.00  0.00     0.014 A 
ATOM     34  C   UNL     1       2.206   3.969  11.894  1.00  0.00     0.014 A 
ATOM     35  C   UNL     1       2.564   1.951  13.790  1.00  0.00     0.010 A 
ATOM     36  C   UNL     1       3.437   3.821  12.526  1.00  0.00     0.010 A 
ATOM     37  C   UNL     1       3.632   2.808  13.477  1.00  0.00    -0.014 A 
BRANCH  37  38
ATOM     38  C   UNL     1       4.964   2.648  14.118  1.00  0.00     0.031 A 
ATOM     39  C   UNL     1       5.536   3.751  14.965  1.00  0.00     0.074 A 
ATOM     40  C   UNL     1       5.692   1.541  13.876  1.00  0.00     0.049 A 
ATOM     41  N   UNL     1       6.703   3.824  15.554  1.00  0.00    -0.248 NA
ATOM     42  C   UNL     1       4.695   4.944  15.151  1.00  0.00     0.031 C 
ATOM     43  C   UNL     1       5.273   0.419  13.033  1.00  0.00     0.029 A 
ATOM     44  N   UNL     1       6.944   1.178  14.309  1.00  0.00    -0.354 N 
ATOM     45  C   UNL     1       6.744   5.073  16.159  1.00  0.00     0.074 A 
ATOM     46  C   UNL     1       5.508   5.746  15.822  1.00  0.00     0.031 C 
ATOM     47  C   UNL     1       6.232  -0.519  13.040  1.00  0.00     0.029 A 
ATOM     48  C   UNL     1       7.353  -0.050  13.848  1.00  0.00     0.049 A 
ATOM     49  H   UNL     1       7.496   1.744  14.895  1.00  0.00     0.167 HD
ATOM     50  C   UNL     1       7.714   5.603  16.942  1.00  0.00     0.037 A 
ATOM     51  C   UNL     1       8.503  -0.720  14.052  1.00  0.00     0.037 A 
ATOM     52  C   UNL     1       8.930   4.920  17.298  1.00  0.00     0.049 A 
ATOM     53  C   UNL     1       9.572  -0.101  14.913  1.00  0.00     0.074 A 
ATOM     54  C   UNL     1       9.937   5.338  18.150  1.00  0.00     0.029 A 
ATOM     55  N   UNL     1       9.309   3.677  16.811  1.00  0.00    -0.354 N 
ATOM     56  N   UNL     1       9.563   1.044  15.551  1.00  0.00    -0.248 NA
ATOM     57  C   UNL     1      10.811  -0.873  15.083  1.00  0.00     0.031 C 
ATOM     58  C   UNL     1      10.953   4.376  18.133  1.00  0.00     0.029 A 
ATOM     59  C   UNL     1      10.552   3.329  17.319  1.00  0.00     0.049 A 
ATOM     60  H   UNL     1       8.775   3.124  16.197  1.00  0.00     0.167 HD
ATOM     61  C   UNL     1      10.775   1.115  16.225  1.00  0.00     0.074 A 
ATOM     62  C   UNL     1      11.490  -0.109  15.927  1.00  0.00     0.031 C 
ATOM     63  C   UNL     1      11.251   2.104  17.021  1.00  0.00     0.037 A 
BRANCH  50  64
ATOM     64  C   UNL     1       7.503   6.998  17.461  1.00  0.00     0.064 A 
ATOM     65  C   UNL     1       6.510   7.293  18.408  1.00  0.00     0.173 A 
ATOM     66  C   UNL     1       8.321   8.050  17.022  1.00  0.00     0.173 A 
ATOM     67  F   UNL     1       5.693   6.327  18.855  1.00  0.00    -0.203 F 
ATOM     68  C   UNL     1       6.319   8.595  18.865  1.00  0.00     0.198 A 
ATOM     69  C   UNL     1       8.150   9.344  17.508  1.00  0.00     0.198 A 
ATOM     70  F   UNL     1       9.291   7.823  16.124  1.00  0.00    -0.203 F 
ATOM     71  F   UNL     1       5.324   8.863  19.723  1.00  0.00    -0.200 F 
ATOM     72  C   UNL     1       7.143   9.617  18.420  1.00  0.00     0.200 A 
ATOM     73  F   UNL     1       8.958  10.327  17.088  1.00  0.00    -0.200 F 
ATOM     74  F   UNL     1       6.960  10.868  18.864  1.00  0.00    -0.200 F 
ENDBRANCH  50  64
BRANCH  51  75
ATOM     75  C   UNL     1       8.693  -2.072  13.463  1.00  0.00     0.064 A 
ATOM     76  C   UNL     1       8.740  -3.209  14.282  1.00  0.00     0.173 A 
ATOM     77  C   UNL     1       8.839  -2.258  12.081  1.00  0.00     0.173 A 
ATOM     78  F   UNL     1       8.627  -3.080  15.612  1.00  0.00    -0.203 F 
ATOM     79  C   UNL     1       8.945  -4.477  13.744  1.00  0.00     0.198 A 
ATOM     80  C   UNL     1       9.015  -3.531  11.541  1.00  0.00     0.198 A 
ATOM     81  F   UNL     1       8.799  -1.204  11.252  1.00  0.00    -0.203 F 
ATOM     82  F   UNL     1       9.033  -5.540  14.555  1.00  0.00    -0.200 F 
ATOM     83  C   UNL     1       9.077  -4.638  12.373  1.00  0.00     0.200 A 
ATOM     84  F   UNL     1       9.127  -3.684  10.214  1.00  0.00    -0.200 F 
ATOM     85  F   UNL     1       9.270  -5.859  11.856  1.00  0.00    -0.200 F 
ENDBRANCH  51  75
BRANCH  63  86
ATOM     86  C   UNL     1      12.591   1.888  17.664  1.00  0.00     0.064 A 
ATOM     87  C   UNL     1      13.780   1.909  16.920  1.00  0.00     0.173 A 
ATOM     88  C   UNL     1      12.688   1.696  19.051  1.00  0.00     0.173 A 
ATOM     89  F   UNL     1      13.742   2.073  15.589  1.00  0.00    -0.203 F 
ATOM     90  C   UNL     1      15.014   1.716  17.537  1.00  0.00     0.198 A 
ATOM     91  C   UNL     1      13.925   1.538  19.669  1.00  0.00     0.198 A 
ATOM     92  F   UNL     1      11.582   1.674  19.810  1.00  0.00    -0.203 F 
ATOM     93  F   UNL     1      16.132   1.688  16.799  1.00  0.00    -0.200 F 
ATOM     94  C   UNL     1      15.086   1.540  18.911  1.00  0.00     0.200 A 
ATOM     95  F   UNL     1      13.994   1.384  20.998  1.00  0.00    -0.200 F 
ATOM     96  F   UNL     1      16.275   1.365  19.504  1.00  0.00    -0.200 F 
ENDBRANCH  63  86
ENDBRANCH  37  38
ENDBRANCH  29  32
ENDBRANCH  27  28
ENDBRANCH  26  27
ENDBRANCH  25  26
ENDBRANCH   1  25
TORSDOF 17
