REMARK SMILES CCN(CC)c1ncc(NC(=O)c2ccc(C)cc2)cc1C(=O)NCCCCNC(=O)c1ccc(-c2c3nc(c(-c4c(F)c(F)c(F)c(F)c4F)c4ccc([nH]4)c(-c4c(F)c(F)c(F)c(F)c4F)c4nc(c(-c5c(F)c(F)c(F)c(F)c5F)c5ccc2[nH]5)C=C4)C=C3)cc1
REMARK SMILES IDX 26 1 25 2 24 3 22 4 23 5 21 7 6 8 7 9 8 10 20 11 9 12 3 13
REMARK SMILES IDX 2 14 1 15 4 16 5 17 10 18 11 19 12 21 13 22 14 23 19 24
REMARK SMILES IDX 15 25 18 26 16 27 17 28 27 29 28 30 29 31 30 32 31 34 32 35
REMARK SMILES IDX 33 36 94 37 34 38 93 39 35 40 36 41 37 42 87 43 38 44 92 45
REMARK SMILES IDX 86 46 88 47 39 48 91 49 85 50 84 51 40 53 72 54 52 55 71 56
REMARK SMILES IDX 53 57 56 58 70 59 89 60 54 61 55 62 69 64 90 65 57 66 41 67
REMARK SMILES IDX 42 68 50 69 43 70 44 71 48 72 51 73 45 74 46 75 49 76 47 77
REMARK SMILES IDX 73 78 74 79 82 80 75 81 76 82 80 83 83 84 77 85 78 86 81 87
REMARK SMILES IDX 79 88 58 89 59 90 67 91 60 92 61 93 65 94 68 95 62 96 63 97
REMARK SMILES IDX 66 98 64 99
REMARK H PARENT 24 6 10 20 29 33 88 52 56 63
REMARK Flexibility Score: inf
ROOT
ATOM      1  C   UNL     1       5.724   0.093  -1.423  1.00  0.00     0.023 C 
ENDROOT
BRANCH   1   2
ATOM      2  C   UNL     1       5.311   1.458  -0.869  1.00  0.00     0.116 C 
BRANCH   2   3
ATOM      3  N   UNL     1       3.893   1.629  -0.578  1.00  0.00    -0.352 N 
ATOM      4  C   UNL     1       3.072   1.504   0.527  1.00  0.00     0.255 C 
ATOM      5  O   UNL     1       1.966   2.034   0.408  1.00  0.00    -0.269 OA
ATOM      6  H   UNL     1       3.388   1.906  -1.377  1.00  0.00     0.163 HD
BRANCH   4   7
ATOM      7  C   UNL     1       3.435   0.800   1.795  1.00  0.00     0.084 A 
ATOM      8  C   UNL     1       2.464   0.157   2.595  1.00  0.00     0.141 A 
ATOM      9  N   UNL     1       2.804  -0.401   3.786  1.00  0.00    -0.236 NA
ATOM     10  C   UNL     1       4.082  -0.348   4.212  1.00  0.00     0.139 A 
ATOM     11  C   UNL     1       4.743   0.858   2.297  1.00  0.00     0.045 A 
ATOM     12  C   UNL     1       5.104   0.223   3.485  1.00  0.00     0.060 A 
BRANCH   8  13
ATOM     13  N   UNL     1       1.121   0.043   2.269  1.00  0.00    -0.357 N 
BRANCH  13  14
ATOM     14  C   UNL     1       0.713  -1.111   1.472  1.00  0.00     0.114 C 
ATOM     15  C   UNL     1       0.625  -0.768  -0.005  1.00  0.00     0.027 C 
ENDBRANCH  13  14
BRANCH  13  16
ATOM     16  C   UNL     1       0.156   0.582   3.235  1.00  0.00     0.114 C 
ATOM     17  C   UNL     1      -0.093  -0.318   4.444  1.00  0.00     0.027 C 
ENDBRANCH  13  16
ENDBRANCH   8  13
BRANCH  12  18
ATOM     18  N   UNL     1       6.460   0.258   3.856  1.00  0.00    -0.321 N 
ATOM     19  C   UNL     1       7.187  -0.436   4.797  1.00  0.00     0.255 C 
ATOM     20  H   UNL     1       6.995   0.906   3.341  1.00  0.00     0.170 HD
ATOM     21  O   UNL     1       8.319  -0.045   5.079  1.00  0.00    -0.269 OA
BRANCH  19  22
ATOM     22  C   UNL     1       6.686  -1.670   5.439  1.00  0.00     0.040 A 
ATOM     23  C   UNL     1       6.894  -1.831   6.812  1.00  0.00     0.014 A 
ATOM     24  C   UNL     1       6.072  -2.690   4.703  1.00  0.00     0.014 A 
ATOM     25  C   UNL     1       6.417  -2.972   7.460  1.00  0.00     0.004 A 
ATOM     26  C   UNL     1       5.578  -3.820   5.358  1.00  0.00     0.004 A 
ATOM     27  C   UNL     1       5.728  -3.959   6.744  1.00  0.00    -0.051 A 
ATOM     28  C   UNL     1       5.203  -5.171   7.455  1.00  0.00     0.044 C 
ENDBRANCH  19  22
ENDBRANCH  12  18
ENDBRANCH   4   7
ENDBRANCH   2   3
ENDBRANCH   1   2
BRANCH   1  29
ATOM     29  C   UNL     1       5.261  -0.224  -2.850  1.00  0.00     0.023 C 
BRANCH  29  30
ATOM     30  C   UNL     1       5.698   0.767  -3.928  1.00  0.00     0.116 C 
BRANCH  30  31
ATOM     31  N   UNL     1       7.074   0.647  -4.395  1.00  0.00    -0.352 N 
ATOM     32  C   UNL     1       7.830   1.541  -5.144  1.00  0.00     0.251 C 
ATOM     33  H   UNL     1       7.533  -0.186  -4.144  1.00  0.00     0.163 HD
ATOM     34  O   UNL     1       8.936   1.220  -5.552  1.00  0.00    -0.269 OA
BRANCH  32  35
ATOM     35  C   UNL     1       7.354   2.938  -5.329  1.00  0.00     0.039 A 
ATOM     36  C   UNL     1       8.261   3.978  -5.084  1.00  0.00     0.014 A 
ATOM     37  C   UNL     1       6.006   3.223  -5.522  1.00  0.00     0.014 A 
ATOM     38  C   UNL     1       7.777   5.241  -4.750  1.00  0.00     0.010 A 
ATOM     39  C   UNL     1       5.518   4.442  -5.092  1.00  0.00     0.010 A 
ATOM     40  C   UNL     1       6.402   5.418  -4.620  1.00  0.00    -0.014 A 
BRANCH  40  41
ATOM     41  C   UNL     1       5.802   6.513  -3.866  1.00  0.00     0.031 A 
ATOM     42  C   UNL     1       5.077   7.600  -4.550  1.00  0.00     0.074 A 
ATOM     43  C   UNL     1       5.817   6.464  -2.513  1.00  0.00     0.049 A 
ATOM     44  N   UNL     1       4.710   8.688  -3.963  1.00  0.00    -0.248 NA
ATOM     45  C   UNL     1       4.774   7.592  -5.979  1.00  0.00     0.031 C 
ATOM     46  C   UNL     1       5.009   7.247  -1.578  1.00  0.00     0.029 A 
ATOM     47  N   UNL     1       6.777   5.842  -1.693  1.00  0.00    -0.354 N 
ATOM     48  C   UNL     1       3.878   9.361  -4.819  1.00  0.00     0.074 A 
ATOM     49  C   UNL     1       4.071   8.724  -6.097  1.00  0.00     0.031 C 
ATOM     50  C   UNL     1       5.664   7.336  -0.410  1.00  0.00     0.029 A 
ATOM     51  C   UNL     1       6.972   6.745  -0.616  1.00  0.00     0.049 A 
ATOM     52  H   UNL     1       7.217   4.973  -1.836  1.00  0.00     0.167 HD
ATOM     53  C   UNL     1       3.029  10.291  -4.300  1.00  0.00     0.037 A 
ATOM     54  C   UNL     1       8.162   7.392  -0.446  1.00  0.00     0.037 A 
ATOM     55  C   UNL     1       3.442  10.697  -2.954  1.00  0.00     0.049 A 
ATOM     56  C   UNL     1       8.082   8.907  -0.471  1.00  0.00     0.074 A 
ATOM     57  C   UNL     1       2.939  10.569  -1.671  1.00  0.00     0.029 A 
ATOM     58  N   UNL     1       4.724  11.204  -2.804  1.00  0.00    -0.354 N 
ATOM     59  N   UNL     1       7.000   9.591  -0.719  1.00  0.00    -0.248 NA
ATOM     60  C   UNL     1       9.261   9.764  -0.331  1.00  0.00     0.031 C 
ATOM     61  C   UNL     1       3.956  10.984  -0.753  1.00  0.00     0.029 A 
ATOM     62  C   UNL     1       5.060  11.390  -1.480  1.00  0.00     0.049 A 
ATOM     63  H   UNL     1       5.325  11.408  -3.557  1.00  0.00     0.167 HD
ATOM     64  C   UNL     1       7.317  10.920  -0.834  1.00  0.00     0.074 A 
ATOM     65  C   UNL     1       8.747  10.977  -0.589  1.00  0.00     0.031 C 
ATOM     66  C   UNL     1       6.398  11.871  -1.173  1.00  0.00     0.037 A 
BRANCH  53  67
ATOM     67  C   UNL     1       1.752  10.765  -4.961  1.00  0.00     0.064 A 
ATOM     68  C   UNL     1       0.990  11.801  -4.376  1.00  0.00     0.173 A 
ATOM     69  C   UNL     1       1.153  10.165  -6.091  1.00  0.00     0.173 A 
ATOM     70  F   UNL     1       1.421  12.450  -3.286  1.00  0.00    -0.203 F 
ATOM     71  C   UNL     1      -0.259  12.191  -4.876  1.00  0.00     0.198 A 
ATOM     72  C   UNL     1      -0.065  10.597  -6.625  1.00  0.00     0.198 A 
ATOM     73  F   UNL     1       1.675   9.093  -6.695  1.00  0.00    -0.203 F 
ATOM     74  F   UNL     1      -0.966  13.136  -4.240  1.00  0.00    -0.200 F 
ATOM     75  C   UNL     1      -0.780  11.598  -6.009  1.00  0.00     0.200 A 
ATOM     76  F   UNL     1      -0.553  10.002  -7.724  1.00  0.00    -0.200 F 
ATOM     77  F   UNL     1      -1.972  11.972  -6.491  1.00  0.00    -0.200 F 
ENDBRANCH  53  67
BRANCH  54  78
ATOM     78  C   UNL     1       9.326   6.595  -0.922  1.00  0.00     0.064 A 
ATOM     79  C   UNL     1       9.558   5.329  -0.348  1.00  0.00     0.173 A 
ATOM     80  C   UNL     1       9.966   6.883  -2.132  1.00  0.00     0.173 A 
ATOM     81  F   UNL     1       8.961   4.995   0.808  1.00  0.00    -0.203 F 
ATOM     82  C   UNL     1      10.297   4.356  -1.016  1.00  0.00     0.198 A 
ATOM     83  C   UNL     1      10.728   5.913  -2.785  1.00  0.00     0.198 A 
ATOM     84  F   UNL     1       9.764   8.057  -2.746  1.00  0.00    -0.203 F 
ATOM     85  F   UNL     1      10.390   3.120  -0.504  1.00  0.00    -0.200 F 
ATOM     86  C   UNL     1      10.862   4.642  -2.246  1.00  0.00     0.200 A 
ATOM     87  F   UNL     1      11.245   6.180  -3.993  1.00  0.00    -0.200 F 
ATOM     88  F   UNL     1      11.492   3.682  -2.937  1.00  0.00    -0.200 F 
ENDBRANCH  54  78
BRANCH  66  89
ATOM     89  C   UNL     1       6.719  13.339  -1.307  1.00  0.00     0.064 A 
ATOM     90  C   UNL     1       7.559  14.019  -0.410  1.00  0.00     0.173 A 
ATOM     91  C   UNL     1       6.111  14.138  -2.302  1.00  0.00     0.173 A 
ATOM     92  F   UNL     1       8.114  13.382   0.631  1.00  0.00    -0.203 F 
ATOM     93  C   UNL     1       7.835  15.383  -0.548  1.00  0.00     0.198 A 
ATOM     94  C   UNL     1       6.345  15.509  -2.403  1.00  0.00     0.198 A 
ATOM     95  F   UNL     1       5.293  13.612  -3.224  1.00  0.00    -0.203 F 
ATOM     96  F   UNL     1       8.697  15.974   0.291  1.00  0.00    -0.200 F 
ATOM     97  C   UNL     1       7.223  16.128  -1.539  1.00  0.00     0.200 A 
ATOM     98  F   UNL     1       5.721  16.221  -3.353  1.00  0.00    -0.200 F 
ATOM     99  F   UNL     1       7.478  17.438  -1.661  1.00  0.00    -0.200 F 
ENDBRANCH  66  89
ENDBRANCH  40  41
ENDBRANCH  32  35
ENDBRANCH  30  31
ENDBRANCH  29  30
ENDBRANCH   1  29
TORSDOF 16
