REMARK SMILES CC[C@@H](C)[C@H](NC(=O)[C@H](C)N1C(=O)N2CCC3=c4cc(OC)ccc4=N[C@@H]3[C@@]2(C)C1=O)C(=O)NCCCCNC(=O)c1ccc(-c2c3nc(c(-c4c(F)c(F)c(F)c(F)c4F)c4ccc([nH]4)c(-c4c(F)c(F)c(F)c(F)c4F)c4nc(c(-c5c(F)c(F)c(F)c(F)c5F)c5ccc2[nH]5)C=C4)C=C3)cc1
REMARK SMILES IDX 35 1 34 2 32 3 33 4 5 6 3 7 4 8 2 9 1 10 6 11 7 12 8 14 9 15
REMARK SMILES IDX 10 16 11 17 12 18 30 19 14 20 13 21 28 22 31 23 15 24 27 25
REMARK SMILES IDX 29 26 16 27 17 28 26 29 18 30 25 31 19 32 24 33 20 34 23 35
REMARK SMILES IDX 21 36 22 37 36 38 37 39 38 40 39 41 40 42 41 44 42 45 43 46
REMARK SMILES IDX 104 47 44 48 103 49 45 50 46 51 47 52 97 53 48 54 102 55
REMARK SMILES IDX 96 56 98 57 49 58 101 59 95 60 94 61 50 63 82 64 62 65 81 66
REMARK SMILES IDX 63 67 66 68 80 69 99 70 64 71 65 72 79 74 100 75 67 76 51 77
REMARK SMILES IDX 52 78 60 79 53 80 54 81 58 82 61 83 55 84 56 85 59 86 57 87
REMARK SMILES IDX 83 88 84 89 92 90 85 91 86 92 90 93 93 94 87 95 88 96 91 97
REMARK SMILES IDX 89 98 68 99 69 100 77 101 70 102 71 103 75 104 78 105 72 106
REMARK SMILES IDX 73 107 76 108 74 109
REMARK H PARENT 34 5 6 13 39 43 98 62 66 73
REMARK Flexibility Score: inf
ROOT
ATOM      1  C   UNL     1      -2.017   1.154   2.447  1.00  0.00     0.116 C 
ENDROOT
BRANCH   1   2
ATOM      2  N   UNL     1      -0.621   1.536   2.326  1.00  0.00    -0.354 N 
ATOM      3  C   UNL     1       0.033   2.686   2.676  1.00  0.00     0.242 C 
ATOM      4  O   UNL     1       1.219   2.550   3.006  1.00  0.00    -0.273 OA
ATOM      5  H   UNL     1      -0.044   0.848   1.921  1.00  0.00     0.163 HD
BRANCH   3   6
ATOM      6  C   UNL     1      -0.674   4.052   2.867  1.00  0.00     0.174 C 
BRANCH   6   7
ATOM      7  C   UNL     1      -1.257   4.244   4.327  1.00  0.00     0.018 C 
ATOM      8  C   UNL     1      -1.314   2.973   5.190  1.00  0.00     0.010 C 
BRANCH   7   9
ATOM      9  C   UNL     1      -2.621   4.975   4.365  1.00  0.00     0.002 C 
ATOM     10  C   UNL     1      -3.218   5.195   5.747  1.00  0.00     0.004 C 
ENDBRANCH   7   9
ENDBRANCH   6   7
BRANCH   6  11
ATOM     11  N   UNL     1      -1.625   4.329   1.786  1.00  0.00    -0.342 N 
ATOM     12  C   UNL     1      -1.962   5.588   1.354  1.00  0.00     0.243 C 
ATOM     13  H   UNL     1      -2.050   3.561   1.339  1.00  0.00     0.164 HD
ATOM     14  O   UNL     1      -3.139   5.926   1.554  1.00  0.00    -0.273 OA
BRANCH  12  15
ATOM     15  C   UNL     1      -1.198   6.263   0.199  1.00  0.00     0.181 C 
ATOM     16  C   UNL     1      -1.719   5.402  -1.002  1.00  0.00     0.042 C 
BRANCH  15  17
ATOM     17  N   UNL     1       0.263   6.414   0.165  1.00  0.00    -0.250 N 
ATOM     18  C   UNL     1       1.137   7.017   1.074  1.00  0.00     0.328 C 
ATOM     19  C   UNL     1       0.931   6.273  -1.013  1.00  0.00     0.259 C 
ATOM     20  N   UNL     1       2.461   7.032   0.478  1.00  0.00    -0.307 N 
ATOM     21  O   UNL     1       0.869   7.384   2.208  1.00  0.00    -0.248 OA
ATOM     22  C   UNL     1       2.363   6.179  -0.678  1.00  0.00     0.147 C 
ATOM     23  O   UNL     1       0.501   6.209  -2.156  1.00  0.00    -0.271 OA
ATOM     24  C   UNL     1       3.809   6.921   1.183  1.00  0.00     0.127 C 
ATOM     25  C   UNL     1       2.647   4.854   0.033  1.00  0.00     0.168 C 
ATOM     26  C   UNL     1       3.202   6.727  -1.843  1.00  0.00     0.048 C 
ATOM     27  C   UNL     1       4.794   5.651   0.635  1.00  0.00     0.055 C 
ATOM     28  C   UNL     1       4.062   4.540  -0.166  1.00  0.00    -0.032 C 
ATOM     29  N   UNL     1       1.829   3.650   0.076  1.00  0.00    -0.274 NA
ATOM     30  C   UNL     1       4.148   3.210  -0.412  1.00  0.00     0.005 A 
ATOM     31  C   UNL     1       2.828   2.820   0.268  1.00  0.00     0.066 A 
ATOM     32  C   UNL     1       3.842   2.627  -1.798  1.00  0.00     0.056 A 
ATOM     33  C   UNL     1       2.717   1.380   0.521  1.00  0.00     0.032 A 
ATOM     34  C   UNL     1       3.051   1.513  -1.851  1.00  0.00     0.119 A 
ATOM     35  C   UNL     1       2.842   0.722  -0.637  1.00  0.00     0.048 A 
BRANCH  34  36
ATOM     36  O   UNL     1       2.123   1.315  -2.865  1.00  0.00    -0.497 OA
ATOM     37  C   UNL     1       0.761   1.357  -2.370  1.00  0.00     0.278 C 
ENDBRANCH  34  36
ENDBRANCH  15  17
ENDBRANCH  12  15
ENDBRANCH   6  11
ENDBRANCH   3   6
ENDBRANCH   1   2
BRANCH   1  38
ATOM     38  C   UNL     1      -2.534   0.334   1.267  1.00  0.00     0.023 C 
BRANCH  38  39
ATOM     39  C   UNL     1      -1.738  -0.931   0.931  1.00  0.00     0.023 C 
BRANCH  39  40
ATOM     40  C   UNL     1      -1.422  -1.860   2.099  1.00  0.00     0.116 C 
BRANCH  40  41
ATOM     41  N   UNL     1      -2.601  -2.450   2.714  1.00  0.00    -0.352 N 
ATOM     42  C   UNL     1      -2.923  -3.776   2.899  1.00  0.00     0.251 C 
ATOM     43  H   UNL     1      -3.267  -1.806   3.046  1.00  0.00     0.163 HD
ATOM     44  O   UNL     1      -4.017  -4.088   3.358  1.00  0.00    -0.269 OA
BRANCH  42  45
ATOM     45  C   UNL     1      -1.966  -4.830   2.500  1.00  0.00     0.039 A 
ATOM     46  C   UNL     1      -0.623  -4.756   2.872  1.00  0.00     0.014 A 
ATOM     47  C   UNL     1      -2.418  -5.890   1.709  1.00  0.00     0.014 A 
ATOM     48  C   UNL     1       0.296  -5.634   2.307  1.00  0.00     0.010 A 
ATOM     49  C   UNL     1      -1.504  -6.821   1.207  1.00  0.00     0.010 A 
ATOM     50  C   UNL     1      -0.132  -6.668   1.457  1.00  0.00    -0.014 A 
BRANCH  50  51
ATOM     51  C   UNL     1       0.870  -7.562   0.822  1.00  0.00     0.031 A 
ATOM     52  C   UNL     1       1.063  -7.557  -0.671  1.00  0.00     0.074 A 
ATOM     53  C   UNL     1       1.650  -8.340   1.596  1.00  0.00     0.049 A 
ATOM     54  N   UNL     1       1.864  -8.290  -1.405  1.00  0.00    -0.248 NA
ATOM     55  C   UNL     1       0.250  -6.605  -1.444  1.00  0.00     0.031 C 
ATOM     56  C   UNL     1       1.580  -8.411   3.055  1.00  0.00     0.029 A 
ATOM     57  N   UNL     1       2.671  -9.194   1.268  1.00  0.00    -0.354 N 
ATOM     58  C   UNL     1       1.631  -7.909  -2.720  1.00  0.00     0.074 A 
ATOM     59  C   UNL     1       0.605  -6.890  -2.689  1.00  0.00     0.031 C 
ATOM     60  C   UNL     1       2.557  -9.214   3.502  1.00  0.00     0.029 A 
ATOM     61  C   UNL     1       3.276  -9.767   2.358  1.00  0.00     0.049 A 
ATOM     62  H   UNL     1       2.943  -9.379   0.340  1.00  0.00     0.167 HD
ATOM     63  C   UNL     1       2.226  -8.365  -3.849  1.00  0.00     0.037 A 
ATOM     64  C   UNL     1       4.286 -10.653   2.431  1.00  0.00     0.037 A 
ATOM     65  C   UNL     1       3.267  -9.360  -3.877  1.00  0.00     0.049 A 
ATOM     66  C   UNL     1       4.900 -11.171   1.164  1.00  0.00     0.074 A 
ATOM     67  C   UNL     1       3.932  -9.885  -4.971  1.00  0.00     0.029 A 
ATOM     68  N   UNL     1       3.800  -9.973  -2.753  1.00  0.00    -0.354 N 
ATOM     69  N   UNL     1       4.637 -10.840  -0.076  1.00  0.00    -0.248 NA
ATOM     70  C   UNL     1       5.933 -12.206   1.306  1.00  0.00     0.031 C 
ATOM     71  C   UNL     1       4.849 -10.838  -4.511  1.00  0.00     0.029 A 
ATOM     72  C   UNL     1       4.778 -10.881  -3.128  1.00  0.00     0.049 A 
ATOM     73  H   UNL     1       3.526  -9.790  -1.826  1.00  0.00     0.167 HD
ATOM     74  C   UNL     1       5.461 -11.630  -0.863  1.00  0.00     0.074 A 
ATOM     75  C   UNL     1       6.258 -12.435   0.041  1.00  0.00     0.031 C 
ATOM     76  C   UNL     1       5.542 -11.690  -2.215  1.00  0.00     0.037 A 
BRANCH  63  77
ATOM     77  C   UNL     1       1.750  -7.804  -5.157  1.00  0.00     0.064 A 
ATOM     78  C   UNL     1       2.092  -6.508  -5.570  1.00  0.00     0.173 A 
ATOM     79  C   UNL     1       0.974  -8.587  -6.025  1.00  0.00     0.173 A 
ATOM     80  F   UNL     1       2.820  -5.716  -4.768  1.00  0.00    -0.203 F 
ATOM     81  C   UNL     1       1.658  -6.010  -6.795  1.00  0.00     0.198 A 
ATOM     82  C   UNL     1       0.560  -8.093  -7.259  1.00  0.00     0.198 A 
ATOM     83  F   UNL     1       0.622  -9.834  -5.678  1.00  0.00    -0.203 F 
ATOM     84  F   UNL     1       1.965  -4.755  -7.153  1.00  0.00    -0.200 F 
ATOM     85  C   UNL     1       0.898  -6.804  -7.641  1.00  0.00     0.200 A 
ATOM     86  F   UNL     1      -0.168  -8.864  -8.079  1.00  0.00    -0.200 F 
ATOM     87  F   UNL     1       0.484  -6.323  -8.822  1.00  0.00    -0.200 F 
ENDBRANCH  63  77
BRANCH  64  88
ATOM     88  C   UNL     1       4.768 -11.100   3.761  1.00  0.00     0.064 A 
ATOM     89  C   UNL     1       6.001 -10.662   4.259  1.00  0.00     0.173 A 
ATOM     90  C   UNL     1       3.985 -11.928   4.578  1.00  0.00     0.173 A 
ATOM     91  F   UNL     1       6.791  -9.886   3.503  1.00  0.00    -0.203 F 
ATOM     92  C   UNL     1       6.433 -11.032   5.531  1.00  0.00     0.198 A 
ATOM     93  C   UNL     1       4.407 -12.278   5.859  1.00  0.00     0.198 A 
ATOM     94  F   UNL     1       2.796 -12.370   4.144  1.00  0.00    -0.203 F 
ATOM     95  F   UNL     1       7.623 -10.613   5.980  1.00  0.00    -0.200 F 
ATOM     96  C   UNL     1       5.630 -11.830   6.333  1.00  0.00     0.200 A 
ATOM     97  F   UNL     1       3.623 -13.036   6.636  1.00  0.00    -0.200 F 
ATOM     98  F   UNL     1       6.037 -12.168   7.565  1.00  0.00    -0.200 F 
ENDBRANCH  64  88
BRANCH  76  99
ATOM     99  C   UNL     1       6.514 -12.673  -2.793  1.00  0.00     0.064 A 
ATOM    100  C   UNL     1       6.232 -14.047  -2.808  1.00  0.00     0.173 A 
ATOM    101  C   UNL     1       7.718 -12.239  -3.366  1.00  0.00     0.173 A 
ATOM    102  F   UNL     1       5.100 -14.509  -2.257  1.00  0.00    -0.203 F 
ATOM    103  C   UNL     1       7.131 -14.954  -3.361  1.00  0.00     0.198 A 
ATOM    104  C   UNL     1       8.605 -13.147  -3.937  1.00  0.00     0.198 A 
ATOM    105  F   UNL     1       8.029 -10.934  -3.378  1.00  0.00    -0.203 F 
ATOM    106  F   UNL     1       6.861 -16.266  -3.331  1.00  0.00    -0.200 F 
ATOM    107  C   UNL     1       8.314 -14.503  -3.929  1.00  0.00     0.200 A 
ATOM    108  F   UNL     1       9.744 -12.710  -4.492  1.00  0.00    -0.200 F 
ATOM    109  F   UNL     1       9.178 -15.378  -4.463  1.00  0.00    -0.200 F 
ENDBRANCH  76  99
ENDBRANCH  50  51
ENDBRANCH  42  45
ENDBRANCH  40  41
ENDBRANCH  39  40
ENDBRANCH  38  39
ENDBRANCH   1  38
TORSDOF 17
