REMARK SMILES C[NH+]1CCN(C(=O)c2ccc3c(c2)N(CC(=O)NCCCCNC(=O)c2ccc(-c4c5nc(c(-c6c(F)c(F)c(F)c(F)c6F)c6ccc([nH]6)c(-c6c(F)c(F)c(F)c(F)c6F)c6nc(c(-c7c(F)c(F)c(F)c(F)c7F)c7ccc4[nH]7)C=C6)C=C5)cc2)C(=O)CO3)CC1
REMARK SMILES IDX 20 1 19 2 18 3 16 4 17 5 15 7 14 8 8 9 9 10 13 11 10 12
REMARK SMILES IDX 12 13 11 14 92 15 89 16 91 17 90 18 6 19 1 20 2 21 3 22
REMARK SMILES IDX 94 23 4 25 93 26 5 27 7 28 21 29 22 30 23 31 24 32 25 34
REMARK SMILES IDX 26 35 27 36 88 37 28 38 87 39 29 40 30 41 31 42 81 43 32 44
REMARK SMILES IDX 86 45 80 46 82 47 33 48 85 49 79 50 78 51 34 53 66 54 46 55
REMARK SMILES IDX 65 56 47 57 50 58 64 59 83 60 48 61 49 62 63 64 84 65 51 66
REMARK SMILES IDX 35 67 36 68 44 69 37 70 38 71 42 72 45 73 39 74 40 75 43 76
REMARK SMILES IDX 41 77 67 78 68 79 76 80 69 81 70 82 74 83 77 84 71 85 72 86
REMARK SMILES IDX 75 87 73 88 52 89 53 90 61 91 54 92 55 93 59 94 62 95 56 96
REMARK SMILES IDX 57 97 60 98 58 99
REMARK H PARENT 18 6 2 24 23 33 82 52 50 63
REMARK Flexibility Score: inf
ROOT
ATOM      1  C   UNL     1      -2.623  -6.677   0.500  1.00  0.00     0.023 C 
ENDROOT
BRANCH   1   2
ATOM      2  C   UNL     1      -1.575  -6.637   1.611  1.00  0.00     0.116 C 
BRANCH   2   3
ATOM      3  N   UNL     1      -0.825  -5.399   1.609  1.00  0.00    -0.355 N 
ATOM      4  C   UNL     1      -0.917  -4.337   2.460  1.00  0.00     0.240 C 
ATOM      5  O   UNL     1      -0.084  -3.436   2.334  1.00  0.00    -0.273 OA
ATOM      6  H   UNL     1      -0.155  -5.310   0.893  1.00  0.00     0.163 HD
BRANCH   4   7
ATOM      7  C   UNL     1      -1.959  -4.291   3.587  1.00  0.00     0.225 C 
BRANCH   7   8
ATOM      8  N   UNL     1      -3.350  -4.369   3.138  1.00  0.00    -0.296 N 
ATOM      9  C   UNL     1      -3.785  -1.283   1.051  1.00  0.00     0.042 A 
ATOM     10  C   UNL     1      -5.011  -1.547   0.440  1.00  0.00     0.018 A 
ATOM     11  C   UNL     1      -3.245  -2.178   1.987  1.00  0.00     0.044 A 
ATOM     12  C   UNL     1      -5.683  -2.730   0.735  1.00  0.00     0.049 A 
ATOM     13  C   UNL     1      -3.905  -3.381   2.275  1.00  0.00     0.087 A 
ATOM     14  C   UNL     1      -5.137  -3.633   1.650  1.00  0.00     0.143 A 
ATOM     15  O   UNL     1      -5.847  -4.789   1.823  1.00  0.00    -0.482 OA
ATOM     16  C   UNL     1      -4.131  -5.441   3.550  1.00  0.00     0.265 C 
ATOM     17  C   UNL     1      -5.569  -5.431   3.051  1.00  0.00     0.330 C 
ATOM     18  O   UNL     1      -3.730  -6.325   4.308  1.00  0.00    -0.270 OA
BRANCH   9  19
ATOM     19  C   UNL     1      -3.104  -0.009   0.737  1.00  0.00     0.254 C 
ATOM     20  C   UNL     1       2.451   0.093   0.059  1.00  0.00     0.332 C 
ATOM     21  N   UNL     1       1.045   0.076  -0.341  1.00  0.00    -0.334 N 
ATOM     22  C   UNL     1       0.331   1.244   0.225  1.00  0.00     0.283 C 
ATOM     23  C   UNL     1       0.394  -1.165   0.131  1.00  0.00     0.283 C 
ATOM     24  H   UNL     1       1.003   0.117  -1.359  1.00  0.00     0.347 HD
ATOM     25  C   UNL     1      -1.172   1.241  -0.119  1.00  0.00     0.181 C 
ATOM     26  C   UNL     1      -1.092  -1.213  -0.268  1.00  0.00     0.181 C 
ATOM     27  N   UNL     1      -1.816  -0.031   0.219  1.00  0.00    -0.327 N 
ATOM     28  O   UNL     1      -3.740   1.023   0.940  1.00  0.00    -0.269 OA
ENDBRANCH   9  19
ENDBRANCH   7   8
ENDBRANCH   4   7
ENDBRANCH   2   3
ENDBRANCH   1   2
BRANCH   1  29
ATOM     29  C   UNL     1      -2.051  -6.739  -0.919  1.00  0.00     0.023 C 
BRANCH  29  30
ATOM     30  C   UNL     1      -1.096  -7.897  -1.190  1.00  0.00     0.116 C 
BRANCH  30  31
ATOM     31  N   UNL     1      -1.688  -9.203  -0.947  1.00  0.00    -0.352 N 
ATOM     32  C   UNL     1      -1.548 -10.362  -1.671  1.00  0.00     0.251 C 
ATOM     33  H   UNL     1      -2.270  -9.264  -0.156  1.00  0.00     0.163 HD
ATOM     34  O   UNL     1      -2.211 -11.354  -1.387  1.00  0.00    -0.269 OA
BRANCH  32  35
ATOM     35  C   UNL     1      -0.622 -10.400  -2.823  1.00  0.00     0.039 A 
ATOM     36  C   UNL     1      -1.069 -10.945  -4.029  1.00  0.00     0.014 A 
ATOM     37  C   UNL     1       0.672  -9.883  -2.722  1.00  0.00     0.014 A 
ATOM     38  C   UNL     1      -0.245 -10.906  -5.155  1.00  0.00     0.010 A 
ATOM     39  C   UNL     1       1.466  -9.779  -3.861  1.00  0.00     0.010 A 
ATOM     40  C   UNL     1       1.014 -10.286  -5.089  1.00  0.00    -0.014 A 
BRANCH  40  41
ATOM     41  C   UNL     1       1.869 -10.150  -6.295  1.00  0.00     0.031 A 
ATOM     42  C   UNL     1       3.200 -10.845  -6.361  1.00  0.00     0.074 A 
ATOM     43  C   UNL     1       1.478  -9.347  -7.303  1.00  0.00     0.049 A 
ATOM     44  N   UNL     1       4.118 -10.792  -7.293  1.00  0.00    -0.248 NA
ATOM     45  C   UNL     1       3.557 -11.693  -5.213  1.00  0.00     0.031 C 
ATOM     46  C   UNL     1       0.228  -8.587  -7.341  1.00  0.00     0.029 A 
ATOM     47  N   UNL     1       2.096  -9.030  -8.487  1.00  0.00    -0.354 N 
ATOM     48  C   UNL     1       5.162 -11.588  -6.839  1.00  0.00     0.074 A 
ATOM     49  C   UNL     1       4.790 -12.064  -5.524  1.00  0.00     0.031 C 
ATOM     50  C   UNL     1       0.159  -7.913  -8.501  1.00  0.00     0.029 A 
ATOM     51  C   UNL     1       1.375  -8.162  -9.270  1.00  0.00     0.049 A 
ATOM     52  H   UNL     1       2.973  -9.391  -8.751  1.00  0.00     0.167 HD
ATOM     53  C   UNL     1       6.314 -11.913  -7.472  1.00  0.00     0.037 A 
ATOM     54  C   UNL     1       1.665  -7.623 -10.469  1.00  0.00     0.037 A 
ATOM     55  C   UNL     1       6.675 -11.451  -8.787  1.00  0.00     0.049 A 
ATOM     56  C   UNL     1       2.964  -7.979 -11.140  1.00  0.00     0.074 A 
ATOM     57  C   UNL     1       7.797 -11.761  -9.535  1.00  0.00     0.029 A 
ATOM     58  N   UNL     1       5.917 -10.574  -9.550  1.00  0.00    -0.354 N 
ATOM     59  N   UNL     1       3.916  -8.781 -10.730  1.00  0.00    -0.248 NA
ATOM     60  C   UNL     1       3.226  -7.355 -12.444  1.00  0.00     0.031 C 
ATOM     61  C   UNL     1       7.741 -11.037 -10.730  1.00  0.00     0.029 A 
ATOM     62  C   UNL     1       6.559 -10.315 -10.751  1.00  0.00     0.049 A 
ATOM     63  H   UNL     1       5.051 -10.192  -9.278  1.00  0.00     0.167 HD
ATOM     64  C   UNL     1       4.872  -8.785 -11.736  1.00  0.00     0.074 A 
ATOM     65  C   UNL     1       4.380  -7.913 -12.782  1.00  0.00     0.031 C 
ATOM     66  C   UNL     1       6.052  -9.451 -11.788  1.00  0.00     0.037 A 
BRANCH  53  67
ATOM     67  C   UNL     1       7.269 -12.817  -6.745  1.00  0.00     0.064 A 
ATOM     68  C   UNL     1       6.966 -14.167  -6.507  1.00  0.00     0.173 A 
ATOM     69  C   UNL     1       8.508 -12.336  -6.297  1.00  0.00     0.173 A 
ATOM     70  F   UNL     1       5.789 -14.675  -6.904  1.00  0.00    -0.203 F 
ATOM     71  C   UNL     1       7.850 -14.990  -5.815  1.00  0.00     0.198 A 
ATOM     72  C   UNL     1       9.404 -13.171  -5.634  1.00  0.00     0.198 A 
ATOM     73  F   UNL     1       8.852 -11.056  -6.504  1.00  0.00    -0.203 F 
ATOM     74  F   UNL     1       7.512 -16.259  -5.548  1.00  0.00    -0.200 F 
ATOM     75  C   UNL     1       9.071 -14.493  -5.385  1.00  0.00     0.200 A 
ATOM     76  F   UNL     1      10.589 -12.692  -5.230  1.00  0.00    -0.200 F 
ATOM     77  F   UNL     1       9.922 -15.287  -4.720  1.00  0.00    -0.200 F 
ENDBRANCH  53  67
BRANCH  54  78
ATOM     78  C   UNL     1       0.691  -6.717 -11.131  1.00  0.00     0.064 A 
ATOM     79  C   UNL     1       0.002  -7.125 -12.282  1.00  0.00     0.173 A 
ATOM     80  C   UNL     1       0.428  -5.432 -10.634  1.00  0.00     0.173 A 
ATOM     81  F   UNL     1       0.235  -8.336 -12.807  1.00  0.00    -0.203 F 
ATOM     82  C   UNL     1      -0.899  -6.276 -12.921  1.00  0.00     0.198 A 
ATOM     83  C   UNL     1      -0.494  -4.594 -11.258  1.00  0.00     0.198 A 
ATOM     84  F   UNL     1       1.057  -4.996  -9.533  1.00  0.00    -0.203 F 
ATOM     85  F   UNL     1      -1.511  -6.675 -14.044  1.00  0.00    -0.200 F 
ATOM     86  C   UNL     1      -1.151  -5.013 -12.405  1.00  0.00     0.200 A 
ATOM     87  F   UNL     1      -0.745  -3.381 -10.748  1.00  0.00    -0.200 F 
ATOM     88  F   UNL     1      -2.021  -4.199 -13.017  1.00  0.00    -0.200 F 
ENDBRANCH  54  78
BRANCH  66  89
ATOM     89  C   UNL     1       6.875  -9.297 -13.034  1.00  0.00     0.064 A 
ATOM     90  C   UNL     1       7.550  -8.104 -13.329  1.00  0.00     0.173 A 
ATOM     91  C   UNL     1       7.020 -10.372 -13.925  1.00  0.00     0.173 A 
ATOM     92  F   UNL     1       7.430  -7.042 -12.518  1.00  0.00    -0.203 F 
ATOM     93  C   UNL     1       8.320  -7.984 -14.483  1.00  0.00     0.198 A 
ATOM     94  C   UNL     1       7.815 -10.259 -15.061  1.00  0.00     0.198 A 
ATOM     95  F   UNL     1       6.400 -11.537 -13.685  1.00  0.00    -0.203 F 
ATOM     96  F   UNL     1       8.918  -6.819 -14.769  1.00  0.00    -0.200 F 
ATOM     97  C   UNL     1       8.458  -9.063 -15.343  1.00  0.00     0.200 A 
ATOM     98  F   UNL     1       7.959 -11.307 -15.884  1.00  0.00    -0.200 F 
ATOM     99  F   UNL     1       9.206  -8.948 -16.449  1.00  0.00    -0.200 F 
ENDBRANCH  66  89
ENDBRANCH  40  41
ENDBRANCH  32  35
ENDBRANCH  30  31
ENDBRANCH  29  30
ENDBRANCH   1  29
TORSDOF 13
