REMARK SMILES C[NH2+]CCCC(=O)NC[C@@H]1CC[C@H](C(=O)NCCCCNC(=O)c2ccc(-c3c4nc(c(-c5c(F)c(F)c(F)c(F)c5F)c5ccc([nH]5)c(-c5c(F)c(F)c(F)c(F)c5F)c5nc(c(-c6c(F)c(F)c(F)c(F)c6F)c6ccc3[nH]6)C=C5)C=C4)cc2)O1
REMARK SMILES IDX 14 1 15 2 16 3 13 5 10 6 11 7 87 8 12 9 9 10 8 11 6 12 7 13
REMARK SMILES IDX 5 15 4 16 3 17 2 18 1 19 17 22 18 23 19 24 20 25 21 26 22 27
REMARK SMILES IDX 23 29 24 30 25 31 86 32 26 33 85 34 27 35 28 36 29 37 79 38
REMARK SMILES IDX 30 39 84 40 78 41 80 42 31 43 83 44 77 45 76 46 32 48 64 49
REMARK SMILES IDX 44 50 63 51 45 52 48 53 62 54 81 55 46 56 47 57 61 59 82 60
REMARK SMILES IDX 49 61 33 62 34 63 42 64 35 65 36 66 40 67 43 68 37 69 38 70
REMARK SMILES IDX 41 71 39 72 65 73 66 74 74 75 67 76 68 77 72 78 75 79 69 80
REMARK SMILES IDX 70 81 73 82 71 83 50 84 51 85 59 86 52 87 53 88 57 89 60 90
REMARK SMILES IDX 54 91 55 92 58 93 56 94
REMARK H PARENT 16 4 8 14 2 20 2 21 21 28 80 47 48 58
REMARK Flexibility Score: inf
ROOT
ATOM      1  C   UNL     1       0.760   6.508   0.762  1.00  0.00     0.249 C 
ATOM      2  O   UNL     1       0.905   7.717   0.555  1.00  0.00    -0.272 OA
ATOM      3  N   UNL     1       1.892   5.763   0.926  1.00  0.00    -0.354 N 
ATOM      4  H   UNL     1       2.735   6.270   0.879  1.00  0.00     0.163 HD
ENDROOT
BRANCH   1   5
ATOM      5  C   UNL     1      -0.650   5.879   0.799  1.00  0.00     0.207 C 
ATOM      6  C   UNL     1      -1.527   3.872   1.635  1.00  0.00     0.138 C 
ATOM      7  C   UNL     1      -1.219   3.633   0.163  1.00  0.00     0.037 C 
ATOM      8  O   UNL     1      -0.906   5.122   1.982  1.00  0.00    -0.363 OA
ATOM      9  C   UNL     1      -0.977   5.011  -0.404  1.00  0.00     0.045 C 
BRANCH   6  10
ATOM     10  C   UNL     1      -0.986   2.792   2.597  1.00  0.00     0.147 C 
BRANCH  10  11
ATOM     11  N   UNL     1      -2.037   2.056   3.275  1.00  0.00    -0.353 N 
ATOM     12  C   UNL     1      -2.127   0.731   3.566  1.00  0.00     0.220 C 
ATOM     13  O   UNL     1      -3.071   0.348   4.260  1.00  0.00    -0.275 OA
ATOM     14  H   UNL     1      -2.803   2.600   3.570  1.00  0.00     0.163 HD
BRANCH  12  15
ATOM     15  C   UNL     1      -1.102  -0.252   3.039  1.00  0.00     0.106 C 
BRANCH  15  16
ATOM     16  C   UNL     1      -1.488  -0.846   1.681  1.00  0.00     0.071 C 
BRANCH  16  17
ATOM     17  C   UNL     1      -1.102  -0.009   0.458  1.00  0.00     0.260 C 
BRANCH  17  18
ATOM     18  N   UNL     1       0.340   0.232   0.321  1.00  0.00    -0.349 N 
ATOM     19  C   UNL     1       0.971  -0.745  -0.560  1.00  0.00     0.330 C 
ATOM     20  H   UNL     1       0.484   1.165  -0.065  1.00  0.00     0.346 HD
ATOM     21  H   UNL     1       0.765   0.148   1.244  1.00  0.00     0.346 HD
ENDBRANCH  17  18
ENDBRANCH  16  17
ENDBRANCH  15  16
ENDBRANCH  12  15
ENDBRANCH  10  11
ENDBRANCH   6  10
ENDBRANCH   1   5
BRANCH   3  22
ATOM     22  C   UNL     1       2.044   4.345   1.159  1.00  0.00     0.116 C 
BRANCH  22  23
ATOM     23  C   UNL     1       2.553   3.614  -0.081  1.00  0.00     0.023 C 
BRANCH  23  24
ATOM     24  C   UNL     1       4.071   3.663  -0.250  1.00  0.00     0.023 C 
BRANCH  24  25
ATOM     25  C   UNL     1       4.861   3.000   0.873  1.00  0.00     0.116 C 
BRANCH  25  26
ATOM     26  N   UNL     1       4.563   1.587   1.050  1.00  0.00    -0.352 N 
ATOM     27  C   UNL     1       5.404   0.594   1.507  1.00  0.00     0.251 C 
ATOM     28  H   UNL     1       3.649   1.306   0.814  1.00  0.00     0.163 HD
ATOM     29  O   UNL     1       5.046  -0.569   1.533  1.00  0.00    -0.269 OA
BRANCH  27  30
ATOM     30  C   UNL     1       6.777   0.970   1.917  1.00  0.00     0.039 A 
ATOM     31  C   UNL     1       7.859   0.312   1.328  1.00  0.00     0.014 A 
ATOM     32  C   UNL     1       6.988   2.020   2.813  1.00  0.00     0.014 A 
ATOM     33  C   UNL     1       9.157   0.764   1.576  1.00  0.00     0.010 A 
ATOM     34  C   UNL     1       8.274   2.514   3.002  1.00  0.00     0.010 A 
ATOM     35  C   UNL     1       9.371   1.897   2.380  1.00  0.00    -0.014 A 
BRANCH  35  36
ATOM     36  C   UNL     1      10.730   2.461   2.574  1.00  0.00     0.031 A 
ATOM     37  C   UNL     1      11.350   2.479   3.942  1.00  0.00     0.074 A 
ATOM     38  C   UNL     1      11.372   3.031   1.535  1.00  0.00     0.049 A 
ATOM     39  N   UNL     1      12.486   3.001   4.330  1.00  0.00    -0.248 NA
ATOM     40  C   UNL     1      10.573   1.856   5.024  1.00  0.00     0.031 C 
ATOM     41  C   UNL     1      10.852   3.132   0.171  1.00  0.00     0.029 A 
ATOM     42  N   UNL     1      12.597   3.649   1.470  1.00  0.00    -0.354 N 
ATOM     43  C   UNL     1      12.551   2.784   5.700  1.00  0.00     0.074 A 
ATOM     44  C   UNL     1      11.316   2.135   6.084  1.00  0.00     0.031 C 
ATOM     45  C   UNL     1      11.757   3.756  -0.600  1.00  0.00     0.029 A 
ATOM     46  C   UNL     1      12.906   4.128   0.221  1.00  0.00     0.049 A 
ATOM     47  H   UNL     1      13.196   3.740   2.246  1.00  0.00     0.167 HD
ATOM     48  C   UNL     1      13.559   3.076   6.556  1.00  0.00     0.037 A 
ATOM     49  C   UNL     1      13.993   4.796  -0.213  1.00  0.00     0.037 A 
ATOM     50  C   UNL     1      14.798   3.697   6.167  1.00  0.00     0.049 A 
ATOM     51  C   UNL     1      15.106   5.096   0.753  1.00  0.00     0.074 A 
ATOM     52  C   UNL     1      15.906   3.977   6.947  1.00  0.00     0.029 A 
ATOM     53  N   UNL     1      15.090   4.136   4.884  1.00  0.00    -0.354 N 
ATOM     54  N   UNL     1      15.188   4.821   2.032  1.00  0.00    -0.248 NA
ATOM     55  C   UNL     1      16.283   5.792   0.213  1.00  0.00     0.031 C 
ATOM     56  C   UNL     1      16.855   4.620   6.144  1.00  0.00     0.029 A 
ATOM     57  C   UNL     1      16.356   4.700   4.854  1.00  0.00     0.049 A 
ATOM     58  H   UNL     1      14.488   4.059   4.109  1.00  0.00     0.167 HD
ATOM     59  C   UNL     1      16.429   5.286   2.444  1.00  0.00     0.074 A 
ATOM     60  C   UNL     1      17.073   5.848   1.276  1.00  0.00     0.031 C 
ATOM     61  C   UNL     1      16.985   5.250   3.680  1.00  0.00     0.037 A 
BRANCH  48  62
ATOM     62  C   UNL     1      13.362   2.717   8.000  1.00  0.00     0.064 A 
ATOM     63  C   UNL     1      13.339   1.380   8.427  1.00  0.00     0.173 A 
ATOM     64  C   UNL     1      13.209   3.718   8.970  1.00  0.00     0.173 A 
ATOM     65  F   UNL     1      13.467   0.385   7.536  1.00  0.00    -0.203 F 
ATOM     66  C   UNL     1      13.134   1.058   9.766  1.00  0.00     0.198 A 
ATOM     67  C   UNL     1      13.036   3.393  10.313  1.00  0.00     0.198 A 
ATOM     68  F   UNL     1      13.229   5.012   8.617  1.00  0.00    -0.203 F 
ATOM     69  F   UNL     1      13.058  -0.226  10.140  1.00  0.00    -0.200 F 
ATOM     70  C   UNL     1      12.989   2.064  10.708  1.00  0.00     0.200 A 
ATOM     71  F   UNL     1      12.907   4.367  11.225  1.00  0.00    -0.200 F 
ATOM     72  F   UNL     1      12.793   1.753  11.997  1.00  0.00    -0.200 F 
ENDBRANCH  48  62
BRANCH  49  73
ATOM     73  C   UNL     1      14.093   5.196  -1.640  1.00  0.00     0.064 A 
ATOM     74  C   UNL     1      14.991   4.553  -2.504  1.00  0.00     0.173 A 
ATOM     75  C   UNL     1      13.292   6.216  -2.171  1.00  0.00     0.173 A 
ATOM     76  F   UNL     1      15.792   3.585  -2.036  1.00  0.00    -0.203 F 
ATOM     77  C   UNL     1      15.095   4.927  -3.841  1.00  0.00     0.198 A 
ATOM     78  C   UNL     1      13.379   6.572  -3.515  1.00  0.00     0.198 A 
ATOM     79  F   UNL     1      12.413   6.857  -1.387  1.00  0.00    -0.203 F 
ATOM     80  F   UNL     1      15.989   4.323  -4.636  1.00  0.00    -0.200 F 
ATOM     81  C   UNL     1      14.285   5.932  -4.348  1.00  0.00     0.200 A 
ATOM     82  F   UNL     1      12.585   7.535  -4.004  1.00  0.00    -0.200 F 
ATOM     83  F   UNL     1      14.381   6.287  -5.636  1.00  0.00    -0.200 F 
ENDBRANCH  49  73
BRANCH  61  84
ATOM     84  C   UNL     1      18.370   5.807   3.828  1.00  0.00     0.064 A 
ATOM     85  C   UNL     1      18.616   7.187   3.790  1.00  0.00     0.173 A 
ATOM     86  C   UNL     1      19.458   4.950   4.054  1.00  0.00     0.173 A 
ATOM     87  F   UNL     1      17.611   8.045   3.561  1.00  0.00    -0.203 F 
ATOM     88  C   UNL     1      19.905   7.688   3.952  1.00  0.00     0.198 A 
ATOM     89  C   UNL     1      20.741   5.456   4.243  1.00  0.00     0.198 A 
ATOM     90  F   UNL     1      19.274   3.622   4.104  1.00  0.00    -0.203 F 
ATOM     91  F   UNL     1      20.124   9.008   3.870  1.00  0.00    -0.200 F 
ATOM     92  C   UNL     1      20.965   6.823   4.186  1.00  0.00     0.200 A 
ATOM     93  F   UNL     1      21.762   4.620   4.480  1.00  0.00    -0.200 F 
ATOM     94  F   UNL     1      22.203   7.308   4.349  1.00  0.00    -0.200 F 
ENDBRANCH  61  84
ENDBRANCH  35  36
ENDBRANCH  27  30
ENDBRANCH  25  26
ENDBRANCH  24  25
ENDBRANCH  23  24
ENDBRANCH  22  23
ENDBRANCH   3  22
TORSDOF 17
