REMARK SMILES CC(C)[C@H]1CC[C@@H](C)C/C1=C(\F)C(=O)NCCCCNC(=O)c1ccc(-c2c3nc(c(-c4c(F)c(F)c(F)c(F)c4F)c4ccc([nH]4)c(-c4c(F)c(F)c(F)c(F)c4F)c4nc(c(-c5c(F)c(F)c(F)c(F)c5F)c5ccc2[nH]5)C=C4)C=C3)cc1
REMARK SMILES IDX 18 1 17 2 16 3 15 4 13 5 14 6 11 8 4 9 5 10 10 11 6 12 9 13
REMARK SMILES IDX 7 14 12 15 8 16 2 17 1 18 3 19 19 20 20 21 21 22 22 24 23 25
REMARK SMILES IDX 24 26 85 27 25 28 84 29 26 30 27 31 28 32 78 33 29 34 83 35
REMARK SMILES IDX 77 36 79 37 30 38 82 39 76 40 75 41 31 43 63 44 43 45 62 46
REMARK SMILES IDX 44 47 47 48 61 49 80 50 45 51 46 52 60 54 81 55 48 56 32 57
REMARK SMILES IDX 33 58 41 59 34 60 35 61 39 62 42 63 36 64 37 65 40 66 38 67
REMARK SMILES IDX 64 68 65 69 73 70 66 71 67 72 71 73 74 74 68 75 69 76 72 77
REMARK SMILES IDX 70 78 49 79 50 80 58 81 51 82 52 83 56 84 59 85 53 86 54 87
REMARK SMILES IDX 57 88 55 89
REMARK H PARENT 15 7 20 23 79 42 47 53
REMARK Flexibility Score: inf
ROOT
ATOM      1  C   UNL     1      -5.882   5.092  -0.386  1.00  0.00     0.023 C 
ENDROOT
BRANCH   1   2
ATOM      2  C   UNL     1      -5.331   3.939  -1.226  1.00  0.00     0.023 C 
BRANCH   2   3
ATOM      3  C   UNL     1      -3.839   3.971  -1.546  1.00  0.00     0.116 C 
BRANCH   3   4
ATOM      4  N   UNL     1      -2.985   4.112  -0.379  1.00  0.00    -0.350 N 
ATOM      5  C   UNL     1      -1.938   3.345   0.053  1.00  0.00     0.279 C 
ATOM      6  O   UNL     1      -1.208   3.803   0.929  1.00  0.00    -0.267 OA
ATOM      7  H   UNL     1      -3.194   4.884   0.194  1.00  0.00     0.163 HD
BRANCH   5   8
ATOM      8  C   UNL     1      -1.685   2.020  -0.583  1.00  0.00     0.187 C 
ATOM      9  C   UNL     1      -1.150   0.426   1.454  1.00  0.00     0.021 C 
ATOM     10  C   UNL     1      -1.559  -1.050   1.738  1.00  0.00     0.009 C 
ATOM     11  C   UNL     1      -1.344   0.831  -0.032  1.00  0.00    -0.025 C 
ATOM     12  C   UNL     1      -1.113  -2.055   0.686  1.00  0.00     0.004 C 
ATOM     13  C   UNL     1      -0.983  -0.273  -1.030  1.00  0.00     0.038 C 
ATOM     14  C   UNL     1      -1.573  -1.647  -0.706  1.00  0.00    -0.010 C 
ATOM     15  F   UNL     1      -1.711   2.106  -1.937  1.00  0.00    -0.201 F 
ATOM     16  C   UNL     1      -3.098  -1.679  -0.847  1.00  0.00     0.008 C 
BRANCH   9  17
ATOM     17  C   UNL     1      -1.736   1.336   2.588  1.00  0.00    -0.010 C 
ATOM     18  C   UNL     1      -3.247   1.573   2.493  1.00  0.00     0.008 C 
ATOM     19  C   UNL     1      -1.423   0.813   4.003  1.00  0.00     0.008 C 
ENDBRANCH   9  17
ENDBRANCH   5   8
ENDBRANCH   3   4
ENDBRANCH   2   3
ENDBRANCH   1   2
BRANCH   1  20
ATOM     20  C   UNL     1      -5.486   6.503  -0.811  1.00  0.00     0.116 C 
BRANCH  20  21
ATOM     21  N   UNL     1      -5.855   6.829  -2.175  1.00  0.00    -0.352 N 
ATOM     22  C   UNL     1      -6.437   7.961  -2.693  1.00  0.00     0.251 C 
ATOM     23  H   UNL     1      -5.658   6.126  -2.836  1.00  0.00     0.163 HD
ATOM     24  O   UNL     1      -6.738   7.988  -3.883  1.00  0.00    -0.269 OA
BRANCH  22  25
ATOM     25  C   UNL     1      -6.744   9.135  -1.838  1.00  0.00     0.039 A 
ATOM     26  C   UNL     1      -7.936   9.826  -2.075  1.00  0.00     0.014 A 
ATOM     27  C   UNL     1      -5.877   9.586  -0.840  1.00  0.00     0.014 A 
ATOM     28  C   UNL     1      -8.281  10.924  -1.283  1.00  0.00     0.010 A 
ATOM     29  C   UNL     1      -6.260  10.630   0.006  1.00  0.00     0.010 A 
ATOM     30  C   UNL     1      -7.464  11.317  -0.210  1.00  0.00    -0.014 A 
BRANCH  30  31
ATOM     31  C   UNL     1      -7.881  12.432   0.683  1.00  0.00     0.031 A 
ATOM     32  C   UNL     1      -7.071  13.698   0.774  1.00  0.00     0.074 A 
ATOM     33  C   UNL     1      -8.993  12.296   1.433  1.00  0.00     0.049 A 
ATOM     34  N   UNL     1      -7.311  14.787   1.463  1.00  0.00    -0.248 NA
ATOM     35  C   UNL     1      -5.815  13.741   0.011  1.00  0.00     0.031 C 
ATOM     36  C   UNL     1      -9.830  11.097   1.490  1.00  0.00     0.029 A 
ATOM     37  N   UNL     1      -9.615  13.174   2.286  1.00  0.00    -0.354 N 
ATOM     38  C   UNL     1      -6.239  15.636   1.220  1.00  0.00     0.074 A 
ATOM     39  C   UNL     1      -5.317  14.915   0.370  1.00  0.00     0.031 C 
ATOM     40  C   UNL     1     -10.876  11.327   2.298  1.00  0.00     0.029 A 
ATOM     41  C   UNL     1     -10.768  12.676   2.845  1.00  0.00     0.049 A 
ATOM     42  H   UNL     1      -9.269  14.075   2.480  1.00  0.00     0.167 HD
ATOM     43  C   UNL     1      -6.053  16.910   1.644  1.00  0.00     0.037 A 
ATOM     44  C   UNL     1     -11.643  13.243   3.697  1.00  0.00     0.037 A 
ATOM     45  C   UNL     1      -6.979  17.632   2.481  1.00  0.00     0.049 A 
ATOM     46  C   UNL     1     -11.417  14.663   4.142  1.00  0.00     0.074 A 
ATOM     47  C   UNL     1      -6.909  18.945   2.914  1.00  0.00     0.029 A 
ATOM     48  N   UNL     1      -8.140  17.097   3.020  1.00  0.00    -0.354 N 
ATOM     49  N   UNL     1     -10.446  15.486   3.832  1.00  0.00    -0.248 NA
ATOM     50  C   UNL     1     -12.423  15.236   5.046  1.00  0.00     0.031 C 
ATOM     51  C   UNL     1      -7.996  19.186   3.762  1.00  0.00     0.029 A 
ATOM     52  C   UNL     1      -8.781  18.046   3.803  1.00  0.00     0.049 A 
ATOM     53  H   UNL     1      -8.462  16.179   2.868  1.00  0.00     0.167 HD
ATOM     54  C   UNL     1     -10.736  16.680   4.478  1.00  0.00     0.074 A 
ATOM     55  C   UNL     1     -11.990  16.482   5.174  1.00  0.00     0.031 C 
ATOM     56  C   UNL     1     -10.026  17.836   4.498  1.00  0.00     0.037 A 
BRANCH  43  57
ATOM     57  C   UNL     1      -4.795  17.613   1.211  1.00  0.00     0.064 A 
ATOM     58  C   UNL     1      -4.579  17.980  -0.127  1.00  0.00     0.173 A 
ATOM     59  C   UNL     1      -3.815  17.965   2.151  1.00  0.00     0.173 A 
ATOM     60  F   UNL     1      -5.478  17.661  -1.070  1.00  0.00    -0.203 F 
ATOM     61  C   UNL     1      -3.416  18.645  -0.510  1.00  0.00     0.198 A 
ATOM     62  C   UNL     1      -2.670  18.661   1.770  1.00  0.00     0.198 A 
ATOM     63  F   UNL     1      -3.973  17.647   3.445  1.00  0.00    -0.203 F 
ATOM     64  F   UNL     1      -3.209  18.939  -1.801  1.00  0.00    -0.200 F 
ATOM     65  C   UNL     1      -2.467  18.992   0.439  1.00  0.00     0.200 A 
ATOM     66  F   UNL     1      -1.762  19.010   2.692  1.00  0.00    -0.200 F 
ATOM     67  F   UNL     1      -1.354  19.642   0.070  1.00  0.00    -0.200 F 
ENDBRANCH  43  57
BRANCH  44  68
ATOM     68  C   UNL     1     -12.832  12.479   4.162  1.00  0.00     0.064 A 
ATOM     69  C   UNL     1     -14.128  12.852   3.780  1.00  0.00     0.173 A 
ATOM     70  C   UNL     1     -12.697  11.370   5.010  1.00  0.00     0.173 A 
ATOM     71  F   UNL     1     -14.312  13.918   2.987  1.00  0.00    -0.203 F 
ATOM     72  C   UNL     1     -15.245  12.165   4.252  1.00  0.00     0.198 A 
ATOM     73  C   UNL     1     -13.813  10.662   5.453  1.00  0.00     0.198 A 
ATOM     74  F   UNL     1     -11.480  10.966   5.401  1.00  0.00    -0.203 F 
ATOM     75  F   UNL     1     -16.474  12.580   3.917  1.00  0.00    -0.200 F 
ATOM     76  C   UNL     1     -15.086  11.067   5.083  1.00  0.00     0.200 A 
ATOM     77  F   UNL     1     -13.653   9.590   6.241  1.00  0.00    -0.200 F 
ATOM     78  F   UNL     1     -16.160  10.404   5.534  1.00  0.00    -0.200 F 
ENDBRANCH  44  68
BRANCH  56  79
ATOM     79  C   UNL     1     -10.611  18.983   5.275  1.00  0.00     0.064 A 
ATOM     80  C   UNL     1     -10.720  18.952   6.674  1.00  0.00     0.173 A 
ATOM     81  C   UNL     1     -11.077  20.128   4.609  1.00  0.00     0.173 A 
ATOM     82  F   UNL     1     -10.302  17.877   7.360  1.00  0.00    -0.203 F 
ATOM     83  C   UNL     1     -11.319  19.998   7.371  1.00  0.00     0.198 A 
ATOM     84  C   UNL     1     -11.639  21.190   5.313  1.00  0.00     0.198 A 
ATOM     85  F   UNL     1     -10.988  20.218   3.274  1.00  0.00    -0.203 F 
ATOM     86  F   UNL     1     -11.482  19.910   8.698  1.00  0.00    -0.200 F 
ATOM     87  C   UNL     1     -11.774  21.117   6.691  1.00  0.00     0.200 A 
ATOM     88  F   UNL     1     -12.062  22.278   4.655  1.00  0.00    -0.200 F 
ATOM     89  F   UNL     1     -12.355  22.121   7.362  1.00  0.00    -0.200 F 
ENDBRANCH  56  79
ENDBRANCH  30  31
ENDBRANCH  22  25
ENDBRANCH  20  21
ENDBRANCH   1  20
TORSDOF 12
