REMARK SMILES COc1ccc([C@H](C)[N@H+]2CC[C@H](C(=O)NCCCCNC(=O)c3ccc(-c4c5nc(c(-c6c(F)c(F)c(F)c(F)c6F)c6ccc([nH]6)c(-c6c(F)c(F)c(F)c(F)c6F)c6nc(c(-c7c(F)c(F)c(F)c(F)c7F)c7ccc4[nH]7)C=C6)C=C5)cc3)[C@@H]2C)cc1
REMARK SMILES IDX 17 1 16 2 15 3 13 4 14 5 12 7 9 8 10 9 86 10 11 12 87 13
REMARK SMILES IDX 7 14 8 15 6 16 3 17 4 18 89 19 5 20 88 21 2 22 1 23 18 24
REMARK SMILES IDX 19 25 20 26 21 27 22 29 23 30 24 31 85 32 25 33 84 34 26 35
REMARK SMILES IDX 27 36 28 37 78 38 29 39 83 40 77 41 79 42 30 43 82 44 76 45
REMARK SMILES IDX 75 46 31 48 63 49 43 50 62 51 44 52 47 53 61 54 80 55 45 56
REMARK SMILES IDX 46 57 60 59 81 60 48 61 32 62 33 63 41 64 34 65 35 66 39 67
REMARK SMILES IDX 42 68 36 69 37 70 40 71 38 72 64 73 65 74 73 75 66 76 67 77
REMARK SMILES IDX 71 78 74 79 68 80 69 81 72 82 70 83 49 84 50 85 58 86 51 87
REMARK SMILES IDX 52 88 56 89 59 90 53 91 54 92 57 93 55 94
REMARK H PARENT 15 6 9 11 20 28 79 47 47 58
REMARK Flexibility Score: inf
ROOT
ATOM      1  C   UNL     1       0.241   6.803  -5.589  1.00  0.00     0.023 C 
ENDROOT
BRANCH   1   2
ATOM      2  C   UNL     1       0.166   5.756  -4.468  1.00  0.00     0.116 C 
BRANCH   2   3
ATOM      3  N   UNL     1      -0.996   4.915  -4.656  1.00  0.00    -0.356 N 
ATOM      4  C   UNL     1      -1.109   3.618  -5.034  1.00  0.00     0.229 C 
ATOM      5  O   UNL     1      -2.219   3.273  -5.446  1.00  0.00    -0.275 OA
ATOM      6  H   UNL     1      -1.854   5.363  -4.478  1.00  0.00     0.163 HD
BRANCH   4   7
ATOM      7  C   UNL     1       0.040   2.638  -4.826  1.00  0.00     0.142 C 
ATOM      8  N   UNL     1       0.985   1.223  -6.567  1.00  0.00    -0.326 N 
ATOM      9  C   UNL     1      -0.338   0.724  -6.194  1.00  0.00     0.264 C 
ATOM     10  C   UNL     1       1.152   2.530  -5.896  1.00  0.00     0.194 C 
ATOM     11  H   UNL     1       1.028   1.349  -7.579  1.00  0.00     0.348 HD
ATOM     12  C   UNL     1      -0.548   1.222  -4.782  1.00  0.00     0.081 C 
ATOM     13  C   UNL     1       1.201   3.607  -6.972  1.00  0.00     0.076 C 
BRANCH   8  14
ATOM     14  C   UNL     1       2.106   0.270  -6.409  1.00  0.00     0.212 C 
ATOM     15  C   UNL     1       2.458  -0.128  -4.963  1.00  0.00     0.081 C 
BRANCH  14  16
ATOM     16  C   UNL     1       1.905  -0.936  -7.335  1.00  0.00     0.009 A 
ATOM     17  C   UNL     1       1.300  -3.029  -9.128  1.00  0.00     0.118 A 
ATOM     18  C   UNL     1       1.778  -1.811  -9.607  1.00  0.00     0.047 A 
ATOM     19  C   UNL     1       1.174  -3.226  -7.756  1.00  0.00     0.047 A 
ATOM     20  C   UNL     1       2.066  -0.768  -8.720  1.00  0.00     0.013 A 
ATOM     21  C   UNL     1       1.474  -2.189  -6.868  1.00  0.00     0.013 A 
BRANCH  17  22
ATOM     22  O   UNL     1       1.017  -3.981 -10.070  1.00  0.00    -0.497 OA
ATOM     23  C   UNL     1      -0.138  -4.765  -9.781  1.00  0.00     0.278 C 
ENDBRANCH  17  22
ENDBRANCH  14  16
ENDBRANCH   8  14
ENDBRANCH   4   7
ENDBRANCH   2   3
ENDBRANCH   1   2
BRANCH   1  24
ATOM     24  C   UNL     1      -1.032   7.636  -5.787  1.00  0.00     0.023 C 
BRANCH  24  25
ATOM     25  C   UNL     1      -1.496   8.399  -4.555  1.00  0.00     0.116 C 
BRANCH  25  26
ATOM     26  N   UNL     1      -0.554   9.434  -4.168  1.00  0.00    -0.352 N 
ATOM     27  C   UNL     1      -0.779  10.768  -3.930  1.00  0.00     0.251 C 
ATOM     28  H   UNL     1       0.378   9.137  -4.060  1.00  0.00     0.163 HD
ATOM     29  O   UNL     1       0.166  11.535  -3.794  1.00  0.00    -0.269 OA
BRANCH  27  30
ATOM     30  C   UNL     1      -2.165  11.285  -3.867  1.00  0.00     0.039 A 
ATOM     31  C   UNL     1      -2.463  12.488  -4.513  1.00  0.00     0.014 A 
ATOM     32  C   UNL     1      -3.164  10.596  -3.175  1.00  0.00     0.014 A 
ATOM     33  C   UNL     1      -3.774  12.968  -4.514  1.00  0.00     0.010 A 
ATOM     34  C   UNL     1      -4.485  11.034  -3.245  1.00  0.00     0.010 A 
ATOM     35  C   UNL     1      -4.804  12.226  -3.912  1.00  0.00    -0.014 A 
BRANCH  35  36
ATOM     36  C   UNL     1      -6.217  12.682  -3.976  1.00  0.00     0.031 A 
ATOM     37  C   UNL     1      -6.964  13.024  -2.716  1.00  0.00     0.074 A 
ATOM     38  C   UNL     1      -6.849  12.724  -5.165  1.00  0.00     0.049 A 
ATOM     39  N   UNL     1      -8.215  13.380  -2.565  1.00  0.00    -0.248 NA
ATOM     40  C   UNL     1      -6.213  12.925  -1.455  1.00  0.00     0.031 C 
ATOM     41  C   UNL     1      -6.252  12.366  -6.452  1.00  0.00     0.029 A 
ATOM     42  N   UNL     1      -8.138  13.074  -5.483  1.00  0.00    -0.354 N 
ATOM     43  C   UNL     1      -8.403  13.531  -1.198  1.00  0.00     0.074 A 
ATOM     44  C   UNL     1      -7.155  13.176  -0.558  1.00  0.00     0.031 C 
ATOM     45  C   UNL     1      -7.165  12.531  -7.422  1.00  0.00     0.029 A 
ATOM     46  C   UNL     1      -8.423  12.964  -6.823  1.00  0.00     0.049 A 
ATOM     47  H   UNL     1      -8.796  13.374  -4.815  1.00  0.00     0.167 HD
ATOM     48  C   UNL     1      -9.510  13.948  -0.537  1.00  0.00     0.037 A 
ATOM     49  C   UNL     1      -9.573  13.175  -7.492  1.00  0.00     0.037 A 
ATOM     50  C   UNL     1     -10.744  14.319  -1.180  1.00  0.00     0.049 A 
ATOM     51  C   UNL     1     -10.791  13.633  -6.735  1.00  0.00     0.074 A 
ATOM     52  C   UNL     1     -11.898  14.824  -0.606  1.00  0.00     0.029 A 
ATOM     53  N   UNL     1     -10.990  14.213  -2.542  1.00  0.00    -0.354 N 
ATOM     54  N   UNL     1     -10.932  13.854  -5.451  1.00  0.00    -0.248 NA
ATOM     55  C   UNL     1     -12.007  13.878  -7.523  1.00  0.00     0.031 C 
ATOM     56  C   UNL     1     -12.862  14.962  -1.610  1.00  0.00     0.029 A 
ATOM     57  C   UNL     1     -12.289  14.610  -2.821  1.00  0.00     0.049 A 
ATOM     58  H   UNL     1     -10.338  13.902  -3.211  1.00  0.00     0.167 HD
ATOM     59  C   UNL     1     -12.240  14.289  -5.280  1.00  0.00     0.074 A 
ATOM     60  C   UNL     1     -12.845  14.317  -6.595  1.00  0.00     0.031 C 
ATOM     61  C   UNL     1     -12.880  14.635  -4.135  1.00  0.00     0.037 A 
BRANCH  48  62
ATOM     62  C   UNL     1      -9.442  14.016   0.963  1.00  0.00     0.064 A 
ATOM     63  C   UNL     1      -8.633  14.951   1.627  1.00  0.00     0.173 A 
ATOM     64  C   UNL     1     -10.225  13.155   1.749  1.00  0.00     0.173 A 
ATOM     65  F   UNL     1      -7.857  15.792   0.926  1.00  0.00    -0.203 F 
ATOM     66  C   UNL     1      -8.581  14.996   3.018  1.00  0.00     0.198 A 
ATOM     67  C   UNL     1     -10.198  13.228   3.139  1.00  0.00     0.198 A 
ATOM     68  F   UNL     1     -11.024  12.247   1.168  1.00  0.00    -0.203 F 
ATOM     69  F   UNL     1      -7.755  15.857   3.629  1.00  0.00    -0.200 F 
ATOM     70  C   UNL     1      -9.369  14.140   3.773  1.00  0.00     0.200 A 
ATOM     71  F   UNL     1     -10.973  12.411   3.866  1.00  0.00    -0.200 F 
ATOM     72  F   UNL     1      -9.323  14.189   5.111  1.00  0.00    -0.200 F 
ENDBRANCH  48  62
BRANCH  49  73
ATOM     73  C   UNL     1      -9.621  12.965  -8.964  1.00  0.00     0.064 A 
ATOM     74  C   UNL     1      -9.779  14.044  -9.845  1.00  0.00     0.173 A 
ATOM     75  C   UNL     1      -9.508  11.682  -9.519  1.00  0.00     0.173 A 
ATOM     76  F   UNL     1      -9.912  15.288  -9.362  1.00  0.00    -0.203 F 
ATOM     77  C   UNL     1      -9.843  13.845 -11.222  1.00  0.00     0.198 A 
ATOM     78  C   UNL     1      -9.539  11.488 -10.899  1.00  0.00     0.198 A 
ATOM     79  F   UNL     1      -9.349  10.616  -8.721  1.00  0.00    -0.203 F 
ATOM     80  F   UNL     1     -10.043  14.889 -12.038  1.00  0.00    -0.200 F 
ATOM     81  C   UNL     1      -9.715  12.569 -11.749  1.00  0.00     0.200 A 
ATOM     82  F   UNL     1      -9.398  10.255 -11.403  1.00  0.00    -0.200 F 
ATOM     83  F   UNL     1      -9.770  12.380 -13.074  1.00  0.00    -0.200 F 
ENDBRANCH  49  73
BRANCH  61  84
ATOM     84  C   UNL     1     -14.302  15.108  -4.255  1.00  0.00     0.064 A 
ATOM     85  C   UNL     1     -15.347  14.237  -4.596  1.00  0.00     0.173 A 
ATOM     86  C   UNL     1     -14.627  16.447  -3.985  1.00  0.00     0.173 A 
ATOM     87  F   UNL     1     -15.089  12.951  -4.878  1.00  0.00    -0.203 F 
ATOM     88  C   UNL     1     -16.659  14.694  -4.689  1.00  0.00     0.198 A 
ATOM     89  C   UNL     1     -15.945  16.892  -4.044  1.00  0.00     0.198 A 
ATOM     90  F   UNL     1     -13.668  17.322  -3.647  1.00  0.00    -0.203 F 
ATOM     91  F   UNL     1     -17.633  13.855  -5.068  1.00  0.00    -0.200 F 
ATOM     92  C   UNL     1     -16.958  16.018  -4.405  1.00  0.00     0.200 A 
ATOM     93  F   UNL     1     -16.233  18.168  -3.752  1.00  0.00    -0.200 F 
ATOM     94  F   UNL     1     -18.223  16.453  -4.486  1.00  0.00    -0.200 F 
ENDBRANCH  61  84
ENDBRANCH  35  36
ENDBRANCH  27  30
ENDBRANCH  25  26
ENDBRANCH  24  25
ENDBRANCH   1  24
TORSDOF 14
