REMARK SMILES Cc1ccc(S(=O)(=O)n2cc(C(=O)C(=O)NCC(=O)NCCCCNC(=O)c3ccc(-c4c5nc(c(-c6c(F)c(F)c(F)c(F)c6F)c6ccc([nH]6)c(-c6c(F)c(F)c(F)c(F)c6F)c6nc(c(-c7c(F)c(F)c(F)c(F)c7F)c7ccc4[nH]7)C=C6)C=C5)cc3)c3ccccc32)cc1
REMARK SMILES IDX 21 1 20 2 18 3 19 4 17 6 16 7 14 8 15 9 12 11 13 12 11 13
REMARK SMILES IDX 9 14 10 15 96 16 91 17 95 18 92 19 94 20 93 21 6 22 7 23
REMARK SMILES IDX 8 24 5 25 1 26 2 27 3 28 98 29 4 30 97 31 22 32 23 33 24 34
REMARK SMILES IDX 25 35 26 36 27 38 28 39 29 40 90 41 30 42 89 43 31 44 32 45
REMARK SMILES IDX 33 46 83 47 34 48 88 49 82 50 84 51 35 52 87 53 81 54 80 55
REMARK SMILES IDX 36 57 68 58 48 59 67 60 49 61 52 62 66 63 85 64 50 65 51 66
REMARK SMILES IDX 65 68 86 69 53 70 37 71 38 72 46 73 39 74 40 75 44 76 47 77
REMARK SMILES IDX 41 78 42 79 45 80 43 81 69 82 70 83 78 84 71 85 72 86 76 87
REMARK SMILES IDX 79 88 73 89 74 90 77 91 75 92 54 93 55 94 63 95 56 96 57 97
REMARK SMILES IDX 61 98 64 99 58 100 59 101 62 102 60 103
REMARK H PARENT 20 5 16 10 25 37 84 56 52 67
REMARK Flexibility Score: inf
ROOT
ATOM      1  C   UNL     1      -9.319   4.756   0.974  1.00  0.00     0.116 C 
ENDROOT
BRANCH   1   2
ATOM      2  N   UNL     1      -9.862   5.775   1.849  1.00  0.00    -0.355 N 
ATOM      3  C   UNL     1      -9.247   6.503   2.826  1.00  0.00     0.239 C 
ATOM      4  O   UNL     1      -9.905   7.382   3.388  1.00  0.00    -0.273 OA
ATOM      5  H   UNL     1     -10.818   5.972   1.720  1.00  0.00     0.163 HD
BRANCH   3   6
ATOM      6  C   UNL     1      -7.752   6.330   3.111  1.00  0.00     0.216 C 
BRANCH   6   7
ATOM      7  N   UNL     1      -7.366   4.962   3.437  1.00  0.00    -0.340 N 
ATOM      8  C   UNL     1      -6.457   4.105   2.854  1.00  0.00     0.292 C 
ATOM      9  O   UNL     1      -6.312   2.991   3.348  1.00  0.00    -0.265 OA
ATOM     10  H   UNL     1      -7.840   4.583   4.213  1.00  0.00     0.164 HD
BRANCH   8  11
ATOM     11  C   UNL     1      -5.663   4.511   1.585  1.00  0.00     0.252 C 
ATOM     12  O   UNL     1      -5.573   5.706   1.317  1.00  0.00    -0.283 OA
BRANCH  11  13
ATOM     13  C   UNL     1      -5.040   3.511   0.703  1.00  0.00     0.054 A 
ATOM     14  N   UNL     1      -4.171   1.615  -0.105  1.00  0.00    -0.240 N 
ATOM     15  C   UNL     1      -4.844   2.164   0.958  1.00  0.00     0.117 A 
ATOM     16  C   UNL     1      -3.934   2.553  -1.085  1.00  0.00     0.065 A 
ATOM     17  C   UNL     1      -4.467   3.756  -0.601  1.00  0.00     0.012 A 
ATOM     18  C   UNL     1      -3.273   2.477  -2.326  1.00  0.00     0.028 A 
ATOM     19  C   UNL     1      -4.343   4.911  -1.405  1.00  0.00     0.011 A 
ATOM     20  C   UNL     1      -3.143   3.644  -3.081  1.00  0.00     0.002 A 
ATOM     21  C   UNL     1      -3.675   4.845  -2.632  1.00  0.00     0.001 A 
BRANCH  14  22
ATOM     22  S   UNL     1      -3.589   0.013  -0.117  1.00  0.00     0.268 S 
ATOM     23  O   UNL     1      -3.919  -0.498  -1.443  1.00  0.00    -0.201 OA
ATOM     24  O   UNL     1      -4.090  -0.603   1.087  1.00  0.00    -0.201 OA
BRANCH  22  25
ATOM     25  C   UNL     1      -1.819   0.068   0.007  1.00  0.00     0.088 A 
ATOM     26  C   UNL     1       2.483  -0.045   0.026  1.00  0.00     0.044 C 
ATOM     27  C   UNL     1       0.983  -0.000   0.042  1.00  0.00    -0.051 A 
ATOM     28  C   UNL     1       0.249  -1.189  -0.042  1.00  0.00     0.005 A 
ATOM     29  C   UNL     1       0.300   1.218   0.140  1.00  0.00     0.005 A 
ATOM     30  C   UNL     1      -1.146  -1.157  -0.065  1.00  0.00     0.022 A 
ATOM     31  C   UNL     1      -1.097   1.256   0.136  1.00  0.00     0.022 A 
ENDBRANCH  22  25
ENDBRANCH  14  22
ENDBRANCH  11  13
ENDBRANCH   8  11
ENDBRANCH   6   7
ENDBRANCH   3   6
ENDBRANCH   1   2
BRANCH   1  32
ATOM     32  C   UNL     1      -9.643   3.339   1.458  1.00  0.00     0.023 C 
BRANCH  32  33
ATOM     33  C   UNL     1     -11.135   3.011   1.491  1.00  0.00     0.023 C 
BRANCH  33  34
ATOM     34  C   UNL     1     -11.798   2.949   0.124  1.00  0.00     0.116 C 
BRANCH  34  35
ATOM     35  N   UNL     1     -11.688   1.656  -0.539  1.00  0.00    -0.352 N 
ATOM     36  C   UNL     1     -12.300   1.193  -1.694  1.00  0.00     0.251 C 
ATOM     37  H   UNL     1     -11.088   1.012  -0.100  1.00  0.00     0.163 HD
ATOM     38  O   UNL     1     -12.197   0.013  -2.013  1.00  0.00    -0.269 OA
BRANCH  36  39
ATOM     39  C   UNL     1     -12.899   2.159  -2.648  1.00  0.00     0.039 A 
ATOM     40  C   UNL     1     -12.489   2.041  -3.985  1.00  0.00     0.014 A 
ATOM     41  C   UNL     1     -13.459   3.341  -2.190  1.00  0.00     0.014 A 
ATOM     42  C   UNL     1     -12.304   3.191  -4.734  1.00  0.00     0.010 A 
ATOM     43  C   UNL     1     -13.124   4.491  -2.853  1.00  0.00     0.010 A 
ATOM     44  C   UNL     1     -12.472   4.406  -4.087  1.00  0.00    -0.014 A 
BRANCH  44  45
ATOM     45  C   UNL     1     -12.041   5.681  -4.611  1.00  0.00     0.031 A 
ATOM     46  C   UNL     1     -13.064   6.524  -5.236  1.00  0.00     0.074 A 
ATOM     47  C   UNL     1     -10.801   6.116  -4.304  1.00  0.00     0.049 A 
ATOM     48  N   UNL     1     -12.812   7.582  -5.913  1.00  0.00    -0.248 NA
ATOM     49  C   UNL     1     -14.485   6.201  -5.177  1.00  0.00     0.031 C 
ATOM     50  C   UNL     1     -10.263   7.470  -4.387  1.00  0.00     0.029 A 
ATOM     51  N   UNL     1      -9.678   5.321  -4.024  1.00  0.00    -0.354 N 
ATOM     52  C   UNL     1     -14.005   8.233  -6.127  1.00  0.00     0.074 A 
ATOM     53  C   UNL     1     -15.019   7.285  -5.743  1.00  0.00     0.031 C 
ATOM     54  C   UNL     1      -8.924   7.396  -4.485  1.00  0.00     0.029 A 
ATOM     55  C   UNL     1      -8.594   5.991  -4.646  1.00  0.00     0.049 A 
ATOM     56  H   UNL     1      -9.650   4.482  -3.510  1.00  0.00     0.167 HD
ATOM     57  C   UNL     1     -13.946   9.548  -6.481  1.00  0.00     0.037 A 
ATOM     58  C   UNL     1      -8.012   5.441  -5.756  1.00  0.00     0.037 A 
ATOM     59  C   UNL     1     -12.552   9.925  -6.746  1.00  0.00     0.049 A 
ATOM     60  C   UNL     1      -8.185   6.278  -7.015  1.00  0.00     0.074 A 
ATOM     61  C   UNL     1     -11.559  10.560  -6.018  1.00  0.00     0.029 A 
ATOM     62  N   UNL     1     -11.902   9.289  -7.788  1.00  0.00    -0.354 N 
ATOM     63  N   UNL     1      -8.969   7.319  -7.110  1.00  0.00    -0.248 NA
ATOM     64  C   UNL     1      -7.547   5.952  -8.288  1.00  0.00     0.031 C 
ATOM     65  C   UNL     1     -10.303  10.277  -6.642  1.00  0.00     0.029 A 
ATOM     66  C   UNL     1     -10.540   9.498  -7.761  1.00  0.00     0.049 A 
ATOM     67  H   UNL     1     -12.361   8.749  -8.472  1.00  0.00     0.167 HD
ATOM     68  C   UNL     1      -8.974   7.786  -8.399  1.00  0.00     0.074 A 
ATOM     69  C   UNL     1      -8.090   6.873  -9.104  1.00  0.00     0.031 C 
ATOM     70  C   UNL     1      -9.724   8.865  -8.789  1.00  0.00     0.037 A 
BRANCH  57  71
ATOM     71  C   UNL     1     -15.079  10.549  -6.393  1.00  0.00     0.064 A 
ATOM     72  C   UNL     1     -14.791  11.932  -6.416  1.00  0.00     0.173 A 
ATOM     73  C   UNL     1     -16.445  10.248  -6.220  1.00  0.00     0.173 A 
ATOM     74  F   UNL     1     -13.551  12.385  -6.646  1.00  0.00    -0.203 F 
ATOM     75  C   UNL     1     -15.765  12.912  -6.199  1.00  0.00     0.198 A 
ATOM     76  C   UNL     1     -17.415  11.225  -5.977  1.00  0.00     0.198 A 
ATOM     77  F   UNL     1     -16.921   9.007  -6.318  1.00  0.00    -0.203 F 
ATOM     78  F   UNL     1     -15.418  14.207  -6.214  1.00  0.00    -0.200 F 
ATOM     79  C   UNL     1     -17.075  12.558  -5.956  1.00  0.00     0.200 A 
ATOM     80  F   UNL     1     -18.688  10.856  -5.767  1.00  0.00    -0.200 F 
ATOM     81  F   UNL     1     -18.005  13.493  -5.724  1.00  0.00    -0.200 F 
ENDBRANCH  57  71
BRANCH  58  82
ATOM     82  C   UNL     1      -8.025   3.943  -5.698  1.00  0.00     0.064 A 
ATOM     83  C   UNL     1      -7.468   3.323  -4.556  1.00  0.00     0.173 A 
ATOM     84  C   UNL     1      -8.927   3.190  -6.457  1.00  0.00     0.173 A 
ATOM     85  F   UNL     1      -6.593   3.997  -3.792  1.00  0.00    -0.203 F 
ATOM     86  C   UNL     1      -7.937   2.096  -4.092  1.00  0.00     0.198 A 
ATOM     87  C   UNL     1      -9.360   1.938  -6.013  1.00  0.00     0.198 A 
ATOM     88  F   UNL     1      -9.494   3.710  -7.555  1.00  0.00    -0.203 F 
ATOM     89  F   UNL     1      -7.529   1.631  -2.902  1.00  0.00    -0.200 F 
ATOM     90  C   UNL     1      -8.908   1.419  -4.808  1.00  0.00     0.200 A 
ATOM     91  F   UNL     1     -10.313   1.287  -6.696  1.00  0.00    -0.200 F 
ATOM     92  F   UNL     1      -9.451   0.299  -4.312  1.00  0.00    -0.200 F 
ENDBRANCH  58  82
BRANCH  70  93
ATOM     93  C   UNL     1      -9.793   9.395 -10.206  1.00  0.00     0.064 A 
ATOM     94  C   UNL     1      -8.686   9.420 -11.067  1.00  0.00     0.173 A 
ATOM     95  C   UNL     1     -10.975   9.976 -10.732  1.00  0.00     0.173 A 
ATOM     96  F   UNL     1      -7.471   9.050 -10.639  1.00  0.00    -0.203 F 
ATOM     97  C   UNL     1      -8.788   9.863 -12.389  1.00  0.00     0.198 A 
ATOM     98  C   UNL     1     -11.058  10.475 -12.030  1.00  0.00     0.198 A 
ATOM     99  F   UNL     1     -12.107  10.068 -10.024  1.00  0.00    -0.203 F 
ATOM    100  F   UNL     1      -7.723   9.784 -13.198  1.00  0.00    -0.200 F 
ATOM    101  C   UNL     1      -9.974  10.386 -12.871  1.00  0.00     0.200 A 
ATOM    102  F   UNL     1     -12.204  11.025 -12.455  1.00  0.00    -0.200 F 
ATOM    103  F   UNL     1     -10.069  10.812 -14.137  1.00  0.00    -0.200 F 
ENDBRANCH  70  93
ENDBRANCH  44  45
ENDBRANCH  36  39
ENDBRANCH  34  35
ENDBRANCH  33  34
ENDBRANCH  32  33
ENDBRANCH   1  32
TORSDOF 16
