REMARK SMILES O=C(NCCCCNC(=O)[C@@H]1CSCN1C(=O)c1cccc(Cl)c1)c1ccc(-c2c3nc(c(-c4c(F)c(F)c(F)c(F)c4F)c4ccc([nH]4)c(-c4c(F)c(F)c(F)c(F)c4F)c4nc(c(-c5c(F)c(F)c(F)c(F)c5F)c5ccc2[nH]5)C=C4)C=C3)cc1
REMARK SMILES IDX 5 1 4 2 3 3 1 4 2 5 25 7 26 8 87 9 27 10 86 11 28 12 29 13
REMARK SMILES IDX 30 14 80 15 31 16 85 17 79 18 81 19 32 20 84 21 78 22 77 23
REMARK SMILES IDX 33 25 65 26 45 27 64 28 46 29 49 30 63 31 82 32 47 33 48 34
REMARK SMILES IDX 62 36 83 37 50 38 34 39 35 40 43 41 36 42 37 43 41 44 44 45
REMARK SMILES IDX 38 46 39 47 42 48 40 49 66 50 67 51 75 52 68 53 69 54 73 55
REMARK SMILES IDX 76 56 70 57 71 58 74 59 72 60 51 61 52 62 60 63 53 64 54 65
REMARK SMILES IDX 58 66 61 67 55 68 56 69 59 70 57 71 6 72 7 73 8 74 9 75
REMARK SMILES IDX 10 77 11 78 12 79 15 80 13 81 14 82 16 83 17 84 18 85 19 86
REMARK SMILES IDX 24 87 20 88 22 89 21 90 23 91
REMARK H PARENT 3 6 81 24 49 35 8 76
REMARK Flexibility Score: inf
ROOT
ATOM      1  C   UNL     1       3.834  -7.323   7.378  1.00  0.00     0.023 C 
ENDROOT
BRANCH   1   2
ATOM      2  C   UNL     1       2.355  -7.682   7.342  1.00  0.00     0.116 C 
BRANCH   2   3
ATOM      3  N   UNL     1       2.111  -9.096   7.099  1.00  0.00    -0.352 N 
ATOM      4  O   UNL     1       1.146 -11.112   7.423  1.00  0.00    -0.269 OA
ATOM      5  C   UNL     1       1.156  -9.911   7.657  1.00  0.00     0.251 C 
ATOM      6  H   UNL     1       2.711  -9.526   6.447  1.00  0.00     0.163 HD
BRANCH   5   7
ATOM      7  C   UNL     1       0.163  -9.324   8.578  1.00  0.00     0.039 A 
ATOM      8  C   UNL     1      -0.537  -8.166   8.226  1.00  0.00     0.014 A 
ATOM      9  C   UNL     1      -0.044  -9.931   9.818  1.00  0.00     0.014 A 
ATOM     10  C   UNL     1      -1.350  -7.543   9.166  1.00  0.00     0.010 A 
ATOM     11  C   UNL     1      -0.911  -9.339  10.736  1.00  0.00     0.010 A 
ATOM     12  C   UNL     1      -1.544  -8.125  10.428  1.00  0.00    -0.014 A 
BRANCH  12  13
ATOM     13  C   UNL     1      -2.438  -7.475  11.413  1.00  0.00     0.031 A 
ATOM     14  C   UNL     1      -1.887  -6.901  12.685  1.00  0.00     0.074 A 
ATOM     15  C   UNL     1      -3.758  -7.419  11.156  1.00  0.00     0.049 A 
ATOM     16  N   UNL     1      -2.525  -6.368  13.696  1.00  0.00    -0.248 NA
ATOM     17  C   UNL     1      -0.425  -6.939  12.848  1.00  0.00     0.031 C 
ATOM     18  C   UNL     1      -4.401  -7.942   9.950  1.00  0.00     0.029 A 
ATOM     19  N   UNL     1      -4.793  -6.907  11.894  1.00  0.00    -0.354 N 
ATOM     20  C   UNL     1      -1.549  -6.031  14.624  1.00  0.00     0.074 A 
ATOM     21  C   UNL     1      -0.276  -6.434  14.065  1.00  0.00     0.031 C 
ATOM     22  C   UNL     1      -5.720  -7.712  10.023  1.00  0.00     0.029 A 
ATOM     23  C   UNL     1      -6.019  -7.080  11.304  1.00  0.00     0.049 A 
ATOM     24  H   UNL     1      -4.668  -6.459  12.761  1.00  0.00     0.167 HD
ATOM     25  C   UNL     1      -1.708  -5.438  15.832  1.00  0.00     0.037 A 
ATOM     26  C   UNL     1      -7.252  -6.790  11.758  1.00  0.00     0.037 A 
ATOM     27  C   UNL     1      -2.978  -5.025  16.371  1.00  0.00     0.049 A 
ATOM     28  C   UNL     1      -7.403  -6.154  13.108  1.00  0.00     0.074 A 
ATOM     29  C   UNL     1      -3.241  -4.383  17.568  1.00  0.00     0.029 A 
ATOM     30  N   UNL     1      -4.201  -5.220  15.744  1.00  0.00    -0.354 N 
ATOM     31  N   UNL     1      -6.474  -5.822  13.971  1.00  0.00    -0.248 NA
ATOM     32  C   UNL     1      -8.771  -5.854  13.549  1.00  0.00     0.031 C 
ATOM     33  C   UNL     1      -4.627  -4.226  17.685  1.00  0.00     0.029 A 
ATOM     34  C   UNL     1      -5.224  -4.728  16.540  1.00  0.00     0.049 A 
ATOM     35  H   UNL     1      -4.324  -5.644  14.864  1.00  0.00     0.167 HD
ATOM     36  C   UNL     1      -7.139  -5.256  15.048  1.00  0.00     0.074 A 
ATOM     37  C   UNL     1      -8.552  -5.283  14.726  1.00  0.00     0.031 C 
ATOM     38  C   UNL     1      -6.624  -4.759  16.199  1.00  0.00     0.037 A 
BRANCH  25  39
ATOM     39  C   UNL     1      -0.478  -5.223  16.666  1.00  0.00     0.064 A 
ATOM     40  C   UNL     1       0.479  -4.253  16.336  1.00  0.00     0.173 A 
ATOM     41  C   UNL     1      -0.270  -5.981  17.828  1.00  0.00     0.173 A 
ATOM     42  F   UNL     1       0.334  -3.510  15.228  1.00  0.00    -0.203 F 
ATOM     43  C   UNL     1       1.613  -4.067  17.124  1.00  0.00     0.198 A 
ATOM     44  C   UNL     1       0.851  -5.775  18.628  1.00  0.00     0.198 A 
ATOM     45  F   UNL     1      -1.158  -6.918  18.192  1.00  0.00    -0.203 F 
ATOM     46  F   UNL     1       2.537  -3.166  16.764  1.00  0.00    -0.200 F 
ATOM     47  C   UNL     1       1.795  -4.825  18.271  1.00  0.00     0.200 A 
ATOM     48  F   UNL     1       1.020  -6.501  19.742  1.00  0.00    -0.200 F 
ATOM     49  F   UNL     1       2.886  -4.644  19.030  1.00  0.00    -0.200 F 
ENDBRANCH  25  39
BRANCH  26  50
ATOM     50  C   UNL     1      -8.428  -7.112  10.913  1.00  0.00     0.064 A 
ATOM     51  C   UNL     1      -9.152  -6.099  10.272  1.00  0.00     0.173 A 
ATOM     52  C   UNL     1      -8.814  -8.441  10.685  1.00  0.00     0.173 A 
ATOM     53  F   UNL     1      -8.827  -4.814  10.473  1.00  0.00    -0.203 F 
ATOM     54  C   UNL     1     -10.223  -6.404   9.434  1.00  0.00     0.198 A 
ATOM     55  C   UNL     1      -9.868  -8.746   9.828  1.00  0.00     0.198 A 
ATOM     56  F   UNL     1      -8.145  -9.445  11.270  1.00  0.00    -0.203 F 
ATOM     57  F   UNL     1     -10.914  -5.417   8.848  1.00  0.00    -0.200 F 
ATOM     58  C   UNL     1     -10.573  -7.727   9.205  1.00  0.00     0.200 A 
ATOM     59  F   UNL     1     -10.192 -10.025   9.595  1.00  0.00    -0.200 F 
ATOM     60  F   UNL     1     -11.591  -8.020   8.384  1.00  0.00    -0.200 F 
ENDBRANCH  26  50
BRANCH  38  61
ATOM     61  C   UNL     1      -7.591  -4.169  17.181  1.00  0.00     0.064 A 
ATOM     62  C   UNL     1      -8.415  -4.978  17.975  1.00  0.00     0.173 A 
ATOM     63  C   UNL     1      -7.656  -2.780  17.362  1.00  0.00     0.173 A 
ATOM     64  F   UNL     1      -8.399  -6.311  17.825  1.00  0.00    -0.203 F 
ATOM     65  C   UNL     1      -9.284  -4.415  18.906  1.00  0.00     0.198 A 
ATOM     66  C   UNL     1      -8.508  -2.222  18.310  1.00  0.00     0.198 A 
ATOM     67  F   UNL     1      -6.884  -1.965  16.628  1.00  0.00    -0.203 F 
ATOM     68  F   UNL     1     -10.090  -5.203  19.631  1.00  0.00    -0.200 F 
ATOM     69  C   UNL     1      -9.324  -3.039  19.078  1.00  0.00     0.200 A 
ATOM     70  F   UNL     1      -8.539  -0.893  18.482  1.00  0.00    -0.200 F 
ATOM     71  F   UNL     1     -10.154  -2.499  19.981  1.00  0.00    -0.200 F 
ENDBRANCH  38  61
ENDBRANCH  12  13
ENDBRANCH   5   7
ENDBRANCH   2   3
ENDBRANCH   1   2
BRANCH   1  72
ATOM     72  C   UNL     1       4.625  -7.720   6.134  1.00  0.00     0.023 C 
BRANCH  72  73
ATOM     73  C   UNL     1       4.132  -7.105   4.831  1.00  0.00     0.116 C 
BRANCH  73  74
ATOM     74  N   UNL     1       4.460  -5.702   4.712  1.00  0.00    -0.354 N 
ATOM     75  C   UNL     1       5.460  -5.081   4.019  1.00  0.00     0.243 C 
ATOM     76  H   UNL     1       3.867  -5.095   5.213  1.00  0.00     0.163 HD
ATOM     77  O   UNL     1       5.319  -3.866   3.831  1.00  0.00    -0.273 OA
BRANCH  75  78
ATOM     78  C   UNL     1       6.595  -5.854   3.303  1.00  0.00     0.185 C 
ATOM     79  C   UNL     1       6.044  -6.435   2.002  1.00  0.00     0.106 C 
ATOM     80  N   UNL     1       7.266  -6.888   4.104  1.00  0.00    -0.317 N 
ATOM     81  S   UNL     1       6.563  -8.165   1.903  1.00  0.00    -0.138 SA
ATOM     82  C   UNL     1       7.204  -8.233   3.581  1.00  0.00     0.190 C 
BRANCH  80  83
ATOM     83  C   UNL     1       7.996  -6.472   5.213  1.00  0.00     0.255 C 
ATOM     84  O   UNL     1       8.077  -5.293   5.548  1.00  0.00    -0.269 OA
BRANCH  83  85
ATOM     85  C   UNL     1       8.611  -7.469   6.120  1.00  0.00     0.041 A 
ATOM     86  C   UNL     1       9.599  -8.363   5.701  1.00  0.00     0.014 A 
ATOM     87  C   UNL     1       8.210  -7.446   7.463  1.00  0.00     0.034 A 
ATOM     88  C   UNL     1      10.120  -9.293   6.604  1.00  0.00     0.002 A 
ATOM     89  C   UNL     1       8.740  -8.371   8.357  1.00  0.00     0.041 A 
ATOM     90  C   UNL     1       9.682  -9.304   7.930  1.00  0.00     0.020 A 
ATOM     91  Cl  UNL     1       8.222  -8.364   9.997  1.00  0.00    -0.084 Cl
ENDBRANCH  83  85
ENDBRANCH  80  83
ENDBRANCH  75  78
ENDBRANCH  73  74
ENDBRANCH  72  73
ENDBRANCH   1  72
TORSDOF 13
