REMARK SMILES O=C(NCCCCNC(=O)[C@H]1CC[C@H]2CCCC[C@@H]2[N@H+]1[C@@H]1CCCSC1)c1ccc(-c2c3nc(c(-c4c(F)c(F)c(F)c(F)c4F)c4ccc([nH]4)c(-c4c(F)c(F)c(F)c(F)c4F)c4nc(c(-c5c(F)c(F)c(F)c(F)c5F)c5ccc2[nH]5)C=C4)C=C3)cc1
REMARK SMILES IDX 5 1 4 2 3 3 1 4 2 5 27 7 28 8 89 9 29 10 88 11 30 12 31 13
REMARK SMILES IDX 32 14 82 15 33 16 87 17 81 18 83 19 34 20 86 21 80 22 79 23
REMARK SMILES IDX 35 25 67 26 47 27 66 28 48 29 51 30 65 31 84 32 49 33 50 34
REMARK SMILES IDX 64 36 85 37 52 38 36 39 37 40 45 41 38 42 39 43 43 44 46 45
REMARK SMILES IDX 40 46 41 47 44 48 42 49 68 50 69 51 77 52 70 53 71 54 75 55
REMARK SMILES IDX 78 56 72 57 73 58 76 59 74 60 53 61 54 62 62 63 55 64 56 65
REMARK SMILES IDX 60 66 63 67 57 68 58 69 61 70 59 71 6 72 7 73 8 74 9 75
REMARK SMILES IDX 10 77 11 78 12 79 20 80 13 81 19 82 14 84 18 85 15 86 17 87
REMARK SMILES IDX 16 88 21 89 22 90 26 91 23 92 25 93 24 94
REMARK H PARENT 3 6 83 24 51 35 8 76 20 83
REMARK Flexibility Score: inf
ROOT
ATOM      1  C   UNL     1       5.779  -1.807  -1.405  1.00  0.00     0.023 C 
ENDROOT
BRANCH   1   2
ATOM      2  C   UNL     1       5.153  -0.468  -1.021  1.00  0.00     0.116 C 
BRANCH   2   3
ATOM      3  N   UNL     1       3.694  -0.456  -1.034  1.00  0.00    -0.352 N 
ATOM      4  O   UNL     1       1.577  -0.390  -0.252  1.00  0.00    -0.269 OA
ATOM      5  C   UNL     1       2.779  -0.307  -0.019  1.00  0.00     0.251 C 
ATOM      6  H   UNL     1       3.295  -0.577  -1.926  1.00  0.00     0.163 HD
BRANCH   5   7
ATOM      7  C   UNL     1       3.252  -0.111   1.363  1.00  0.00     0.039 A 
ATOM      8  C   UNL     1       4.256   0.815   1.637  1.00  0.00     0.014 A 
ATOM      9  C   UNL     1       2.735  -0.918   2.380  1.00  0.00     0.014 A 
ATOM     10  C   UNL     1       4.908   0.764   2.860  1.00  0.00     0.010 A 
ATOM     11  C   UNL     1       3.317  -0.884   3.648  1.00  0.00     0.010 A 
ATOM     12  C   UNL     1       4.452  -0.091   3.877  1.00  0.00    -0.014 A 
BRANCH  12  13
ATOM     13  C   UNL     1       5.184  -0.129   5.168  1.00  0.00     0.031 A 
ATOM     14  C   UNL     1       5.870  -1.383   5.636  1.00  0.00     0.074 A 
ATOM     15  C   UNL     1       5.277   1.006   5.887  1.00  0.00     0.049 A 
ATOM     16  N   UNL     1       6.566  -1.584   6.728  1.00  0.00    -0.248 NA
ATOM     17  C   UNL     1       5.757  -2.571   4.775  1.00  0.00     0.031 C 
ATOM     18  C   UNL     1       4.653   2.281   5.528  1.00  0.00     0.029 A 
ATOM     19  N   UNL     1       5.954   1.281   7.046  1.00  0.00    -0.354 N 
ATOM     20  C   UNL     1       6.944  -2.920   6.701  1.00  0.00     0.074 A 
ATOM     21  C   UNL     1       6.389  -3.491   5.493  1.00  0.00     0.031 C 
ATOM     22  C   UNL     1       5.026   3.216   6.411  1.00  0.00     0.029 A 
ATOM     23  C   UNL     1       5.851   2.593   7.438  1.00  0.00     0.049 A 
ATOM     24  H   UNL     1       6.462   0.605   7.549  1.00  0.00     0.167 HD
ATOM     25  C   UNL     1       7.689  -3.603   7.603  1.00  0.00     0.037 A 
ATOM     26  C   UNL     1       6.352   3.223   8.515  1.00  0.00     0.037 A 
ATOM     27  C   UNL     1       8.268  -3.017   8.785  1.00  0.00     0.049 A 
ATOM     28  C   UNL     1       7.173   2.441   9.497  1.00  0.00     0.074 A 
ATOM     29  C   UNL     1       9.069  -3.616   9.743  1.00  0.00     0.029 A 
ATOM     30  N   UNL     1       8.112  -1.692   9.167  1.00  0.00    -0.354 N 
ATOM     31  N   UNL     1       7.524   1.179   9.457  1.00  0.00    -0.248 NA
ATOM     32  C   UNL     1       7.657   3.166  10.677  1.00  0.00     0.031 C 
ATOM     33  C   UNL     1       9.365  -2.663  10.724  1.00  0.00     0.029 A 
ATOM     34  C   UNL     1       8.785  -1.460  10.357  1.00  0.00     0.049 A 
ATOM     35  H   UNL     1       7.599  -1.017   8.667  1.00  0.00     0.167 HD
ATOM     36  C   UNL     1       8.273   0.957  10.603  1.00  0.00     0.074 A 
ATOM     37  C   UNL     1       8.348   2.224  11.303  1.00  0.00     0.031 C 
ATOM     38  C   UNL     1       8.840  -0.193  11.040  1.00  0.00     0.037 A 
BRANCH  25  39
ATOM     39  C   UNL     1       7.910  -5.069   7.365  1.00  0.00     0.064 A 
ATOM     40  C   UNL     1       8.778  -5.535   6.368  1.00  0.00     0.173 A 
ATOM     41  C   UNL     1       7.283  -6.020   8.185  1.00  0.00     0.173 A 
ATOM     42  F   UNL     1       9.392  -4.668   5.548  1.00  0.00    -0.203 F 
ATOM     43  C   UNL     1       8.999  -6.899   6.189  1.00  0.00     0.198 A 
ATOM     44  C   UNL     1       7.525  -7.382   8.020  1.00  0.00     0.198 A 
ATOM     45  F   UNL     1       6.447  -5.628   9.158  1.00  0.00    -0.203 F 
ATOM     46  F   UNL     1       9.807  -7.323   5.207  1.00  0.00    -0.200 F 
ATOM     47  C   UNL     1       8.379  -7.821   7.020  1.00  0.00     0.200 A 
ATOM     48  F   UNL     1       6.932  -8.270   8.831  1.00  0.00    -0.200 F 
ATOM     49  F   UNL     1       8.600  -9.132   6.853  1.00  0.00    -0.200 F 
ENDBRANCH  25  39
BRANCH  26  50
ATOM     50  C   UNL     1       6.072   4.667   8.712  1.00  0.00     0.064 A 
ATOM     51  C   UNL     1       7.085   5.624   8.574  1.00  0.00     0.173 A 
ATOM     52  C   UNL     1       4.777   5.120   9.001  1.00  0.00     0.173 A 
ATOM     53  F   UNL     1       8.343   5.236   8.315  1.00  0.00    -0.203 F 
ATOM     54  C   UNL     1       6.814   6.982   8.723  1.00  0.00     0.198 A 
ATOM     55  C   UNL     1       4.501   6.479   9.120  1.00  0.00     0.198 A 
ATOM     56  F   UNL     1       3.772   4.242   9.135  1.00  0.00    -0.203 F 
ATOM     57  F   UNL     1       7.806   7.877   8.616  1.00  0.00    -0.200 F 
ATOM     58  C   UNL     1       5.520   7.409   8.987  1.00  0.00     0.200 A 
ATOM     59  F   UNL     1       3.247   6.888   9.356  1.00  0.00    -0.200 F 
ATOM     60  F   UNL     1       5.257   8.717   9.114  1.00  0.00    -0.200 F 
ENDBRANCH  26  50
BRANCH  38  61
ATOM     61  C   UNL     1       9.597  -0.125  12.331  1.00  0.00     0.064 A 
ATOM     62  C   UNL     1       8.933  -0.024  13.562  1.00  0.00     0.173 A 
ATOM     63  C   UNL     1      10.998  -0.180  12.338  1.00  0.00     0.173 A 
ATOM     64  F   UNL     1       7.594   0.050  13.602  1.00  0.00    -0.203 F 
ATOM     65  C   UNL     1       9.648   0.045  14.754  1.00  0.00     0.198 A 
ATOM     66  C   UNL     1      11.708  -0.136  13.534  1.00  0.00     0.198 A 
ATOM     67  F   UNL     1      11.677  -0.280  11.185  1.00  0.00    -0.203 F 
ATOM     68  F   UNL     1       8.996   0.188  15.916  1.00  0.00    -0.200 F 
ATOM     69  C   UNL     1      11.033  -0.016  14.740  1.00  0.00     0.200 A 
ATOM     70  F   UNL     1      13.047  -0.204  13.520  1.00  0.00    -0.200 F 
ATOM     71  F   UNL     1      11.719   0.050  15.889  1.00  0.00    -0.200 F 
ENDBRANCH  38  61
ENDBRANCH  12  13
ENDBRANCH   5   7
ENDBRANCH   2   3
ENDBRANCH   1   2
BRANCH   1  72
ATOM     72  C   UNL     1       5.451  -2.355  -2.793  1.00  0.00     0.023 C 
BRANCH  72  73
ATOM     73  C   UNL     1       5.392  -1.333  -3.916  1.00  0.00     0.116 C 
BRANCH  73  74
ATOM     74  N   UNL     1       6.641  -0.713  -4.283  1.00  0.00    -0.351 N 
ATOM     75  C   UNL     1       6.956   0.027  -5.391  1.00  0.00     0.278 C 
ATOM     76  H   UNL     1       7.377  -0.842  -3.643  1.00  0.00     0.163 HD
ATOM     77  O   UNL     1       7.987   0.707  -5.296  1.00  0.00    -0.268 OA
BRANCH  75  78
ATOM     78  C   UNL     1       6.150   0.014  -6.726  1.00  0.00     0.274 C 
ATOM     79  C   UNL     1       5.899  -1.379  -7.327  1.00  0.00     0.076 C 
ATOM     80  N   UNL     1       5.043   1.008  -6.838  1.00  0.00    -0.319 N 
ATOM     81  C   UNL     1       4.964  -1.355  -8.540  1.00  0.00     0.016 C 
ATOM     82  C   UNL     1       4.497   1.108  -8.207  1.00  0.00     0.188 C 
ATOM     83  H   UNL     1       5.528   1.882  -6.633  1.00  0.00     0.349 HD
ATOM     84  C   UNL     1       4.972   0.020  -9.199  1.00  0.00     0.048 C 
ATOM     85  C   UNL     1       4.788   2.477  -8.841  1.00  0.00     0.065 C 
ATOM     86  C   UNL     1       4.077   0.081 -10.443  1.00  0.00     0.010 C 
ATOM     87  C   UNL     1       3.977   2.624 -10.135  1.00  0.00     0.006 C 
ATOM     88  C   UNL     1       4.170   1.457 -11.108  1.00  0.00     0.001 C 
BRANCH  80  89
ATOM     89  C   UNL     1       4.003   1.016  -5.784  1.00  0.00     0.194 C 
ATOM     90  C   UNL     1       2.954  -0.118  -5.906  1.00  0.00     0.067 C 
ATOM     91  C   UNL     1       3.286   2.383  -5.682  1.00  0.00     0.134 C 
ATOM     92  C   UNL     1       2.006  -0.228  -4.714  1.00  0.00     0.017 C 
ATOM     93  S   UNL     1       2.262   2.482  -4.171  1.00  0.00    -0.156 SA
ATOM     94  C   UNL     1       1.203   1.034  -4.446  1.00  0.00     0.070 C 
ENDBRANCH  80  89
ENDBRANCH  75  78
ENDBRANCH  73  74
ENDBRANCH  72  73
ENDBRANCH   1  72
TORSDOF 12
