REMARK SMILES CCC(CC)(NC(=O)NC[C@H](C)[NH+]1CCCCC1)C(=O)NCCCCNC(=O)c1ccc(-c2c3nc(c(-c4c(F)c(F)c(F)c(F)c4F)c4ccc([nH]4)c(-c4c(F)c(F)c(F)c(F)c4F)c4nc(c(-c5c(F)c(F)c(F)c(F)c5F)c5ccc2[nH]5)C=C4)C=C3)cc1
REMARK SMILES IDX 22 1 21 2 19 3 20 4 3 6 2 7 1 8 4 9 5 10 6 11 7 12 8 14 9 15
REMARK SMILES IDX 10 17 11 18 12 19 13 20 14 21 18 22 15 24 17 25 16 26 23 27
REMARK SMILES IDX 24 28 25 29 26 30 27 31 28 33 29 34 30 35 91 36 31 37 90 38
REMARK SMILES IDX 32 39 33 40 34 41 84 42 35 43 89 44 83 45 85 46 36 47 88 48
REMARK SMILES IDX 82 49 81 50 37 52 69 53 49 54 68 55 50 56 53 57 67 58 86 59
REMARK SMILES IDX 51 60 52 61 66 63 87 64 54 65 38 66 39 67 47 68 40 69 41 70
REMARK SMILES IDX 45 71 48 72 42 73 43 74 46 75 44 76 70 77 71 78 79 79 72 80
REMARK SMILES IDX 73 81 77 82 80 83 74 84 75 85 78 86 76 87 55 88 56 89 64 90
REMARK SMILES IDX 57 91 58 92 62 93 65 94 59 95 60 96 63 97 61 98
REMARK H PARENT 21 5 6 13 9 16 13 23 26 32 85 51 53 62
REMARK Flexibility Score: inf
ROOT
ATOM      1  C   UNL     1       2.843  -1.816   4.741  1.00  0.00     0.116 C 
ENDROOT
BRANCH   1   2
ATOM      2  N   UNL     1       3.781  -1.469   3.658  1.00  0.00    -0.354 N 
ATOM      3  C   UNL     1       5.136  -1.534   3.407  1.00  0.00     0.245 C 
ATOM      4  O   UNL     1       5.497  -1.310   2.246  1.00  0.00    -0.272 OA
ATOM      5  H   UNL     1       3.301  -1.078   2.892  1.00  0.00     0.163 HD
BRANCH   3   6
ATOM      6  C   UNL     1       6.112  -2.130   4.431  1.00  0.00     0.120 C 
BRANCH   6   7
ATOM      7  C   UNL     1       7.644  -1.877   4.344  1.00  0.00     0.035 C 
ATOM      8  C   UNL     1       8.357  -2.053   3.013  1.00  0.00     0.007 C 
ENDBRANCH   6   7
BRANCH   6   9
ATOM      9  C   UNL     1       5.787  -3.643   4.140  1.00  0.00     0.035 C 
ATOM     10  C   UNL     1       6.507  -4.765   4.852  1.00  0.00     0.007 C 
ENDBRANCH   6   9
BRANCH   6  11
ATOM     11  N   UNL     1       5.689  -1.612   5.733  1.00  0.00    -0.324 N 
ATOM     12  C   UNL     1       5.460  -0.355   6.166  1.00  0.00     0.315 C 
ATOM     13  H   UNL     1       5.546  -2.306   6.416  1.00  0.00     0.166 HD
ATOM     14  O   UNL     1       5.410  -0.200   7.392  1.00  0.00    -0.249 OA
ATOM     15  N   UNL     1       5.144   0.716   5.408  1.00  0.00    -0.332 N 
ATOM     16  H   UNL     1       4.593   1.346   5.927  1.00  0.00     0.165 HD
BRANCH  15  17
ATOM     17  C   UNL     1       5.366   1.244   4.035  1.00  0.00     0.182 C 
BRANCH  17  18
ATOM     18  C   UNL     1       4.165   1.817   3.146  1.00  0.00     0.200 C 
ATOM     19  C   UNL     1       2.925   1.007   2.744  1.00  0.00     0.077 C 
BRANCH  18  20
ATOM     20  N   UNL     1       4.739   2.436   1.905  1.00  0.00    -0.331 N 
ATOM     21  C   UNL     1       4.553   1.620   0.680  1.00  0.00     0.262 C 
ATOM     22  C   UNL     1       4.221   3.796   1.721  1.00  0.00     0.262 C 
ATOM     23  H   UNL     1       5.748   2.477   2.052  1.00  0.00     0.348 HD
ATOM     24  C   UNL     1       5.143   2.240  -0.577  1.00  0.00     0.062 C 
ATOM     25  C   UNL     1       4.833   4.460   0.490  1.00  0.00     0.062 C 
ATOM     26  C   UNL     1       4.577   3.638  -0.766  1.00  0.00     0.012 C 
ENDBRANCH  18  20
ENDBRANCH  17  18
ENDBRANCH  15  17
ENDBRANCH   6  11
ENDBRANCH   3   6
ENDBRANCH   1   2
BRANCH   1  27
ATOM     27  C   UNL     1       2.302  -0.866   5.867  1.00  0.00     0.023 C 
BRANCH  27  28
ATOM     28  C   UNL     1       1.882   0.628   5.854  1.00  0.00     0.023 C 
BRANCH  28  29
ATOM     29  C   UNL     1       0.665   1.210   5.112  1.00  0.00     0.116 C 
BRANCH  29  30
ATOM     30  N   UNL     1      -0.411   0.310   4.784  1.00  0.00    -0.352 N 
ATOM     31  C   UNL     1      -1.629   0.658   4.243  1.00  0.00     0.251 C 
ATOM     32  H   UNL     1      -0.261  -0.646   4.964  1.00  0.00     0.163 HD
ATOM     33  O   UNL     1      -2.534  -0.174   4.163  1.00  0.00    -0.269 OA
BRANCH  31  34
ATOM     34  C   UNL     1      -1.882   2.049   3.787  1.00  0.00     0.039 A 
ATOM     35  C   UNL     1      -2.934   2.770   4.360  1.00  0.00     0.014 A 
ATOM     36  C   UNL     1      -1.128   2.625   2.760  1.00  0.00     0.014 A 
ATOM     37  C   UNL     1      -3.201   4.079   3.939  1.00  0.00     0.010 A 
ATOM     38  C   UNL     1      -1.372   3.949   2.366  1.00  0.00     0.010 A 
ATOM     39  C   UNL     1      -2.410   4.693   2.952  1.00  0.00    -0.014 A 
BRANCH  39  40
ATOM     40  C   UNL     1      -2.654   6.110   2.551  1.00  0.00     0.031 A 
ATOM     41  C   UNL     1      -3.151   6.451   1.170  1.00  0.00     0.074 A 
ATOM     42  C   UNL     1      -2.397   7.105   3.424  1.00  0.00     0.049 A 
ATOM     43  N   UNL     1      -3.406   7.626   0.646  1.00  0.00    -0.248 NA
ATOM     44  C   UNL     1      -3.376   5.326   0.252  1.00  0.00     0.031 C 
ATOM     45  C   UNL     1      -1.881   6.921   4.780  1.00  0.00     0.029 A 
ATOM     46  N   UNL     1      -2.529   8.469   3.302  1.00  0.00    -0.354 N 
ATOM     47  C   UNL     1      -3.814   7.382  -0.660  1.00  0.00     0.074 A 
ATOM     48  C   UNL     1      -3.727   5.951  -0.864  1.00  0.00     0.031 C 
ATOM     49  C   UNL     1      -1.762   8.120   5.372  1.00  0.00     0.029 A 
ATOM     50  C   UNL     1      -2.157   9.163   4.429  1.00  0.00     0.049 A 
ATOM     51  H   UNL     1      -2.859   8.906   2.485  1.00  0.00     0.167 HD
ATOM     52  C   UNL     1      -4.239   8.266  -1.597  1.00  0.00     0.037 A 
ATOM     53  C   UNL     1      -2.131  10.488   4.675  1.00  0.00     0.037 A 
ATOM     54  C   UNL     1      -4.340   9.689  -1.392  1.00  0.00     0.049 A 
ATOM     55  C   UNL     1      -2.585  11.449   3.608  1.00  0.00     0.074 A 
ATOM     56  C   UNL     1      -4.817  10.655  -2.263  1.00  0.00     0.029 A 
ATOM     57  N   UNL     1      -3.949  10.353  -0.238  1.00  0.00    -0.354 N 
ATOM     58  N   UNL     1      -3.040  11.197   2.405  1.00  0.00    -0.248 NA
ATOM     59  C   UNL     1      -2.527  12.881   3.937  1.00  0.00     0.031 C 
ATOM     60  C   UNL     1      -4.659  11.908  -1.659  1.00  0.00     0.029 A 
ATOM     61  C   UNL     1      -4.144  11.718  -0.388  1.00  0.00     0.049 A 
ATOM     62  H   UNL     1      -3.586   9.919   0.567  1.00  0.00     0.167 HD
ATOM     63  C   UNL     1      -3.353  12.430   1.849  1.00  0.00     0.074 A 
ATOM     64  C   UNL     1      -3.050  13.430   2.851  1.00  0.00     0.031 C 
ATOM     65  C   UNL     1      -3.848  12.708   0.617  1.00  0.00     0.037 A 
BRANCH  52  66
ATOM     66  C   UNL     1      -4.627   7.723  -2.945  1.00  0.00     0.064 A 
ATOM     67  C   UNL     1      -5.780   6.943  -3.122  1.00  0.00     0.173 A 
ATOM     68  C   UNL     1      -3.865   8.030  -4.083  1.00  0.00     0.173 A 
ATOM     69  F   UNL     1      -6.543   6.617  -2.068  1.00  0.00    -0.203 F 
ATOM     70  C   UNL     1      -6.137   6.465  -4.381  1.00  0.00     0.198 A 
ATOM     71  C   UNL     1      -4.243   7.577  -5.345  1.00  0.00     0.198 A 
ATOM     72  F   UNL     1      -2.759   8.782  -3.975  1.00  0.00    -0.203 F 
ATOM     73  F   UNL     1      -7.216   5.681  -4.517  1.00  0.00    -0.200 F 
ATOM     74  C   UNL     1      -5.373   6.788  -5.492  1.00  0.00     0.200 A 
ATOM     75  F   UNL     1      -3.512   7.905  -6.420  1.00  0.00    -0.200 F 
ATOM     76  F   UNL     1      -5.723   6.334  -6.703  1.00  0.00    -0.200 F 
ENDBRANCH  52  66
BRANCH  53  77
ATOM     77  C   UNL     1      -1.676  10.991   6.000  1.00  0.00     0.064 A 
ATOM     78  C   UNL     1      -2.572  11.613   6.882  1.00  0.00     0.173 A 
ATOM     79  C   UNL     1      -0.338  10.880   6.403  1.00  0.00     0.173 A 
ATOM     80  F   UNL     1      -3.858  11.766   6.532  1.00  0.00    -0.203 F 
ATOM     81  C   UNL     1      -2.142  12.126   8.104  1.00  0.00     0.198 A 
ATOM     82  C   UNL     1       0.085  11.364   7.640  1.00  0.00     0.198 A 
ATOM     83  F   UNL     1       0.560  10.292   5.599  1.00  0.00    -0.203 F 
ATOM     84  F   UNL     1      -3.009  12.762   8.903  1.00  0.00    -0.200 F 
ATOM     85  C   UNL     1      -0.815  11.995   8.485  1.00  0.00     0.200 A 
ATOM     86  F   UNL     1       1.365  11.222   8.010  1.00  0.00    -0.200 F 
ATOM     87  F   UNL     1      -0.402  12.485   9.662  1.00  0.00    -0.200 F 
ENDBRANCH  53  77
BRANCH  65  88
ATOM     88  C   UNL     1      -4.135  14.148   0.294  1.00  0.00     0.064 A 
ATOM     89  C   UNL     1      -3.106  15.081   0.099  1.00  0.00     0.173 A 
ATOM     90  C   UNL     1      -5.458  14.590   0.139  1.00  0.00     0.173 A 
ATOM     91  F   UNL     1      -1.824  14.715   0.250  1.00  0.00    -0.203 F 
ATOM     92  C   UNL     1      -3.392  16.409  -0.210  1.00  0.00     0.198 A 
ATOM     93  C   UNL     1      -5.739  15.910  -0.203  1.00  0.00     0.198 A 
ATOM     94  F   UNL     1      -6.480  13.738   0.307  1.00  0.00    -0.203 F 
ATOM     95  F   UNL     1      -2.394  17.295  -0.340  1.00  0.00    -0.200 F 
ATOM     96  C   UNL     1      -4.707  16.820  -0.369  1.00  0.00     0.200 A 
ATOM     97  F   UNL     1      -7.010  16.301  -0.371  1.00  0.00    -0.200 F 
ATOM     98  F   UNL     1      -4.980  18.096  -0.675  1.00  0.00    -0.200 F 
ENDBRANCH  65  88
ENDBRANCH  39  40
ENDBRANCH  31  34
ENDBRANCH  29  30
ENDBRANCH  28  29
ENDBRANCH  27  28
ENDBRANCH   1  27
TORSDOF 17
