REMARK SMILES Cc1ccc(S(=O)(=O)n2cc(C(=O)C(=O)NCC(=O)N[C@H](Cc3c[nH]c4ccccc34)C(=O)NCCCCNC(=O)c3ccc(-c4c5nc(c(-c6c(F)c(F)c(F)c(F)c6F)c6ccc([nH]6)c(-c6c(F)c(F)c(F)c(F)c6F)c6nc(c(-c7c(F)c(F)c(F)c(F)c7F)c7ccc4[nH]7)C=C6)C=C5)cc3)c3ccccc32)cc1
REMARK SMILES IDX 32 1 33 2 34 3 21 5 20 6 18 7 19 8 17 10 16 11 14 12 15 13
REMARK SMILES IDX 12 15 13 16 11 17 9 18 10 19 110 20 105 21 109 22 106 23
REMARK SMILES IDX 108 24 107 25 6 26 7 27 8 28 5 29 1 30 2 31 3 32 112 33 4 34
REMARK SMILES IDX 111 35 22 36 23 37 24 38 31 39 25 40 26 41 30 42 27 44 29 45
REMARK SMILES IDX 28 46 35 47 36 48 37 49 38 50 39 51 40 52 41 54 42 55 43 56
REMARK SMILES IDX 104 57 44 58 103 59 45 60 46 61 47 62 97 63 48 64 102 65
REMARK SMILES IDX 96 66 98 67 49 68 101 69 95 70 94 71 50 73 82 74 62 75 81 76
REMARK SMILES IDX 63 77 66 78 80 79 99 80 64 81 65 82 79 84 100 85 67 86 51 87
REMARK SMILES IDX 52 88 60 89 53 90 54 91 58 92 61 93 55 94 56 95 59 96 57 97
REMARK SMILES IDX 83 98 84 99 92 100 85 101 86 102 90 103 93 104 87 105 88 106
REMARK SMILES IDX 91 107 89 108 68 109 69 110 77 111 70 112 71 113 75 114
REMARK SMILES IDX 78 115 72 116 73 117 76 118 74 119
REMARK H PARENT 34 4 20 9 16 14 25 43 39 53 98 72 66 83
REMARK Flexibility Score: inf
ROOT
ATOM      1  C   UNL     1      -9.364   0.466   3.961  1.00  0.00     0.242 C 
ATOM      2  O   UNL     1      -8.699  -0.572   3.842  1.00  0.00    -0.273 OA
ATOM      3  N   UNL     1      -9.620   0.836   5.239  1.00  0.00    -0.354 N 
ATOM      4  H   UNL     1      -9.247   0.211   5.902  1.00  0.00     0.163 HD
ENDROOT
BRANCH   1   5
ATOM      5  C   UNL     1      -9.834   1.220   2.700  1.00  0.00     0.175 C 
BRANCH   5   6
ATOM      6  N   UNL     1      -9.367   2.605   2.833  1.00  0.00    -0.342 N 
ATOM      7  C   UNL     1      -8.109   3.111   2.685  1.00  0.00     0.240 C 
ATOM      8  O   UNL     1      -7.949   4.292   3.009  1.00  0.00    -0.273 OA
ATOM      9  H   UNL     1     -10.062   3.264   3.061  1.00  0.00     0.164 HD
BRANCH   7  10
ATOM     10  C   UNL     1      -6.994   2.332   1.955  1.00  0.00     0.216 C 
BRANCH  10  11
ATOM     11  N   UNL     1      -6.790   0.930   2.309  1.00  0.00    -0.340 N 
ATOM     12  C   UNL     1      -6.465  -0.129   1.477  1.00  0.00     0.292 C 
ATOM     13  O   UNL     1      -6.253  -1.256   1.906  1.00  0.00    -0.265 OA
ATOM     14  H   UNL     1      -6.899   0.709   3.263  1.00  0.00     0.164 HD
BRANCH  12  15
ATOM     15  C   UNL     1      -6.365   0.120  -0.026  1.00  0.00     0.252 C 
ATOM     16  O   UNL     1      -5.528   0.947  -0.388  1.00  0.00    -0.283 OA
BRANCH  15  17
ATOM     17  C   UNL     1      -7.355  -0.447  -0.949  1.00  0.00     0.054 A 
ATOM     18  N   UNL     1      -8.748  -1.772  -2.138  1.00  0.00    -0.240 N 
ATOM     19  C   UNL     1      -7.776  -1.768  -1.139  1.00  0.00     0.117 A 
ATOM     20  C   UNL     1      -9.098  -0.434  -2.392  1.00  0.00     0.065 A 
ATOM     21  C   UNL     1      -8.031   0.333  -1.934  1.00  0.00     0.012 A 
ATOM     22  C   UNL     1     -10.094   0.115  -3.222  1.00  0.00     0.028 A 
ATOM     23  C   UNL     1      -7.854   1.629  -2.461  1.00  0.00     0.011 A 
ATOM     24  C   UNL     1      -9.858   1.368  -3.786  1.00  0.00     0.002 A 
ATOM     25  C   UNL     1      -8.731   2.101  -3.441  1.00  0.00     0.001 A 
BRANCH  18  26
ATOM     26  S   UNL     1      -8.688  -2.703  -3.615  1.00  0.00     0.268 S 
ATOM     27  O   UNL     1      -7.517  -2.170  -4.290  1.00  0.00    -0.201 OA
ATOM     28  O   UNL     1     -10.025  -2.510  -4.162  1.00  0.00    -0.201 OA
BRANCH  26  29
ATOM     29  C   UNL     1      -8.525  -4.448  -3.720  1.00  0.00     0.088 A 
ATOM     30  C   UNL     1      -8.681  -8.602  -4.893  1.00  0.00     0.044 C 
ATOM     31  C   UNL     1      -8.570  -7.169  -4.457  1.00  0.00    -0.051 A 
ATOM     32  C   UNL     1      -8.704  -6.195  -5.435  1.00  0.00     0.005 A 
ATOM     33  C   UNL     1      -8.396  -6.770  -3.112  1.00  0.00     0.005 A 
ATOM     34  C   UNL     1      -8.668  -4.862  -5.068  1.00  0.00     0.022 A 
ATOM     35  C   UNL     1      -8.377  -5.403  -2.729  1.00  0.00     0.022 A 
ENDBRANCH  26  29
ENDBRANCH  18  26
ENDBRANCH  15  17
ENDBRANCH  12  15
ENDBRANCH  10  11
ENDBRANCH   7  10
ENDBRANCH   5   6
BRANCH   5  36
ATOM     36  C   UNL     1     -11.328   1.143   2.318  1.00  0.00     0.072 C 
BRANCH  36  37
ATOM     37  C   UNL     1     -12.167  -0.029   2.759  1.00  0.00    -0.020 A 
ATOM     38  C   UNL     1     -11.790  -1.202   3.382  1.00  0.00     0.087 A 
ATOM     39  C   UNL     1     -13.600  -0.121   2.610  1.00  0.00     0.003 A 
ATOM     40  N   UNL     1     -12.913  -1.845   3.830  1.00  0.00    -0.361 N 
ATOM     41  C   UNL     1     -14.034  -1.205   3.374  1.00  0.00     0.046 A 
ATOM     42  C   UNL     1     -14.575   0.636   1.926  1.00  0.00     0.010 A 
ATOM     43  H   UNL     1     -12.914  -2.650   4.397  1.00  0.00     0.166 HD
ATOM     44  C   UNL     1     -15.383  -1.513   3.575  1.00  0.00     0.026 A 
ATOM     45  C   UNL     1     -15.929   0.294   2.053  1.00  0.00     0.001 A 
ATOM     46  C   UNL     1     -16.327  -0.746   2.890  1.00  0.00     0.002 A 
ENDBRANCH  36  37
ENDBRANCH   5  36
ENDBRANCH   1   5
BRANCH   3  47
ATOM     47  C   UNL     1     -10.323   1.950   5.844  1.00  0.00     0.116 C 
BRANCH  47  48
ATOM     48  C   UNL     1     -11.839   1.764   5.943  1.00  0.00     0.023 C 
BRANCH  48  49
ATOM     49  C   UNL     1     -12.306   0.403   6.464  1.00  0.00     0.023 C 
BRANCH  49  50
ATOM     50  C   UNL     1     -12.120   0.188   7.957  1.00  0.00     0.116 C 
BRANCH  50  51
ATOM     51  N   UNL     1     -13.373   0.139   8.709  1.00  0.00    -0.352 N 
ATOM     52  C   UNL     1     -13.559  -0.097  10.066  1.00  0.00     0.251 C 
ATOM     53  H   UNL     1     -14.193   0.292   8.185  1.00  0.00     0.163 HD
ATOM     54  O   UNL     1     -14.662  -0.088  10.574  1.00  0.00    -0.269 OA
BRANCH  52  55
ATOM     55  C   UNL     1     -12.343  -0.231  10.899  1.00  0.00     0.039 A 
ATOM     56  C   UNL     1     -12.088   0.793  11.816  1.00  0.00     0.014 A 
ATOM     57  C   UNL     1     -11.338  -1.097  10.483  1.00  0.00     0.014 A 
ATOM     58  C   UNL     1     -10.767   1.131  12.087  1.00  0.00     0.010 A 
ATOM     59  C   UNL     1     -10.032  -0.690  10.657  1.00  0.00     0.010 A 
ATOM     60  C   UNL     1      -9.754   0.473  11.390  1.00  0.00    -0.014 A 
BRANCH  60  61
ATOM     61  C   UNL     1      -8.405   1.014  11.262  1.00  0.00     0.031 A 
ATOM     62  C   UNL     1      -7.271   0.332  11.920  1.00  0.00     0.074 A 
ATOM     63  C   UNL     1      -8.183   2.093  10.474  1.00  0.00     0.049 A 
ATOM     64  N   UNL     1      -6.147   0.898  12.201  1.00  0.00    -0.248 NA
ATOM     65  C   UNL     1      -7.338  -1.055  12.362  1.00  0.00     0.031 C 
ATOM     66  C   UNL     1      -6.891   2.590  10.005  1.00  0.00     0.029 A 
ATOM     67  N   UNL     1      -9.100   3.086  10.081  1.00  0.00    -0.354 N 
ATOM     68  C   UNL     1      -5.269  -0.079  12.616  1.00  0.00     0.074 A 
ATOM     69  C   UNL     1      -6.075  -1.270  12.740  1.00  0.00     0.031 C 
ATOM     70  C   UNL     1      -7.019   3.882   9.668  1.00  0.00     0.029 A 
ATOM     71  C   UNL     1      -8.361   4.293  10.033  1.00  0.00     0.049 A 
ATOM     72  H   UNL     1     -10.056   2.967   9.882  1.00  0.00     0.167 HD
ATOM     73  C   UNL     1      -3.939   0.216  12.694  1.00  0.00     0.037 A 
ATOM     74  C   UNL     1      -8.660   5.353  10.838  1.00  0.00     0.037 A 
ATOM     75  C   UNL     1      -3.700   1.630  12.416  1.00  0.00     0.049 A 
ATOM     76  C   UNL     1      -7.537   5.762  11.762  1.00  0.00     0.074 A 
ATOM     77  C   UNL     1      -3.317   2.311  11.271  1.00  0.00     0.029 A 
ATOM     78  N   UNL     1      -4.168   2.589  13.306  1.00  0.00    -0.354 N 
ATOM     79  N   UNL     1      -6.510   5.004  12.026  1.00  0.00    -0.248 NA
ATOM     80  C   UNL     1      -7.500   7.025  12.494  1.00  0.00     0.031 C 
ATOM     81  C   UNL     1      -3.609   3.685  11.459  1.00  0.00     0.029 A 
ATOM     82  C   UNL     1      -4.147   3.841  12.724  1.00  0.00     0.049 A 
ATOM     83  H   UNL     1      -4.472   2.402  14.224  1.00  0.00     0.167 HD
ATOM     84  C   UNL     1      -5.713   5.620  12.955  1.00  0.00     0.074 A 
ATOM     85  C   UNL     1      -6.362   6.893  13.200  1.00  0.00     0.031 C 
ATOM     86  C   UNL     1      -4.599   5.013  13.458  1.00  0.00     0.037 A 
BRANCH  73  87
ATOM     87  C   UNL     1      -2.837  -0.822  12.745  1.00  0.00     0.064 A 
ATOM     88  C   UNL     1      -1.565  -0.552  12.190  1.00  0.00     0.173 A 
ATOM     89  C   UNL     1      -2.981  -2.121  13.265  1.00  0.00     0.173 A 
ATOM     90  F   UNL     1      -1.233   0.672  11.761  1.00  0.00    -0.203 F 
ATOM     91  C   UNL     1      -0.580  -1.534  12.050  1.00  0.00     0.198 A 
ATOM     92  C   UNL     1      -2.020  -3.120  13.074  1.00  0.00     0.198 A 
ATOM     93  F   UNL     1      -4.024  -2.451  14.034  1.00  0.00    -0.203 F 
ATOM     94  F   UNL     1       0.604  -1.216  11.507  1.00  0.00    -0.200 F 
ATOM     95  C   UNL     1      -0.823  -2.830  12.454  1.00  0.00     0.200 A 
ATOM     96  F   UNL     1      -2.265  -4.367  13.502  1.00  0.00    -0.200 F 
ATOM     97  F   UNL     1       0.100  -3.784  12.276  1.00  0.00    -0.200 F 
ENDBRANCH  73  87
BRANCH  74  98
ATOM     98  C   UNL     1     -10.110   5.461  11.139  1.00  0.00     0.064 A 
ATOM     99  C   UNL     1     -10.982   5.746  10.070  1.00  0.00     0.173 A 
ATOM    100  C   UNL     1     -10.662   4.900  12.295  1.00  0.00     0.173 A 
ATOM    101  F   UNL     1     -10.499   6.282   8.938  1.00  0.00    -0.203 F 
ATOM    102  C   UNL     1     -12.320   5.362  10.105  1.00  0.00     0.198 A 
ATOM    103  C   UNL     1     -12.008   4.528  12.331  1.00  0.00     0.198 A 
ATOM    104  F   UNL     1      -9.879   4.587  13.337  1.00  0.00    -0.203 F 
ATOM    105  F   UNL     1     -13.091   5.530   9.022  1.00  0.00    -0.200 F 
ATOM    106  C   UNL     1     -12.824   4.724  11.225  1.00  0.00     0.200 A 
ATOM    107  F   UNL     1     -12.492   3.882  13.402  1.00  0.00    -0.200 F 
ATOM    108  F   UNL     1     -14.079   4.253  11.220  1.00  0.00    -0.200 F 
ENDBRANCH  74  98
BRANCH  86 109
ATOM    109  C   UNL     1      -3.784   5.486  14.636  1.00  0.00     0.064 A 
ATOM    110  C   UNL     1      -4.323   6.183  15.728  1.00  0.00     0.173 A 
ATOM    111  C   UNL     1      -2.431   5.089  14.769  1.00  0.00     0.173 A 
ATOM    112  F   UNL     1      -5.619   6.522  15.767  1.00  0.00    -0.203 F 
ATOM    113  C   UNL     1      -3.553   6.502  16.851  1.00  0.00     0.198 A 
ATOM    114  C   UNL     1      -1.684   5.358  15.914  1.00  0.00     0.198 A 
ATOM    115  F   UNL     1      -1.806   4.401  13.802  1.00  0.00    -0.203 F 
ATOM    116  F   UNL     1      -4.104   7.198  17.856  1.00  0.00    -0.200 F 
ATOM    117  C   UNL     1      -2.241   6.077  16.950  1.00  0.00     0.200 A 
ATOM    118  F   UNL     1      -0.429   4.896  16.015  1.00  0.00    -0.200 F 
ATOM    119  F   UNL     1      -1.524   6.340  18.051  1.00  0.00    -0.200 F 
ENDBRANCH  86 109
ENDBRANCH  60  61
ENDBRANCH  52  55
ENDBRANCH  50  51
ENDBRANCH  49  50
ENDBRANCH  48  49
ENDBRANCH  47  48
ENDBRANCH   3  47
TORSDOF 20
