REMARK SMILES N#C/C(=C/c1ccc(-c2cccc(C(=O)NCCCCNC(=O)c3ccc(-c4c5nc(c(-c6c(F)c(F)c(F)c(F)c6F)c6ccc([nH]6)c(-c6c(F)c(F)c(F)c(F)c6F)c6nc(c(-c7c(F)c(F)c(F)c(F)c7F)c7ccc4[nH]7)C=C6)C=C5)cc3)c2)o1)c1ccc(F)cc1
REMARK SMILES IDX 18 1 17 2 16 3 14 4 15 5 13 7 9 8 10 9 87 10 11 11 12 12
REMARK SMILES IDX 8 13 5 14 6 15 88 16 7 17 4 18 3 19 2 20 1 21 89 22 90 23
REMARK SMILES IDX 95 24 91 25 94 26 92 27 93 28 19 29 20 30 21 31 22 32 23 34
REMARK SMILES IDX 24 35 25 36 86 37 26 38 85 39 27 40 28 41 29 42 79 43 30 44
REMARK SMILES IDX 84 45 78 46 80 47 31 48 83 49 77 50 76 51 32 53 64 54 44 55
REMARK SMILES IDX 63 56 45 57 48 58 62 59 81 60 46 61 47 62 61 64 82 65 49 66
REMARK SMILES IDX 33 67 34 68 42 69 35 70 36 71 40 72 43 73 37 74 38 75 41 76
REMARK SMILES IDX 39 77 65 78 66 79 74 80 67 81 68 82 72 83 75 84 69 85 70 86
REMARK SMILES IDX 73 87 71 88 50 89 51 90 59 91 52 92 53 93 57 94 60 95 54 96
REMARK SMILES IDX 55 97 58 98 56 99
REMARK H PARENT 16 6 21 33 80 52 48 63
REMARK Flexibility Score: inf
ROOT
ATOM      1  C   UNL     1       9.944  -5.864  -0.843  1.00  0.00     0.023 C 
ENDROOT
BRANCH   1   2
ATOM      2  C   UNL     1      10.540  -4.464  -0.828  1.00  0.00     0.116 C 
BRANCH   2   3
ATOM      3  N   UNL     1      11.752  -4.290  -1.620  1.00  0.00    -0.352 N 
ATOM      4  C   UNL     1      12.117  -3.289  -2.505  1.00  0.00     0.251 C 
ATOM      5  O   UNL     1      13.204  -3.358  -3.073  1.00  0.00    -0.269 OA
ATOM      6  H   UNL     1      12.422  -5.003  -1.507  1.00  0.00     0.163 HD
BRANCH   4   7
ATOM      7  C   UNL     1      11.191  -2.172  -2.830  1.00  0.00     0.040 A 
ATOM      8  C   UNL     1       9.202  -0.929  -2.230  1.00  0.00     0.018 A 
ATOM      9  C   UNL     1       9.076  -0.500  -3.554  1.00  0.00     0.012 A 
ATOM     10  C   UNL     1      10.349  -1.638  -1.861  1.00  0.00     0.025 A 
ATOM     11  C   UNL     1      10.048  -0.850  -4.499  1.00  0.00     0.002 A 
ATOM     12  C   UNL     1      11.083  -1.722  -4.148  1.00  0.00     0.014 A 
BRANCH   8  13
ATOM     13  C   UNL     1       8.126  -0.849  -1.250  1.00  0.00     0.134 A 
ATOM     14  C   UNL     1       5.986  -0.994  -0.657  1.00  0.00     0.128 A 
ATOM     15  C   UNL     1       6.763  -1.100   0.494  1.00  0.00     0.051 A 
ATOM     16  O   UNL     1       6.846  -0.874  -1.728  1.00  0.00    -0.457 OA
ATOM     17  C   UNL     1       8.112  -0.945   0.123  1.00  0.00     0.051 A 
BRANCH  14  18
ATOM     18  C   UNL     1       4.563  -0.946  -0.762  1.00  0.00     0.067 C 
ATOM     19  C   UNL     1       3.849  -0.046  -0.057  1.00  0.00     0.063 C 
BRANCH  19  20
ATOM     20  C   UNL     1       2.329  -0.046  -0.057  1.00  0.00     0.100 C 
ATOM     21  N   UNL     1       1.068  -0.046  -0.057  1.00  0.00    -0.192 NA
ENDBRANCH  19  20
BRANCH  19  22
ATOM     22  C   UNL     1       4.474   1.023   0.781  1.00  0.00    -0.007 A 
ATOM     23  C   UNL     1       5.430   1.903   0.238  1.00  0.00     0.012 A 
ATOM     24  C   UNL     1       4.147   1.143   2.143  1.00  0.00     0.012 A 
ATOM     25  C   UNL     1       6.101   2.820   1.050  1.00  0.00     0.040 A 
ATOM     26  C   UNL     1       4.803   2.079   2.948  1.00  0.00     0.040 A 
ATOM     27  C   UNL     1       5.785   2.894   2.399  1.00  0.00     0.123 A 
ATOM     28  F   UNL     1       6.441   3.759   3.184  1.00  0.00    -0.207 F 
ENDBRANCH  19  22
ENDBRANCH  14  18
ENDBRANCH   8  13
ENDBRANCH   4   7
ENDBRANCH   2   3
ENDBRANCH   1   2
BRANCH   1  29
ATOM     29  C   UNL     1      10.790  -6.972  -0.233  1.00  0.00     0.023 C 
BRANCH  29  30
ATOM     30  C   UNL     1      11.348  -6.706   1.160  1.00  0.00     0.116 C 
BRANCH  30  31
ATOM     31  N   UNL     1      10.339  -6.384   2.159  1.00  0.00    -0.352 N 
ATOM     32  C   UNL     1      10.130  -6.923   3.410  1.00  0.00     0.251 C 
ATOM     33  H   UNL     1       9.710  -5.673   1.902  1.00  0.00     0.163 HD
ATOM     34  O   UNL     1       9.183  -6.546   4.089  1.00  0.00    -0.269 OA
BRANCH  32  35
ATOM     35  C   UNL     1      11.017  -7.995   3.915  1.00  0.00     0.039 A 
ATOM     36  C   UNL     1      10.436  -9.135   4.479  1.00  0.00     0.014 A 
ATOM     37  C   UNL     1      12.405  -7.900   3.801  1.00  0.00     0.014 A 
ATOM     38  C   UNL     1      11.242 -10.220   4.832  1.00  0.00     0.010 A 
ATOM     39  C   UNL     1      13.197  -9.012   4.073  1.00  0.00     0.010 A 
ATOM     40  C   UNL     1      12.623 -10.188   4.580  1.00  0.00    -0.014 A 
BRANCH  40  41
ATOM     41  C   UNL     1      13.478 -11.381   4.809  1.00  0.00     0.031 A 
ATOM     42  C   UNL     1      14.597 -11.334   5.810  1.00  0.00     0.074 A 
ATOM     43  C   UNL     1      13.307 -12.477   4.044  1.00  0.00     0.049 A 
ATOM     44  N   UNL     1      15.498 -12.242   6.089  1.00  0.00    -0.248 NA
ATOM     45  C   UNL     1      14.746 -10.086   6.572  1.00  0.00     0.031 C 
ATOM     46  C   UNL     1      12.307 -12.621   2.985  1.00  0.00     0.029 A 
ATOM     47  N   UNL     1      13.985 -13.670   4.024  1.00  0.00    -0.354 N 
ATOM     48  C   UNL     1      16.332 -11.667   7.037  1.00  0.00     0.074 A 
ATOM     49  C   UNL     1      15.861 -10.315   7.249  1.00  0.00     0.031 C 
ATOM     50  C   UNL     1      12.425 -13.838   2.431  1.00  0.00     0.029 A 
ATOM     51  C   UNL     1      13.529 -14.547   3.071  1.00  0.00     0.049 A 
ATOM     52  H   UNL     1      14.729 -13.878   4.635  1.00  0.00     0.167 HD
ATOM     53  C   UNL     1      17.382 -12.223   7.689  1.00  0.00     0.037 A 
ATOM     54  C   UNL     1      13.954 -15.782   2.744  1.00  0.00     0.037 A 
ATOM     55  C   UNL     1      17.825 -13.579   7.502  1.00  0.00     0.049 A 
ATOM     56  C   UNL     1      15.098 -16.393   3.505  1.00  0.00     0.074 A 
ATOM     57  C   UNL     1      18.813 -14.267   8.184  1.00  0.00     0.029 A 
ATOM     58  N   UNL     1      17.309 -14.455   6.557  1.00  0.00    -0.354 N 
ATOM     59  N   UNL     1      15.819 -15.874   4.468  1.00  0.00    -0.248 NA
ATOM     60  C   UNL     1      15.479 -17.765   3.141  1.00  0.00     0.031 C 
ATOM     61  C   UNL     1      18.927 -15.543   7.622  1.00  0.00     0.029 A 
ATOM     62  C   UNL     1      17.977 -15.668   6.620  1.00  0.00     0.049 A 
ATOM     63  H   UNL     1      16.576 -14.245   5.934  1.00  0.00     0.167 HD
ATOM     64  C   UNL     1      16.727 -16.857   4.837  1.00  0.00     0.074 A 
ATOM     65  C   UNL     1      16.453 -18.011   4.006  1.00  0.00     0.031 C 
ATOM     66  C   UNL     1      17.699 -16.806   5.781  1.00  0.00     0.037 A 
BRANCH  53  67
ATOM     67  C   UNL     1      18.124 -11.357   8.665  1.00  0.00     0.064 A 
ATOM     68  C   UNL     1      17.543 -10.943   9.874  1.00  0.00     0.173 A 
ATOM     69  C   UNL     1      19.437 -10.944   8.394  1.00  0.00     0.173 A 
ATOM     70  F   UNL     1      16.286 -11.300  10.177  1.00  0.00    -0.203 F 
ATOM     71  C   UNL     1      18.235 -10.115  10.755  1.00  0.00     0.198 A 
ATOM     72  C   UNL     1      20.137 -10.143   9.293  1.00  0.00     0.198 A 
ATOM     73  F   UNL     1      20.042 -11.317   7.256  1.00  0.00    -0.203 F 
ATOM     74  F   UNL     1      17.636  -9.683  11.874  1.00  0.00    -0.200 F 
ATOM     75  C   UNL     1      19.532  -9.720  10.466  1.00  0.00     0.200 A 
ATOM     76  F   UNL     1      21.395  -9.771   9.018  1.00  0.00    -0.200 F 
ATOM     77  F   UNL     1      20.195  -8.922  11.315  1.00  0.00    -0.200 F 
ENDBRANCH  53  67
BRANCH  54  78
ATOM     78  C   UNL     1      13.267 -16.530   1.660  1.00  0.00     0.064 A 
ATOM     79  C   UNL     1      12.430 -17.615   1.956  1.00  0.00     0.173 A 
ATOM     80  C   UNL     1      13.407 -16.159   0.315  1.00  0.00     0.173 A 
ATOM     81  F   UNL     1      12.280 -18.018   3.226  1.00  0.00    -0.203 F 
ATOM     82  C   UNL     1      11.765 -18.306   0.945  1.00  0.00     0.198 A 
ATOM     83  C   UNL     1      12.723 -16.836  -0.692  1.00  0.00     0.198 A 
ATOM     84  F   UNL     1      14.192 -15.123  -0.017  1.00  0.00    -0.203 F 
ATOM     85  F   UNL     1      10.994 -19.358   1.252  1.00  0.00    -0.200 F 
ATOM     86  C   UNL     1      11.906 -17.911  -0.377  1.00  0.00     0.200 A 
ATOM     87  F   UNL     1      12.850 -16.442  -1.967  1.00  0.00    -0.200 F 
ATOM     88  F   UNL     1      11.256 -18.568  -1.347  1.00  0.00    -0.200 F 
ENDBRANCH  54  78
BRANCH  66  89
ATOM     89  C   UNL     1      18.530 -18.040   5.977  1.00  0.00     0.064 A 
ATOM     90  C   UNL     1      19.495 -18.431   5.037  1.00  0.00     0.173 A 
ATOM     91  C   UNL     1      18.390 -18.816   7.138  1.00  0.00     0.173 A 
ATOM     92  F   UNL     1      19.657 -17.731   3.904  1.00  0.00    -0.203 F 
ATOM     93  C   UNL     1      20.273 -19.568   5.242  1.00  0.00     0.198 A 
ATOM     94  C   UNL     1      19.188 -19.935   7.352  1.00  0.00     0.198 A 
ATOM     95  F   UNL     1      17.485 -18.480   8.069  1.00  0.00    -0.203 F 
ATOM     96  F   UNL     1      21.159 -19.948   4.311  1.00  0.00    -0.200 F 
ATOM     97  C   UNL     1      20.125 -20.314   6.402  1.00  0.00     0.200 A 
ATOM     98  F   UNL     1      19.052 -20.648   8.479  1.00  0.00    -0.200 F 
ATOM     99  F   UNL     1      20.880 -21.403   6.601  1.00  0.00    -0.200 F 
ENDBRANCH  66  89
ENDBRANCH  40  41
ENDBRANCH  32  35
ENDBRANCH  30  31
ENDBRANCH  29  30
ENDBRANCH   1  29
TORSDOF 15
