REMARK SMILES Cn1cc(CNC(=O)Cn2ccc(C(=O)NCCCCNC(=O)c3ccc(-c4c5nc(c(-c6c(F)c(F)c(F)c(F)c6F)c6ccc([nH]6)c(-c6c(F)c(F)c(F)c(F)c6F)c6nc(c(-c7c(F)c(F)c(F)c(F)c7F)c7ccc4[nH]7)C=C6)C=C5)cc3)n2)cn1
REMARK SMILES IDX 17 1 16 2 14 3 15 4 13 6 10 7 11 8 87 9 12 10 9 11 7 12 6 13
REMARK SMILES IDX 8 15 5 16 4 17 1 18 2 19 3 20 89 21 88 22 18 23 19 24 20 25
REMARK SMILES IDX 21 26 22 27 23 29 24 30 25 31 86 32 26 33 85 34 27 35 28 36
REMARK SMILES IDX 29 37 79 38 30 39 84 40 78 41 80 42 31 43 83 44 77 45 76 46
REMARK SMILES IDX 32 48 64 49 44 50 63 51 45 52 48 53 62 54 81 55 46 56 47 57
REMARK SMILES IDX 61 59 82 60 49 61 33 62 34 63 42 64 35 65 36 66 40 67 43 68
REMARK SMILES IDX 37 69 38 70 41 71 39 72 65 73 66 74 74 75 67 76 68 77 72 78
REMARK SMILES IDX 75 79 69 80 70 81 73 82 71 83 50 84 51 85 59 86 52 87 53 88
REMARK SMILES IDX 57 89 60 90 54 91 55 92 58 93 56 94
REMARK H PARENT 16 5 6 14 21 28 80 47 48 58
REMARK Flexibility Score: inf
ROOT
ATOM      1  C   UNL     1       7.042  -6.076   2.718  1.00  0.00     0.116 C 
ENDROOT
BRANCH   1   2
ATOM      2  N   UNL     1       7.298  -4.879   3.488  1.00  0.00    -0.351 N 
ATOM      3  C   UNL     1       7.084  -3.543   3.224  1.00  0.00     0.271 C 
ATOM      4  O   UNL     1       7.339  -2.777   4.159  1.00  0.00    -0.267 OA
ATOM      5  H   UNL     1       7.703  -5.051   4.368  1.00  0.00     0.163 HD
BRANCH   3   6
ATOM      6  C   UNL     1       6.582  -3.057   1.916  1.00  0.00     0.150 A 
ATOM      7  N   UNL     1       5.868  -1.617   0.490  1.00  0.00    -0.263 N 
ATOM      8  C   UNL     1       5.950  -2.779  -0.213  1.00  0.00     0.110 A 
ATOM      9  N   UNL     1       6.211  -1.764   1.781  1.00  0.00    -0.167 NA
ATOM     10  C   UNL     1       6.421  -3.720   0.668  1.00  0.00     0.056 A 
BRANCH   7  11
ATOM     11  C   UNL     1       5.449  -0.308   0.018  1.00  0.00     0.243 C 
BRANCH  11  12
ATOM     12  C   UNL     1       4.646  -0.379  -1.258  1.00  0.00     0.241 C 
ATOM     13  N   UNL     1       3.378  -0.884  -1.236  1.00  0.00    -0.350 N 
ATOM     14  H   UNL     1       2.918  -0.922  -2.106  1.00  0.00     0.163 HD
ATOM     15  O   UNL     1       5.110  -0.001  -2.335  1.00  0.00    -0.273 OA
BRANCH  13  16
ATOM     16  C   UNL     1       2.620  -1.371  -0.103  1.00  0.00     0.155 C 
BRANCH  16  17
ATOM     17  C   UNL     1       1.345  -0.621  -0.057  1.00  0.00     0.009 A 
ATOM     18  C   UNL     1      -2.212  -0.034  -0.043  1.00  0.00     0.173 C 
ATOM     19  N   UNL     1      -0.770  -0.031  -0.024  1.00  0.00    -0.275 N 
ATOM     20  C   UNL     1       0.056  -1.116  -0.062  1.00  0.00     0.113 A 
ATOM     21  N   UNL     1      -0.113   1.139   0.019  1.00  0.00    -0.181 NA
ATOM     22  C   UNL     1       1.171   0.781   0.003  1.00  0.00     0.140 A 
ENDBRANCH  16  17
ENDBRANCH  13  16
ENDBRANCH  11  12
ENDBRANCH   7  11
ENDBRANCH   3   6
ENDBRANCH   1   2
BRANCH   1  23
ATOM     23  C   UNL     1       8.277  -6.549   1.944  1.00  0.00     0.023 C 
BRANCH  23  24
ATOM     24  C   UNL     1       9.329  -7.306   2.772  1.00  0.00     0.023 C 
BRANCH  24  25
ATOM     25  C   UNL     1       8.864  -8.637   3.358  1.00  0.00     0.116 C 
BRANCH  25  26
ATOM     26  N   UNL     1       8.428  -9.604   2.343  1.00  0.00    -0.352 N 
ATOM     27  C   UNL     1       7.746 -10.800   2.521  1.00  0.00     0.251 C 
ATOM     28  H   UNL     1       8.648  -9.373   1.412  1.00  0.00     0.163 HD
ATOM     29  O   UNL     1       7.786 -11.687   1.685  1.00  0.00    -0.269 OA
BRANCH  27  30
ATOM     30  C   UNL     1       6.928 -10.961   3.736  1.00  0.00     0.039 A 
ATOM     31  C   UNL     1       6.830 -12.164   4.445  1.00  0.00     0.014 A 
ATOM     32  C   UNL     1       6.264  -9.825   4.173  1.00  0.00     0.014 A 
ATOM     33  C   UNL     1       6.096 -12.181   5.633  1.00  0.00     0.010 A 
ATOM     34  C   UNL     1       5.770  -9.781   5.440  1.00  0.00     0.010 A 
ATOM     35  C   UNL     1       5.573 -10.975   6.117  1.00  0.00    -0.014 A 
BRANCH  35  36
ATOM     36  C   UNL     1       4.864 -10.854   7.381  1.00  0.00     0.031 A 
ATOM     37  C   UNL     1       5.711 -11.111   8.573  1.00  0.00     0.074 A 
ATOM     38  C   UNL     1       3.664 -10.229   7.434  1.00  0.00     0.049 A 
ATOM     39  N   UNL     1       5.596 -12.063   9.437  1.00  0.00    -0.248 NA
ATOM     40  C   UNL     1       6.936 -10.306   8.741  1.00  0.00     0.031 C 
ATOM     41  C   UNL     1       2.914  -9.612   6.327  1.00  0.00     0.029 A 
ATOM     42  N   UNL     1       2.914  -9.887   8.515  1.00  0.00    -0.354 N 
ATOM     43  C   UNL     1       6.598 -11.842  10.379  1.00  0.00     0.074 A 
ATOM     44  C   UNL     1       7.517 -10.919   9.773  1.00  0.00     0.031 C 
ATOM     45  C   UNL     1       1.964  -8.787   6.819  1.00  0.00     0.029 A 
ATOM     46  C   UNL     1       1.926  -8.935   8.260  1.00  0.00     0.049 A 
ATOM     47  H   UNL     1       3.056 -10.279   9.406  1.00  0.00     0.167 HD
ATOM     48  C   UNL     1       6.418 -12.201  11.682  1.00  0.00     0.037 A 
ATOM     49  C   UNL     1       1.174  -8.291   9.190  1.00  0.00     0.037 A 
ATOM     50  C   UNL     1       5.301 -13.108  11.803  1.00  0.00     0.049 A 
ATOM     51  C   UNL     1       1.277  -9.077  10.448  1.00  0.00     0.074 A 
ATOM     52  C   UNL     1       4.996 -14.351  11.284  1.00  0.00     0.029 A 
ATOM     53  N   UNL     1       4.108 -12.585  12.242  1.00  0.00    -0.354 N 
ATOM     54  N   UNL     1       0.788 -10.279  10.588  1.00  0.00    -0.248 NA
ATOM     55  C   UNL     1       2.353  -8.727  11.362  1.00  0.00     0.031 C 
ATOM     56  C   UNL     1       3.600 -14.296  10.992  1.00  0.00     0.029 A 
ATOM     57  C   UNL     1       3.114 -13.063  11.430  1.00  0.00     0.049 A 
ATOM     58  H   UNL     1       3.989 -11.975  13.005  1.00  0.00     0.167 HD
ATOM     59  C   UNL     1       1.765 -10.975  11.287  1.00  0.00     0.074 A 
ATOM     60  C   UNL     1       2.676  -9.950  11.793  1.00  0.00     0.031 C 
ATOM     61  C   UNL     1       1.912 -12.323  11.127  1.00  0.00     0.037 A 
BRANCH  48  62
ATOM     62  C   UNL     1       6.942 -11.428  12.878  1.00  0.00     0.064 A 
ATOM     63  C   UNL     1       6.685 -11.941  14.168  1.00  0.00     0.173 A 
ATOM     64  C   UNL     1       7.390 -10.089  12.845  1.00  0.00     0.173 A 
ATOM     65  F   UNL     1       6.267 -13.206  14.330  1.00  0.00    -0.203 F 
ATOM     66  C   UNL     1       6.746 -11.141  15.311  1.00  0.00     0.198 A 
ATOM     67  C   UNL     1       7.501  -9.309  13.995  1.00  0.00     0.198 A 
ATOM     68  F   UNL     1       7.637  -9.435  11.707  1.00  0.00    -0.203 F 
ATOM     69  F   UNL     1       6.346 -11.636  16.490  1.00  0.00    -0.200 F 
ATOM     70  C   UNL     1       7.140  -9.820  15.222  1.00  0.00     0.200 A 
ATOM     71  F   UNL     1       7.878  -8.027  13.884  1.00  0.00    -0.200 F 
ATOM     72  F   UNL     1       7.128  -9.029  16.302  1.00  0.00    -0.200 F 
ENDBRANCH  48  62
BRANCH  49  73
ATOM     73  C   UNL     1       0.658  -6.899   9.168  1.00  0.00     0.064 A 
ATOM     74  C   UNL     1      -0.357  -6.482  10.047  1.00  0.00     0.173 A 
ATOM     75  C   UNL     1       1.344  -5.877   8.482  1.00  0.00     0.173 A 
ATOM     76  F   UNL     1      -1.029  -7.385  10.775  1.00  0.00    -0.203 F 
ATOM     77  C   UNL     1      -0.650  -5.126  10.245  1.00  0.00     0.198 A 
ATOM     78  C   UNL     1       1.048  -4.526   8.677  1.00  0.00     0.198 A 
ATOM     79  F   UNL     1       2.380  -6.166   7.681  1.00  0.00    -0.203 F 
ATOM     80  F   UNL     1      -1.585  -4.766  11.136  1.00  0.00    -0.200 F 
ATOM     81  C   UNL     1       0.061  -4.149   9.568  1.00  0.00     0.200 A 
ATOM     82  F   UNL     1       1.770  -3.590   8.043  1.00  0.00    -0.200 F 
ATOM     83  F   UNL     1      -0.177  -2.851   9.802  1.00  0.00    -0.200 F 
ENDBRANCH  49  73
BRANCH  61  84
ATOM     84  C   UNL     1       0.836 -13.068  10.386  1.00  0.00     0.064 A 
ATOM     85  C   UNL     1       0.527 -12.874   9.028  1.00  0.00     0.173 A 
ATOM     86  C   UNL     1       0.208 -14.135  11.041  1.00  0.00     0.173 A 
ATOM     87  F   UNL     1       1.153 -11.939   8.305  1.00  0.00    -0.203 F 
ATOM     88  C   UNL     1      -0.394 -13.689   8.371  1.00  0.00     0.198 A 
ATOM     89  C   UNL     1      -0.682 -14.970  10.374  1.00  0.00     0.198 A 
ATOM     90  F   UNL     1       0.505 -14.402  12.323  1.00  0.00    -0.203 F 
ATOM     91  F   UNL     1      -0.674 -13.480   7.076  1.00  0.00    -0.200 F 
ATOM     92  C   UNL     1      -0.990 -14.743   9.043  1.00  0.00     0.200 A 
ATOM     93  F   UNL     1      -1.217 -16.018  11.016  1.00  0.00    -0.200 F 
ATOM     94  F   UNL     1      -1.841 -15.556   8.401  1.00  0.00    -0.200 F 
ENDBRANCH  61  84
ENDBRANCH  35  36
ENDBRANCH  27  30
ENDBRANCH  25  26
ENDBRANCH  24  25
ENDBRANCH  23  24
ENDBRANCH   1  23
TORSDOF 15
