REMARK SMILES N#Cc1cccc(C(=O)N2CCC(CC(=O)NCCCCNC(=O)c3ccc(-c4c5nc(c(-c6c(F)c(F)c(F)c(F)c6F)c6ccc([nH]6)c(-c6c(F)c(F)c(F)c(F)c6F)c6nc(c(-c7c(F)c(F)c(F)c(F)c7F)c7ccc4[nH]7)C=C6)C=C5)cc3)CC2)c1
REMARK SMILES IDX 19 1 18 2 17 3 15 4 16 5 14 7 13 8 8 9 9 10 10 11 11 12
REMARK SMILES IDX 89 13 12 14 88 15 7 16 3 17 4 18 90 19 5 20 6 21 2 22 1 23
REMARK SMILES IDX 20 24 21 25 22 26 23 27 24 29 25 30 26 31 87 32 27 33 86 34
REMARK SMILES IDX 28 35 29 36 30 37 80 38 31 39 85 40 79 41 81 42 32 43 84 44
REMARK SMILES IDX 78 45 77 46 33 48 65 49 45 50 64 51 46 52 49 53 63 54 82 55
REMARK SMILES IDX 47 56 48 57 62 59 83 60 50 61 34 62 35 63 43 64 36 65 37 66
REMARK SMILES IDX 41 67 44 68 38 69 39 70 42 71 40 72 66 73 67 74 75 75 68 76
REMARK SMILES IDX 69 77 73 78 76 79 70 80 71 81 74 82 72 83 51 84 52 85 60 86
REMARK SMILES IDX 53 87 54 88 58 89 61 90 55 91 56 92 59 93 57 94
REMARK H PARENT 17 6 22 28 81 47 49 58
REMARK Flexibility Score: inf
ROOT
ATOM      1  C   UNL     1       2.949  -6.433   3.390  1.00  0.00     0.023 C 
ENDROOT
BRANCH   1   2
ATOM      2  C   UNL     1       3.368  -7.538   2.403  1.00  0.00     0.116 C 
BRANCH   2   3
ATOM      3  N   UNL     1       2.293  -8.487   2.151  1.00  0.00    -0.356 N 
ATOM      4  C   UNL     1       1.489  -8.679   1.063  1.00  0.00     0.220 C 
ATOM      5  O   UNL     1       0.633  -9.564   1.141  1.00  0.00    -0.275 OA
ATOM      6  H   UNL     1       2.114  -9.101   2.899  1.00  0.00     0.163 HD
BRANCH   4   7
ATOM      7  C   UNL     1       1.624  -7.843  -0.214  1.00  0.00     0.103 C 
BRANCH   7   8
ATOM      8  C   UNL     1       0.833  -6.510  -0.218  1.00  0.00     0.002 C 
ATOM      9  C   UNL     1       1.974  -2.564  -0.291  1.00  0.00     0.253 C 
ATOM     10  O   UNL     1       3.186  -2.728  -0.232  1.00  0.00    -0.269 OA
ATOM     11  N   UNL     1       1.066  -3.603  -0.235  1.00  0.00    -0.339 N 
ATOM     12  C   UNL     1       0.824  -4.240   1.028  1.00  0.00     0.120 C 
ATOM     13  C   UNL     1       0.536  -4.266  -1.415  1.00  0.00     0.120 C 
ATOM     14  C   UNL     1       1.274  -5.671   0.964  1.00  0.00     0.026 C 
ATOM     15  C   UNL     1       1.020  -5.719  -1.526  1.00  0.00     0.026 C 
BRANCH   9  16
ATOM     16  C   UNL     1       1.363  -1.202  -0.243  1.00  0.00     0.041 A 
ATOM     17  C   UNL     1      -0.601   0.220  -0.099  1.00  0.00     0.053 A 
ATOM     18  C   UNL     1       0.222   1.346  -0.037  1.00  0.00     0.019 A 
ATOM     19  C   UNL     1      -0.029  -1.048  -0.202  1.00  0.00     0.033 A 
ATOM     20  C   UNL     1       1.612   1.200  -0.073  1.00  0.00     0.002 A 
ATOM     21  C   UNL     1       2.184  -0.072  -0.174  1.00  0.00     0.014 A 
BRANCH  17  22
ATOM     22  C   UNL     1      -2.026   0.337  -0.041  1.00  0.00     0.099 C 
ATOM     23  N   UNL     1      -3.187   0.391   0.007  1.00  0.00    -0.192 NA
ENDBRANCH  17  22
ENDBRANCH   9  16
ENDBRANCH   7   8
ENDBRANCH   4   7
ENDBRANCH   2   3
ENDBRANCH   1   2
BRANCH   1  24
ATOM     24  C   UNL     1       3.064  -6.777   4.858  1.00  0.00     0.023 C 
BRANCH  24  25
ATOM     25  C   UNL     1       4.491  -6.942   5.308  1.00  0.00     0.116 C 
BRANCH  25  26
ATOM     26  N   UNL     1       5.293  -5.739   5.112  1.00  0.00    -0.352 N 
ATOM     27  C   UNL     1       6.133  -5.130   6.012  1.00  0.00     0.251 C 
ATOM     28  H   UNL     1       5.222  -5.311   4.228  1.00  0.00     0.163 HD
ATOM     29  O   UNL     1       6.629  -4.034   5.783  1.00  0.00    -0.269 OA
BRANCH  27  30
ATOM     30  C   UNL     1       6.385  -5.822   7.287  1.00  0.00     0.039 A 
ATOM     31  C   UNL     1       6.240  -5.121   8.482  1.00  0.00     0.014 A 
ATOM     32  C   UNL     1       6.626  -7.198   7.284  1.00  0.00     0.014 A 
ATOM     33  C   UNL     1       6.271  -5.825   9.683  1.00  0.00     0.010 A 
ATOM     34  C   UNL     1       6.500  -7.909   8.463  1.00  0.00     0.010 A 
ATOM     35  C   UNL     1       6.354  -7.229   9.678  1.00  0.00    -0.014 A 
BRANCH  35  36
ATOM     36  C   UNL     1       6.334  -8.005  10.939  1.00  0.00     0.031 A 
ATOM     37  C   UNL     1       7.507  -8.881  11.286  1.00  0.00     0.074 A 
ATOM     38  C   UNL     1       5.253  -7.956  11.740  1.00  0.00     0.049 A 
ATOM     39  N   UNL     1       7.678  -9.662  12.322  1.00  0.00    -0.248 NA
ATOM     40  C   UNL     1       8.624  -8.913  10.326  1.00  0.00     0.031 C 
ATOM     41  C   UNL     1       4.035  -7.188  11.475  1.00  0.00     0.029 A 
ATOM     42  N   UNL     1       5.006  -8.564  12.944  1.00  0.00    -0.354 N 
ATOM     43  C   UNL     1       8.908 -10.275  12.129  1.00  0.00     0.074 A 
ATOM     44  C   UNL     1       9.403  -9.848  10.842  1.00  0.00     0.031 C 
ATOM     45  C   UNL     1       3.191  -7.332  12.508  1.00  0.00     0.029 A 
ATOM     46  C   UNL     1       3.784  -8.243  13.482  1.00  0.00     0.049 A 
ATOM     47  H   UNL     1       5.644  -9.173  13.381  1.00  0.00     0.167 HD
ATOM     48  C   UNL     1       9.584 -11.091  12.969  1.00  0.00     0.037 A 
ATOM     49  C   UNL     1       3.208  -8.646  14.630  1.00  0.00     0.037 A 
ATOM     50  C   UNL     1       9.089 -11.499  14.256  1.00  0.00     0.049 A 
ATOM     51  C   UNL     1       3.969  -9.581  15.533  1.00  0.00     0.074 A 
ATOM     52  C   UNL     1       9.709 -12.287  15.207  1.00  0.00     0.029 A 
ATOM     53  N   UNL     1       7.845 -11.156  14.766  1.00  0.00    -0.354 N 
ATOM     54  N   UNL     1       5.165 -10.096  15.377  1.00  0.00    -0.248 NA
ATOM     55  C   UNL     1       3.302  -9.982  16.779  1.00  0.00     0.031 C 
ATOM     56  C   UNL     1       8.813 -12.483  16.261  1.00  0.00     0.029 A 
ATOM     57  C   UNL     1       7.667 -11.744  16.008  1.00  0.00     0.049 A 
ATOM     58  H   UNL     1       7.187 -10.581  14.314  1.00  0.00     0.167 HD
ATOM     59  C   UNL     1       5.410 -10.847  16.519  1.00  0.00     0.074 A 
ATOM     60  C   UNL     1       4.243 -10.707  17.365  1.00  0.00     0.031 C 
ATOM     61  C   UNL     1       6.503 -11.583  16.841  1.00  0.00     0.037 A 
BRANCH  48  62
ATOM     62  C   UNL     1      10.925 -11.597  12.519  1.00  0.00     0.064 A 
ATOM     63  C   UNL     1      12.023 -10.738  12.347  1.00  0.00     0.173 A 
ATOM     64  C   UNL     1      11.124 -12.965  12.279  1.00  0.00     0.173 A 
ATOM     65  F   UNL     1      11.886  -9.418  12.547  1.00  0.00    -0.203 F 
ATOM     66  C   UNL     1      13.255 -11.223  11.920  1.00  0.00     0.198 A 
ATOM     67  C   UNL     1      12.369 -13.453  11.891  1.00  0.00     0.198 A 
ATOM     68  F   UNL     1      10.111 -13.832  12.427  1.00  0.00    -0.203 F 
ATOM     69  F   UNL     1      14.269 -10.374  11.703  1.00  0.00    -0.200 F 
ATOM     70  C   UNL     1      13.430 -12.581  11.702  1.00  0.00     0.200 A 
ATOM     71  F   UNL     1      12.540 -14.768  11.697  1.00  0.00    -0.200 F 
ATOM     72  F   UNL     1      14.620 -13.049  11.302  1.00  0.00    -0.200 F 
ENDBRANCH  48  62
BRANCH  49  73
ATOM     73  C   UNL     1       1.854  -8.154  15.003  1.00  0.00     0.064 A 
ATOM     74  C   UNL     1       1.665  -7.329  16.121  1.00  0.00     0.173 A 
ATOM     75  C   UNL     1       0.719  -8.513  14.262  1.00  0.00     0.173 A 
ATOM     76  F   UNL     1       2.716  -6.968  16.872  1.00  0.00    -0.203 F 
ATOM     77  C   UNL     1       0.391  -6.913  16.504  1.00  0.00     0.198 A 
ATOM     78  C   UNL     1      -0.550  -8.065  14.623  1.00  0.00     0.198 A 
ATOM     79  F   UNL     1       0.842  -9.292  13.177  1.00  0.00    -0.203 F 
ATOM     80  F   UNL     1       0.235  -6.178  17.613  1.00  0.00    -0.200 F 
ATOM     81  C   UNL     1      -0.715  -7.277  15.752  1.00  0.00     0.200 A 
ATOM     82  F   UNL     1      -1.613  -8.403  13.881  1.00  0.00    -0.200 F 
ATOM     83  F   UNL     1      -1.939  -6.877  16.119  1.00  0.00    -0.200 F 
ENDBRANCH  49  73
BRANCH  61  84
ATOM     84  C   UNL     1       6.518 -12.243  18.192  1.00  0.00     0.064 A 
ATOM     85  C   UNL     1       5.660 -13.305  18.514  1.00  0.00     0.173 A 
ATOM     86  C   UNL     1       7.438 -11.826  19.167  1.00  0.00     0.173 A 
ATOM     87  F   UNL     1       4.755 -13.737  17.622  1.00  0.00    -0.203 F 
ATOM     88  C   UNL     1       5.694 -13.895  19.774  1.00  0.00     0.198 A 
ATOM     89  C   UNL     1       7.499 -12.448  20.410  1.00  0.00     0.198 A 
ATOM     90  F   UNL     1       8.291 -10.823  18.909  1.00  0.00    -0.203 F 
ATOM     91  F   UNL     1       4.819 -14.863  20.082  1.00  0.00    -0.200 F 
ATOM     92  C   UNL     1       6.619 -13.473  20.717  1.00  0.00     0.200 A 
ATOM     93  F   UNL     1       8.410 -12.053  21.311  1.00  0.00    -0.200 F 
ATOM     94  F   UNL     1       6.656 -14.049  21.927  1.00  0.00    -0.200 F 
ENDBRANCH  61  84
ENDBRANCH  35  36
ENDBRANCH  27  30
ENDBRANCH  25  26
ENDBRANCH  24  25
ENDBRANCH   1  24
TORSDOF 14
