REMARK SMILES CC[C@](C)(NC(=O)[C@H]1CNc2ccccc2O1)C(=O)NCCCCNC(=O)c1ccc(-c2c3nc(c(-c4c(F)c(F)c(F)c(F)c4F)c4ccc([nH]4)c(-c4c(F)c(F)c(F)c(F)c4F)c4nc(c(-c5c(F)c(F)c(F)c(F)c5F)c5ccc2[nH]5)C=C4)C=C3)cc1
REMARK SMILES IDX 22 1 21 2 20 3 18 4 19 5 3 7 4 8 2 9 1 10 5 11 6 12 7 14
REMARK SMILES IDX 8 15 9 16 17 17 10 18 16 19 11 20 15 22 12 23 14 24 13 25
REMARK SMILES IDX 23 26 24 27 25 28 26 29 27 31 28 32 29 33 90 34 30 35 89 36
REMARK SMILES IDX 31 37 32 38 33 39 83 40 34 41 88 42 82 43 84 44 35 45 87 46
REMARK SMILES IDX 81 47 80 48 36 50 68 51 48 52 67 53 49 54 52 55 66 56 85 57
REMARK SMILES IDX 50 58 51 59 65 61 86 62 53 63 37 64 38 65 46 66 39 67 40 68
REMARK SMILES IDX 44 69 47 70 41 71 42 72 45 73 43 74 69 75 70 76 78 77 71 78
REMARK SMILES IDX 72 79 76 80 79 81 73 82 74 83 77 84 75 85 54 86 55 87 63 88
REMARK SMILES IDX 56 89 57 90 61 91 64 92 58 93 59 94 62 95 60 96
REMARK H PARENT 20 6 5 13 10 21 25 30 84 49 52 60
REMARK Flexibility Score: inf
ROOT
ATOM      1  C   UNL     1       4.118  -2.519   7.078  1.00  0.00     0.023 C 
ENDROOT
BRANCH   1   2
ATOM      2  C   UNL     1       2.629  -2.885   7.057  1.00  0.00     0.116 C 
BRANCH   2   3
ATOM      3  N   UNL     1       1.704  -1.837   6.647  1.00  0.00    -0.354 N 
ATOM      4  C   UNL     1       0.959  -1.629   5.518  1.00  0.00     0.245 C 
ATOM      5  O   UNL     1       0.105  -0.739   5.599  1.00  0.00    -0.272 OA
ATOM      6  H   UNL     1       1.592  -1.131   7.324  1.00  0.00     0.163 HD
BRANCH   4   7
ATOM      7  C   UNL     1       1.135  -2.454   4.199  1.00  0.00     0.116 C 
ATOM      8  C   UNL     1       0.146  -1.955   3.123  1.00  0.00     0.045 C 
BRANCH   7   9
ATOM      9  C   UNL     1       0.846  -3.957   4.556  1.00  0.00     0.035 C 
ATOM     10  C   UNL     1      -0.138  -4.732   3.685  1.00  0.00     0.007 C 
ENDBRANCH   7   9
BRANCH   7  11
ATOM     11  N   UNL     1       2.516  -2.314   3.650  1.00  0.00    -0.339 N 
ATOM     12  C   UNL     1       3.183  -1.210   3.156  1.00  0.00     0.263 C 
ATOM     13  H   UNL     1       3.040  -3.147   3.638  1.00  0.00     0.164 HD
ATOM     14  O   UNL     1       4.140  -1.438   2.412  1.00  0.00    -0.271 OA
BRANCH  12  15
ATOM     15  C   UNL     1       2.831   0.225   3.617  1.00  0.00     0.281 C 
ATOM     16  C   UNL     1       3.528   0.380   4.960  1.00  0.00     0.168 C 
ATOM     17  O   UNL     1       3.274   1.284   2.750  1.00  0.00    -0.477 OA
ATOM     18  N   UNL     1       3.067   1.581   5.618  1.00  0.00    -0.378 N 
ATOM     19  C   UNL     1       3.250   2.525   3.373  1.00  0.00     0.143 A 
ATOM     20  C   UNL     1       3.129   2.687   4.772  1.00  0.00     0.077 A 
ATOM     21  H   UNL     1       2.749   1.614   6.549  1.00  0.00     0.160 HD
ATOM     22  C   UNL     1       3.409   3.643   2.558  1.00  0.00     0.049 A 
ATOM     23  C   UNL     1       3.054   3.971   5.315  1.00  0.00     0.029 A 
ATOM     24  C   UNL     1       3.390   4.923   3.122  1.00  0.00     0.004 A 
ATOM     25  C   UNL     1       3.195   5.087   4.494  1.00  0.00     0.002 A 
ENDBRANCH  12  15
ENDBRANCH   7  11
ENDBRANCH   4   7
ENDBRANCH   2   3
ENDBRANCH   1   2
BRANCH   1  26
ATOM     26  C   UNL     1       4.557  -1.270   7.849  1.00  0.00     0.023 C 
BRANCH  26  27
ATOM     27  C   UNL     1       3.940  -1.051   9.217  1.00  0.00     0.116 C 
BRANCH  27  28
ATOM     28  N   UNL     1       4.575  -1.867  10.228  1.00  0.00    -0.352 N 
ATOM     29  C   UNL     1       5.276  -1.464  11.340  1.00  0.00     0.251 C 
ATOM     30  H   UNL     1       4.496  -2.841  10.103  1.00  0.00     0.163 HD
ATOM     31  O   UNL     1       5.958  -2.276  11.955  1.00  0.00    -0.269 OA
BRANCH  29  32
ATOM     32  C   UNL     1       5.218  -0.055  11.801  1.00  0.00     0.039 A 
ATOM     33  C   UNL     1       6.387   0.545  12.279  1.00  0.00     0.014 A 
ATOM     34  C   UNL     1       4.013   0.656  11.828  1.00  0.00     0.014 A 
ATOM     35  C   UNL     1       6.353   1.855  12.769  1.00  0.00     0.010 A 
ATOM     36  C   UNL     1       3.993   1.984  12.251  1.00  0.00     0.010 A 
ATOM     37  C   UNL     1       5.155   2.587  12.755  1.00  0.00    -0.014 A 
BRANCH  37  38
ATOM     38  C   UNL     1       5.083   3.954  13.333  1.00  0.00     0.031 A 
ATOM     39  C   UNL     1       4.264   4.198  14.572  1.00  0.00     0.074 A 
ATOM     40  C   UNL     1       5.714   4.980  12.732  1.00  0.00     0.049 A 
ATOM     41  N   UNL     1       4.020   5.321  15.201  1.00  0.00    -0.248 NA
ATOM     42  C   UNL     1       3.607   3.025  15.171  1.00  0.00     0.031 C 
ATOM     43  C   UNL     1       6.511   4.884  11.509  1.00  0.00     0.029 A 
ATOM     44  N   UNL     1       5.776   6.310  13.066  1.00  0.00    -0.354 N 
ATOM     45  C   UNL     1       3.168   4.993  16.247  1.00  0.00     0.074 A 
ATOM     46  C   UNL     1       2.898   3.575  16.145  1.00  0.00     0.031 C 
ATOM     47  C   UNL     1       6.997   6.099  11.206  1.00  0.00     0.029 A 
ATOM     48  C   UNL     1       6.524   7.063  12.196  1.00  0.00     0.049 A 
ATOM     49  H   UNL     1       5.326   6.689  13.856  1.00  0.00     0.167 HD
ATOM     50  C   UNL     1       2.671   5.795  17.219  1.00  0.00     0.037 A 
ATOM     51  C   UNL     1       6.795   8.383  12.196  1.00  0.00     0.037 A 
ATOM     52  C   UNL     1       2.976   7.195  17.349  1.00  0.00     0.049 A 
ATOM     53  C   UNL     1       6.244   9.250  13.296  1.00  0.00     0.074 A 
ATOM     54  C   UNL     1       2.582   8.076  18.340  1.00  0.00     0.029 A 
ATOM     55  N   UNL     1       3.757   7.916  16.458  1.00  0.00    -0.354 N 
ATOM     56  N   UNL     1       5.489   8.916  14.314  1.00  0.00    -0.248 NA
ATOM     57  C   UNL     1       6.588  10.678  13.249  1.00  0.00     0.031 C 
ATOM     58  C   UNL     1       3.094   9.341  18.030  1.00  0.00     0.029 A 
ATOM     59  C   UNL     1       3.841   9.237  16.867  1.00  0.00     0.049 A 
ATOM     60  H   UNL     1       4.187   7.545  15.654  1.00  0.00     0.167 HD
ATOM     61  C   UNL     1       5.292  10.081  15.042  1.00  0.00     0.074 A 
ATOM     62  C   UNL     1       6.016  11.131  14.356  1.00  0.00     0.031 C 
ATOM     63  C   UNL     1       4.575  10.266  16.178  1.00  0.00     0.037 A 
BRANCH  50  64
ATOM     64  C   UNL     1       1.748   5.175  18.227  1.00  0.00     0.064 A 
ATOM     65  C   UNL     1       2.217   4.284  19.204  1.00  0.00     0.173 A 
ATOM     66  C   UNL     1       0.384   5.503  18.238  1.00  0.00     0.173 A 
ATOM     67  F   UNL     1       3.510   3.928  19.228  1.00  0.00    -0.203 F 
ATOM     68  C   UNL     1       1.349   3.723  20.137  1.00  0.00     0.198 A 
ATOM     69  C   UNL     1      -0.476   4.963  19.190  1.00  0.00     0.198 A 
ATOM     70  F   UNL     1      -0.114   6.354  17.328  1.00  0.00    -0.203 F 
ATOM     71  F   UNL     1       1.810   2.838  21.032  1.00  0.00    -0.200 F 
ATOM     72  C   UNL     1       0.005   4.068  20.134  1.00  0.00     0.200 A 
ATOM     73  F   UNL     1      -1.772   5.305  19.192  1.00  0.00    -0.200 F 
ATOM     74  F   UNL     1      -0.828   3.531  21.036  1.00  0.00    -0.200 F 
ENDBRANCH  50  64
BRANCH  51  75
ATOM     75  C   UNL     1       7.658   8.962  11.135  1.00  0.00     0.064 A 
ATOM     76  C   UNL     1       8.956   9.404  11.428  1.00  0.00     0.173 A 
ATOM     77  C   UNL     1       7.206   9.092   9.814  1.00  0.00     0.173 A 
ATOM     78  F   UNL     1       9.422   9.322  12.683  1.00  0.00    -0.203 F 
ATOM     79  C   UNL     1       9.763   9.969  10.443  1.00  0.00     0.198 A 
ATOM     80  C   UNL     1       8.023   9.634   8.825  1.00  0.00     0.198 A 
ATOM     81  F   UNL     1       5.972   8.682   9.483  1.00  0.00    -0.203 F 
ATOM     82  F   UNL     1      10.984  10.422  10.760  1.00  0.00    -0.200 F 
ATOM     83  C   UNL     1       9.298  10.079   9.142  1.00  0.00     0.200 A 
ATOM     84  F   UNL     1       7.574   9.730   7.566  1.00  0.00    -0.200 F 
ATOM     85  F   UNL     1      10.076  10.621   8.194  1.00  0.00    -0.200 F 
ENDBRANCH  51  75
BRANCH  63  86
ATOM     86  C   UNL     1       4.565  11.644  16.769  1.00  0.00     0.064 A 
ATOM     87  C   UNL     1       3.830  12.687  16.187  1.00  0.00     0.173 A 
ATOM     88  C   UNL     1       5.264  11.912  17.956  1.00  0.00     0.173 A 
ATOM     89  F   UNL     1       3.158  12.482  15.044  1.00  0.00    -0.203 F 
ATOM     90  C   UNL     1       3.812  13.955  16.761  1.00  0.00     0.198 A 
ATOM     91  C   UNL     1       5.223  13.175  18.540  1.00  0.00     0.198 A 
ATOM     92  F   UNL     1       5.976  10.946  18.554  1.00  0.00    -0.203 F 
ATOM     93  F   UNL     1       3.136  14.948  16.166  1.00  0.00    -0.200 F 
ATOM     94  C   UNL     1       4.502  14.196  17.940  1.00  0.00     0.200 A 
ATOM     95  F   UNL     1       5.880  13.403  19.686  1.00  0.00    -0.200 F 
ATOM     96  F   UNL     1       4.478  15.416  18.494  1.00  0.00    -0.200 F 
ENDBRANCH  63  86
ENDBRANCH  37  38
ENDBRANCH  29  32
ENDBRANCH  27  28
ENDBRANCH  26  27
ENDBRANCH   1  26
TORSDOF 14
