REMARK SMILES Cn1cc(C[C@H](C(=O)NCCCCNC(=O)c2ccc(-c3c4nc(c(-c5c(F)c(F)c(F)c(F)c5F)c5ccc([nH]5)c(-c5c(F)c(F)c(F)c(F)c5F)c5nc(c(-c6c(F)c(F)c(F)c(F)c6F)c6ccc3[nH]6)C=C5)C=C4)cc2)c2ccc(F)cc2)cn1
REMARK SMILES IDX 11 1 10 2 9 3 7 4 8 5 6 7 5 8 4 9 1 10 2 11 3 12 88 13 87 14
REMARK SMILES IDX 80 15 81 16 86 17 82 18 85 19 83 20 84 21 12 22 13 23 14 24
REMARK SMILES IDX 15 25 16 27 17 28 18 29 79 30 19 31 78 32 20 33 21 34 22 35
REMARK SMILES IDX 72 36 23 37 77 38 71 39 73 40 24 41 76 42 70 43 69 44 25 46
REMARK SMILES IDX 57 47 37 48 56 49 38 50 41 51 55 52 74 53 39 54 40 55 54 57
REMARK SMILES IDX 75 58 42 59 26 60 27 61 35 62 28 63 29 64 33 65 36 66 30 67
REMARK SMILES IDX 31 68 34 69 32 70 58 71 59 72 67 73 60 74 61 75 65 76 68 77
REMARK SMILES IDX 62 78 63 79 66 80 64 81 43 82 44 83 52 84 45 85 46 86 50 87
REMARK SMILES IDX 53 88 47 89 48 90 51 91 49 92
REMARK H PARENT 9 6 14 26 73 45 41 56
REMARK Flexibility Score: inf
ROOT
ATOM      1  C   UNL     1       4.054  -4.554   0.321  1.00  0.00     0.023 C 
ENDROOT
BRANCH   1   2
ATOM      2  C   UNL     1       2.788  -3.852  -0.174  1.00  0.00     0.116 C 
BRANCH   2   3
ATOM      3  N   UNL     1       2.638  -2.564   0.466  1.00  0.00    -0.356 N 
ATOM      4  C   UNL     1       3.123  -1.347   0.083  1.00  0.00     0.227 C 
ATOM      5  O   UNL     1       3.047  -0.441   0.918  1.00  0.00    -0.274 OA
ATOM      6  H   UNL     1       2.109  -2.565   1.296  1.00  0.00     0.163 HD
BRANCH   4   7
ATOM      7  C   UNL     1       3.687  -1.116  -1.337  1.00  0.00     0.113 C 
BRANCH   7   8
ATOM      8  C   UNL     1       3.707   0.414  -1.559  1.00  0.00     0.057 C 
BRANCH   8   9
ATOM      9  C   UNL     1       3.968   0.932  -2.935  1.00  0.00    -0.009 A 
ATOM     10  C   UNL     1       4.357   3.515  -5.423  1.00  0.00     0.173 C 
ATOM     11  N   UNL     1       4.251   2.326  -4.615  1.00  0.00    -0.276 N 
ATOM     12  C   UNL     1       4.044   2.271  -3.271  1.00  0.00     0.112 A 
ATOM     13  N   UNL     1       4.327   1.113  -5.189  1.00  0.00    -0.182 NA
ATOM     14  C   UNL     1       4.162   0.268  -4.166  1.00  0.00     0.138 A 
ENDBRANCH   8   9
ENDBRANCH   7   8
BRANCH   7  15
ATOM     15  C   UNL     1       5.048  -1.782  -1.532  1.00  0.00    -0.035 A 
ATOM     16  C   UNL     1       5.173  -2.895  -2.388  1.00  0.00     0.007 A 
ATOM     17  C   UNL     1       6.185  -1.352  -0.828  1.00  0.00     0.007 A 
ATOM     18  C   UNL     1       6.378  -3.595  -2.483  1.00  0.00     0.039 A 
ATOM     19  C   UNL     1       7.398  -2.036  -0.949  1.00  0.00     0.039 A 
ATOM     20  C   UNL     1       7.478  -3.160  -1.759  1.00  0.00     0.123 A 
ATOM     21  F   UNL     1       8.629  -3.842  -1.835  1.00  0.00    -0.207 F 
ENDBRANCH   7  15
ENDBRANCH   4   7
ENDBRANCH   2   3
ENDBRANCH   1   2
BRANCH   1  22
ATOM     22  C   UNL     1       3.919  -5.204   1.699  1.00  0.00     0.023 C 
BRANCH  22  23
ATOM     23  C   UNL     1       2.966  -6.390   1.748  1.00  0.00     0.116 C 
BRANCH  23  24
ATOM     24  N   UNL     1       3.345  -7.474   0.854  1.00  0.00    -0.352 N 
ATOM     25  C   UNL     1       3.148  -8.823   1.016  1.00  0.00     0.251 C 
ATOM     26  H   UNL     1       3.802  -7.205   0.024  1.00  0.00     0.163 HD
ATOM     27  O   UNL     1       3.603  -9.625   0.212  1.00  0.00    -0.269 OA
BRANCH  25  28
ATOM     28  C   UNL     1       2.420  -9.300   2.210  1.00  0.00     0.039 A 
ATOM     29  C   UNL     1       3.004 -10.294   2.998  1.00  0.00     0.014 A 
ATOM     30  C   UNL     1       1.198  -8.730   2.574  1.00  0.00     0.014 A 
ATOM     31  C   UNL     1       2.396 -10.664   4.198  1.00  0.00     0.010 A 
ATOM     32  C   UNL     1       0.631  -9.049   3.802  1.00  0.00     0.010 A 
ATOM     33  C   UNL     1       1.227 -10.015   4.627  1.00  0.00    -0.014 A 
BRANCH  33  34
ATOM     34  C   UNL     1       0.613 -10.327   5.940  1.00  0.00     0.031 A 
ATOM     35  C   UNL     1      -0.753 -10.947   6.001  1.00  0.00     0.074 A 
ATOM     36  C   UNL     1       1.255  -9.982   7.073  1.00  0.00     0.049 A 
ATOM     37  N   UNL     1      -1.492 -11.220   7.046  1.00  0.00    -0.248 NA
ATOM     38  C   UNL     1      -1.386 -11.276   4.714  1.00  0.00     0.031 C 
ATOM     39  C   UNL     1       2.561  -9.323   7.139  1.00  0.00     0.029 A 
ATOM     40  N   UNL     1       0.888 -10.126   8.387  1.00  0.00    -0.354 N 
ATOM     41  C   UNL     1      -2.679 -11.733   6.542  1.00  0.00     0.074 A 
ATOM     42  C   UNL     1      -2.585 -11.687   5.100  1.00  0.00     0.031 C 
ATOM     43  C   UNL     1       2.894  -9.138   8.427  1.00  0.00     0.029 A 
ATOM     44  C   UNL     1       1.815  -9.635   9.274  1.00  0.00     0.049 A 
ATOM     45  H   UNL     1       0.041 -10.541   8.668  1.00  0.00     0.167 HD
ATOM     46  C   UNL     1      -3.743 -12.221   7.224  1.00  0.00     0.037 A 
ATOM     47  C   UNL     1       1.792  -9.589  10.620  1.00  0.00     0.037 A 
ATOM     48  C   UNL     1      -3.818 -12.298   8.658  1.00  0.00     0.049 A 
ATOM     49  C   UNL     1       0.605 -10.153  11.352  1.00  0.00     0.074 A 
ATOM     50  C   UNL     1      -4.820 -12.841   9.443  1.00  0.00     0.029 A 
ATOM     51  N   UNL     1      -2.846 -11.819   9.524  1.00  0.00    -0.354 N 
ATOM     52  N   UNL     1      -0.483 -10.701  10.866  1.00  0.00    -0.248 NA
ATOM     53  C   UNL     1       0.645 -10.098  12.820  1.00  0.00     0.031 C 
ATOM     54  C   UNL     1      -4.471 -12.658  10.785  1.00  0.00     0.029 A 
ATOM     55  C   UNL     1      -3.233 -12.038  10.836  1.00  0.00     0.049 A 
ATOM     56  H   UNL     1      -2.005 -11.388   9.248  1.00  0.00     0.167 HD
ATOM     57  C   UNL     1      -1.244 -11.076  11.964  1.00  0.00     0.074 A 
ATOM     58  C   UNL     1      -0.487 -10.707  13.143  1.00  0.00     0.031 C 
ATOM     59  C   UNL     1      -2.462 -11.670  11.995  1.00  0.00     0.037 A 
BRANCH  46  60
ATOM     60  C   UNL     1      -4.908 -12.720   6.422  1.00  0.00     0.064 A 
ATOM     61  C   UNL     1      -4.830 -13.906   5.676  1.00  0.00     0.173 A 
ATOM     62  C   UNL     1      -6.125 -12.023   6.423  1.00  0.00     0.173 A 
ATOM     63  F   UNL     1      -3.684 -14.601   5.631  1.00  0.00    -0.203 F 
ATOM     64  C   UNL     1      -5.920 -14.360   4.938  1.00  0.00     0.198 A 
ATOM     65  C   UNL     1      -7.221 -12.496   5.707  1.00  0.00     0.198 A 
ATOM     66  F   UNL     1      -6.253 -10.886   7.123  1.00  0.00    -0.203 F 
ATOM     67  F   UNL     1      -5.807 -15.470   4.194  1.00  0.00    -0.200 F 
ATOM     68  C   UNL     1      -7.116 -13.659   4.959  1.00  0.00     0.200 A 
ATOM     69  F   UNL     1      -8.380 -11.823   5.736  1.00  0.00    -0.200 F 
ATOM     70  F   UNL     1      -8.165 -14.101   4.253  1.00  0.00    -0.200 F 
ENDBRANCH  46  60
BRANCH  47  71
ATOM     71  C   UNL     1       2.941  -9.014  11.363  1.00  0.00     0.064 A 
ATOM     72  C   UNL     1       3.800  -9.838  12.104  1.00  0.00     0.173 A 
ATOM     73  C   UNL     1       3.203  -7.637  11.355  1.00  0.00     0.173 A 
ATOM     74  F   UNL     1       3.577 -11.160  12.158  1.00  0.00    -0.203 F 
ATOM     75  C   UNL     1       4.866  -9.304  12.825  1.00  0.00     0.198 A 
ATOM     76  C   UNL     1       4.284  -7.107  12.057  1.00  0.00     0.198 A 
ATOM     77  F   UNL     1       2.413  -6.807  10.658  1.00  0.00    -0.203 F 
ATOM     78  F   UNL     1       5.645 -10.110  13.560  1.00  0.00    -0.200 F 
ATOM     79  C   UNL     1       5.110  -7.939  12.797  1.00  0.00     0.200 A 
ATOM     80  F   UNL     1       4.524  -5.789  12.018  1.00  0.00    -0.200 F 
ATOM     81  F   UNL     1       6.135  -7.426  13.490  1.00  0.00    -0.200 F 
ENDBRANCH  47  71
BRANCH  59  82
ATOM     82  C   UNL     1      -3.038 -11.982  13.343  1.00  0.00     0.064 A 
ATOM     83  C   UNL     1      -3.552 -10.973  14.171  1.00  0.00     0.173 A 
ATOM     84  C   UNL     1      -3.117 -13.308  13.793  1.00  0.00     0.173 A 
ATOM     85  F   UNL     1      -3.484  -9.688  13.791  1.00  0.00    -0.203 F 
ATOM     86  C   UNL     1      -4.105 -11.280  15.411  1.00  0.00     0.198 A 
ATOM     87  C   UNL     1      -3.695 -13.614  15.021  1.00  0.00     0.198 A 
ATOM     88  F   UNL     1      -2.644 -14.308  13.034  1.00  0.00    -0.203 F 
ATOM     89  F   UNL     1      -4.553 -10.297  16.204  1.00  0.00    -0.200 F 
ATOM     90  C   UNL     1      -4.183 -12.600  15.832  1.00  0.00     0.200 A 
ATOM     91  F   UNL     1      -3.780 -14.890  15.421  1.00  0.00    -0.200 F 
ATOM     92  F   UNL     1      -4.723 -12.893  17.022  1.00  0.00    -0.200 F 
ENDBRANCH  59  82
ENDBRANCH  33  34
ENDBRANCH  25  28
ENDBRANCH  23  24
ENDBRANCH  22  23
ENDBRANCH   1  22
TORSDOF 14
