REMARK SMILES Cc1cc(C(=O)NCCCCNC(=O)c2ccc(-c3c4nc(c(-c5c(F)c(F)c(F)c(F)c5F)c5ccc([nH]5)c(-c5c(F)c(F)c(F)c(F)c5F)c5nc(c(-c6c(F)c(F)c(F)c(F)c6F)c6ccc3[nH]6)C=C5)C=C4)cc2)cc(S(=O)(=O)NNC(=O)c2c[nH]c3ccccc23)c1C
REMARK SMILES IDX 8 1 7 2 5 3 6 4 4 6 1 7 2 8 3 9 96 10 79 11 97 12 78 13
REMARK SMILES IDX 80 14 81 15 82 16 83 17 84 19 85 20 86 22 87 23 88 24 95 25
REMARK SMILES IDX 89 26 90 27 94 28 91 30 93 31 92 32 9 33 10 34 11 35 12 36
REMARK SMILES IDX 13 37 14 39 15 40 16 41 77 42 17 43 76 44 18 45 19 46 20 47
REMARK SMILES IDX 70 48 21 49 75 50 69 51 71 52 22 53 74 54 68 55 67 56 23 58
REMARK SMILES IDX 55 59 35 60 54 61 36 62 39 63 53 64 72 65 37 66 38 67 52 69
REMARK SMILES IDX 73 70 40 71 24 72 25 73 33 74 26 75 27 76 31 77 34 78 28 79
REMARK SMILES IDX 29 80 32 81 30 82 56 83 57 84 65 85 58 86 59 87 63 88 66 89
REMARK SMILES IDX 60 90 61 91 64 92 62 93 41 94 42 95 50 96 43 97 44 98 48 99
REMARK SMILES IDX 51 100 45 101 46 102 49 103 47 104
REMARK H PARENT 7 5 83 18 84 21 89 29 12 38 71 57 39 68
REMARK Flexibility Score: inf
ROOT
ATOM      1  C   UNL     1      -2.309   3.487   0.491  1.00  0.00     0.116 C 
ENDROOT
BRANCH   1   2
ATOM      2  N   UNL     1      -3.271   2.462   0.127  1.00  0.00    -0.352 N 
ATOM      3  C   UNL     1      -3.164   1.129  -0.182  1.00  0.00     0.251 C 
ATOM      4  O   UNL     1      -4.212   0.529  -0.433  1.00  0.00    -0.269 OA
ATOM      5  H   UNL     1      -4.197   2.794   0.095  1.00  0.00     0.163 HD
BRANCH   3   6
ATOM      6  C   UNL     1      -1.886   0.354  -0.211  1.00  0.00     0.041 A 
ATOM      7  C   UNL     1       1.882   0.868  -0.243  1.00  0.00     0.044 C 
ATOM      8  C   UNL     1       0.557   0.150  -0.253  1.00  0.00    -0.046 A 
ATOM      9  C   UNL     1      -0.616   0.925  -0.295  1.00  0.00     0.017 A 
ATOM     10  C   UNL     1       0.459  -1.255  -0.231  1.00  0.00    -0.028 A 
ATOM     11  C   UNL     1      -0.832  -1.842  -0.276  1.00  0.00     0.088 A 
ATOM     12  C   UNL     1       1.701  -2.114  -0.178  1.00  0.00     0.046 C 
ATOM     13  C   UNL     1      -1.983  -1.048  -0.217  1.00  0.00     0.036 A 
BRANCH  11  14
ATOM     14  S   UNL     1      -0.963  -3.592  -0.591  1.00  0.00     0.257 S 
ATOM     15  O   UNL     1      -0.440  -3.791  -1.945  1.00  0.00    -0.205 OA
ATOM     16  O   UNL     1      -0.400  -4.283   0.534  1.00  0.00    -0.205 OA
BRANCH  14  17
ATOM     17  N   UNL     1      -2.607  -4.031  -0.603  1.00  0.00    -0.123 NA
ATOM     18  H   UNL     1      -3.045  -3.545   0.179  1.00  0.00     0.167 HD
BRANCH  17  19
ATOM     19  N   UNL     1      -3.443  -3.767  -1.784  1.00  0.00    -0.273 N 
ATOM     20  C   UNL     1      -4.383  -4.701  -2.197  1.00  0.00     0.268 C 
ATOM     21  H   UNL     1      -3.335  -2.925  -2.283  1.00  0.00     0.186 HD
ATOM     22  O   UNL     1      -5.586  -4.508  -2.048  1.00  0.00    -0.268 OA
BRANCH  20  23
ATOM     23  C   UNL     1      -3.843  -5.720  -3.098  1.00  0.00     0.066 A 
ATOM     24  C   UNL     1      -2.508  -5.891  -3.423  1.00  0.00     0.097 A 
ATOM     25  C   UNL     1      -4.558  -6.598  -3.978  1.00  0.00     0.012 A 
ATOM     26  N   UNL     1      -2.471  -6.357  -4.709  1.00  0.00    -0.360 N 
ATOM     27  C   UNL     1      -3.719  -6.790  -5.078  1.00  0.00     0.046 A 
ATOM     28  C   UNL     1      -5.862  -7.132  -4.039  1.00  0.00     0.011 A 
ATOM     29  H   UNL     1      -1.671  -6.377  -5.282  1.00  0.00     0.166 HD
ATOM     30  C   UNL     1      -4.165  -7.309  -6.296  1.00  0.00     0.027 A 
ATOM     31  C   UNL     1      -6.282  -7.783  -5.208  1.00  0.00     0.001 A 
ATOM     32  C   UNL     1      -5.465  -7.814  -6.337  1.00  0.00     0.002 A 
ENDBRANCH  20  23
ENDBRANCH  17  19
ENDBRANCH  14  17
ENDBRANCH  11  14
ENDBRANCH   3   6
ENDBRANCH   1   2
BRANCH   1  33
ATOM     33  C   UNL     1      -1.856   4.284  -0.737  1.00  0.00     0.023 C 
BRANCH  33  34
ATOM     34  C   UNL     1      -2.852   5.356  -1.195  1.00  0.00     0.023 C 
BRANCH  34  35
ATOM     35  C   UNL     1      -3.057   6.508  -0.214  1.00  0.00     0.116 C 
BRANCH  35  36
ATOM     36  N   UNL     1      -1.844   7.266   0.052  1.00  0.00    -0.352 N 
ATOM     37  C   UNL     1      -1.718   8.598   0.369  1.00  0.00     0.251 C 
ATOM     38  H   UNL     1      -1.002   6.759  -0.001  1.00  0.00     0.163 HD
ATOM     39  O   UNL     1      -0.608   9.109   0.472  1.00  0.00    -0.269 OA
BRANCH  37  40
ATOM     40  C   UNL     1      -2.932   9.426   0.539  1.00  0.00     0.039 A 
ATOM     41  C   UNL     1      -3.006  10.653  -0.127  1.00  0.00     0.014 A 
ATOM     42  C   UNL     1      -3.998   8.987   1.327  1.00  0.00     0.014 A 
ATOM     43  C   UNL     1      -4.182  11.404  -0.063  1.00  0.00     0.010 A 
ATOM     44  C   UNL     1      -5.191   9.704   1.336  1.00  0.00     0.010 A 
ATOM     45  C   UNL     1      -5.296  10.916   0.637  1.00  0.00    -0.014 A 
BRANCH  45  46
ATOM     46  C   UNL     1      -6.587  11.649   0.638  1.00  0.00     0.031 A 
ATOM     47  C   UNL     1      -7.135  12.216   1.917  1.00  0.00     0.074 A 
ATOM     48  C   UNL     1      -7.302  11.736  -0.499  1.00  0.00     0.049 A 
ATOM     49  N   UNL     1      -8.276  12.820   2.134  1.00  0.00    -0.248 NA
ATOM     50  C   UNL     1      -6.301  12.056   3.118  1.00  0.00     0.031 C 
ATOM     51  C   UNL     1      -6.904  11.177  -1.792  1.00  0.00     0.029 A 
ATOM     52  N   UNL     1      -8.523  12.312  -0.748  1.00  0.00    -0.354 N 
ATOM     53  C   UNL     1      -8.304  13.096   3.494  1.00  0.00     0.074 A 
ATOM     54  C   UNL     1      -7.090  12.548   4.061  1.00  0.00     0.031 C 
ATOM     55  C   UNL     1      -7.853  11.454  -2.701  1.00  0.00     0.029 A 
ATOM     56  C   UNL     1      -8.940  12.178  -2.050  1.00  0.00     0.049 A 
ATOM     57  H   UNL     1      -9.049  12.778  -0.059  1.00  0.00     0.167 HD
ATOM     58  C   UNL     1      -9.245  13.765   4.201  1.00  0.00     0.037 A 
ATOM     59  C   UNL     1     -10.074  12.588  -2.648  1.00  0.00     0.037 A 
ATOM     60  C   UNL     1     -10.439  14.330   3.628  1.00  0.00     0.049 A 
ATOM     61  C   UNL     1     -11.101  13.337  -1.844  1.00  0.00     0.074 A 
ATOM     62  C   UNL     1     -11.421  15.085   4.247  1.00  0.00     0.029 A 
ATOM     63  N   UNL     1     -10.815  14.199   2.299  1.00  0.00    -0.354 N 
ATOM     64  N   UNL     1     -11.083  13.658  -0.573  1.00  0.00    -0.248 NA
ATOM     65  C   UNL     1     -12.302  13.788  -2.560  1.00  0.00     0.031 C 
ATOM     66  C   UNL     1     -12.411  15.374   3.302  1.00  0.00     0.029 A 
ATOM     67  C   UNL     1     -12.024  14.840   2.083  1.00  0.00     0.049 A 
ATOM     68  H   UNL     1     -10.298  13.721   1.611  1.00  0.00     0.167 HD
ATOM     69  C   UNL     1     -12.253  14.368  -0.342  1.00  0.00     0.074 A 
ATOM     70  C   UNL     1     -12.953  14.443  -1.608  1.00  0.00     0.031 C 
ATOM     71  C   UNL     1     -12.706  14.909   0.815  1.00  0.00     0.037 A 
BRANCH  58  72
ATOM     72  C   UNL     1      -9.017  13.923   5.676  1.00  0.00     0.064 A 
ATOM     73  C   UNL     1      -8.002  14.752   6.179  1.00  0.00     0.173 A 
ATOM     74  C   UNL     1      -9.833  13.253   6.600  1.00  0.00     0.173 A 
ATOM     75  F   UNL     1      -7.187  15.406   5.338  1.00  0.00    -0.203 F 
ATOM     76  C   UNL     1      -7.790  14.876   7.550  1.00  0.00     0.198 A 
ATOM     77  C   UNL     1      -9.638  13.404   7.971  1.00  0.00     0.198 A 
ATOM     78  F   UNL     1     -10.822  12.453   6.174  1.00  0.00    -0.203 F 
ATOM     79  F   UNL     1      -6.778  15.629   8.004  1.00  0.00    -0.200 F 
ATOM     80  C   UNL     1      -8.611  14.206   8.444  1.00  0.00     0.200 A 
ATOM     81  F   UNL     1     -10.440  12.765   8.835  1.00  0.00    -0.200 F 
ATOM     82  F   UNL     1      -8.406  14.327   9.763  1.00  0.00    -0.200 F 
ENDBRANCH  58  72
BRANCH  59  83
ATOM     83  C   UNL     1     -10.280  12.326  -4.096  1.00  0.00     0.064 A 
ATOM     84  C   UNL     1     -10.222  13.370  -5.029  1.00  0.00     0.173 A 
ATOM     85  C   UNL     1     -10.523  11.032  -4.577  1.00  0.00     0.173 A 
ATOM     86  F   UNL     1     -10.011  14.628  -4.613  1.00  0.00    -0.203 F 
ATOM     87  C   UNL     1     -10.415  13.133  -6.388  1.00  0.00     0.198 A 
ATOM     88  C   UNL     1     -10.691  10.791  -5.939  1.00  0.00     0.198 A 
ATOM     89  F   UNL     1     -10.582   9.998  -3.725  1.00  0.00    -0.203 F 
ATOM     90  F   UNL     1     -10.391  14.154  -7.254  1.00  0.00    -0.200 F 
ATOM     91  C   UNL     1     -10.642  11.842  -6.843  1.00  0.00     0.200 A 
ATOM     92  F   UNL     1     -10.896   9.542  -6.376  1.00  0.00    -0.200 F 
ATOM     93  F   UNL     1     -10.819  11.613  -8.151  1.00  0.00    -0.200 F 
ENDBRANCH  59  83
BRANCH  71  94
ATOM     94  C   UNL     1     -14.006  15.657   0.762  1.00  0.00     0.064 A 
ATOM     95  C   UNL     1     -15.232  14.991   0.623  1.00  0.00     0.173 A 
ATOM     96  C   UNL     1     -14.027  17.054   0.893  1.00  0.00     0.173 A 
ATOM     97  F   UNL     1     -15.263  13.657   0.477  1.00  0.00    -0.203 F 
ATOM     98  C   UNL     1     -16.431  15.698   0.595  1.00  0.00     0.198 A 
ATOM     99  C   UNL     1     -15.229  17.755   0.893  1.00  0.00     0.198 A 
ATOM    100  F   UNL     1     -12.881  17.737   1.034  1.00  0.00    -0.203 F 
ATOM    101  F   UNL     1     -17.588  15.046   0.417  1.00  0.00    -0.200 F 
ATOM    102  C   UNL     1     -16.429  17.078   0.738  1.00  0.00     0.200 A 
ATOM    103  F   UNL     1     -15.226  19.087   1.044  1.00  0.00    -0.200 F 
ATOM    104  F   UNL     1     -17.585  17.756   0.719  1.00  0.00    -0.200 F 
ENDBRANCH  71  94
ENDBRANCH  45  46
ENDBRANCH  37  40
ENDBRANCH  35  36
ENDBRANCH  34  35
ENDBRANCH  33  34
ENDBRANCH   1  33
TORSDOF 15
