REMARK SMILES O=C(C[C@]1(C(=O)NC2CCCCC2)CC(c2ccc([N+](=O)[O-])cc2)=NO1)NCCCCNC(=O)c1ccc(-c2c3nc(c(-c4c(F)c(F)c(F)c(F)c4F)c4ccc([nH]4)c(-c4c(F)c(F)c(F)c(F)c4F)c4nc(c(-c5c(F)c(F)c(F)c(F)c5F)c5ccc2[nH]5)C=C4)C=C3)cc1
REMARK SMILES IDX 29 1 28 2 27 3 1 4 2 5 3 7 4 8 14 9 26 10 15 11 25 12 5 13
REMARK SMILES IDX 6 14 7 15 8 17 9 18 13 19 10 20 12 21 11 22 16 23 17 24
REMARK SMILES IDX 24 25 18 26 23 27 19 28 20 29 21 30 22 31 30 32 31 33 32 34
REMARK SMILES IDX 33 35 34 37 35 38 36 39 97 40 37 41 96 42 38 43 39 44 40 45
REMARK SMILES IDX 90 46 41 47 95 48 89 49 91 50 42 51 94 52 88 53 87 54 43 56
REMARK SMILES IDX 75 57 55 58 74 59 56 60 59 61 73 62 92 63 57 64 58 65 72 67
REMARK SMILES IDX 93 68 60 69 44 70 45 71 53 72 46 73 47 74 51 75 54 76 48 77
REMARK SMILES IDX 49 78 52 79 50 80 76 81 77 82 85 83 78 84 79 85 83 86 86 87
REMARK SMILES IDX 80 88 81 89 84 90 82 91 61 92 62 93 70 94 63 95 64 96 68 97
REMARK SMILES IDX 71 98 65 99 66 100 69 101 67 102
REMARK H PARENT 27 6 7 16 32 36 91 55 59 66
REMARK Flexibility Score: inf
ROOT
ATOM      1  C   UNL     1       8.408   4.323   2.656  1.00  0.00     0.023 C 
ENDROOT
BRANCH   1   2
ATOM      2  C   UNL     1       7.276   3.341   2.956  1.00  0.00     0.116 C 
BRANCH   2   3
ATOM      3  N   UNL     1       6.471   3.051   1.786  1.00  0.00    -0.356 N 
ATOM      4  O   UNL     1       6.665   0.765   1.920  1.00  0.00    -0.275 OA
ATOM      5  C   UNL     1       6.175   1.763   1.399  1.00  0.00     0.224 C 
ATOM      6  H   UNL     1       6.123   3.800   1.250  1.00  0.00     0.163 HD
BRANCH   5   7
ATOM      7  C   UNL     1       5.204   1.665   0.244  1.00  0.00     0.162 C 
BRANCH   7   8
ATOM      8  C   UNL     1       3.734   1.884   0.645  1.00  0.00     0.229 C 
ATOM      9  C   UNL     1       3.306   3.352   0.674  1.00  0.00     0.123 C 
ATOM     10  O   UNL     1       3.528   1.401   1.967  1.00  0.00    -0.378 OA
ATOM     11  C   UNL     1       3.133   3.536   2.137  1.00  0.00     0.092 C 
ATOM     12  N   UNL     1       3.280   2.470   2.847  1.00  0.00    -0.089 NA
BRANCH   8  13
ATOM     13  C   UNL     1       2.887   1.175  -0.441  1.00  0.00     0.268 C 
ATOM     14  O   UNL     1       2.836   1.652  -1.582  1.00  0.00    -0.270 OA
ATOM     15  N   UNL     1       2.218   0.008  -0.229  1.00  0.00    -0.350 N 
ATOM     16  H   UNL     1       1.788  -0.374  -1.027  1.00  0.00     0.163 HD
BRANCH  15  17
ATOM     17  C   UNL     1       2.038  -0.767   0.995  1.00  0.00     0.082 C 
ATOM     18  C   UNL     1       0.809  -1.679   0.880  1.00  0.00     0.025 C 
ATOM     19  C   UNL     1       3.281  -1.605   1.317  1.00  0.00     0.025 C 
ATOM     20  C   UNL     1       0.598  -2.481   2.163  1.00  0.00     0.002 C 
ATOM     21  C   UNL     1       3.087  -2.388   2.612  1.00  0.00     0.002 C 
ATOM     22  C   UNL     1       1.845  -3.273   2.549  1.00  0.00     0.000 C 
ENDBRANCH  15  17
ENDBRANCH   8  13
BRANCH  11  23
ATOM     23  C   UNL     1       2.822   4.846   2.744  1.00  0.00    -0.000 A 
ATOM     24  C   UNL     1       3.191   5.067   4.079  1.00  0.00     0.017 A 
ATOM     25  C   UNL     1       2.129   5.834   2.035  1.00  0.00     0.017 A 
ATOM     26  C   UNL     1       2.864   6.268   4.714  1.00  0.00     0.086 A 
ATOM     27  C   UNL     1       1.785   7.034   2.670  1.00  0.00     0.086 A 
ATOM     28  C   UNL     1       2.150   7.244   4.008  1.00  0.00     0.269 A 
BRANCH  28  29
ATOM     29  N   UNL     1       1.808   8.510   4.667  1.00  0.00     0.062 N 
ATOM     30  O   UNL     1       2.340   8.755   5.757  1.00  0.00    -0.258 OA
ATOM     31  O   UNL     1       1.036   9.276   4.073  1.00  0.00    -0.258 OA
ENDBRANCH  28  29
ENDBRANCH  11  23
ENDBRANCH   7   8
ENDBRANCH   5   7
ENDBRANCH   2   3
ENDBRANCH   1   2
BRANCH   1  32
ATOM     32  C   UNL     1       7.977   5.655   2.034  1.00  0.00     0.023 C 
BRANCH  32  33
ATOM     33  C   UNL     1       6.957   6.461   2.832  1.00  0.00     0.116 C 
BRANCH  33  34
ATOM     34  N   UNL     1       7.484   6.958   4.092  1.00  0.00    -0.352 N 
ATOM     35  C   UNL     1       7.433   8.219   4.633  1.00  0.00     0.251 C 
ATOM     36  H   UNL     1       7.950   6.288   4.642  1.00  0.00     0.163 HD
ATOM     37  O   UNL     1       8.083   8.464   5.652  1.00  0.00    -0.269 OA
BRANCH  35  38
ATOM     38  C   UNL     1       6.629   9.297   4.009  1.00  0.00     0.039 A 
ATOM     39  C   UNL     1       7.142  10.600   3.990  1.00  0.00     0.014 A 
ATOM     40  C   UNL     1       5.363   9.050   3.473  1.00  0.00     0.014 A 
ATOM     41  C   UNL     1       6.419  11.631   3.381  1.00  0.00     0.010 A 
ATOM     42  C   UNL     1       4.664  10.065   2.820  1.00  0.00     0.010 A 
ATOM     43  C   UNL     1       5.187  11.363   2.763  1.00  0.00    -0.014 A 
BRANCH  43  44
ATOM     44  C   UNL     1       4.454  12.410   2.009  1.00  0.00     0.031 A 
ATOM     45  C   UNL     1       3.136  12.934   2.503  1.00  0.00     0.074 A 
ATOM     46  C   UNL     1       4.936  12.817   0.819  1.00  0.00     0.049 A 
ATOM     47  N   UNL     1       2.325  13.795   1.938  1.00  0.00    -0.248 NA
ATOM     48  C   UNL     1       2.651  12.400   3.783  1.00  0.00     0.031 C 
ATOM     49  C   UNL     1       6.171  12.333   0.201  1.00  0.00     0.029 A 
ATOM     50  N   UNL     1       4.434  13.711  -0.093  1.00  0.00    -0.354 N 
ATOM     51  C   UNL     1       1.234  13.899   2.790  1.00  0.00     0.074 A 
ATOM     52  C   UNL     1       1.462  12.977   3.882  1.00  0.00     0.031 C 
ATOM     53  C   UNL     1       6.335  12.940  -0.985  1.00  0.00     0.029 A 
ATOM     54  C   UNL     1       5.206  13.835  -1.222  1.00  0.00     0.049 A 
ATOM     55  H   UNL     1       3.601  14.216   0.049  1.00  0.00     0.167 HD
ATOM     56  C   UNL     1       0.150  14.706   2.679  1.00  0.00     0.037 A 
ATOM     57  C   UNL     1       5.023  14.584  -2.326  1.00  0.00     0.037 A 
ATOM     58  C   UNL     1      -0.068  15.633   1.598  1.00  0.00     0.049 A 
ATOM     59  C   UNL     1       3.821  15.482  -2.418  1.00  0.00     0.074 A 
ATOM     60  C   UNL     1      -1.099  16.543   1.434  1.00  0.00     0.029 A 
ATOM     61  N   UNL     1       0.756  15.761   0.490  1.00  0.00    -0.354 N 
ATOM     62  N   UNL     1       2.840  15.638  -1.565  1.00  0.00    -0.248 NA
ATOM     63  C   UNL     1       3.709  16.317  -3.622  1.00  0.00     0.031 C 
ATOM     64  C   UNL     1      -0.920  17.193   0.207  1.00  0.00     0.029 A 
ATOM     65  C   UNL     1       0.247  16.721  -0.372  1.00  0.00     0.049 A 
ATOM     66  H   UNL     1       1.582  15.247   0.338  1.00  0.00     0.167 HD
ATOM     67  C   UNL     1       2.008  16.605  -2.112  1.00  0.00     0.074 A 
ATOM     68  C   UNL     1       2.608  17.009  -3.368  1.00  0.00     0.031 C 
ATOM     69  C   UNL     1       0.854  17.114  -1.617  1.00  0.00     0.037 A 
BRANCH  56  70
ATOM     70  C   UNL     1      -0.883  14.632   3.766  1.00  0.00     0.064 A 
ATOM     71  C   UNL     1      -0.629  15.129   5.054  1.00  0.00     0.173 A 
ATOM     72  C   UNL     1      -2.158  14.107   3.506  1.00  0.00     0.173 A 
ATOM     73  F   UNL     1       0.575  15.639   5.354  1.00  0.00    -0.203 F 
ATOM     74  C   UNL     1      -1.603  15.077   6.048  1.00  0.00     0.198 A 
ATOM     75  C   UNL     1      -3.139  14.083   4.495  1.00  0.00     0.198 A 
ATOM     76  F   UNL     1      -2.459  13.632   2.288  1.00  0.00    -0.203 F 
ATOM     77  F   UNL     1      -1.323  15.523   7.281  1.00  0.00    -0.200 F 
ATOM     78  C   UNL     1      -2.858  14.562   5.766  1.00  0.00     0.200 A 
ATOM     79  F   UNL     1      -4.358  13.601   4.216  1.00  0.00    -0.200 F 
ATOM     80  F   UNL     1      -3.799  14.524   6.720  1.00  0.00    -0.200 F 
ENDBRANCH  56  70
BRANCH  57  81
ATOM     81  C   UNL     1       6.029  14.539  -3.417  1.00  0.00     0.064 A 
ATOM     82  C   UNL     1       6.892  15.620  -3.642  1.00  0.00     0.173 A 
ATOM     83  C   UNL     1       6.160  13.413  -4.242  1.00  0.00     0.173 A 
ATOM     84  F   UNL     1       6.790  16.725  -2.889  1.00  0.00    -0.203 F 
ATOM     85  C   UNL     1       7.839  15.582  -4.662  1.00  0.00     0.198 A 
ATOM     86  C   UNL     1       7.125  13.367  -5.245  1.00  0.00     0.198 A 
ATOM     87  F   UNL     1       5.363  12.350  -4.060  1.00  0.00    -0.203 F 
ATOM     88  F   UNL     1       8.628  16.643  -4.879  1.00  0.00    -0.200 F 
ATOM     89  C   UNL     1       7.960  14.454  -5.459  1.00  0.00     0.200 A 
ATOM     90  F   UNL     1       7.248  12.269  -6.003  1.00  0.00    -0.200 F 
ATOM     91  F   UNL     1       8.877  14.415  -6.434  1.00  0.00    -0.200 F 
ENDBRANCH  57  81
BRANCH  69  92
ATOM     92  C   UNL     1       0.175  18.183  -2.422  1.00  0.00     0.064 A 
ATOM     93  C   UNL     1      -0.497  17.889  -3.617  1.00  0.00     0.173 A 
ATOM     94  C   UNL     1       0.170  19.513  -1.975  1.00  0.00     0.173 A 
ATOM     95  F   UNL     1      -0.507  16.635  -4.095  1.00  0.00    -0.203 F 
ATOM     96  C   UNL     1      -1.130  18.891  -4.348  1.00  0.00     0.198 A 
ATOM     97  C   UNL     1      -0.486  20.508  -2.694  1.00  0.00     0.198 A 
ATOM     98  F   UNL     1       0.796  19.846  -0.836  1.00  0.00    -0.203 F 
ATOM     99  F   UNL     1      -1.727  18.595  -5.510  1.00  0.00    -0.200 F 
ATOM    100  C   UNL     1      -1.129  20.198  -3.882  1.00  0.00     0.200 A 
ATOM    101  F   UNL     1      -0.493  21.769  -2.238  1.00  0.00    -0.200 F 
ATOM    102  F   UNL     1      -1.742  21.161  -4.585  1.00  0.00    -0.200 F 
ENDBRANCH  69  92
ENDBRANCH  43  44
ENDBRANCH  35  38
ENDBRANCH  33  34
ENDBRANCH  32  33
ENDBRANCH   1  32
TORSDOF 16
