REMARK SMILES Cc1cscc1-c1ncc(C(=O)NCCCCNC(=O)c2ccc(-c3c4nc(c(-c5c(F)c(F)c(F)c(F)c5F)c5ccc([nH]5)c(-c5c(F)c(F)c(F)c(F)c5F)c5nc(c(-c6c(F)c(F)c(F)c(F)c6F)c6ccc3[nH]6)C=C5)C=C4)cc2)c(=O)[nH]1
REMARK SMILES IDX 16 1 15 2 14 3 13 4 11 5 12 6 10 8 7 9 8 10 86 11 9 12 84 13
REMARK SMILES IDX 85 15 6 16 1 17 2 18 3 19 4 20 5 21 17 22 18 23 19 24 20 26
REMARK SMILES IDX 21 27 22 28 83 29 23 30 82 31 24 32 25 33 26 34 76 35 27 36
REMARK SMILES IDX 81 37 75 38 77 39 28 40 80 41 74 42 73 43 29 45 61 46 41 47
REMARK SMILES IDX 60 48 42 49 45 50 59 51 78 52 43 53 44 54 58 56 79 57 46 58
REMARK SMILES IDX 30 59 31 60 39 61 32 62 33 63 37 64 40 65 34 66 35 67 38 68
REMARK SMILES IDX 36 69 62 70 63 71 71 72 64 73 65 74 69 75 72 76 66 77 67 78
REMARK SMILES IDX 70 79 68 80 47 81 48 82 56 83 49 84 50 85 54 86 57 87 51 88
REMARK SMILES IDX 52 89 55 90 53 91
REMARK H PARENT 13 7 86 14 18 25 77 44 45 55
REMARK Flexibility Score: inf
ROOT
ATOM      1  C   UNL     1       3.843   8.251   3.617  1.00  0.00     0.023 C 
ENDROOT
BRANCH   1   2
ATOM      2  C   UNL     1       2.979   7.073   3.166  1.00  0.00     0.023 C 
BRANCH   2   3
ATOM      3  C   UNL     1       2.317   7.249   1.797  1.00  0.00     0.116 C 
BRANCH   3   4
ATOM      4  N   UNL     1       3.260   6.983   0.730  1.00  0.00    -0.352 N 
ATOM      5  C   UNL     1       3.504   5.869  -0.011  1.00  0.00     0.258 C 
ATOM      6  O   UNL     1       4.406   5.963  -0.850  1.00  0.00    -0.269 OA
ATOM      7  H   UNL     1       3.831   7.751   0.498  1.00  0.00     0.163 HD
BRANCH   5   8
ATOM      8  C   UNL     1       2.711   4.616   0.095  1.00  0.00     0.123 A 
ATOM      9  C   UNL     1       1.295   2.275  -0.128  1.00  0.00     0.141 A 
ATOM     10  N   UNL     1       2.004   2.646  -1.140  1.00  0.00    -0.237 NA
ATOM     11  N   UNL     1       1.221   2.969   1.039  1.00  0.00    -0.306 N 
ATOM     12  C   UNL     1       2.669   3.843  -1.008  1.00  0.00     0.133 A 
ATOM     13  C   UNL     1       2.009   4.056   1.271  1.00  0.00     0.264 A 
ATOM     14  H   UNL     1       0.584   2.679   1.732  1.00  0.00     0.171 HD
ATOM     15  O   UNL     1       2.136   4.460   2.420  1.00  0.00    -0.269 OA
BRANCH   9  16
ATOM     16  C   UNL     1       0.562   1.029  -0.163  1.00  0.00     0.031 A 
ATOM     17  C   UNL     1       2.620  -0.554  -0.169  1.00  0.00     0.046 C 
ATOM     18  C   UNL     1       1.150  -0.288  -0.175  1.00  0.00    -0.029 A 
ATOM     19  C   UNL     1       0.175  -1.268  -0.171  1.00  0.00     0.069 A 
ATOM     20  S   UNL     1      -1.409  -0.628  -0.152  1.00  0.00    -0.151 S 
ATOM     21  C   UNL     1      -0.819   0.974  -0.146  1.00  0.00     0.077 A 
ENDBRANCH   9  16
ENDBRANCH   5   8
ENDBRANCH   3   4
ENDBRANCH   2   3
ENDBRANCH   1   2
BRANCH   1  22
ATOM     22  C   UNL     1       3.093   9.560   3.822  1.00  0.00     0.116 C 
BRANCH  22  23
ATOM     23  N   UNL     1       2.002   9.462   4.778  1.00  0.00    -0.352 N 
ATOM     24  C   UNL     1       1.512  10.432   5.620  1.00  0.00     0.251 C 
ATOM     25  H   UNL     1       1.555   8.586   4.829  1.00  0.00     0.163 HD
ATOM     26  O   UNL     1       0.637  10.171   6.434  1.00  0.00    -0.269 OA
BRANCH  24  27
ATOM     27  C   UNL     1       2.089  11.791   5.564  1.00  0.00     0.039 A 
ATOM     28  C   UNL     1       2.508  12.389   6.756  1.00  0.00     0.014 A 
ATOM     29  C   UNL     1       2.250  12.453   4.345  1.00  0.00     0.014 A 
ATOM     30  C   UNL     1       3.154  13.625   6.716  1.00  0.00     0.010 A 
ATOM     31  C   UNL     1       2.950  13.654   4.300  1.00  0.00     0.010 A 
ATOM     32  C   UNL     1       3.412  14.248   5.484  1.00  0.00    -0.014 A 
BRANCH  32  33
ATOM     33  C   UNL     1       4.168  15.522   5.412  1.00  0.00     0.031 A 
ATOM     34  C   UNL     1       3.490  16.772   4.932  1.00  0.00     0.074 A 
ATOM     35  C   UNL     1       5.481  15.533   5.711  1.00  0.00     0.049 A 
ATOM     36  N   UNL     1       3.996  17.960   4.722  1.00  0.00    -0.248 NA
ATOM     37  C   UNL     1       2.056  16.665   4.619  1.00  0.00     0.031 C 
ATOM     38  C   UNL     1       6.261  14.372   6.142  1.00  0.00     0.029 A 
ATOM     39  N   UNL     1       6.395  16.556   5.686  1.00  0.00    -0.354 N 
ATOM     40  C   UNL     1       2.951  18.735   4.239  1.00  0.00     0.074 A 
ATOM     41  C   UNL     1       1.793  17.873   4.141  1.00  0.00     0.031 C 
ATOM     42  C   UNL     1       7.531  14.752   6.359  1.00  0.00     0.029 A 
ATOM     43  C   UNL     1       7.661  16.172   6.052  1.00  0.00     0.049 A 
ATOM     44  H   UNL     1       6.164  17.478   5.429  1.00  0.00     0.167 HD
ATOM     45  C   UNL     1       2.952  20.053   3.928  1.00  0.00     0.037 A 
ATOM     46  C   UNL     1       8.799  16.888   6.127  1.00  0.00     0.037 A 
ATOM     47  C   UNL     1       4.097  20.915   4.055  1.00  0.00     0.049 A 
ATOM     48  C   UNL     1       8.770  18.352   5.783  1.00  0.00     0.074 A 
ATOM     49  C   UNL     1       4.184  22.276   3.821  1.00  0.00     0.029 A 
ATOM     50  N   UNL     1       5.357  20.496   4.457  1.00  0.00    -0.354 N 
ATOM     51  N   UNL     1       7.761  19.089   5.387  1.00  0.00    -0.248 NA
ATOM     52  C   UNL     1      10.038  19.085   5.902  1.00  0.00     0.031 C 
ATOM     53  C   UNL     1       5.506  22.675   4.049  1.00  0.00     0.029 A 
ATOM     54  C   UNL     1       6.232  21.570   4.463  1.00  0.00     0.049 A 
ATOM     55  H   UNL     1       5.594  19.572   4.701  1.00  0.00     0.167 HD
ATOM     56  C   UNL     1       8.263  20.373   5.235  1.00  0.00     0.074 A 
ATOM     57  C   UNL     1       9.665  20.319   5.594  1.00  0.00     0.031 C 
ATOM     58  C   UNL     1       7.621  21.497   4.834  1.00  0.00     0.037 A 
BRANCH  45  59
ATOM     59  C   UNL     1       1.668  20.645   3.427  1.00  0.00     0.064 A 
ATOM     60  C   UNL     1       0.571  20.842   4.279  1.00  0.00     0.173 A 
ATOM     61  C   UNL     1       1.542  21.047   2.089  1.00  0.00     0.173 A 
ATOM     62  F   UNL     1       0.637  20.461   5.563  1.00  0.00    -0.203 F 
ATOM     63  C   UNL     1      -0.615  21.395   3.803  1.00  0.00     0.198 A 
ATOM     64  C   UNL     1       0.364  21.625   1.623  1.00  0.00     0.198 A 
ATOM     65  F   UNL     1       2.563  20.884   1.234  1.00  0.00    -0.203 F 
ATOM     66  F   UNL     1      -1.666  21.530   4.624  1.00  0.00    -0.200 F 
ATOM     67  C   UNL     1      -0.716  21.792   2.478  1.00  0.00     0.200 A 
ATOM     68  F   UNL     1       0.271  22.018   0.345  1.00  0.00    -0.200 F 
ATOM     69  F   UNL     1      -1.856  22.328   2.023  1.00  0.00    -0.200 F 
ENDBRANCH  45  59
BRANCH  46  70
ATOM     70  C   UNL     1      10.057  16.238   6.576  1.00  0.00     0.064 A 
ATOM     71  C   UNL     1      10.608  16.535   7.830  1.00  0.00     0.173 A 
ATOM     72  C   UNL     1      10.734  15.317   5.765  1.00  0.00     0.173 A 
ATOM     73  F   UNL     1      10.005  17.426   8.631  1.00  0.00    -0.203 F 
ATOM     74  C   UNL     1      11.800  15.950   8.249  1.00  0.00     0.198 A 
ATOM     75  C   UNL     1      11.914  14.713   6.195  1.00  0.00     0.198 A 
ATOM     76  F   UNL     1      10.245  14.997   4.558  1.00  0.00    -0.203 F 
ATOM     77  F   UNL     1      12.328  16.283   9.434  1.00  0.00    -0.200 F 
ATOM     78  C   UNL     1      12.450  15.036   7.433  1.00  0.00     0.200 A 
ATOM     79  F   UNL     1      12.534  13.823   5.409  1.00  0.00    -0.200 F 
ATOM     80  F   UNL     1      13.597  14.472   7.836  1.00  0.00    -0.200 F 
ENDBRANCH  46  70
BRANCH  58  81
ATOM     81  C   UNL     1       8.420  22.766   4.794  1.00  0.00     0.064 A 
ATOM     82  C   UNL     1       9.372  23.002   3.792  1.00  0.00     0.173 A 
ATOM     83  C   UNL     1       8.201  23.772   5.747  1.00  0.00     0.173 A 
ATOM     84  F   UNL     1       9.628  22.063   2.869  1.00  0.00    -0.203 F 
ATOM     85  C   UNL     1      10.092  24.193   3.758  1.00  0.00     0.198 A 
ATOM     86  C   UNL     1       8.904  24.972   5.694  1.00  0.00     0.198 A 
ATOM     87  F   UNL     1       7.297  23.595   6.722  1.00  0.00    -0.203 F 
ATOM     88  F   UNL     1      11.027  24.382   2.817  1.00  0.00    -0.200 F 
ATOM     89  C   UNL     1       9.852  25.179   4.704  1.00  0.00     0.200 A 
ATOM     90  F   UNL     1       8.664  25.928   6.603  1.00  0.00    -0.200 F 
ATOM     91  F   UNL     1      10.542  26.328   4.666  1.00  0.00    -0.200 F 
ENDBRANCH  58  81
ENDBRANCH  32  33
ENDBRANCH  24  27
ENDBRANCH  22  23
ENDBRANCH   1  22
TORSDOF 12
