REMARK SMILES COC[C@@H](NS(=O)(=O)c1ccc(C(=O)NCCCCNC(=O)c2ccc(-c3c4nc(c(-c5c(F)c(F)c(F)c(F)c5F)c5ccc([nH]5)c(-c5c(F)c(F)c(F)c(F)c5F)c5nc(c(-c6c(F)c(F)c(F)c(F)c6F)c6ccc3[nH]6)C=C5)C=C4)cc2)cc1F)C(C)C
REMARK SMILES IDX 16 1 15 2 13 3 14 4 12 6 9 7 10 8 87 9 11 10 86 11 88 12
REMARK SMILES IDX 6 13 7 14 8 15 5 16 4 18 3 19 2 20 1 21 89 22 90 23 91 24
REMARK SMILES IDX 17 25 18 26 19 27 20 28 21 29 22 31 23 32 24 33 85 34 25 35
REMARK SMILES IDX 84 36 26 37 27 38 28 39 78 40 29 41 83 42 77 43 79 44 30 45
REMARK SMILES IDX 82 46 76 47 75 48 31 50 63 51 43 52 62 53 44 54 47 55 61 56
REMARK SMILES IDX 80 57 45 58 46 59 60 61 81 62 48 63 32 64 33 65 41 66 34 67
REMARK SMILES IDX 35 68 39 69 42 70 36 71 37 72 40 73 38 74 64 75 65 76 73 77
REMARK SMILES IDX 66 78 67 79 71 80 74 81 68 82 69 83 72 84 70 85 49 86 50 87
REMARK SMILES IDX 58 88 51 89 52 90 56 91 59 92 53 93 54 94 57 95 55 96
REMARK H PARENT 15 5 5 17 20 30 79 49 47 60
REMARK Flexibility Score: inf
ROOT
ATOM      1  C   UNL     1       2.732   2.448   9.853  1.00  0.00     0.116 C 
ENDROOT
BRANCH   1   2
ATOM      2  N   UNL     1       2.360   3.706   9.244  1.00  0.00    -0.352 N 
ATOM      3  C   UNL     1       1.656   3.939   8.097  1.00  0.00     0.251 C 
ATOM      4  O   UNL     1       1.398   5.093   7.764  1.00  0.00    -0.269 OA
ATOM      5  H   UNL     1       2.657   4.511   9.726  1.00  0.00     0.163 HD
BRANCH   3   6
ATOM      6  C   UNL     1       1.174   2.825   7.253  1.00  0.00     0.042 A 
ATOM      7  C   UNL     1       0.298   1.054   5.297  1.00  0.00     0.118 A 
ATOM      8  C   UNL     1      -0.597   1.992   5.822  1.00  0.00     0.026 A 
ATOM      9  C   UNL     1       1.580   0.927   5.823  1.00  0.00     0.144 A 
ATOM     10  C   UNL     1      -0.148   2.889   6.792  1.00  0.00     0.015 A 
ATOM     11  C   UNL     1       2.032   1.823   6.788  1.00  0.00     0.054 A 
ATOM     12  F   UNL     1       2.450   0.032   5.336  1.00  0.00    -0.205 F 
BRANCH   7  13
ATOM     13  S   UNL     1      -0.087   0.201   3.800  1.00  0.00     0.243 S 
ATOM     14  O   UNL     1      -1.446   0.543   3.429  1.00  0.00    -0.207 OA
ATOM     15  O   UNL     1       0.327  -1.170   3.956  1.00  0.00    -0.207 OA
BRANCH  13  16
ATOM     16  N   UNL     1       0.986   0.923   2.702  1.00  0.00    -0.205 NA
ATOM     17  H   UNL     1       1.760   1.296   3.253  1.00  0.00     0.141 HD
BRANCH  16  18
ATOM     18  C   UNL     1       0.531   2.028   1.805  1.00  0.00     0.098 C 
BRANCH  18  19
ATOM     19  C   UNL     1       0.882   1.651   0.339  1.00  0.00     0.180 C 
BRANCH  19  20
ATOM     20  O   UNL     1       0.117   0.548  -0.139  1.00  0.00    -0.383 OA
ATOM     21  C   UNL     1       0.852  -0.653  -0.311  1.00  0.00     0.194 C 
ENDBRANCH  19  20
ENDBRANCH  18  19
BRANCH  18  22
ATOM     22  C   UNL     1       1.234   3.380   2.136  1.00  0.00     0.003 C 
ATOM     23  C   UNL     1       0.479   4.554   1.492  1.00  0.00     0.009 C 
ATOM     24  C   UNL     1       1.376   3.699   3.617  1.00  0.00     0.009 C 
ENDBRANCH  18  22
ENDBRANCH  16  18
ENDBRANCH  13  16
ENDBRANCH   7  13
ENDBRANCH   3   6
ENDBRANCH   1   2
BRANCH   1  25
ATOM     25  C   UNL     1       4.245   2.257   9.789  1.00  0.00     0.023 C 
BRANCH  25  26
ATOM     26  C   UNL     1       5.020   3.083  10.820  1.00  0.00     0.023 C 
BRANCH  26  27
ATOM     27  C   UNL     1       4.611   2.840  12.268  1.00  0.00     0.116 C 
BRANCH  27  28
ATOM     28  N   UNL     1       4.628   1.433  12.635  1.00  0.00    -0.352 N 
ATOM     29  C   UNL     1       4.895   0.870  13.856  1.00  0.00     0.251 C 
ATOM     30  H   UNL     1       4.420   0.801  11.910  1.00  0.00     0.163 HD
ATOM     31  O   UNL     1       4.993  -0.347  13.970  1.00  0.00    -0.269 OA
BRANCH  29  32
ATOM     32  C   UNL     1       5.098   1.744  15.026  1.00  0.00     0.039 A 
ATOM     33  C   UNL     1       6.196   1.507  15.853  1.00  0.00     0.014 A 
ATOM     34  C   UNL     1       4.215   2.793  15.298  1.00  0.00     0.014 A 
ATOM     35  C   UNL     1       6.431   2.350  16.938  1.00  0.00     0.010 A 
ATOM     36  C   UNL     1       4.495   3.679  16.332  1.00  0.00     0.010 A 
ATOM     37  C   UNL     1       5.594   3.454  17.172  1.00  0.00    -0.014 A 
BRANCH  37  38
ATOM     38  C   UNL     1       5.851   4.363  18.314  1.00  0.00     0.031 A 
ATOM     39  C   UNL     1       4.864   4.450  19.443  1.00  0.00     0.074 A 
ATOM     40  C   UNL     1       6.963   5.122  18.319  1.00  0.00     0.049 A 
ATOM     41  N   UNL     1       4.921   5.170  20.535  1.00  0.00    -0.248 NA
ATOM     42  C   UNL     1       3.640   3.642  19.323  1.00  0.00     0.031 C 
ATOM     43  C   UNL     1       7.961   5.161  17.249  1.00  0.00     0.029 A 
ATOM     44  N   UNL     1       7.444   5.999  19.257  1.00  0.00    -0.354 N 
ATOM     45  C   UNL     1       3.745   4.905  21.222  1.00  0.00     0.074 A 
ATOM     46  C   UNL     1       2.962   4.012  20.398  1.00  0.00     0.031 C 
ATOM     47  C   UNL     1       8.959   5.984  17.611  1.00  0.00     0.029 A 
ATOM     48  C   UNL     1       8.655   6.552  18.921  1.00  0.00     0.049 A 
ATOM     49  H   UNL     1       6.967   6.212  20.091  1.00  0.00     0.167 HD
ATOM     50  C   UNL     1       3.368   5.342  22.447  1.00  0.00     0.037 A 
ATOM     51  C   UNL     1       9.439   7.410  19.601  1.00  0.00     0.037 A 
ATOM     52  C   UNL     1       4.166   6.209  23.272  1.00  0.00     0.049 A 
ATOM     53  C   UNL     1       9.006   7.868  20.967  1.00  0.00     0.074 A 
ATOM     54  C   UNL     1       3.896   6.674  24.547  1.00  0.00     0.029 A 
ATOM     55  N   UNL     1       5.394   6.740  22.903  1.00  0.00    -0.354 N 
ATOM     56  N   UNL     1       7.920   7.563  21.635  1.00  0.00    -0.248 NA
ATOM     57  C   UNL     1       9.914   8.776  21.681  1.00  0.00     0.031 C 
ATOM     58  C   UNL     1       4.938   7.523  24.931  1.00  0.00     0.029 A 
ATOM     59  C   UNL     1       5.887   7.540  23.921  1.00  0.00     0.049 A 
ATOM     60  H   UNL     1       5.847   6.573  22.045  1.00  0.00     0.167 HD
ATOM     61  C   UNL     1       8.025   8.217  22.855  1.00  0.00     0.074 A 
ATOM     62  C   UNL     1       9.289   8.923  22.841  1.00  0.00     0.031 C 
ATOM     63  C   UNL     1       7.152   8.230  23.893  1.00  0.00     0.037 A 
BRANCH  50  64
ATOM     64  C   UNL     1       2.043   4.877  22.978  1.00  0.00     0.064 A 
ATOM     65  C   UNL     1       0.990   5.785  23.163  1.00  0.00     0.173 A 
ATOM     66  C   UNL     1       1.834   3.543  23.362  1.00  0.00     0.173 A 
ATOM     67  F   UNL     1       1.137   7.073  22.816  1.00  0.00    -0.203 F 
ATOM     68  C   UNL     1      -0.218   5.378  23.723  1.00  0.00     0.198 A 
ATOM     69  C   UNL     1       0.614   3.133  23.892  1.00  0.00     0.198 A 
ATOM     70  F   UNL     1       2.803   2.632  23.192  1.00  0.00    -0.203 F 
ATOM     71  F   UNL     1      -1.199   6.270  23.920  1.00  0.00    -0.200 F 
ATOM     72  C   UNL     1      -0.407   4.052  24.082  1.00  0.00     0.200 A 
ATOM     73  F   UNL     1       0.424   1.845  24.212  1.00  0.00    -0.200 F 
ATOM     74  F   UNL     1      -1.575   3.658  24.609  1.00  0.00    -0.200 F 
ENDBRANCH  50  64
BRANCH  51  75
ATOM     75  C   UNL     1      10.737   7.836  19.019  1.00  0.00     0.064 A 
ATOM     76  C   UNL     1      10.795   8.672  17.894  1.00  0.00     0.173 A 
ATOM     77  C   UNL     1      11.950   7.380  19.555  1.00  0.00     0.173 A 
ATOM     78  F   UNL     1       9.663   9.128  17.338  1.00  0.00    -0.203 F 
ATOM     79  C   UNL     1      12.015   9.021  17.318  1.00  0.00     0.198 A 
ATOM     80  C   UNL     1      13.170   7.752  18.995  1.00  0.00     0.198 A 
ATOM     81  F   UNL     1      11.947   6.592  20.640  1.00  0.00    -0.203 F 
ATOM     82  F   UNL     1      12.040   9.791  16.222  1.00  0.00    -0.200 F 
ATOM     83  C   UNL     1      13.201   8.565  17.872  1.00  0.00     0.200 A 
ATOM     84  F   UNL     1      14.315   7.327  19.546  1.00  0.00    -0.200 F 
ATOM     85  F   UNL     1      14.375   8.909  17.323  1.00  0.00    -0.200 F 
ENDBRANCH  51  75
BRANCH  63  86
ATOM     86  C   UNL     1       7.542   9.005  25.118  1.00  0.00     0.064 A 
ATOM     87  C   UNL     1       7.833   8.334  26.317  1.00  0.00     0.173 A 
ATOM     88  C   UNL     1       7.565  10.407  25.127  1.00  0.00     0.173 A 
ATOM     89  F   UNL     1       7.815   6.994  26.364  1.00  0.00    -0.203 F 
ATOM     90  C   UNL     1       8.122   9.040  27.481  1.00  0.00     0.198 A 
ATOM     91  C   UNL     1       7.886  11.109  26.286  1.00  0.00     0.198 A 
ATOM     92  F   UNL     1       7.304  11.094  24.005  1.00  0.00    -0.203 F 
ATOM     93  F   UNL     1       8.363   8.379  28.621  1.00  0.00    -0.200 F 
ATOM     94  C   UNL     1       8.155  10.426  27.463  1.00  0.00     0.200 A 
ATOM     95  F   UNL     1       7.944  12.447  26.261  1.00  0.00    -0.200 F 
ATOM     96  F   UNL     1       8.450  11.104  28.580  1.00  0.00    -0.200 F 
ENDBRANCH  63  86
ENDBRANCH  37  38
ENDBRANCH  29  32
ENDBRANCH  27  28
ENDBRANCH  26  27
ENDBRANCH  25  26
ENDBRANCH   1  25
TORSDOF 17
