REMARK SMILES O=C(NCCCCNC(=O)c1sccc1S(=O)(=O)Nc1ccccc1N1CCCCC1)c1ccc(-c2c3nc(c(-c4c(F)c(F)c(F)c(F)c4F)c4ccc([nH]4)c(-c4c(F)c(F)c(F)c(F)c4F)c4nc(c(-c5c(F)c(F)c(F)c(F)c5F)c5ccc2[nH]5)C=C4)C=C3)cc1
REMARK SMILES IDX 6 1 5 2 4 3 3 4 1 5 2 6 32 8 33 9 94 10 34 11 93 12 35 13
REMARK SMILES IDX 36 14 37 15 87 16 38 17 92 18 86 19 88 20 39 21 91 22 85 23
REMARK SMILES IDX 84 24 40 26 72 27 52 28 71 29 53 30 56 31 70 32 89 33 54 34
REMARK SMILES IDX 55 35 69 37 90 38 57 39 41 40 42 41 50 42 43 43 44 44 48 45
REMARK SMILES IDX 51 46 45 47 46 48 49 49 47 50 73 51 74 52 82 53 75 54 76 55
REMARK SMILES IDX 80 56 83 57 77 58 78 59 81 60 79 61 58 62 59 63 67 64 60 65
REMARK SMILES IDX 61 66 65 67 68 68 62 69 63 70 66 71 64 72 7 73 8 74 9 75
REMARK SMILES IDX 10 77 11 78 12 79 15 80 13 81 14 82 16 83 17 84 18 85 19 86
REMARK SMILES IDX 20 88 21 89 25 90 22 91 24 92 23 93 26 94 27 95 31 96 28 97
REMARK SMILES IDX 30 98 29 99
REMARK H PARENT 3 7 88 25 56 36 8 76 19 87
REMARK Flexibility Score: inf
ROOT
ATOM      1  C   UNL     1       3.753   3.073  -2.223  1.00  0.00     0.023 C 
ENDROOT
BRANCH   1   2
ATOM      2  C   UNL     1       4.426   1.729  -1.925  1.00  0.00     0.023 C 
BRANCH   2   3
ATOM      3  C   UNL     1       4.244   1.218  -0.498  1.00  0.00     0.116 C 
BRANCH   3   4
ATOM      4  N   UNL     1       2.852   0.994  -0.148  1.00  0.00    -0.352 N 
ATOM      5  O   UNL     1       0.936  -0.179   0.090  1.00  0.00    -0.269 OA
ATOM      6  C   UNL     1       2.156  -0.184  -0.032  1.00  0.00     0.251 C 
ATOM      7  H   UNL     1       2.329   1.808   0.033  1.00  0.00     0.163 HD
BRANCH   6   8
ATOM      8  C   UNL     1       2.883  -1.468  -0.071  1.00  0.00     0.039 A 
ATOM      9  C   UNL     1       4.023  -1.662   0.712  1.00  0.00     0.014 A 
ATOM     10  C   UNL     1       2.405  -2.497  -0.887  1.00  0.00     0.014 A 
ATOM     11  C   UNL     1       4.767  -2.827   0.570  1.00  0.00     0.010 A 
ATOM     12  C   UNL     1       3.106  -3.703  -0.961  1.00  0.00     0.010 A 
ATOM     13  C   UNL     1       4.308  -3.866  -0.255  1.00  0.00    -0.014 A 
BRANCH  13  14
ATOM     14  C   UNL     1       5.063  -5.142  -0.310  1.00  0.00     0.031 A 
ATOM     15  C   UNL     1       5.716  -5.604  -1.582  1.00  0.00     0.074 A 
ATOM     16  C   UNL     1       5.164  -5.879   0.812  1.00  0.00     0.049 A 
ATOM     17  N   UNL     1       6.398  -6.699  -1.807  1.00  0.00    -0.248 NA
ATOM     18  C   UNL     1       5.583  -4.729  -2.757  1.00  0.00     0.031 C 
ATOM     19  C   UNL     1       4.559  -5.534   2.101  1.00  0.00     0.029 A 
ATOM     20  N   UNL     1       5.814  -7.061   1.057  1.00  0.00    -0.354 N 
ATOM     21  C   UNL     1       6.756  -6.657  -3.148  1.00  0.00     0.074 A 
ATOM     22  C   UNL     1       6.200  -5.437  -3.694  1.00  0.00     0.031 C 
ATOM     23  C   UNL     1       4.897  -6.461   3.008  1.00  0.00     0.029 A 
ATOM     24  C   UNL     1       5.687  -7.497   2.353  1.00  0.00     0.049 A 
ATOM     25  H   UNL     1       6.322  -7.550   0.370  1.00  0.00     0.167 HD
ATOM     26  C   UNL     1       7.486  -7.555  -3.853  1.00  0.00     0.037 A 
ATOM     27  C   UNL     1       6.138  -8.618   2.944  1.00  0.00     0.037 A 
ATOM     28  C   UNL     1       8.051  -8.758  -3.296  1.00  0.00     0.049 A 
ATOM     29  C   UNL     1       6.929  -9.601   2.132  1.00  0.00     0.074 A 
ATOM     30  C   UNL     1       8.838  -9.711  -3.920  1.00  0.00     0.029 A 
ATOM     31  N   UNL     1       7.887  -9.174  -1.982  1.00  0.00    -0.354 N 
ATOM     32  N   UNL     1       7.286  -9.534   0.873  1.00  0.00    -0.248 NA
ATOM     33  C   UNL     1       7.377 -10.817   2.822  1.00  0.00     0.031 C 
ATOM     34  C   UNL     1       9.115 -10.725  -2.996  1.00  0.00     0.029 A 
ATOM     35  C   UNL     1       8.541 -10.380  -1.783  1.00  0.00     0.049 A 
ATOM     36  H   UNL     1       7.381  -8.685  -1.294  1.00  0.00     0.167 HD
ATOM     37  C   UNL     1       8.012 -10.688   0.622  1.00  0.00     0.074 A 
ATOM     38  C   UNL     1       8.064 -11.428   1.867  1.00  0.00     0.031 C 
ATOM     39  C   UNL     1       8.582 -11.100  -0.536  1.00  0.00     0.037 A 
BRANCH  26  40
ATOM     40  C   UNL     1       7.710  -7.285  -5.312  1.00  0.00     0.064 A 
ATOM     41  C   UNL     1       8.587  -6.282  -5.751  1.00  0.00     0.173 A 
ATOM     42  C   UNL     1       7.087  -8.082  -6.285  1.00  0.00     0.173 A 
ATOM     43  F   UNL     1       9.199  -5.485  -4.862  1.00  0.00    -0.203 F 
ATOM     44  C   UNL     1       8.819  -6.077  -7.109  1.00  0.00     0.198 A 
ATOM     45  C   UNL     1       7.340  -7.891  -7.641  1.00  0.00     0.198 A 
ATOM     46  F   UNL     1       6.243  -9.059  -5.919  1.00  0.00    -0.203 F 
ATOM     47  F   UNL     1       9.636  -5.091  -7.506  1.00  0.00    -0.200 F 
ATOM     48  C   UNL     1       8.203  -6.886  -8.052  1.00  0.00     0.200 A 
ATOM     49  F   UNL     1       6.753  -8.681  -8.550  1.00  0.00    -0.200 F 
ATOM     50  F   UNL     1       8.437  -6.695  -9.358  1.00  0.00    -0.200 F 
ENDBRANCH  26  40
BRANCH  27  51
ATOM     51  C   UNL     1       5.840  -8.864   4.378  1.00  0.00     0.064 A 
ATOM     52  C   UNL     1       6.855  -8.822   5.343  1.00  0.00     0.173 A 
ATOM     53  C   UNL     1       4.533  -9.129   4.814  1.00  0.00     0.173 A 
ATOM     54  F   UNL     1       8.122  -8.590   4.971  1.00  0.00    -0.203 F 
ATOM     55  C   UNL     1       6.576  -9.050   6.688  1.00  0.00     0.198 A 
ATOM     56  C   UNL     1       4.251  -9.326   6.162  1.00  0.00     0.198 A 
ATOM     57  F   UNL     1       3.526  -9.172   3.929  1.00  0.00    -0.203 F 
ATOM     58  F   UNL     1       7.570  -9.043   7.586  1.00  0.00    -0.200 F 
ATOM     59  C   UNL     1       5.273  -9.294   7.098  1.00  0.00     0.200 A 
ATOM     60  F   UNL     1       2.988  -9.544   6.556  1.00  0.00    -0.200 F 
ATOM     61  F   UNL     1       5.005  -9.504   8.394  1.00  0.00    -0.200 F 
ENDBRANCH  27  51
BRANCH  39  62
ATOM     62  C   UNL     1       9.334 -12.397  -0.500  1.00  0.00     0.064 A 
ATOM     63  C   UNL     1       8.668 -13.629  -0.418  1.00  0.00     0.173 A 
ATOM     64  C   UNL     1      10.735 -12.408  -0.572  1.00  0.00     0.173 A 
ATOM     65  F   UNL     1       7.330 -13.668  -0.328  1.00  0.00    -0.203 F 
ATOM     66  C   UNL     1       9.380 -14.824  -0.384  1.00  0.00     0.198 A 
ATOM     67  C   UNL     1      11.441 -13.607  -0.566  1.00  0.00     0.198 A 
ATOM     68  F   UNL     1      11.416 -11.256  -0.656  1.00  0.00    -0.203 F 
ATOM     69  F   UNL     1       8.726 -15.987  -0.256  1.00  0.00    -0.200 F 
ATOM     70  C   UNL     1      10.764 -14.813  -0.464  1.00  0.00     0.200 A 
ATOM     71  F   UNL     1      12.779 -13.594  -0.654  1.00  0.00    -0.200 F 
ATOM     72  F   UNL     1      11.448 -15.965  -0.434  1.00  0.00    -0.200 F 
ENDBRANCH  39  62
ENDBRANCH  13  14
ENDBRANCH   6   8
ENDBRANCH   3   4
ENDBRANCH   2   3
ENDBRANCH   1   2
BRANCH   1  73
ATOM     73  C   UNL     1       4.146   4.190  -1.264  1.00  0.00     0.116 C 
BRANCH  73  74
ATOM     74  N   UNL     1       5.540   4.549  -1.369  1.00  0.00    -0.351 N 
ATOM     75  C   UNL     1       6.138   5.746  -1.080  1.00  0.00     0.262 C 
ATOM     76  H   UNL     1       6.140   3.839  -1.693  1.00  0.00     0.163 HD
ATOM     77  O   UNL     1       7.284   5.901  -1.501  1.00  0.00    -0.268 OA
BRANCH  75  78
ATOM     78  C   UNL     1       5.396   6.792  -0.412  1.00  0.00     0.112 A 
ATOM     79  S   UNL     1       5.292   8.268  -1.316  1.00  0.00    -0.137 S 
ATOM     80  C   UNL     1       4.790   6.919   0.829  1.00  0.00     0.111 A 
ATOM     81  C   UNL     1       4.397   9.048  -0.102  1.00  0.00     0.067 A 
ATOM     82  C   UNL     1       4.188   8.225   0.977  1.00  0.00     0.035 A 
BRANCH  80  83
ATOM     83  S   UNL     1       4.588   5.753   2.101  1.00  0.00     0.263 S 
ATOM     84  O   UNL     1       4.304   6.569   3.266  1.00  0.00    -0.201 OA
ATOM     85  O   UNL     1       3.522   4.905   1.604  1.00  0.00    -0.201 OA
BRANCH  83  86
ATOM     86  N   UNL     1       5.810   4.722   2.580  1.00  0.00    -0.277 N 
ATOM     87  H   UNL     1       5.708   4.256   3.441  1.00  0.00     0.180 HD
BRANCH  86  88
ATOM     88  C   UNL     1       6.991   4.474   1.825  1.00  0.00     0.072 A 
ATOM     89  C   UNL     1       7.162   3.182   1.304  1.00  0.00     0.029 A 
ATOM     90  C   UNL     1       7.983   5.463   1.653  1.00  0.00     0.061 A 
ATOM     91  C   UNL     1       8.290   2.864   0.552  1.00  0.00     0.002 A 
ATOM     92  C   UNL     1       9.103   5.115   0.879  1.00  0.00     0.028 A 
ATOM     93  C   UNL     1       9.255   3.837   0.329  1.00  0.00     0.002 A 
BRANCH  90  94
ATOM     94  N   UNL     1       7.928   6.708   2.259  1.00  0.00    -0.370 N 
ATOM     95  C   UNL     1       8.103   7.933   1.483  1.00  0.00     0.116 C 
ATOM     96  C   UNL     1       7.660   6.819   3.692  1.00  0.00     0.116 C 
ATOM     97  C   UNL     1       9.115   8.856   2.149  1.00  0.00     0.021 C 
ATOM     98  C   UNL     1       8.690   7.737   4.346  1.00  0.00     0.021 C 
ATOM     99  C   UNL     1       8.770   9.076   3.619  1.00  0.00     0.004 C 
ENDBRANCH  90  94
ENDBRANCH  86  88
ENDBRANCH  83  86
ENDBRANCH  80  83
ENDBRANCH  75  78
ENDBRANCH  73  74
ENDBRANCH   1  73
TORSDOF 15
