REMARK SMILES C=CCS(=O)(=O)N[C@H](CC(N)=O)C(=O)NCCCCNC(=O)c1ccc(-c2c3nc(c(-c4c(F)c(F)c(F)c(F)c4F)c4ccc([nH]4)c(-c4c(F)c(F)c(F)c(F)c4F)c4nc(c(-c5c(F)c(F)c(F)c(F)c5F)c5ccc2[nH]5)C=C4)C=C3)cc1
REMARK SMILES IDX 16 1 15 2 13 3 14 4 8 6 7 7 4 9 5 10 6 11 3 12 2 13 1 14
REMARK SMILES IDX 9 15 10 16 11 17 12 18 17 21 18 22 19 23 20 24 21 25 22 27
REMARK SMILES IDX 23 28 24 29 85 30 25 31 84 32 26 33 27 34 28 35 78 36 29 37
REMARK SMILES IDX 83 38 77 39 79 40 30 41 82 42 76 43 75 44 31 46 63 47 43 48
REMARK SMILES IDX 62 49 44 50 47 51 61 52 80 53 45 54 46 55 60 57 81 58 48 59
REMARK SMILES IDX 32 60 33 61 41 62 34 63 35 64 39 65 42 66 36 67 37 68 40 69
REMARK SMILES IDX 38 70 64 71 65 72 73 73 66 74 67 75 71 76 74 77 68 78 69 79
REMARK SMILES IDX 72 80 70 81 49 82 50 83 58 84 51 85 52 86 56 87 59 88 53 89
REMARK SMILES IDX 54 90 57 91 55 92
REMARK H PARENT 15 5 7 8 11 19 11 20 20 26 79 45 47 56
REMARK Flexibility Score: inf
ROOT
ATOM      1  C   UNL     1      -0.578   1.162  -5.946  1.00  0.00     0.116 C 
ENDROOT
BRANCH   1   2
ATOM      2  N   UNL     1      -0.039   2.060  -4.948  1.00  0.00    -0.355 N 
ATOM      3  C   UNL     1       0.385   1.815  -3.680  1.00  0.00     0.238 C 
ATOM      4  O   UNL     1       0.840   2.766  -3.035  1.00  0.00    -0.273 OA
ATOM      5  H   UNL     1       0.033   2.999  -5.233  1.00  0.00     0.163 HD
BRANCH   3   6
ATOM      6  C   UNL     1       0.309   0.427  -3.048  1.00  0.00     0.168 C 
BRANCH   6   7
ATOM      7  N   UNL     1       0.912  -0.699  -3.800  1.00  0.00    -0.202 NA
ATOM      8  H   UNL     1       0.961  -1.479  -3.145  1.00  0.00     0.141 HD
BRANCH   7   9
ATOM      9  S   UNL     1       2.416  -0.615  -4.527  1.00  0.00     0.215 S 
ATOM     10  O   UNL     1       2.489   0.587  -5.330  1.00  0.00    -0.212 OA
ATOM     11  O   UNL     1       2.550  -1.906  -5.167  1.00  0.00    -0.212 OA
BRANCH   9  12
ATOM     12  C   UNL     1       3.619  -0.539  -3.177  1.00  0.00     0.180 C 
BRANCH  12  13
ATOM     13  C   UNL     1       3.578   0.792  -2.484  1.00  0.00    -0.017 C 
ATOM     14  C   UNL     1       3.499   0.951  -1.156  1.00  0.00     0.005 C 
ENDBRANCH  12  13
ENDBRANCH   9  12
ENDBRANCH   7   9
ENDBRANCH   6   7
BRANCH   6  15
ATOM     15  C   UNL     1      -1.066   0.032  -2.493  1.00  0.00     0.129 C 
BRANCH  15  16
ATOM     16  C   UNL     1      -2.266   0.549  -3.243  1.00  0.00     0.219 C 
ATOM     17  N   UNL     1      -2.907  -0.358  -4.035  1.00  0.00    -0.370 N 
ATOM     18  O   UNL     1      -2.672   1.701  -3.157  1.00  0.00    -0.275 OA
ATOM     19  H   UNL     1      -2.572  -1.282  -4.097  1.00  0.00     0.159 HD
ATOM     20  H   UNL     1      -3.704  -0.089  -4.546  1.00  0.00     0.159 HD
ENDBRANCH  15  16
ENDBRANCH   6  15
ENDBRANCH   3   6
ENDBRANCH   1   2
BRANCH   1  21
ATOM     21  C   UNL     1      -1.873   1.714  -6.536  1.00  0.00     0.023 C 
BRANCH  21  22
ATOM     22  C   UNL     1      -1.677   2.934  -7.431  1.00  0.00     0.023 C 
BRANCH  22  23
ATOM     23  C   UNL     1      -0.823   2.670  -8.661  1.00  0.00     0.116 C 
BRANCH  23  24
ATOM     24  N   UNL     1      -1.412   1.672  -9.545  1.00  0.00    -0.352 N 
ATOM     25  C   UNL     1      -1.625   1.762 -10.899  1.00  0.00     0.251 C 
ATOM     26  H   UNL     1      -1.692   0.829  -9.120  1.00  0.00     0.163 HD
ATOM     27  O   UNL     1      -2.274   0.916 -11.502  1.00  0.00    -0.269 OA
BRANCH  25  28
ATOM     28  C   UNL     1      -1.067   2.927 -11.608  1.00  0.00     0.039 A 
ATOM     29  C   UNL     1      -1.911   3.739 -12.368  1.00  0.00     0.014 A 
ATOM     30  C   UNL     1       0.278   3.257 -11.426  1.00  0.00     0.014 A 
ATOM     31  C   UNL     1      -1.415   4.931 -12.896  1.00  0.00     0.010 A 
ATOM     32  C   UNL     1       0.744   4.481 -11.879  1.00  0.00     0.010 A 
ATOM     33  C   UNL     1      -0.095   5.326 -12.625  1.00  0.00    -0.014 A 
BRANCH  33  34
ATOM     34  C   UNL     1       0.471   6.593 -13.145  1.00  0.00     0.031 A 
ATOM     35  C   UNL     1       1.639   6.529 -14.089  1.00  0.00     0.074 A 
ATOM     36  C   UNL     1       0.013   7.779 -12.703  1.00  0.00     0.049 A 
ATOM     37  N   UNL     1       2.417   7.490 -14.517  1.00  0.00    -0.248 NA
ATOM     38  C   UNL     1       2.009   5.191 -14.583  1.00  0.00     0.031 C 
ATOM     39  C   UNL     1      -1.093   7.967 -11.763  1.00  0.00     0.029 A 
ATOM     40  N   UNL     1       0.439   9.055 -12.974  1.00  0.00    -0.354 N 
ATOM     41  C   UNL     1       3.383   6.868 -15.296  1.00  0.00     0.074 A 
ATOM     42  C   UNL     1       3.129   5.446 -15.241  1.00  0.00     0.031 C 
ATOM     43  C   UNL     1      -1.270   9.282 -11.549  1.00  0.00     0.029 A 
ATOM     44  C   UNL     1      -0.263  10.025 -12.300  1.00  0.00     0.049 A 
ATOM     45  H   UNL     1       1.178   9.256 -13.592  1.00  0.00     0.167 HD
ATOM     46  C   UNL     1       4.379   7.436 -16.015  1.00  0.00     0.037 A 
ATOM     47  C   UNL     1      -0.097  11.362 -12.286  1.00  0.00     0.037 A 
ATOM     48  C   UNL     1       4.595   8.854 -16.104  1.00  0.00     0.049 A 
ATOM     49  C   UNL     1       1.010  11.970 -13.107  1.00  0.00     0.074 A 
ATOM     50  C   UNL     1       5.552   9.538 -16.831  1.00  0.00     0.029 A 
ATOM     51  N   UNL     1       3.826   9.806 -15.452  1.00  0.00    -0.354 N 
ATOM     52  N   UNL     1       1.900  11.377 -13.865  1.00  0.00    -0.248 NA
ATOM     53  C   UNL     1       1.132  13.434 -13.074  1.00  0.00     0.031 C 
ATOM     54  C   UNL     1       5.375  10.907 -16.603  1.00  0.00     0.029 A 
ATOM     55  C   UNL     1       4.284  11.074 -15.765  1.00  0.00     0.049 A 
ATOM     56  H   UNL     1       3.068   9.610 -14.855  1.00  0.00     0.167 HD
ATOM     57  C   UNL     1       2.658  12.393 -14.430  1.00  0.00     0.074 A 
ATOM     58  C   UNL     1       2.123  13.642 -13.930  1.00  0.00     0.031 C 
ATOM     59  C   UNL     1       3.705  12.302 -15.286  1.00  0.00     0.037 A 
BRANCH  46  60
ATOM     60  C   UNL     1       5.293   6.520 -16.774  1.00  0.00     0.064 A 
ATOM     61  C   UNL     1       4.848   5.808 -17.898  1.00  0.00     0.173 A 
ATOM     62  C   UNL     1       6.632   6.367 -16.388  1.00  0.00     0.173 A 
ATOM     63  F   UNL     1       3.571   5.908 -18.298  1.00  0.00    -0.203 F 
ATOM     64  C   UNL     1       5.701   4.954 -18.590  1.00  0.00     0.198 A 
ATOM     65  C   UNL     1       7.492   5.535 -17.101  1.00  0.00     0.198 A 
ATOM     66  F   UNL     1       7.110   7.027 -15.322  1.00  0.00    -0.203 F 
ATOM     67  F   UNL     1       5.239   4.244 -19.628  1.00  0.00    -0.200 F 
ATOM     68  C   UNL     1       7.024   4.824 -18.195  1.00  0.00     0.200 A 
ATOM     69  F   UNL     1       8.774   5.419 -16.726  1.00  0.00    -0.200 F 
ATOM     70  F   UNL     1       7.847   4.006 -18.866  1.00  0.00    -0.200 F 
ENDBRANCH  46  60
BRANCH  47  71
ATOM     71  C   UNL     1      -1.015  12.224 -11.496  1.00  0.00     0.064 A 
ATOM     72  C   UNL     1      -1.929  13.071 -12.139  1.00  0.00     0.173 A 
ATOM     73  C   UNL     1      -0.984  12.242 -10.094  1.00  0.00     0.173 A 
ATOM     74  F   UNL     1      -1.980  13.105 -13.479  1.00  0.00    -0.203 F 
ATOM     75  C   UNL     1      -2.757  13.924 -11.412  1.00  0.00     0.198 A 
ATOM     76  C   UNL     1      -1.833  13.075  -9.367  1.00  0.00     0.198 A 
ATOM     77  F   UNL     1      -0.132  11.448  -9.430  1.00  0.00    -0.203 F 
ATOM     78  F   UNL     1      -3.583  14.760 -12.055  1.00  0.00    -0.200 F 
ATOM     79  C   UNL     1      -2.711  13.923 -10.027  1.00  0.00     0.200 A 
ATOM     80  F   UNL     1      -1.793  13.065  -8.028  1.00  0.00    -0.200 F 
ATOM     81  F   UNL     1      -3.505  14.745  -9.328  1.00  0.00    -0.200 F 
ENDBRANCH  47  71
BRANCH  59  82
ATOM     82  C   UNL     1       4.293  13.583 -15.797  1.00  0.00     0.064 A 
ATOM     83  C   UNL     1       5.106  14.393 -14.994  1.00  0.00     0.173 A 
ATOM     84  C   UNL     1       4.089  13.965 -17.132  1.00  0.00     0.173 A 
ATOM     85  F   UNL     1       5.317  14.075 -13.709  1.00  0.00    -0.203 F 
ATOM     86  C   UNL     1       5.682  15.553 -15.506  1.00  0.00     0.198 A 
ATOM     87  C   UNL     1       4.688  15.110 -17.647  1.00  0.00     0.198 A 
ATOM     88  F   UNL     1       3.324  13.216 -17.941  1.00  0.00    -0.203 F 
ATOM     89  F   UNL     1       6.429  16.333 -14.713  1.00  0.00    -0.200 F 
ATOM     90  C   UNL     1       5.480  15.905 -16.833  1.00  0.00     0.200 A 
ATOM     91  F   UNL     1       4.503  15.441 -18.932  1.00  0.00    -0.200 F 
ATOM     92  F   UNL     1       6.048  17.014 -17.326  1.00  0.00    -0.200 F 
ENDBRANCH  59  82
ENDBRANCH  33  34
ENDBRANCH  25  28
ENDBRANCH  23  24
ENDBRANCH  22  23
ENDBRANCH  21  22
ENDBRANCH   1  21
TORSDOF 17
