REMARK SMILES O=C(NCCCCNC(=O)c1sccc1S(=O)(=O)Nc1ccc(-c2nc3ccccc3n2C(F)F)cc1)c1ccc(-c2c3nc(c(-c4c(F)c(F)c(F)c(F)c4F)c4ccc([nH]4)c(-c4c(F)c(F)c(F)c(F)c4F)c4nc(c(-c5c(F)c(F)c(F)c(F)c5F)c5ccc2[nH]5)C=C4)C=C3)cc1
REMARK SMILES IDX 7 1 6 2 5 3 4 4 3 5 1 6 2 7 38 9 39 10 100 11 40 12 99 13
REMARK SMILES IDX 41 14 42 15 43 16 93 17 44 18 98 19 92 20 94 21 45 22 97 23
REMARK SMILES IDX 91 24 90 25 46 27 78 28 58 29 77 30 59 31 62 32 76 33 95 34
REMARK SMILES IDX 60 35 61 36 75 38 96 39 63 40 47 41 48 42 56 43 49 44 50 45
REMARK SMILES IDX 54 46 57 47 51 48 52 49 55 50 53 51 79 52 80 53 88 54 81 55
REMARK SMILES IDX 82 56 86 57 89 58 83 59 84 60 87 61 85 62 64 63 65 64 73 65
REMARK SMILES IDX 66 66 67 67 71 68 74 69 68 70 69 71 72 72 70 73 8 74 9 75
REMARK SMILES IDX 10 77 11 78 12 79 15 80 13 81 14 82 16 83 17 84 18 85 19 86
REMARK SMILES IDX 20 88 21 89 37 90 22 91 36 92 23 93 24 94 25 95 32 96 26 97
REMARK SMILES IDX 31 98 27 99 30 100 28 101 29 102 33 103 34 104 35 105
REMARK H PARENT 3 8 94 26 62 37 8 76 19 87
REMARK Flexibility Score: inf
ROOT
ATOM      1  C   UNL     1       4.367   3.174   3.178  1.00  0.00     0.116 C 
ENDROOT
BRANCH   1   2
ATOM      2  C   UNL     1       3.842   3.349   1.755  1.00  0.00     0.023 C 
BRANCH   2   3
ATOM      3  C   UNL     1       4.486   2.435   0.705  1.00  0.00     0.023 C 
BRANCH   3   4
ATOM      4  C   UNL     1       4.334   0.938   0.965  1.00  0.00     0.116 C 
BRANCH   4   5
ATOM      5  N   UNL     1       2.984   0.422   0.978  1.00  0.00    -0.352 N 
ATOM      6  O   UNL     1       1.062  -0.481   0.328  1.00  0.00    -0.269 OA
ATOM      7  C   UNL     1       2.072   0.142  -0.001  1.00  0.00     0.251 C 
ATOM      8  H   UNL     1       2.651   0.231   1.884  1.00  0.00     0.163 HD
BRANCH   7   9
ATOM      9  C   UNL     1       2.191   0.617  -1.400  1.00  0.00     0.039 A 
ATOM     10  C   UNL     1       3.391   0.838  -2.076  1.00  0.00     0.014 A 
ATOM     11  C   UNL     1       0.977   0.838  -2.072  1.00  0.00     0.014 A 
ATOM     12  C   UNL     1       3.381   1.361  -3.367  1.00  0.00     0.010 A 
ATOM     13  C   UNL     1       0.962   1.325  -3.373  1.00  0.00     0.010 A 
ATOM     14  C   UNL     1       2.166   1.615  -4.012  1.00  0.00    -0.014 A 
BRANCH  14  15
ATOM     15  C   UNL     1       2.200   2.030  -5.414  1.00  0.00     0.031 A 
ATOM     16  C   UNL     1       2.752   1.030  -6.380  1.00  0.00     0.074 A 
ATOM     17  C   UNL     1       1.599   3.145  -5.876  1.00  0.00     0.049 A 
ATOM     18  N   UNL     1       3.660   1.194  -7.290  1.00  0.00    -0.248 NA
ATOM     19  C   UNL     1       2.238  -0.347  -6.293  1.00  0.00     0.031 C 
ATOM     20  C   UNL     1       0.733   4.067  -5.140  1.00  0.00     0.029 A 
ATOM     21  N   UNL     1       1.547   3.619  -7.156  1.00  0.00    -0.354 N 
ATOM     22  C   UNL     1       3.736  -0.014  -7.985  1.00  0.00     0.074 A 
ATOM     23  C   UNL     1       2.903  -0.951  -7.277  1.00  0.00     0.031 C 
ATOM     24  C   UNL     1       0.076   4.855  -6.021  1.00  0.00     0.029 A 
ATOM     25  C   UNL     1       0.566   4.576  -7.361  1.00  0.00     0.049 A 
ATOM     26  H   UNL     1       2.151   3.308  -7.868  1.00  0.00     0.167 HD
ATOM     27  C   UNL     1       4.355  -0.128  -9.193  1.00  0.00     0.037 A 
ATOM     28  C   UNL     1       0.133   5.053  -8.553  1.00  0.00     0.037 A 
ATOM     29  C   UNL     1       5.287   0.938  -9.425  1.00  0.00     0.049 A 
ATOM     30  C   UNL     1       1.158   4.743  -9.577  1.00  0.00     0.074 A 
ATOM     31  C   UNL     1       6.435   1.379  -8.795  1.00  0.00     0.029 A 
ATOM     32  N   UNL     1       4.950   1.933 -10.305  1.00  0.00    -0.354 N 
ATOM     33  N   UNL     1       2.325   5.316  -9.655  1.00  0.00    -0.248 NA
ATOM     34  C   UNL     1       1.014   3.512 -10.338  1.00  0.00     0.031 C 
ATOM     35  C   UNL     1       6.433   2.794  -8.967  1.00  0.00     0.029 A 
ATOM     36  C   UNL     1       5.296   3.117  -9.707  1.00  0.00     0.049 A 
ATOM     37  H   UNL     1       4.540   1.819 -11.193  1.00  0.00     0.167 HD
ATOM     38  C   UNL     1       3.172   4.322 -10.118  1.00  0.00     0.074 A 
ATOM     39  C   UNL     1       2.293   3.282 -10.637  1.00  0.00     0.031 C 
ATOM     40  C   UNL     1       4.494   4.313  -9.781  1.00  0.00     0.037 A 
BRANCH  27  41
ATOM     41  C   UNL     1       3.909  -1.060 -10.292  1.00  0.00     0.064 A 
ATOM     42  C   UNL     1       4.733  -1.261 -11.419  1.00  0.00     0.173 A 
ATOM     43  C   UNL     1       2.584  -1.530 -10.416  1.00  0.00     0.173 A 
ATOM     44  F   UNL     1       6.002  -0.827 -11.424  1.00  0.00    -0.203 F 
ATOM     45  C   UNL     1       4.246  -1.831 -12.599  1.00  0.00     0.198 A 
ATOM     46  C   UNL     1       2.117  -2.147 -11.576  1.00  0.00     0.198 A 
ATOM     47  F   UNL     1       1.667  -1.312  -9.464  1.00  0.00    -0.203 F 
ATOM     48  F   UNL     1       5.032  -1.892 -13.682  1.00  0.00    -0.200 F 
ATOM     49  C   UNL     1       2.938  -2.271 -12.677  1.00  0.00     0.200 A 
ATOM     50  F   UNL     1       0.839  -2.549 -11.640  1.00  0.00    -0.200 F 
ATOM     51  F   UNL     1       2.453  -2.765 -13.824  1.00  0.00    -0.200 F 
ENDBRANCH  27  41
BRANCH  28  52
ATOM     52  C   UNL     1      -1.215   5.543  -8.917  1.00  0.00     0.064 A 
ATOM     53  C   UNL     1      -1.414   6.340 -10.056  1.00  0.00     0.173 A 
ATOM     54  C   UNL     1      -2.371   5.023  -8.305  1.00  0.00     0.173 A 
ATOM     55  F   UNL     1      -0.364   6.835 -10.726  1.00  0.00    -0.203 F 
ATOM     56  C   UNL     1      -2.694   6.585 -10.563  1.00  0.00     0.198 A 
ATOM     57  C   UNL     1      -3.648   5.279  -8.803  1.00  0.00     0.198 A 
ATOM     58  F   UNL     1      -2.280   4.180  -7.267  1.00  0.00    -0.203 F 
ATOM     59  F   UNL     1      -2.842   7.298 -11.688  1.00  0.00    -0.200 F 
ATOM     60  C   UNL     1      -3.809   6.049  -9.940  1.00  0.00     0.200 A 
ATOM     61  F   UNL     1      -4.716   4.725  -8.211  1.00  0.00    -0.200 F 
ATOM     62  F   UNL     1      -5.031   6.237 -10.457  1.00  0.00    -0.200 F 
ENDBRANCH  28  52
BRANCH  40  63
ATOM     63  C   UNL     1       5.072   5.558  -9.174  1.00  0.00     0.064 A 
ATOM     64  C   UNL     1       4.644   6.101  -7.950  1.00  0.00     0.173 A 
ATOM     65  C   UNL     1       6.190   6.142  -9.785  1.00  0.00     0.173 A 
ATOM     66  F   UNL     1       3.656   5.530  -7.249  1.00  0.00    -0.203 F 
ATOM     67  C   UNL     1       5.275   7.212  -7.395  1.00  0.00     0.198 A 
ATOM     68  C   UNL     1       6.843   7.227  -9.207  1.00  0.00     0.198 A 
ATOM     69  F   UNL     1       6.683   5.625 -10.922  1.00  0.00    -0.203 F 
ATOM     70  F   UNL     1       4.840   7.721  -6.233  1.00  0.00    -0.200 F 
ATOM     71  C   UNL     1       6.378   7.770  -8.020  1.00  0.00     0.200 A 
ATOM     72  F   UNL     1       7.943   7.728  -9.786  1.00  0.00    -0.200 F 
ATOM     73  F   UNL     1       7.013   8.810  -7.463  1.00  0.00    -0.200 F 
ENDBRANCH  40  63
ENDBRANCH  14  15
ENDBRANCH   7   9
ENDBRANCH   4   5
ENDBRANCH   3   4
ENDBRANCH   2   3
ENDBRANCH   1   2
BRANCH   1  74
ATOM     74  N   UNL     1       5.770   3.510   3.279  1.00  0.00    -0.351 N 
ATOM     75  C   UNL     1       6.498   3.880   4.377  1.00  0.00     0.262 C 
ATOM     76  H   UNL     1       6.274   3.467   2.435  1.00  0.00     0.163 HD
ATOM     77  O   UNL     1       7.623   4.333   4.154  1.00  0.00    -0.268 OA
BRANCH  75  78
ATOM     78  C   UNL     1       5.923   3.809   5.702  1.00  0.00     0.112 A 
ATOM     79  S   UNL     1       6.017   5.284   6.606  1.00  0.00    -0.137 S 
ATOM     80  C   UNL     1       5.364   2.798   6.468  1.00  0.00     0.111 A 
ATOM     81  C   UNL     1       5.248   4.605   7.961  1.00  0.00     0.067 A 
ATOM     82  C   UNL     1       4.940   3.283   7.758  1.00  0.00     0.035 A 
BRANCH  80  83
ATOM     83  S   UNL     1       5.153   1.111   6.108  1.00  0.00     0.263 S 
ATOM     84  O   UNL     1       5.759   0.442   7.231  1.00  0.00    -0.201 OA
ATOM     85  O   UNL     1       3.719   1.018   5.880  1.00  0.00    -0.201 OA
BRANCH  83  86
ATOM     86  N   UNL     1       5.852   0.537   4.715  1.00  0.00    -0.280 N 
ATOM     87  H   UNL     1       5.278   0.024   4.101  1.00  0.00     0.180 HD
BRANCH  86  88
ATOM     88  C   UNL     1       7.203   0.724   4.336  1.00  0.00     0.049 A 
ATOM     89  C   UNL     1       7.477   0.571   2.974  1.00  0.00     0.027 A 
ATOM     90  C   UNL     1       8.188   1.211   5.178  1.00  0.00     0.027 A 
ATOM     91  C   UNL     1       8.632   1.118   2.414  1.00  0.00     0.014 A 
ATOM     92  C   UNL     1       9.351   1.742   4.617  1.00  0.00     0.014 A 
ATOM     93  C   UNL     1       9.543   1.792   3.222  1.00  0.00     0.018 A 
BRANCH  93  94
ATOM     94  C   UNL     1      10.664   2.601   2.722  1.00  0.00     0.145 A 
ATOM     95  N   UNL     1      11.764   2.778   3.435  1.00  0.00    -0.228 NA
ATOM     96  N   UNL     1      10.706   3.409   1.595  1.00  0.00    -0.266 N 
ATOM     97  C   UNL     1      12.465   3.781   2.837  1.00  0.00     0.089 A 
ATOM     98  C   UNL     1      11.833   4.209   1.678  1.00  0.00     0.074 A 
ATOM     99  C   UNL     1      13.653   4.392   3.257  1.00  0.00     0.030 A 
ATOM    100  C   UNL     1      12.350   5.249   0.890  1.00  0.00     0.029 A 
ATOM    101  C   UNL     1      14.180   5.434   2.491  1.00  0.00     0.002 A 
ATOM    102  C   UNL     1      13.536   5.854   1.327  1.00  0.00     0.002 A 
BRANCH  96 103
ATOM    103  C   UNL     1       9.748   3.470   0.513  1.00  0.00     0.451 C 
ATOM    104  F   UNL     1       9.757   2.320  -0.217  1.00  0.00    -0.185 F 
ATOM    105  F   UNL     1       8.469   3.648   0.942  1.00  0.00    -0.185 F 
ENDBRANCH  96 103
ENDBRANCH  93  94
ENDBRANCH  86  88
ENDBRANCH  83  86
ENDBRANCH  80  83
ENDBRANCH  75  78
ENDBRANCH   1  74
TORSDOF 16
