REMARK SMILES NC(=O)c1ccc(NC(=O)Cc2ccccc2C(=O)NCCCCNC(=O)c2ccc(-c3c4nc(c(-c5c(F)c(F)c(F)c(F)c5F)c5ccc([nH]5)c(-c5c(F)c(F)c(F)c(F)c5F)c5nc(c(-c6c(F)c(F)c(F)c(F)c6F)c6ccc3[nH]6)C=C5)C=C4)cc2)cc1
REMARK SMILES IDX 21 1 20 2 18 3 19 4 17 6 12 7 13 8 14 9 16 10 15 11 11 12
REMARK SMILES IDX 9 13 8 14 10 16 7 17 4 18 5 19 92 20 6 21 91 22 2 23 1 24
REMARK SMILES IDX 3 27 22 28 23 29 24 30 25 31 26 32 27 34 28 35 29 36 90 37
REMARK SMILES IDX 30 38 89 39 31 40 32 41 33 42 83 43 34 44 88 45 82 46 84 47
REMARK SMILES IDX 35 48 87 49 81 50 80 51 36 53 68 54 48 55 67 56 49 57 52 58
REMARK SMILES IDX 66 59 85 60 50 61 51 62 65 64 86 65 53 66 37 67 38 68 46 69
REMARK SMILES IDX 39 70 40 71 44 72 47 73 41 74 42 75 45 76 43 77 69 78 70 79
REMARK SMILES IDX 78 80 71 81 72 82 76 83 79 84 73 85 74 86 77 87 75 88 54 89
REMARK SMILES IDX 55 90 63 91 56 92 57 93 61 94 64 95 58 96 59 97 62 98 60 99
REMARK H PARENT 20 5 8 15 1 25 1 26 25 33 84 52 52 63
REMARK Flexibility Score: inf
ROOT
ATOM      1  C   UNL     1       1.852   4.348   4.630  1.00  0.00     0.116 C 
ENDROOT
BRANCH   1   2
ATOM      2  N   UNL     1       0.400   4.264   4.647  1.00  0.00    -0.352 N 
ATOM      3  C   UNL     1      -0.728   4.812   4.112  1.00  0.00     0.251 C 
ATOM      4  O   UNL     1      -1.755   4.297   4.578  1.00  0.00    -0.269 OA
ATOM      5  H   UNL     1       0.135   3.552   5.273  1.00  0.00     0.163 HD
BRANCH   3   6
ATOM      6  C   UNL     1      -0.917   5.852   3.027  1.00  0.00     0.043 A 
ATOM      7  C   UNL     1      -0.077   6.888   2.552  1.00  0.00    -0.026 A 
ATOM      8  C   UNL     1      -0.586   7.796   1.586  1.00  0.00     0.005 A 
ATOM      9  C   UNL     1      -1.846   7.644   1.017  1.00  0.00     0.000 A 
ATOM     10  C   UNL     1      -2.168   5.694   2.372  1.00  0.00     0.014 A 
ATOM     11  C   UNL     1      -2.624   6.564   1.381  1.00  0.00     0.001 A 
BRANCH   7  12
ATOM     12  C   UNL     1       1.333   7.167   2.982  1.00  0.00     0.136 C 
BRANCH  12  13
ATOM     13  C   UNL     1       2.449   7.155   1.926  1.00  0.00     0.228 C 
ATOM     14  N   UNL     1       2.826   6.160   1.070  1.00  0.00    -0.326 N 
ATOM     15  H   UNL     1       3.623   6.421   0.555  1.00  0.00     0.169 HD
ATOM     16  O   UNL     1       3.178   8.163   1.870  1.00  0.00    -0.274 OA
BRANCH  14  17
ATOM     17  C   UNL     1       2.395   4.867   0.717  1.00  0.00     0.041 A 
ATOM     18  C   UNL     1       1.546   2.285  -0.091  1.00  0.00     0.039 A 
ATOM     19  C   UNL     1       0.868   2.973   0.900  1.00  0.00     0.016 A 
ATOM     20  C   UNL     1       2.668   2.873  -0.682  1.00  0.00     0.016 A 
ATOM     21  C   UNL     1       1.319   4.230   1.292  1.00  0.00     0.027 A 
ATOM     22  C   UNL     1       3.081   4.163  -0.284  1.00  0.00     0.027 A 
BRANCH  18  23
ATOM     23  C   UNL     1       1.012   0.958  -0.461  1.00  0.00     0.248 C 
ATOM     24  N   UNL     1       1.917  -0.048  -0.620  1.00  0.00    -0.366 N 
ATOM     25  H   UNL     1       1.611  -0.951  -0.866  1.00  0.00     0.159 HD
ATOM     26  H   UNL     1       2.876   0.127  -0.488  1.00  0.00     0.159 HD
ATOM     27  O   UNL     1      -0.192   0.757  -0.546  1.00  0.00    -0.270 OA
ENDBRANCH  18  23
ENDBRANCH  14  17
ENDBRANCH  12  13
ENDBRANCH   7  12
ENDBRANCH   3   6
ENDBRANCH   1   2
BRANCH   1  28
ATOM     28  C   UNL     1       2.352   5.031   5.910  1.00  0.00     0.023 C 
BRANCH  28  29
ATOM     29  C   UNL     1       3.568   4.334   6.511  1.00  0.00     0.023 C 
BRANCH  29  30
ATOM     30  C   UNL     1       4.808   4.399   5.631  1.00  0.00     0.116 C 
BRANCH  30  31
ATOM     31  N   UNL     1       5.483   5.686   5.717  1.00  0.00    -0.352 N 
ATOM     32  C   UNL     1       6.746   5.967   6.186  1.00  0.00     0.251 C 
ATOM     33  H   UNL     1       4.966   6.460   5.396  1.00  0.00     0.163 HD
ATOM     34  O   UNL     1       7.109   7.127   6.358  1.00  0.00    -0.269 OA
BRANCH  32  35
ATOM     35  C   UNL     1       7.658   4.853   6.521  1.00  0.00     0.039 A 
ATOM     36  C   UNL     1       8.293   4.845   7.764  1.00  0.00     0.014 A 
ATOM     37  C   UNL     1       7.838   3.793   5.628  1.00  0.00     0.014 A 
ATOM     38  C   UNL     1       9.039   3.728   8.148  1.00  0.00     0.010 A 
ATOM     39  C   UNL     1       8.506   2.647   6.047  1.00  0.00     0.010 A 
ATOM     40  C   UNL     1       9.110   2.600   7.312  1.00  0.00    -0.014 A 
BRANCH  40  41
ATOM     41  C   UNL     1       9.795   1.359   7.758  1.00  0.00     0.031 A 
ATOM     42  C   UNL     1      10.999   0.850   7.016  1.00  0.00     0.074 A 
ATOM     43  C   UNL     1       9.294   0.657   8.793  1.00  0.00     0.049 A 
ATOM     44  N   UNL     1      11.708  -0.230   7.231  1.00  0.00    -0.248 NA
ATOM     45  C   UNL     1      11.449   1.640   5.860  1.00  0.00     0.031 C 
ATOM     46  C   UNL     1       8.092   1.009   9.551  1.00  0.00     0.029 A 
ATOM     47  N   UNL     1       9.729  -0.503   9.385  1.00  0.00    -0.354 N 
ATOM     48  C   UNL     1      12.676  -0.251   6.236  1.00  0.00     0.074 A 
ATOM     49  C   UNL     1      12.425   0.886   5.378  1.00  0.00     0.031 C 
ATOM     50  C   UNL     1       7.905   0.105  10.527  1.00  0.00     0.029 A 
ATOM     51  C   UNL     1       8.952  -0.908  10.443  1.00  0.00     0.049 A 
ATOM     52  H   UNL     1      10.524  -0.997   9.080  1.00  0.00     0.167 HD
ATOM     53  C   UNL     1      13.699  -1.123   6.069  1.00  0.00     0.037 A 
ATOM     54  C   UNL     1       9.072  -1.976  11.255  1.00  0.00     0.037 A 
ATOM     55  C   UNL     1      13.962  -2.238   6.940  1.00  0.00     0.049 A 
ATOM     56  C   UNL     1      10.224  -2.923  11.054  1.00  0.00     0.074 A 
ATOM     57  C   UNL     1      15.012  -3.139   6.896  1.00  0.00     0.029 A 
ATOM     58  N   UNL     1      13.165  -2.606   8.014  1.00  0.00    -0.354 N 
ATOM     59  N   UNL     1      11.181  -2.885  10.159  1.00  0.00    -0.248 NA
ATOM     60  C   UNL     1      10.317  -4.057  11.984  1.00  0.00     0.031 C 
ATOM     61  C   UNL     1      14.824  -4.079   7.915  1.00  0.00     0.029 A 
ATOM     62  C   UNL     1      13.686  -3.735   8.626  1.00  0.00     0.049 A 
ATOM     63  H   UNL     1      12.349  -2.134   8.299  1.00  0.00     0.167 HD
ATOM     64  C   UNL     1      12.001  -3.972  10.430  1.00  0.00     0.074 A 
ATOM     65  C   UNL     1      11.441  -4.637  11.588  1.00  0.00     0.031 C 
ATOM     66  C   UNL     1      13.115  -4.385   9.777  1.00  0.00     0.037 A 
BRANCH  53  67
ATOM     67  C   UNL     1      14.618  -0.898   4.903  1.00  0.00     0.064 A 
ATOM     68  C   UNL     1      15.498   0.195   4.860  1.00  0.00     0.173 A 
ATOM     69  C   UNL     1      14.644  -1.802   3.830  1.00  0.00     0.173 A 
ATOM     70  F   UNL     1      15.503   1.097   5.854  1.00  0.00    -0.203 F 
ATOM     71  C   UNL     1      16.347   0.391   3.774  1.00  0.00     0.198 A 
ATOM     72  C   UNL     1      15.518  -1.621   2.761  1.00  0.00     0.198 A 
ATOM     73  F   UNL     1      13.827  -2.866   3.821  1.00  0.00    -0.203 F 
ATOM     74  F   UNL     1      17.140   1.470   3.732  1.00  0.00    -0.200 F 
ATOM     75  C   UNL     1      16.362  -0.521   2.729  1.00  0.00     0.200 A 
ATOM     76  F   UNL     1      15.539  -2.509   1.757  1.00  0.00    -0.200 F 
ATOM     77  F   UNL     1      17.184  -0.335   1.688  1.00  0.00    -0.200 F 
ENDBRANCH  53  67
BRANCH  54  78
ATOM     78  C   UNL     1       8.094  -2.190  12.354  1.00  0.00     0.064 A 
ATOM     79  C   UNL     1       8.475  -2.045  13.695  1.00  0.00     0.173 A 
ATOM     80  C   UNL     1       6.766  -2.554  12.090  1.00  0.00     0.173 A 
ATOM     81  F   UNL     1       9.740  -1.719  14.000  1.00  0.00    -0.203 F 
ATOM     82  C   UNL     1       7.572  -2.278  14.731  1.00  0.00     0.198 A 
ATOM     83  C   UNL     1       5.856  -2.758  13.125  1.00  0.00     0.198 A 
ATOM     84  F   UNL     1       6.348  -2.700  10.824  1.00  0.00    -0.203 F 
ATOM     85  F   UNL     1       7.977  -2.180  16.004  1.00  0.00    -0.200 F 
ATOM     86  C   UNL     1       6.262  -2.629  14.445  1.00  0.00     0.200 A 
ATOM     87  F   UNL     1       4.586  -3.082  12.844  1.00  0.00    -0.200 F 
ATOM     88  F   UNL     1       5.393  -2.850  15.440  1.00  0.00    -0.200 F 
ENDBRANCH  54  78
BRANCH  66  89
ATOM     89  C   UNL     1      13.813  -5.600  10.316  1.00  0.00     0.064 A 
ATOM     90  C   UNL     1      13.257  -6.882  10.195  1.00  0.00     0.173 A 
ATOM     91  C   UNL     1      15.066  -5.483  10.938  1.00  0.00     0.173 A 
ATOM     92  F   UNL     1      12.055  -7.044   9.622  1.00  0.00    -0.203 F 
ATOM     93  C   UNL     1      13.914  -7.998  10.705  1.00  0.00     0.198 A 
ATOM     94  C   UNL     1      15.735  -6.605  11.418  1.00  0.00     0.198 A 
ATOM     95  F   UNL     1      15.646  -4.281  11.072  1.00  0.00    -0.203 F 
ATOM     96  F   UNL     1      13.338  -9.206  10.626  1.00  0.00    -0.200 F 
ATOM     97  C   UNL     1      15.155  -7.860  11.309  1.00  0.00     0.200 A 
ATOM     98  F   UNL     1      16.940  -6.472  11.988  1.00  0.00    -0.200 F 
ATOM     99  F   UNL     1      15.788  -8.937  11.796  1.00  0.00    -0.200 F 
ENDBRANCH  66  89
ENDBRANCH  40  41
ENDBRANCH  32  35
ENDBRANCH  30  31
ENDBRANCH  29  30
ENDBRANCH  28  29
ENDBRANCH   1  28
TORSDOF 15
