REMARK SMILES CCOc1ccccc1[C@H]1CC(C(=O)NCCCCNC(=O)c2ccc(-c3c4nc(c(-c5c(F)c(F)c(F)c(F)c5F)c5ccc([nH]5)c(-c5c(F)c(F)c(F)c(F)c5F)c5nc(c(-c6c(F)c(F)c(F)c(F)c6F)c6ccc3[nH]6)C=C5)C=C4)cc2)=Nc2c(C(=O)Nc3ccccc3)cnn21
REMARK SMILES IDX 17 1 16 2 15 3 13 4 14 5 12 7 10 8 11 9 100 10 87 11 99 12
REMARK SMILES IDX 86 13 88 14 98 15 9 16 4 17 5 18 6 19 8 20 7 21 3 22 2 23
REMARK SMILES IDX 1 24 89 25 90 26 91 27 92 29 93 30 97 31 94 32 96 33 95 34
REMARK SMILES IDX 18 35 19 36 20 37 21 38 22 40 23 41 24 42 85 43 25 44 84 45
REMARK SMILES IDX 26 46 27 47 28 48 78 49 29 50 83 51 77 52 79 53 30 54 82 55
REMARK SMILES IDX 76 56 75 57 31 59 63 60 43 61 62 62 44 63 47 64 61 65 80 66
REMARK SMILES IDX 45 67 46 68 60 70 81 71 48 72 32 73 33 74 41 75 34 76 35 77
REMARK SMILES IDX 39 78 42 79 36 80 37 81 40 82 38 83 64 84 65 85 73 86 66 87
REMARK SMILES IDX 67 88 71 89 74 90 68 91 69 92 72 93 70 94 49 95 50 96 58 97
REMARK SMILES IDX 51 98 52 99 56 100 59 101 53 102 54 103 57 104 55 105
REMARK H PARENT 15 6 91 28 20 39 79 58 47 69
REMARK Flexibility Score: inf
ROOT
ATOM      1  C   UNL     1       1.196   3.071   4.047  1.00  0.00     0.023 C 
ENDROOT
BRANCH   1   2
ATOM      2  C   UNL     1       0.445   1.768   3.794  1.00  0.00     0.116 C 
BRANCH   2   3
ATOM      3  N   UNL     1      -0.622   1.807   2.800  1.00  0.00    -0.351 N 
ATOM      4  C   UNL     1      -0.900   1.023   1.685  1.00  0.00     0.265 C 
ATOM      5  O   UNL     1      -2.068   0.923   1.322  1.00  0.00    -0.268 OA
ATOM      6  H   UNL     1      -1.273   2.530   2.947  1.00  0.00     0.163 HD
BRANCH   4   7
ATOM      7  C   UNL     1       0.211   0.354   0.854  1.00  0.00     0.110 C 
ATOM      8  C   UNL     1       2.609  -0.669   0.830  1.00  0.00     0.150 C 
ATOM      9  C   UNL     1       1.465   0.033   1.554  1.00  0.00     0.094 C 
ATOM     10  N   UNL     1       2.363  -0.590  -0.609  1.00  0.00    -0.239 N 
ATOM     11  C   UNL     1       1.145  -0.176  -1.155  1.00  0.00     0.164 A 
ATOM     12  N   UNL     1       3.089  -1.304  -1.498  1.00  0.00    -0.178 NA
ATOM     13  N   UNL     1       0.067   0.216  -0.423  1.00  0.00    -0.227 NA
ATOM     14  C   UNL     1       1.347  -0.195  -2.529  1.00  0.00     0.104 A 
ATOM     15  C   UNL     1       2.490  -1.027  -2.665  1.00  0.00     0.151 A 
BRANCH   8  16
ATOM     16  C   UNL     1       3.838  -0.013   1.546  1.00  0.00     0.019 A 
ATOM     17  C   UNL     1       4.567   1.089   1.076  1.00  0.00     0.124 A 
ATOM     18  C   UNL     1       5.073   2.049   1.971  1.00  0.00     0.047 A 
ATOM     19  C   UNL     1       4.916   1.887   3.349  1.00  0.00     0.004 A 
ATOM     20  C   UNL     1       3.870  -0.244   2.949  1.00  0.00     0.010 A 
ATOM     21  C   UNL     1       4.365   0.711   3.839  1.00  0.00     0.001 A 
BRANCH  17  22
ATOM     22  O   UNL     1       4.967   1.064  -0.219  1.00  0.00    -0.494 OA
BRANCH  22  23
ATOM     23  C   UNL     1       4.888   2.272  -0.968  1.00  0.00     0.226 C 
ATOM     24  C   UNL     1       4.147   1.849  -2.207  1.00  0.00     0.049 C 
ENDBRANCH  22  23
ENDBRANCH  17  22
ENDBRANCH   8  16
BRANCH  14  25
ATOM     25  C   UNL     1       0.540   0.362  -3.611  1.00  0.00     0.261 C 
ATOM     26  O   UNL     1       0.606  -0.120  -4.745  1.00  0.00    -0.269 OA
ATOM     27  N   UNL     1      -0.356   1.401  -3.409  1.00  0.00    -0.322 N 
ATOM     28  H   UNL     1      -1.041   1.497  -4.109  1.00  0.00     0.170 HD
BRANCH  27  29
ATOM     29  C   UNL     1      -0.446   2.341  -2.368  1.00  0.00     0.041 A 
ATOM     30  C   UNL     1      -1.708   2.670  -1.875  1.00  0.00     0.026 A 
ATOM     31  C   UNL     1       0.677   2.948  -1.805  1.00  0.00     0.026 A 
ATOM     32  C   UNL     1      -1.826   3.476  -0.738  1.00  0.00     0.002 A 
ATOM     33  C   UNL     1       0.566   3.751  -0.667  1.00  0.00     0.002 A 
ATOM     34  C   UNL     1      -0.689   3.996  -0.119  1.00  0.00     0.000 A 
ENDBRANCH  27  29
ENDBRANCH  14  25
ENDBRANCH   4   7
ENDBRANCH   2   3
ENDBRANCH   1   2
BRANCH   1  35
ATOM     35  C   UNL     1       0.503   4.097   4.950  1.00  0.00     0.023 C 
BRANCH  35  36
ATOM     36  C   UNL     1      -0.123   3.544   6.229  1.00  0.00     0.116 C 
BRANCH  36  37
ATOM     37  N   UNL     1       0.810   2.821   7.095  1.00  0.00    -0.352 N 
ATOM     38  C   UNL     1       0.502   2.057   8.215  1.00  0.00     0.251 C 
ATOM     39  H   UNL     1       1.763   2.882   6.857  1.00  0.00     0.163 HD
ATOM     40  O   UNL     1       1.333   1.825   9.076  1.00  0.00    -0.269 OA
BRANCH  38  41
ATOM     41  C   UNL     1      -0.862   1.506   8.326  1.00  0.00     0.039 A 
ATOM     42  C   UNL     1      -1.609   1.580   9.501  1.00  0.00     0.014 A 
ATOM     43  C   UNL     1      -1.410   0.956   7.175  1.00  0.00     0.014 A 
ATOM     44  C   UNL     1      -2.949   1.191   9.461  1.00  0.00     0.010 A 
ATOM     45  C   UNL     1      -2.758   0.746   7.085  1.00  0.00     0.010 A 
ATOM     46  C   UNL     1      -3.526   0.805   8.237  1.00  0.00    -0.014 A 
BRANCH  46  47
ATOM     47  C   UNL     1      -4.964   0.606   8.102  1.00  0.00     0.031 A 
ATOM     48  C   UNL     1      -5.772   1.766   8.569  1.00  0.00     0.074 A 
ATOM     49  C   UNL     1      -5.510  -0.418   7.407  1.00  0.00     0.049 A 
ATOM     50  N   UNL     1      -6.548   1.811   9.599  1.00  0.00    -0.248 NA
ATOM     51  C   UNL     1      -5.578   3.073   7.916  1.00  0.00     0.031 C 
ATOM     52  C   UNL     1      -4.830  -1.451   6.616  1.00  0.00     0.029 A 
ATOM     53  N   UNL     1      -6.822  -0.699   7.178  1.00  0.00    -0.354 N 
ATOM     54  C   UNL     1      -7.113   3.083   9.599  1.00  0.00     0.074 A 
ATOM     55  C   UNL     1      -6.335   3.866   8.678  1.00  0.00     0.031 C 
ATOM     56  C   UNL     1      -5.721  -2.078   5.817  1.00  0.00     0.029 A 
ATOM     57  C   UNL     1      -7.054  -1.623   6.161  1.00  0.00     0.049 A 
ATOM     58  H   UNL     1      -7.552  -0.281   7.691  1.00  0.00     0.167 HD
ATOM     59  C   UNL     1      -8.342   3.288  10.152  1.00  0.00     0.037 A 
ATOM     60  C   UNL     1      -8.258  -1.965   5.633  1.00  0.00     0.037 A 
ATOM     61  C   UNL     1      -8.700   2.185  11.015  1.00  0.00     0.049 A 
ATOM     62  C   UNL     1      -9.294  -1.551   6.611  1.00  0.00     0.074 A 
ATOM     63  C   UNL     1      -8.135   1.601  12.133  1.00  0.00     0.029 A 
ATOM     64  N   UNL     1      -9.592   1.261  10.528  1.00  0.00    -0.354 N 
ATOM     65  N   UNL     1      -9.454  -2.112   7.776  1.00  0.00    -0.248 NA
ATOM     66  C   UNL     1      -9.837  -0.208   6.479  1.00  0.00     0.031 C 
ATOM     67  C   UNL     1      -8.339   0.199  11.958  1.00  0.00     0.029 A 
ATOM     68  C   UNL     1      -9.091   0.016  10.798  1.00  0.00     0.049 A 
ATOM     69  H   UNL     1     -10.439   1.459  10.068  1.00  0.00     0.167 HD
ATOM     70  C   UNL     1      -9.691  -1.054   8.639  1.00  0.00     0.074 A 
ATOM     71  C   UNL     1      -9.996   0.084   7.773  1.00  0.00     0.031 C 
ATOM     72  C   UNL     1      -9.321  -1.128   9.950  1.00  0.00     0.037 A 
BRANCH  59  73
ATOM     73  C   UNL     1      -9.388   4.231   9.597  1.00  0.00     0.064 A 
ATOM     74  C   UNL     1     -10.610   4.364  10.290  1.00  0.00     0.173 A 
ATOM     75  C   UNL     1      -9.385   4.741   8.280  1.00  0.00     0.173 A 
ATOM     76  F   UNL     1     -10.735   3.916  11.549  1.00  0.00    -0.203 F 
ATOM     77  C   UNL     1     -11.763   4.856   9.673  1.00  0.00     0.198 A 
ATOM     78  C   UNL     1     -10.525   5.280   7.686  1.00  0.00     0.198 A 
ATOM     79  F   UNL     1      -8.326   4.641   7.471  1.00  0.00    -0.203 F 
ATOM     80  F   UNL     1     -12.933   4.820  10.326  1.00  0.00    -0.200 F 
ATOM     81  C   UNL     1     -11.723   5.302   8.366  1.00  0.00     0.200 A 
ATOM     82  F   UNL     1     -10.467   5.694   6.412  1.00  0.00    -0.200 F 
ATOM     83  F   UNL     1     -12.839   5.705   7.747  1.00  0.00    -0.200 F 
ENDBRANCH  59  73
BRANCH  60  84
ATOM     84  C   UNL     1      -8.614  -2.340   4.241  1.00  0.00     0.064 A 
ATOM     85  C   UNL     1      -9.873  -2.895   3.949  1.00  0.00     0.173 A 
ATOM     86  C   UNL     1      -7.869  -1.873   3.143  1.00  0.00     0.173 A 
ATOM     87  F   UNL     1     -10.665  -3.332   4.939  1.00  0.00    -0.203 F 
ATOM     88  C   UNL     1     -10.377  -2.933   2.644  1.00  0.00     0.198 A 
ATOM     89  C   UNL     1      -8.371  -1.917   1.839  1.00  0.00     0.198 A 
ATOM     90  F   UNL     1      -6.685  -1.271   3.323  1.00  0.00    -0.203 F 
ATOM     91  F   UNL     1     -11.615  -3.396   2.418  1.00  0.00    -0.200 F 
ATOM     92  C   UNL     1      -9.632  -2.428   1.592  1.00  0.00     0.200 A 
ATOM     93  F   UNL     1      -7.657  -1.391   0.834  1.00  0.00    -0.200 F 
ATOM     94  F   UNL     1     -10.144  -2.391   0.354  1.00  0.00    -0.200 F 
ENDBRANCH  60  84
BRANCH  72  95
ATOM     95  C   UNL     1      -8.930  -2.473  10.496  1.00  0.00     0.064 A 
ATOM     96  C   UNL     1      -7.842  -3.238  10.039  1.00  0.00     0.173 A 
ATOM     97  C   UNL     1      -9.620  -2.944  11.621  1.00  0.00     0.173 A 
ATOM     98  F   UNL     1      -7.068  -2.811   9.033  1.00  0.00    -0.203 F 
ATOM     99  C   UNL     1      -7.498  -4.442  10.653  1.00  0.00     0.198 A 
ATOM    100  C   UNL     1      -9.250  -4.125  12.255  1.00  0.00     0.198 A 
ATOM    101  F   UNL     1     -10.634  -2.230  12.134  1.00  0.00    -0.203 F 
ATOM    102  F   UNL     1      -6.467  -5.164  10.188  1.00  0.00    -0.200 F 
ATOM    103  C   UNL     1      -8.198  -4.881  11.764  1.00  0.00     0.200 A 
ATOM    104  F   UNL     1      -9.899  -4.518  13.360  1.00  0.00    -0.200 F 
ATOM    105  F   UNL     1      -7.845  -6.019  12.378  1.00  0.00    -0.200 F 
ENDBRANCH  72  95
ENDBRANCH  46  47
ENDBRANCH  38  41
ENDBRANCH  36  37
ENDBRANCH  35  36
ENDBRANCH   1  35
TORSDOF 16
