REMARK SMILES O=C(NCCCCNC(=O)[C@H]1CC2(CCN(C(=O)c3cccc(O)c3)CC2)CN1C(=O)C1CC1)c1ccc(-c2c3nc(c(-c4c(F)c(F)c(F)c(F)c4F)c4ccc([nH]4)c(-c4c(F)c(F)c(F)c(F)c4F)c4nc(c(-c5c(F)c(F)c(F)c(F)c5F)c5ccc2[nH]5)C=C4)C=C3)cc1
REMARK SMILES IDX 5 1 4 2 3 3 1 4 2 5 35 7 36 8 97 9 37 10 96 11 38 12 39 13
REMARK SMILES IDX 40 14 90 15 41 16 95 17 89 18 91 19 42 20 94 21 88 22 87 23
REMARK SMILES IDX 43 25 75 26 55 27 74 28 56 29 59 30 73 31 92 32 57 33 58 34
REMARK SMILES IDX 72 36 93 37 60 38 44 39 45 40 53 41 46 42 47 43 51 44 54 45
REMARK SMILES IDX 48 46 49 47 52 48 50 49 76 50 77 51 85 52 78 53 79 54 83 55
REMARK SMILES IDX 86 56 80 57 81 58 84 59 82 60 61 61 62 62 70 63 63 64 64 65
REMARK SMILES IDX 68 66 71 67 65 68 66 69 69 70 67 71 6 72 7 73 8 74 9 75
REMARK SMILES IDX 10 77 11 78 12 79 29 80 13 81 28 82 14 83 27 84 15 85 26 86
REMARK SMILES IDX 16 87 17 88 18 89 30 90 31 91 32 92 33 93 34 94 19 95 20 96
REMARK SMILES IDX 25 97 21 98 23 99 22 100 24 101
REMARK H PARENT 3 6 91 24 59 35 8 76 24 102
REMARK Flexibility Score: inf
ROOT
ATOM      1  C   UNL     1      10.795  -1.944  -5.798  1.00  0.00     0.023 C 
ENDROOT
BRANCH   1   2
ATOM      2  C   UNL     1      11.133  -0.970  -6.919  1.00  0.00     0.116 C 
BRANCH   2   3
ATOM      3  N   UNL     1      11.047   0.429  -6.533  1.00  0.00    -0.352 N 
ATOM      4  O   UNL     1      11.687   2.590  -6.430  1.00  0.00    -0.269 OA
ATOM      5  C   UNL     1      11.859   1.481  -6.904  1.00  0.00     0.251 C 
ATOM      6  H   UNL     1      10.307   0.656  -5.924  1.00  0.00     0.163 HD
BRANCH   5   7
ATOM      7  C   UNL     1      12.977   1.235  -7.844  1.00  0.00     0.039 A 
ATOM      8  C   UNL     1      12.789   0.481  -9.002  1.00  0.00     0.014 A 
ATOM      9  C   UNL     1      14.244   1.736  -7.529  1.00  0.00     0.014 A 
ATOM     10  C   UNL     1      13.891   0.078  -9.747  1.00  0.00     0.010 A 
ATOM     11  C   UNL     1      15.340   1.402  -8.331  1.00  0.00     0.010 A 
ATOM     12  C   UNL     1      15.181   0.527  -9.416  1.00  0.00    -0.014 A 
BRANCH  12  13
ATOM     13  C   UNL     1      16.336   0.070 -10.229  1.00  0.00     0.031 A 
ATOM     14  C   UNL     1      17.407  -0.804  -9.636  1.00  0.00     0.074 A 
ATOM     15  C   UNL     1      16.385   0.403 -11.533  1.00  0.00     0.049 A 
ATOM     16  N   UNL     1      18.446  -1.348 -10.220  1.00  0.00    -0.248 NA
ATOM     17  C   UNL     1      17.308  -1.103  -8.199  1.00  0.00     0.031 C 
ATOM     18  C   UNL     1      15.413   1.256 -12.219  1.00  0.00     0.029 A 
ATOM     19  N   UNL     1      17.266   0.042 -12.520  1.00  0.00    -0.354 N 
ATOM     20  C   UNL     1      19.136  -2.026  -9.223  1.00  0.00     0.074 A 
ATOM     21  C   UNL     1      18.409  -1.810  -7.989  1.00  0.00     0.031 C 
ATOM     22  C   UNL     1      15.715   1.304 -13.524  1.00  0.00     0.029 A 
ATOM     23  C   UNL     1      16.929   0.529 -13.758  1.00  0.00     0.049 A 
ATOM     24  H   UNL     1      18.063  -0.512 -12.356  1.00  0.00     0.167 HD
ATOM     25  C   UNL     1      20.266  -2.766  -9.329  1.00  0.00     0.037 A 
ATOM     26  C   UNL     1      17.530   0.370 -14.951  1.00  0.00     0.037 A 
ATOM     27  C   UNL     1      20.967  -3.009 -10.563  1.00  0.00     0.049 A 
ATOM     28  C   UNL     1      18.774  -0.465 -15.040  1.00  0.00     0.074 A 
ATOM     29  C   UNL     1      22.091  -3.788 -10.779  1.00  0.00     0.029 A 
ATOM     30  N   UNL     1      20.610  -2.476 -11.793  1.00  0.00    -0.354 N 
ATOM     31  N   UNL     1      19.392  -1.131 -14.096  1.00  0.00    -0.248 NA
ATOM     32  C   UNL     1      19.406  -0.567 -16.362  1.00  0.00     0.031 C 
ATOM     33  C   UNL     1      22.437  -3.696 -12.132  1.00  0.00     0.029 A 
ATOM     34  C   UNL     1      21.503  -2.893 -12.767  1.00  0.00     0.049 A 
ATOM     35  H   UNL     1      19.836  -1.888 -11.950  1.00  0.00     0.167 HD
ATOM     36  C   UNL     1      20.473  -1.746 -14.710  1.00  0.00     0.074 A 
ATOM     37  C   UNL     1      20.416  -1.388 -16.112  1.00  0.00     0.031 C 
ATOM     38  C   UNL     1      21.430  -2.532 -14.159  1.00  0.00     0.037 A 
BRANCH  25  39
ATOM     39  C   UNL     1      20.832  -3.359  -8.071  1.00  0.00     0.064 A 
ATOM     40  C   UNL     1      20.227  -4.451  -7.432  1.00  0.00     0.173 A 
ATOM     41  C   UNL     1      22.025  -2.857  -7.527  1.00  0.00     0.173 A 
ATOM     42  F   UNL     1      19.080  -4.960  -7.905  1.00  0.00    -0.203 F 
ATOM     43  C   UNL     1      20.785  -5.005  -6.282  1.00  0.00     0.198 A 
ATOM     44  C   UNL     1      22.592  -3.430  -6.392  1.00  0.00     0.198 A 
ATOM     45  F   UNL     1      22.646  -1.818  -8.104  1.00  0.00    -0.203 F 
ATOM     46  F   UNL     1      20.169  -6.024  -5.665  1.00  0.00    -0.200 F 
ATOM     47  C   UNL     1      21.969  -4.500  -5.767  1.00  0.00     0.200 A 
ATOM     48  F   UNL     1      23.742  -2.946  -5.902  1.00  0.00    -0.200 F 
ATOM     49  F   UNL     1      22.507  -5.040  -4.665  1.00  0.00    -0.200 F 
ENDBRANCH  25  39
BRANCH  26  50
ATOM     50  C   UNL     1      16.942   1.001 -16.159  1.00  0.00     0.064 A 
ATOM     51  C   UNL     1      16.337   0.221 -17.154  1.00  0.00     0.173 A 
ATOM     52  C   UNL     1      16.956   2.392 -16.335  1.00  0.00     0.173 A 
ATOM     53  F   UNL     1      16.317  -1.115 -17.037  1.00  0.00    -0.203 F 
ATOM     54  C   UNL     1      15.777   0.809 -18.285  1.00  0.00     0.198 A 
ATOM     55  C   UNL     1      16.372   2.981 -17.453  1.00  0.00     0.198 A 
ATOM     56  F   UNL     1      17.519   3.180 -15.407  1.00  0.00    -0.203 F 
ATOM     57  F   UNL     1      15.235   0.039 -19.239  1.00  0.00    -0.200 F 
ATOM     58  C   UNL     1      15.789   2.188 -18.431  1.00  0.00     0.200 A 
ATOM     59  F   UNL     1      16.371   4.314 -17.582  1.00  0.00    -0.200 F 
ATOM     60  F   UNL     1      15.241   2.754 -19.514  1.00  0.00    -0.200 F 
ENDBRANCH  26  50
BRANCH  38  61
ATOM     61  C   UNL     1      22.475  -3.079 -15.085  1.00  0.00     0.064 A 
ATOM     62  C   UNL     1      23.488  -2.263 -15.611  1.00  0.00     0.173 A 
ATOM     63  C   UNL     1      22.473  -4.437 -15.436  1.00  0.00     0.173 A 
ATOM     64  F   UNL     1      23.521  -0.955 -15.318  1.00  0.00    -0.203 F 
ATOM     65  C   UNL     1      24.445  -2.783 -16.478  1.00  0.00     0.198 A 
ATOM     66  C   UNL     1      23.446  -4.958 -16.283  1.00  0.00     0.198 A 
ATOM     67  F   UNL     1      21.527  -5.258 -14.955  1.00  0.00    -0.203 F 
ATOM     68  F   UNL     1      25.374  -1.976 -17.009  1.00  0.00    -0.200 F 
ATOM     69  C   UNL     1      24.426  -4.130 -16.810  1.00  0.00     0.200 A 
ATOM     70  F   UNL     1      23.432  -6.261 -16.596  1.00  0.00    -0.200 F 
ATOM     71  F   UNL     1      25.347  -4.628 -17.646  1.00  0.00    -0.200 F 
ENDBRANCH  38  61
ENDBRANCH  12  13
ENDBRANCH   5   7
ENDBRANCH   2   3
ENDBRANCH   1   2
BRANCH   1  72
ATOM     72  C   UNL     1       9.406  -1.779  -5.183  1.00  0.00     0.023 C 
BRANCH  72  73
ATOM     73  C   UNL     1       8.262  -1.707  -6.191  1.00  0.00     0.116 C 
BRANCH  73  74
ATOM     74  N   UNL     1       8.142  -2.908  -7.004  1.00  0.00    -0.354 N 
ATOM     75  C   UNL     1       7.293  -3.977  -6.842  1.00  0.00     0.242 C 
ATOM     76  H   UNL     1       8.752  -2.962  -7.775  1.00  0.00     0.163 HD
ATOM     77  O   UNL     1       7.293  -4.869  -7.689  1.00  0.00    -0.273 OA
BRANCH  75  78
ATOM     78  C   UNL     1       6.322  -3.933  -5.652  1.00  0.00     0.175 C 
ATOM     79  C   UNL     1       5.115  -3.128  -6.152  1.00  0.00     0.044 C 
ATOM     80  N   UNL     1       5.703  -5.139  -5.122  1.00  0.00    -0.330 N 
ATOM     81  C   UNL     1       3.932  -3.511  -5.248  1.00  0.00    -0.006 C 
ATOM     82  C   UNL     1       4.356  -4.861  -4.646  1.00  0.00     0.127 C 
ATOM     83  C   UNL     1       2.642  -3.668  -6.078  1.00  0.00     0.030 C 
ATOM     84  C   UNL     1       3.691  -2.446  -4.153  1.00  0.00     0.030 C 
ATOM     85  C   UNL     1       2.189  -2.334  -6.658  1.00  0.00     0.120 C 
ATOM     86  C   UNL     1       3.121  -1.132  -4.705  1.00  0.00     0.120 C 
ATOM     87  N   UNL     1       1.980  -1.361  -5.587  1.00  0.00    -0.339 N 
ATOM     88  C   UNL     1       0.892  -0.491  -5.510  1.00  0.00     0.253 C 
ATOM     89  O   UNL     1       0.868   0.503  -4.788  1.00  0.00    -0.269 OA
BRANCH  80  90
ATOM     90  C   UNL     1       6.325  -6.281  -4.649  1.00  0.00     0.226 C 
ATOM     91  O   UNL     1       5.777  -7.035  -3.849  1.00  0.00    -0.275 OA
BRANCH  90  92
ATOM     92  C   UNL     1       7.632  -6.705  -5.213  1.00  0.00     0.079 C 
ATOM     93  C   UNL     1       8.925  -5.935  -5.202  1.00  0.00     0.014 C 
ATOM     94  C   UNL     1       8.738  -7.053  -4.230  1.00  0.00     0.014 C 
ENDBRANCH  90  92
ENDBRANCH  80  90
BRANCH  88  95
ATOM     95  C   UNL     1      -0.305  -0.773  -6.331  1.00  0.00     0.043 A 
ATOM     96  C   UNL     1      -0.985  -1.992  -6.201  1.00  0.00     0.014 A 
ATOM     97  C   UNL     1      -0.769   0.206  -7.211  1.00  0.00     0.060 A 
ATOM     98  C   UNL     1      -2.102  -2.249  -6.997  1.00  0.00     0.005 A 
ATOM     99  C   UNL     1      -1.887  -0.062  -7.991  1.00  0.00     0.116 A 
ATOM    100  C   UNL     1      -2.553  -1.283  -7.899  1.00  0.00     0.046 A 
BRANCH  99 101
ATOM    101  O   UNL     1      -2.309   0.909  -8.851  1.00  0.00    -0.508 OA
ATOM    102  H   UNL     1      -3.059   0.762  -9.392  1.00  0.00     0.293 HD
ENDBRANCH  99 101
ENDBRANCH  88  95
ENDBRANCH  75  78
ENDBRANCH  73  74
ENDBRANCH  72  73
ENDBRANCH   1  72
TORSDOF 15
