REMARK SMILES O=C(NCCCCNC(=O)[C@H]1C[NH2+]CCN1c1ncc(C(F)(F)F)cc1Cl)c1ccc(-c2c3nc(c(-c4c(F)c(F)c(F)c(F)c4F)c4ccc([nH]4)c(-c4c(F)c(F)c(F)c(F)c4F)c4nc(c(-c5c(F)c(F)c(F)c(F)c5F)c5ccc2[nH]5)C=C4)C=C3)cc1
REMARK SMILES IDX 5 1 4 2 3 3 1 4 2 5 28 7 29 8 90 9 30 10 89 11 31 12 32 13
REMARK SMILES IDX 33 14 83 15 34 16 88 17 82 18 84 19 35 20 87 21 81 22 80 23
REMARK SMILES IDX 36 25 68 26 48 27 67 28 49 29 52 30 66 31 85 32 50 33 51 34
REMARK SMILES IDX 65 36 86 37 53 38 37 39 38 40 46 41 39 42 40 43 44 44 47 45
REMARK SMILES IDX 41 46 42 47 45 48 43 49 69 50 70 51 78 52 71 53 72 54 76 55
REMARK SMILES IDX 79 56 73 57 74 58 77 59 75 60 54 61 55 62 63 63 56 64 57 65
REMARK SMILES IDX 61 66 64 67 58 68 59 69 62 70 60 71 6 72 7 73 8 74 9 75
REMARK SMILES IDX 10 77 11 78 12 79 16 80 13 81 15 82 14 83 17 86 18 87 26 88
REMARK SMILES IDX 19 89 25 90 27 91 20 92 21 93 22 94 23 95 24 96
REMARK H PARENT 3 6 84 24 52 35 8 76 13 84 13 85
REMARK Flexibility Score: inf
ROOT
ATOM      1  C   UNL     1      11.459   1.776   6.840  1.00  0.00     0.023 C 
ENDROOT
BRANCH   1   2
ATOM      2  C   UNL     1      12.167   0.429   6.918  1.00  0.00     0.116 C 
BRANCH   2   3
ATOM      3  N   UNL     1      12.789   0.041   5.662  1.00  0.00    -0.352 N 
ATOM      4  O   UNL     1      14.469  -0.513   4.263  1.00  0.00    -0.269 OA
ATOM      5  C   UNL     1      14.084  -0.348   5.417  1.00  0.00     0.251 C 
ATOM      6  H   UNL     1      12.198   0.059   4.875  1.00  0.00     0.163 HD
BRANCH   5   7
ATOM      7  C   UNL     1      15.024  -0.543   6.541  1.00  0.00     0.039 A 
ATOM      8  C   UNL     1      14.643  -1.259   7.678  1.00  0.00     0.014 A 
ATOM      9  C   UNL     1      16.314  -0.012   6.447  1.00  0.00     0.014 A 
ATOM     10  C   UNL     1      15.502  -1.331   8.770  1.00  0.00     0.010 A 
ATOM     11  C   UNL     1      17.204  -0.152   7.515  1.00  0.00     0.010 A 
ATOM     12  C   UNL     1      16.796  -0.790   8.696  1.00  0.00    -0.014 A 
BRANCH  12  13
ATOM     13  C   UNL     1      17.728  -0.965   9.838  1.00  0.00     0.031 A 
ATOM     14  C   UNL     1      18.211   0.211  10.637  1.00  0.00     0.074 A 
ATOM     15  C   UNL     1      18.124  -2.211  10.160  1.00  0.00     0.049 A 
ATOM     16  N   UNL     1      19.025   0.233  11.663  1.00  0.00    -0.248 NA
ATOM     17  C   UNL     1      17.723   1.538  10.231  1.00  0.00     0.031 C 
ATOM     18  C   UNL     1      17.728  -3.428   9.449  1.00  0.00     0.029 A 
ATOM     19  N   UNL     1      18.935  -2.665  11.169  1.00  0.00    -0.354 N 
ATOM     20  C   UNL     1      19.158   1.570  12.016  1.00  0.00     0.074 A 
ATOM     21  C   UNL     1      18.362   2.333  11.079  1.00  0.00     0.031 C 
ATOM     22  C   UNL     1      18.263  -4.492  10.065  1.00  0.00     0.029 A 
ATOM     23  C   UNL     1      19.088  -4.029  11.175  1.00  0.00     0.049 A 
ATOM     24  H   UNL     1      19.365  -2.070  11.825  1.00  0.00     0.167 HD
ATOM     25  C   UNL     1      19.873   2.105  13.036  1.00  0.00     0.037 A 
ATOM     26  C   UNL     1      19.827  -4.821  11.974  1.00  0.00     0.037 A 
ATOM     27  C   UNL     1      20.654   1.336  13.972  1.00  0.00     0.049 A 
ATOM     28  C   UNL     1      20.635  -4.196  13.074  1.00  0.00     0.074 A 
ATOM     29  C   UNL     1      21.385   1.783  15.059  1.00  0.00     0.029 A 
ATOM     30  N   UNL     1      20.811  -0.043  13.927  1.00  0.00    -0.354 N 
ATOM     31  N   UNL     1      20.727  -2.935  13.417  1.00  0.00    -0.248 NA
ATOM     32  C   UNL     1      21.448  -5.105  13.893  1.00  0.00     0.031 C 
ATOM     33  C   UNL     1      22.021   0.682  15.644  1.00  0.00     0.029 A 
ATOM     34  C   UNL     1      21.647  -0.458  14.952  1.00  0.00     0.049 A 
ATOM     35  H   UNL     1      20.390  -0.638  13.265  1.00  0.00     0.167 HD
ATOM     36  C   UNL     1      21.592  -2.898  14.500  1.00  0.00     0.074 A 
ATOM     37  C   UNL     1      21.982  -4.267  14.770  1.00  0.00     0.031 C 
ATOM     38  C   UNL     1      22.027  -1.825  15.205  1.00  0.00     0.037 A 
BRANCH  25  39
ATOM     39  C   UNL     1      19.861   3.599  13.190  1.00  0.00     0.064 A 
ATOM     40  C   UNL     1      18.728   4.283  13.652  1.00  0.00     0.173 A 
ATOM     41  C   UNL     1      21.017   4.350  12.925  1.00  0.00     0.173 A 
ATOM     42  F   UNL     1      17.594   3.614  13.911  1.00  0.00    -0.203 F 
ATOM     43  C   UNL     1      18.745   5.666  13.823  1.00  0.00     0.198 A 
ATOM     44  C   UNL     1      21.039   5.728  13.122  1.00  0.00     0.198 A 
ATOM     45  F   UNL     1      22.132   3.744  12.488  1.00  0.00    -0.203 F 
ATOM     46  F   UNL     1      17.638   6.303  14.229  1.00  0.00    -0.200 F 
ATOM     47  C   UNL     1      19.902   6.386  13.565  1.00  0.00     0.200 A 
ATOM     48  F   UNL     1      22.162   6.420  12.885  1.00  0.00    -0.200 F 
ATOM     49  F   UNL     1      19.919   7.715  13.739  1.00  0.00    -0.200 F 
ENDBRANCH  25  39
BRANCH  26  50
ATOM     50  C   UNL     1      19.832  -6.289  11.751  1.00  0.00     0.064 A 
ATOM     51  C   UNL     1      19.232  -7.160  12.670  1.00  0.00     0.173 A 
ATOM     52  C   UNL     1      20.417  -6.848  10.605  1.00  0.00     0.173 A 
ATOM     53  F   UNL     1      18.676  -6.673  13.789  1.00  0.00    -0.203 F 
ATOM     54  C   UNL     1      19.228  -8.537  12.457  1.00  0.00     0.198 A 
ATOM     55  C   UNL     1      20.386  -8.221  10.379  1.00  0.00     0.198 A 
ATOM     56  F   UNL     1      20.999  -6.055   9.693  1.00  0.00    -0.203 F 
ATOM     57  F   UNL     1      18.680  -9.351  13.369  1.00  0.00    -0.200 F 
ATOM     58  C   UNL     1      19.797  -9.065  11.308  1.00  0.00     0.200 A 
ATOM     59  F   UNL     1      20.921  -8.726   9.259  1.00  0.00    -0.200 F 
ATOM     60  F   UNL     1      19.782 -10.389  11.098  1.00  0.00    -0.200 F 
ENDBRANCH  26  50
BRANCH  38  61
ATOM     61  C   UNL     1      22.957  -2.095  16.351  1.00  0.00     0.064 A 
ATOM     62  C   UNL     1      24.291  -2.474  16.139  1.00  0.00     0.173 A 
ATOM     63  C   UNL     1      22.517  -1.945  17.674  1.00  0.00     0.173 A 
ATOM     64  F   UNL     1      24.753  -2.647  14.892  1.00  0.00    -0.203 F 
ATOM     65  C   UNL     1      25.144  -2.718  17.212  1.00  0.00     0.198 A 
ATOM     66  C   UNL     1      23.380  -2.162  18.744  1.00  0.00     0.198 A 
ATOM     67  F   UNL     1      21.252  -1.580  17.929  1.00  0.00    -0.203 F 
ATOM     68  F   UNL     1      26.400  -3.126  16.988  1.00  0.00    -0.200 F 
ATOM     69  C   UNL     1      24.690  -2.555  18.513  1.00  0.00     0.200 A 
ATOM     70  F   UNL     1      22.944  -1.994  20.000  1.00  0.00    -0.200 F 
ATOM     71  F   UNL     1      25.513  -2.786  19.545  1.00  0.00    -0.200 F 
ENDBRANCH  38  61
ENDBRANCH  12  13
ENDBRANCH   5   7
ENDBRANCH   2   3
ENDBRANCH   1   2
BRANCH   1  72
ATOM     72  C   UNL     1      10.301   1.863   5.843  1.00  0.00     0.023 C 
BRANCH  72  73
ATOM     73  C   UNL     1       9.236   0.776   5.977  1.00  0.00     0.116 C 
BRANCH  73  74
ATOM     74  N   UNL     1       8.667   0.731   7.307  1.00  0.00    -0.354 N 
ATOM     75  C   UNL     1       7.369   0.799   7.718  1.00  0.00     0.248 C 
ATOM     76  H   UNL     1       9.325   0.636   8.034  1.00  0.00     0.163 HD
ATOM     77  O   UNL     1       7.173   0.722   8.937  1.00  0.00    -0.272 OA
BRANCH  75  78
ATOM     78  C   UNL     1       6.212   0.960   6.702  1.00  0.00     0.228 C 
ATOM     79  C   UNL     1       5.033   0.044   7.144  1.00  0.00     0.296 C 
ATOM     80  N   UNL     1       5.741   2.356   6.652  1.00  0.00    -0.333 N 
ATOM     81  N   UNL     1       4.308   0.484   8.362  1.00  0.00    -0.343 N 
ATOM     82  C   UNL     1       5.042   2.865   7.832  1.00  0.00     0.180 C 
ATOM     83  C   UNL     1       3.890   1.894   8.198  1.00  0.00     0.282 C 
ATOM     84  H   UNL     1       4.923   0.403   9.172  1.00  0.00     0.346 HD
ATOM     85  H   UNL     1       3.486  -0.103   8.503  1.00  0.00     0.346 HD
BRANCH  80  86
ATOM     86  C   UNL     1       6.074   3.229   5.647  1.00  0.00     0.148 A 
ATOM     87  N   UNL     1       6.716   4.366   6.014  1.00  0.00    -0.237 NA
ATOM     88  C   UNL     1       5.713   3.023   4.305  1.00  0.00     0.084 A 
ATOM     89  C   UNL     1       7.018   5.285   5.064  1.00  0.00     0.126 A 
ATOM     90  C   UNL     1       6.027   3.990   3.346  1.00  0.00     0.039 A 
ATOM     91  Cl  UNL     1       4.786   1.663   3.774  1.00  0.00    -0.080 Cl
ATOM     92  C   UNL     1       6.699   5.151   3.724  1.00  0.00     0.075 A 
BRANCH  92  93
ATOM     93  C   UNL     1       7.064   6.226   2.750  1.00  0.00     0.417 C 
ATOM     94  F   UNL     1       6.551   7.439   3.089  1.00  0.00    -0.166 F 
ATOM     95  F   UNL     1       8.410   6.400   2.653  1.00  0.00    -0.166 F 
ATOM     96  F   UNL     1       6.629   5.977   1.484  1.00  0.00    -0.166 F 
ENDBRANCH  92  93
ENDBRANCH  80  86
ENDBRANCH  75  78
ENDBRANCH  73  74
ENDBRANCH  72  73
ENDBRANCH   1  72
TORSDOF 13
