REMARK SMILES C[C@@H]1[C@H](C(=O)NCCCCNC(=O)c2ccc(-c3c4nc(c(-c5c(F)c(F)c(F)c(F)c5F)c5ccc([nH]5)c(-c5c(F)c(F)c(F)c(F)c5F)c5nc(c(-c6c(F)c(F)c(F)c(F)c6F)c6ccc3[nH]6)C=C5)C=C4)cc2)CCN1c1ccc(C(F)(F)F)cc1
REMARK SMILES IDX 8 1 7 2 6 3 4 4 5 5 3 7 1 8 2 9 79 10 77 11 78 12 80 13
REMARK SMILES IDX 81 14 89 15 82 16 88 17 83 18 84 19 85 20 86 21 87 22 9 23
REMARK SMILES IDX 10 24 11 25 12 26 13 28 14 29 15 30 76 31 16 32 75 33 17 34
REMARK SMILES IDX 18 35 19 36 69 37 20 38 74 39 68 40 70 41 21 42 73 43 67 44
REMARK SMILES IDX 66 45 22 47 54 48 34 49 53 50 35 51 38 52 52 53 71 54 36 55
REMARK SMILES IDX 37 56 51 58 72 59 39 60 23 61 24 62 32 63 25 64 26 65 30 66
REMARK SMILES IDX 33 67 27 68 28 69 31 70 29 71 55 72 56 73 64 74 57 75 58 76
REMARK SMILES IDX 62 77 65 78 59 79 60 80 63 81 61 82 40 83 41 84 49 85 42 86
REMARK SMILES IDX 43 87 47 88 50 89 44 90 45 91 48 92 46 93
REMARK H PARENT 6 6 11 27 70 46 38 57
REMARK Flexibility Score: inf
ROOT
ATOM      1  C   UNL     1       2.856   1.059   2.422  1.00  0.00     0.023 C 
ENDROOT
BRANCH   1   2
ATOM      2  C   UNL     1       1.407   1.420   2.093  1.00  0.00     0.116 C 
BRANCH   2   3
ATOM      3  N   UNL     1       1.325   2.341   0.976  1.00  0.00    -0.356 N 
ATOM      4  C   UNL     1       0.738   2.225  -0.241  1.00  0.00     0.225 C 
ATOM      5  O   UNL     1       0.905   3.164  -1.027  1.00  0.00    -0.275 OA
ATOM      6  H   UNL     1       1.774   3.204   1.129  1.00  0.00     0.163 HD
BRANCH   4   7
ATOM      7  C   UNL     1      -0.108   1.036  -0.664  1.00  0.00     0.102 C 
ATOM      8  C   UNL     1       2.070  -0.437  -0.616  1.00  0.00     0.032 C 
ATOM      9  C   UNL     1       0.585  -0.322  -0.918  1.00  0.00     0.091 C 
ATOM     10  N   UNL     1      -0.227  -1.282  -0.139  1.00  0.00    -0.368 N 
ATOM     11  C   UNL     1      -1.312   0.753   0.241  1.00  0.00     0.037 C 
ATOM     12  C   UNL     1      -1.565  -0.738   0.070  1.00  0.00     0.118 C 
BRANCH  10  13
ATOM     13  C   UNL     1      -0.070  -2.638  -0.378  1.00  0.00     0.037 A 
ATOM     14  C   UNL     1      -0.849  -3.342  -1.301  1.00  0.00     0.026 A 
ATOM     15  C   UNL     1       0.926  -3.347   0.307  1.00  0.00     0.026 A 
ATOM     16  C   UNL     1      -0.635  -4.706  -1.538  1.00  0.00     0.015 A 
ATOM     17  C   UNL     1       1.150  -4.707   0.075  1.00  0.00     0.015 A 
ATOM     18  C   UNL     1       0.372  -5.402  -0.857  1.00  0.00     0.056 A 
BRANCH  18  19
ATOM     19  C   UNL     1       0.597  -6.869  -1.126  1.00  0.00     0.416 C 
ATOM     20  F   UNL     1      -0.469  -7.634  -0.764  1.00  0.00    -0.166 F 
ATOM     21  F   UNL     1       0.814  -7.130  -2.445  1.00  0.00    -0.166 F 
ATOM     22  F   UNL     1       1.670  -7.387  -0.464  1.00  0.00    -0.166 F 
ENDBRANCH  18  19
ENDBRANCH  10  13
ENDBRANCH   4   7
ENDBRANCH   2   3
ENDBRANCH   1   2
BRANCH   1  23
ATOM     23  C   UNL     1       3.702   2.191   2.990  1.00  0.00     0.023 C 
BRANCH  23  24
ATOM     24  C   UNL     1       3.181   2.794   4.283  1.00  0.00     0.116 C 
BRANCH  24  25
ATOM     25  N   UNL     1       3.030   1.816   5.351  1.00  0.00    -0.352 N 
ATOM     26  C   UNL     1       3.502   1.860   6.642  1.00  0.00     0.251 C 
ATOM     27  H   UNL     1       2.518   1.008   5.115  1.00  0.00     0.163 HD
ATOM     28  O   UNL     1       3.395   0.890   7.379  1.00  0.00    -0.269 OA
BRANCH  26  29
ATOM     29  C   UNL     1       4.172   3.087   7.120  1.00  0.00     0.039 A 
ATOM     30  C   UNL     1       5.387   2.978   7.800  1.00  0.00     0.014 A 
ATOM     31  C   UNL     1       3.618   4.341   6.855  1.00  0.00     0.014 A 
ATOM     32  C   UNL     1       6.083   4.135   8.151  1.00  0.00     0.010 A 
ATOM     33  C   UNL     1       4.358   5.486   7.116  1.00  0.00     0.010 A 
ATOM     34  C   UNL     1       5.591   5.396   7.778  1.00  0.00    -0.014 A 
BRANCH  34  35
ATOM     35  C   UNL     1       6.324   6.644   8.101  1.00  0.00     0.031 A 
ATOM     36  C   UNL     1       5.683   7.666   8.998  1.00  0.00     0.074 A 
ATOM     37  C   UNL     1       7.516   6.894   7.526  1.00  0.00     0.049 A 
ATOM     38  N   UNL     1       6.094   8.866   9.318  1.00  0.00    -0.248 NA
ATOM     39  C   UNL     1       4.380   7.304   9.582  1.00  0.00     0.031 C 
ATOM     40  C   UNL     1       8.212   6.006   6.594  1.00  0.00     0.029 A 
ATOM     41  N   UNL     1       8.348   7.980   7.635  1.00  0.00    -0.354 N 
ATOM     42  C   UNL     1       5.091   9.408  10.110  1.00  0.00     0.074 A 
ATOM     43  C   UNL     1       4.024   8.434  10.172  1.00  0.00     0.031 C 
ATOM     44  C   UNL     1       9.377   6.570   6.237  1.00  0.00     0.029 A 
ATOM     45  C   UNL     1       9.494   7.872   6.886  1.00  0.00     0.049 A 
ATOM     46  H   UNL     1       8.142   8.762   8.196  1.00  0.00     0.167 HD
ATOM     47  C   UNL     1       5.073  10.599  10.752  1.00  0.00     0.037 A 
ATOM     48  C   UNL     1      10.521   8.731   6.744  1.00  0.00     0.037 A 
ATOM     49  C   UNL     1       6.157  11.543  10.725  1.00  0.00     0.049 A 
ATOM     50  C   UNL     1      10.494  10.034   7.495  1.00  0.00     0.074 A 
ATOM     51  C   UNL     1       6.269  12.751  11.390  1.00  0.00     0.029 A 
ATOM     52  N   UNL     1       7.325  11.376   9.995  1.00  0.00    -0.354 N 
ATOM     53  N   UNL     1       9.568  10.512   8.291  1.00  0.00    -0.248 NA
ATOM     54  C   UNL     1      11.660  10.914   7.337  1.00  0.00     0.031 C 
ATOM     55  C   UNL     1       7.493  13.330  11.037  1.00  0.00     0.029 A 
ATOM     56  C   UNL     1       8.161  12.463  10.187  1.00  0.00     0.049 A 
ATOM     57  H   UNL     1       7.529  10.600   9.424  1.00  0.00     0.167 HD
ATOM     58  C   UNL     1      10.051  11.728   8.753  1.00  0.00     0.074 A 
ATOM     59  C   UNL     1      11.358  11.911   8.156  1.00  0.00     0.031 C 
ATOM     60  C   UNL     1       9.466  12.614   9.597  1.00  0.00     0.037 A 
BRANCH  47  61
ATOM     61  C   UNL     1       3.844  10.936  11.547  1.00  0.00     0.064 A 
ATOM     62  C   UNL     1       3.518  10.245  12.725  1.00  0.00     0.173 A 
ATOM     63  C   UNL     1       2.987  11.965  11.133  1.00  0.00     0.173 A 
ATOM     64  F   UNL     1       4.296   9.241  13.156  1.00  0.00    -0.203 F 
ATOM     65  C   UNL     1       2.360  10.547  13.436  1.00  0.00     0.198 A 
ATOM     66  C   UNL     1       1.847  12.287  11.865  1.00  0.00     0.198 A 
ATOM     67  F   UNL     1       3.252  12.660  10.016  1.00  0.00    -0.203 F 
ATOM     68  F   UNL     1       2.038   9.832  14.523  1.00  0.00    -0.200 F 
ATOM     69  C   UNL     1       1.529  11.571  13.010  1.00  0.00     0.200 A 
ATOM     70  F   UNL     1       1.049  13.284  11.457  1.00  0.00    -0.200 F 
ATOM     71  F   UNL     1       0.415  11.862  13.696  1.00  0.00    -0.200 F 
ENDBRANCH  47  61
BRANCH  48  72
ATOM     72  C   UNL     1      11.683   8.365   5.892  1.00  0.00     0.064 A 
ATOM     73  C   UNL     1      12.924   8.059   6.469  1.00  0.00     0.173 A 
ATOM     74  C   UNL     1      11.581   8.311   4.495  1.00  0.00     0.173 A 
ATOM     75  F   UNL     1      13.074   8.115   7.800  1.00  0.00    -0.203 F 
ATOM     76  C   UNL     1      14.024   7.732   5.680  1.00  0.00     0.198 A 
ATOM     77  C   UNL     1      12.676   7.959   3.708  1.00  0.00     0.198 A 
ATOM     78  F   UNL     1      10.415   8.588   3.895  1.00  0.00    -0.203 F 
ATOM     79  F   UNL     1      15.209   7.486   6.255  1.00  0.00    -0.200 F 
ATOM     80  C   UNL     1      13.898   7.677   4.300  1.00  0.00     0.200 A 
ATOM     81  F   UNL     1      12.548   7.894   2.376  1.00  0.00    -0.200 F 
ATOM     82  F   UNL     1      14.956   7.360   3.541  1.00  0.00    -0.200 F 
ENDBRANCH  48  72
BRANCH  60  83
ATOM     83  C   UNL     1      10.255  13.836   9.963  1.00  0.00     0.064 A 
ATOM     84  C   UNL     1      10.455  14.884   9.054  1.00  0.00     0.173 A 
ATOM     85  C   UNL     1      10.777  13.977  11.258  1.00  0.00     0.173 A 
ATOM     86  F   UNL     1       9.987  14.788   7.800  1.00  0.00    -0.203 F 
ATOM     87  C   UNL     1      11.171  16.020   9.421  1.00  0.00     0.198 A 
ATOM     88  C   UNL     1      11.468  15.126  11.630  1.00  0.00     0.198 A 
ATOM     89  F   UNL     1      10.606  13.005  12.166  1.00  0.00    -0.203 F 
ATOM     90  F   UNL     1      11.389  16.991   8.523  1.00  0.00    -0.200 F 
ATOM     91  C   UNL     1      11.670  16.143  10.709  1.00  0.00     0.200 A 
ATOM     92  F   UNL     1      11.938  15.249  12.879  1.00  0.00    -0.200 F 
ATOM     93  F   UNL     1      12.352  17.241  11.062  1.00  0.00    -0.200 F 
ENDBRANCH  60  83
ENDBRANCH  34  35
ENDBRANCH  26  29
ENDBRANCH  24  25
ENDBRANCH  23  24
ENDBRANCH   1  23
TORSDOF 13
