REMARK SMILES COc1ccc(-n2ccnc2C[N@@H+]2CCn3nc(C(=O)NCCCCNC(=O)c4ccc(-c5c6nc(c(-c7c(F)c(F)c(F)c(F)c7F)c7ccc([nH]7)c(-c7c(F)c(F)c(F)c(F)c7F)c7nc(c(-c8c(F)c(F)c(F)c(F)c8F)c8ccc5[nH]8)C=C7)C=C6)cc4)cc3C2)cc1
REMARK SMILES IDX 22 1 21 2 19 3 20 4 18 6 13 7 14 8 94 9 15 11 93 12 16 13
REMARK SMILES IDX 92 14 17 15 12 16 11 17 7 18 8 19 9 20 10 21 6 22 3 23 4 24
REMARK SMILES IDX 96 25 5 26 95 27 2 28 1 29 23 30 24 31 25 32 26 33 27 34
REMARK SMILES IDX 28 36 29 37 30 38 91 39 31 40 90 41 32 42 33 43 34 44 84 45
REMARK SMILES IDX 35 46 89 47 83 48 85 49 36 50 88 51 82 52 81 53 37 55 69 56
REMARK SMILES IDX 49 57 68 58 50 59 53 60 67 61 86 62 51 63 52 64 66 66 87 67
REMARK SMILES IDX 54 68 38 69 39 70 47 71 40 72 41 73 45 74 48 75 42 76 43 77
REMARK SMILES IDX 46 78 44 79 70 80 71 81 79 82 72 83 73 84 77 85 80 86 74 87
REMARK SMILES IDX 75 88 78 89 76 90 55 91 56 92 64 93 57 94 58 95 62 96 65 97
REMARK SMILES IDX 59 98 60 99 63 100 61 101
REMARK H PARENT 21 5 13 10 26 35 85 54 53 65
REMARK Flexibility Score: inf
ROOT
ATOM      1  C   UNL     1      -0.775   3.856   2.371  1.00  0.00     0.116 C 
ENDROOT
BRANCH   1   2
ATOM      2  N   UNL     1      -1.232   2.608   1.716  1.00  0.00    -0.351 N 
ATOM      3  C   UNL     1      -1.428   1.258   2.034  1.00  0.00     0.271 C 
ATOM      4  O   UNL     1      -1.952   0.605   1.124  1.00  0.00    -0.267 OA
ATOM      5  H   UNL     1      -1.467   2.779   0.775  1.00  0.00     0.163 HD
BRANCH   3   6
ATOM      6  C   UNL     1      -0.988   0.556   3.283  1.00  0.00     0.150 A 
ATOM      7  N   UNL     1       0.828  -0.562   7.214  1.00  0.00    -0.322 N 
ATOM      8  C   UNL     1       1.795  -1.219   6.313  1.00  0.00     0.286 C 
ATOM      9  C   UNL     1      -0.567  -0.791   6.759  1.00  0.00     0.319 C 
ATOM     10  H   UNL     1       1.054  -1.026   8.094  1.00  0.00     0.348 HD
ATOM     11  C   UNL     1       1.348  -1.571   4.865  1.00  0.00     0.206 C 
ATOM     12  C   UNL     1      -0.716  -0.318   5.348  1.00  0.00     0.094 A 
ATOM     13  N   UNL     1       0.191  -0.795   4.458  1.00  0.00    -0.257 N 
ATOM     14  C   UNL     1      -1.482   0.592   4.633  1.00  0.00     0.065 A 
ATOM     15  N   UNL     1      -0.040  -0.413   3.196  1.00  0.00    -0.167 NA
BRANCH   7  16
ATOM     16  C   UNL     1       0.982   0.877   7.528  1.00  0.00     0.339 C 
BRANCH  16  17
ATOM     17  C   UNL     1       2.327   1.543   7.715  1.00  0.00     0.168 A 
ATOM     18  N   UNL     1       3.228   1.886   6.705  1.00  0.00    -0.299 N 
ATOM     19  C   UNL     1       4.196   2.678   7.275  1.00  0.00     0.113 A 
ATOM     20  C   UNL     1       3.827   2.826   8.587  1.00  0.00     0.132 A 
ATOM     21  N   UNL     1       2.712   2.087   8.863  1.00  0.00    -0.236 NA
BRANCH  18  22
ATOM     22  C   UNL     1       3.097   1.726   5.313  1.00  0.00     0.047 A 
ATOM     23  C   UNL     1       2.751   1.415   2.559  1.00  0.00     0.119 A 
ATOM     24  C   UNL     1       1.778   1.961   3.375  1.00  0.00     0.048 A 
ATOM     25  C   UNL     1       3.953   1.049   3.129  1.00  0.00     0.048 A 
ATOM     26  C   UNL     1       1.919   2.138   4.734  1.00  0.00     0.030 A 
ATOM     27  C   UNL     1       4.138   1.216   4.515  1.00  0.00     0.030 A 
BRANCH  23  28
ATOM     28  O   UNL     1       2.553   1.455   1.209  1.00  0.00    -0.497 OA
ATOM     29  C   UNL     1       2.083   0.228   0.655  1.00  0.00     0.278 C 
ENDBRANCH  23  28
ENDBRANCH  18  22
ENDBRANCH  16  17
ENDBRANCH   7  16
ENDBRANCH   3   6
ENDBRANCH   1   2
BRANCH   1  30
ATOM     30  C   UNL     1       0.597   4.426   1.878  1.00  0.00     0.023 C 
BRANCH  30  31
ATOM     31  C   UNL     1       0.686   5.494   0.776  1.00  0.00     0.023 C 
BRANCH  31  32
ATOM     32  C   UNL     1       0.050   6.845   1.061  1.00  0.00     0.116 C 
BRANCH  32  33
ATOM     33  N   UNL     1       0.779   7.685   2.011  1.00  0.00    -0.352 N 
ATOM     34  C   UNL     1       0.321   8.879   2.557  1.00  0.00     0.251 C 
ATOM     35  H   UNL     1       1.672   7.379   2.288  1.00  0.00     0.163 HD
ATOM     36  O   UNL     1       1.078   9.746   2.945  1.00  0.00    -0.269 OA
BRANCH  34  37
ATOM     37  C   UNL     1      -1.142   9.061   2.653  1.00  0.00     0.039 A 
ATOM     38  C   UNL     1      -1.756  10.226   2.195  1.00  0.00     0.014 A 
ATOM     39  C   UNL     1      -1.893   7.984   3.126  1.00  0.00     0.014 A 
ATOM     40  C   UNL     1      -3.146  10.255   2.109  1.00  0.00     0.010 A 
ATOM     41  C   UNL     1      -3.257   7.972   2.937  1.00  0.00     0.010 A 
ATOM     42  C   UNL     1      -3.892   9.107   2.438  1.00  0.00    -0.014 A 
BRANCH  42  43
ATOM     43  C   UNL     1      -5.305   9.027   2.054  1.00  0.00     0.031 A 
ATOM     44  C   UNL     1      -5.544   9.348   0.618  1.00  0.00     0.074 A 
ATOM     45  C   UNL     1      -6.284   8.524   2.840  1.00  0.00     0.049 A 
ATOM     46  N   UNL     1      -6.180  10.367   0.146  1.00  0.00    -0.248 NA
ATOM     47  C   UNL     1      -4.880   8.538  -0.419  1.00  0.00     0.031 C 
ATOM     48  C   UNL     1      -6.130   7.897   4.157  1.00  0.00     0.029 A 
ATOM     49  N   UNL     1      -7.620   8.367   2.591  1.00  0.00    -0.354 N 
ATOM     50  C   UNL     1      -6.190  10.211  -1.239  1.00  0.00     0.074 A 
ATOM     51  C   UNL     1      -5.226   9.186  -1.535  1.00  0.00     0.031 C 
ATOM     52  C   UNL     1      -7.257   7.225   4.477  1.00  0.00     0.029 A 
ATOM     53  C   UNL     1      -8.269   7.506   3.475  1.00  0.00     0.049 A 
ATOM     54  H   UNL     1      -8.083   8.822   1.851  1.00  0.00     0.167 HD
ATOM     55  C   UNL     1      -7.215  10.728  -1.971  1.00  0.00     0.037 A 
ATOM     56  C   UNL     1      -9.543   7.047   3.394  1.00  0.00     0.037 A 
ATOM     57  C   UNL     1      -7.954  11.684  -1.183  1.00  0.00     0.049 A 
ATOM     58  C   UNL     1     -10.293   7.986   2.535  1.00  0.00     0.074 A 
ATOM     59  C   UNL     1      -7.724  12.930  -0.641  1.00  0.00     0.029 A 
ATOM     60  N   UNL     1      -9.013  11.139  -0.510  1.00  0.00    -0.354 N 
ATOM     61  N   UNL     1     -10.589   9.205   2.886  1.00  0.00    -0.248 NA
ATOM     62  C   UNL     1     -10.435   7.691   1.116  1.00  0.00     0.031 C 
ATOM     63  C   UNL     1      -8.520  12.991   0.544  1.00  0.00     0.029 A 
ATOM     64  C   UNL     1      -9.259  11.813   0.651  1.00  0.00     0.049 A 
ATOM     65  H   UNL     1      -9.529  10.361  -0.822  1.00  0.00     0.167 HD
ATOM     66  C   UNL     1     -10.482   9.926   1.714  1.00  0.00     0.074 A 
ATOM     67  C   UNL     1     -10.587   8.933   0.651  1.00  0.00     0.031 C 
ATOM     68  C   UNL     1      -9.986  11.197   1.738  1.00  0.00     0.037 A 
BRANCH  55  69
ATOM     69  C   UNL     1      -7.890  10.013  -3.133  1.00  0.00     0.064 A 
ATOM     70  C   UNL     1      -8.954  10.661  -3.800  1.00  0.00     0.173 A 
ATOM     71  C   UNL     1      -7.786   8.626  -3.380  1.00  0.00     0.173 A 
ATOM     72  F   UNL     1      -9.171  11.974  -3.626  1.00  0.00    -0.203 F 
ATOM     73  C   UNL     1      -9.886   9.959  -4.574  1.00  0.00     0.198 A 
ATOM     74  C   UNL     1      -8.688   7.939  -4.191  1.00  0.00     0.198 A 
ATOM     75  F   UNL     1      -6.890   7.853  -2.758  1.00  0.00    -0.203 F 
ATOM     76  F   UNL     1     -10.954  10.596  -5.072  1.00  0.00    -0.200 F 
ATOM     77  C   UNL     1      -9.756   8.597  -4.762  1.00  0.00     0.200 A 
ATOM     78  F   UNL     1      -8.561   6.612  -4.337  1.00  0.00    -0.200 F 
ATOM     79  F   UNL     1     -10.681   7.909  -5.445  1.00  0.00    -0.200 F 
ENDBRANCH  55  69
BRANCH  56  80
ATOM     80  C   UNL     1     -10.134   5.760   3.836  1.00  0.00     0.064 A 
ATOM     81  C   UNL     1     -11.529   5.591   3.917  1.00  0.00     0.173 A 
ATOM     82  C   UNL     1      -9.361   4.585   3.884  1.00  0.00     0.173 A 
ATOM     83  F   UNL     1     -12.344   6.654   3.849  1.00  0.00    -0.203 F 
ATOM     84  C   UNL     1     -12.115   4.323   3.985  1.00  0.00     0.198 A 
ATOM     85  C   UNL     1      -9.948   3.319   3.958  1.00  0.00     0.198 A 
ATOM     86  F   UNL     1      -8.027   4.636   3.758  1.00  0.00    -0.203 F 
ATOM     87  F   UNL     1     -13.450   4.202   3.978  1.00  0.00    -0.200 F 
ATOM     88  C   UNL     1     -11.324   3.187   3.987  1.00  0.00     0.200 A 
ATOM     89  F   UNL     1      -9.172   2.226   3.926  1.00  0.00    -0.200 F 
ATOM     90  F   UNL     1     -11.885   1.970   3.973  1.00  0.00    -0.200 F 
ENDBRANCH  56  80
BRANCH  68  91
ATOM     91  C   UNL     1     -10.083  11.944   3.035  1.00  0.00     0.064 A 
ATOM     92  C   UNL     1      -9.456  11.568   4.236  1.00  0.00     0.173 A 
ATOM     93  C   UNL     1     -10.822  13.136   3.037  1.00  0.00     0.173 A 
ATOM     94  F   UNL     1      -8.658  10.495   4.297  1.00  0.00    -0.203 F 
ATOM     95  C   UNL     1      -9.620  12.322   5.397  1.00  0.00     0.198 A 
ATOM     96  C   UNL     1     -10.945  13.909   4.185  1.00  0.00     0.198 A 
ATOM     97  F   UNL     1     -11.407  13.566   1.908  1.00  0.00    -0.203 F 
ATOM     98  F   UNL     1      -9.047  11.925   6.543  1.00  0.00    -0.200 F 
ATOM     99  C   UNL     1     -10.360  13.493   5.369  1.00  0.00     0.200 A 
ATOM    100  F   UNL     1     -11.624  15.063   4.139  1.00  0.00    -0.200 F 
ATOM    101  F   UNL     1     -10.496  14.232   6.479  1.00  0.00    -0.200 F 
ENDBRANCH  68  91
ENDBRANCH  42  43
ENDBRANCH  34  37
ENDBRANCH  32  33
ENDBRANCH  31  32
ENDBRANCH  30  31
ENDBRANCH   1  30
TORSDOF 15
