REMARK SMILES CC[C@@](C)(NC(=O)c1ccncc1F)C(=O)NCCCCNC(=O)c1ccc(-c2c3nc(c(-c4c(F)c(F)c(F)c(F)c4F)c4ccc([nH]4)c(-c4c(F)c(F)c(F)c(F)c4F)c4nc(c(-c5c(F)c(F)c(F)c(F)c5F)c5ccc2[nH]5)C=C4)C=C3)cc1
REMARK SMILES IDX 19 1 18 2 17 3 15 4 16 5 3 7 4 8 2 9 1 10 5 11 6 12 7 14
REMARK SMILES IDX 8 15 9 16 13 17 10 18 12 19 14 20 11 21 20 22 21 23 22 24
REMARK SMILES IDX 23 25 24 27 25 28 26 29 87 30 27 31 86 32 28 33 29 34 30 35
REMARK SMILES IDX 80 36 31 37 85 38 79 39 81 40 32 41 84 42 78 43 77 44 33 46
REMARK SMILES IDX 65 47 45 48 64 49 46 50 49 51 63 52 82 53 47 54 48 55 62 57
REMARK SMILES IDX 83 58 50 59 34 60 35 61 43 62 36 63 37 64 41 65 44 66 38 67
REMARK SMILES IDX 39 68 42 69 40 70 66 71 67 72 75 73 68 74 69 75 73 76 76 77
REMARK SMILES IDX 70 78 71 79 74 80 72 81 51 82 52 83 60 84 53 85 54 86 58 87
REMARK SMILES IDX 61 88 55 89 56 90 59 91 57 92
REMARK H PARENT 17 6 5 13 22 26 81 45 49 56
REMARK Flexibility Score: inf
ROOT
ATOM      1  C   UNL     1       2.369   1.234   5.946  1.00  0.00     0.023 C 
ENDROOT
BRANCH   1   2
ATOM      2  C   UNL     1       1.982   2.194   4.818  1.00  0.00     0.116 C 
BRANCH   2   3
ATOM      3  N   UNL     1       2.559   1.973   3.505  1.00  0.00    -0.354 N 
ATOM      4  C   UNL     1       2.233   1.184   2.433  1.00  0.00     0.245 C 
ATOM      5  O   UNL     1       2.858   1.422   1.393  1.00  0.00    -0.272 OA
ATOM      6  H   UNL     1       3.369   2.511   3.349  1.00  0.00     0.163 HD
BRANCH   4   7
ATOM      7  C   UNL     1       1.077   0.145   2.459  1.00  0.00     0.116 C 
ATOM      8  C   UNL     1      -0.227   0.991   2.457  1.00  0.00     0.045 C 
BRANCH   7   9
ATOM      9  C   UNL     1       1.016  -0.797   1.221  1.00  0.00     0.035 C 
ATOM     10  C   UNL     1       1.004  -0.154  -0.163  1.00  0.00     0.007 C 
ENDBRANCH   7   9
BRANCH   7  11
ATOM     11  N   UNL     1       1.057  -0.722   3.669  1.00  0.00    -0.338 N 
ATOM     12  C   UNL     1       1.803  -1.773   4.149  1.00  0.00     0.255 C 
ATOM     13  H   UNL     1       0.325  -0.481   4.281  1.00  0.00     0.164 HD
ATOM     14  O   UNL     1       1.195  -2.501   4.944  1.00  0.00    -0.269 OA
BRANCH  12  15
ATOM     15  C   UNL     1       3.229  -2.128   3.884  1.00  0.00     0.078 A 
ATOM     16  C   UNL     1       3.618  -3.435   4.232  1.00  0.00     0.037 A 
ATOM     17  C   UNL     1       4.255  -1.269   3.525  1.00  0.00     0.154 A 
ATOM     18  C   UNL     1       4.960  -3.796   4.199  1.00  0.00     0.112 A 
ATOM     19  C   UNL     1       5.569  -1.714   3.501  1.00  0.00     0.151 A 
ATOM     20  F   UNL     1       4.089   0.029   3.333  1.00  0.00    -0.204 F 
ATOM     21  N   UNL     1       5.949  -2.961   3.830  1.00  0.00    -0.262 NA
ENDBRANCH  12  15
ENDBRANCH   7  11
ENDBRANCH   4   7
ENDBRANCH   2   3
ENDBRANCH   1   2
BRANCH   1  22
ATOM     22  C   UNL     1       3.846   1.081   6.304  1.00  0.00     0.023 C 
BRANCH  22  23
ATOM     23  C   UNL     1       4.642   2.365   6.432  1.00  0.00     0.116 C 
BRANCH  23  24
ATOM     24  N   UNL     1       4.136   3.222   7.489  1.00  0.00    -0.352 N 
ATOM     25  C   UNL     1       4.818   3.830   8.514  1.00  0.00     0.251 C 
ATOM     26  H   UNL     1       3.166   3.391   7.467  1.00  0.00     0.163 HD
ATOM     27  O   UNL     1       4.201   4.363   9.427  1.00  0.00    -0.269 OA
BRANCH  25  28
ATOM     28  C   UNL     1       6.299   3.824   8.527  1.00  0.00     0.039 A 
ATOM     29  C   UNL     1       6.960   3.607   9.738  1.00  0.00     0.014 A 
ATOM     30  C   UNL     1       7.033   4.051   7.359  1.00  0.00     0.014 A 
ATOM     31  C   UNL     1       8.356   3.576   9.770  1.00  0.00     0.010 A 
ATOM     32  C   UNL     1       8.420   3.935   7.377  1.00  0.00     0.010 A 
ATOM     33  C   UNL     1       9.097   3.714   8.585  1.00  0.00    -0.014 A 
BRANCH  33  34
ATOM     34  C   UNL     1      10.581   3.659   8.593  1.00  0.00     0.031 A 
ATOM     35  C   UNL     1      11.380   4.865   8.184  1.00  0.00     0.074 A 
ATOM     36  C   UNL     1      11.205   2.509   8.914  1.00  0.00     0.049 A 
ATOM     37  N   UNL     1      12.677   5.001   8.066  1.00  0.00    -0.248 NA
ATOM     38  C   UNL     1      10.619   6.074   7.830  1.00  0.00     0.031 C 
ATOM     39  C   UNL     1      10.537   1.260   9.284  1.00  0.00     0.029 A 
ATOM     40  N   UNL     1      12.541   2.201   8.973  1.00  0.00    -0.354 N 
ATOM     41  C   UNL     1      12.882   6.297   7.611  1.00  0.00     0.074 A 
ATOM     42  C   UNL     1      11.578   6.889   7.416  1.00  0.00     0.031 C 
ATOM     43  C   UNL     1      11.466   0.330   9.558  1.00  0.00     0.029 A 
ATOM     44  C   UNL     1      12.791   0.902   9.343  1.00  0.00     0.049 A 
ATOM     45  H   UNL     1      13.253   2.850   8.770  1.00  0.00     0.167 HD
ATOM     46  C   UNL     1      14.054   6.943   7.399  1.00  0.00     0.037 A 
ATOM     47  C   UNL     1      13.959   0.246   9.485  1.00  0.00     0.037 A 
ATOM     48  C   UNL     1      15.349   6.355   7.620  1.00  0.00     0.049 A 
ATOM     49  C   UNL     1      15.246   0.985   9.231  1.00  0.00     0.074 A 
ATOM     50  C   UNL     1      16.596   6.942   7.498  1.00  0.00     0.029 A 
ATOM     51  N   UNL     1      15.562   5.039   8.006  1.00  0.00    -0.354 N 
ATOM     52  N   UNL     1      15.430   2.233   8.875  1.00  0.00    -0.248 NA
ATOM     53  C   UNL     1      16.491   0.223   9.407  1.00  0.00     0.031 C 
ATOM     54  C   UNL     1      17.565   5.967   7.754  1.00  0.00     0.029 A 
ATOM     55  C   UNL     1      16.922   4.788   8.098  1.00  0.00     0.049 A 
ATOM     56  H   UNL     1      14.853   4.381   8.187  1.00  0.00     0.167 HD
ATOM     57  C   UNL     1      16.805   2.416   8.815  1.00  0.00     0.074 A 
ATOM     58  C   UNL     1      17.409   1.153   9.188  1.00  0.00     0.031 C 
ATOM     59  C   UNL     1      17.505   3.528   8.482  1.00  0.00     0.037 A 
BRANCH  46  60
ATOM     60  C   UNL     1      13.990   8.359   6.901  1.00  0.00     0.064 A 
ATOM     61  C   UNL     1      13.509   9.405   7.704  1.00  0.00     0.173 A 
ATOM     62  C   UNL     1      14.451   8.682   5.615  1.00  0.00     0.173 A 
ATOM     63  F   UNL     1      13.046   9.151   8.937  1.00  0.00    -0.203 F 
ATOM     64  C   UNL     1      13.461  10.713   7.228  1.00  0.00     0.198 A 
ATOM     65  C   UNL     1      14.434   9.996   5.155  1.00  0.00     0.198 A 
ATOM     66  F   UNL     1      14.927   7.724   4.806  1.00  0.00    -0.203 F 
ATOM     67  F   UNL     1      12.947  11.685   7.994  1.00  0.00    -0.200 F 
ATOM     68  C   UNL     1      13.931  11.009   5.957  1.00  0.00     0.200 A 
ATOM     69  F   UNL     1      14.903  10.283   3.932  1.00  0.00    -0.200 F 
ATOM     70  F   UNL     1      13.893  12.269   5.504  1.00  0.00    -0.200 F 
ENDBRANCH  46  60
BRANCH  47  71
ATOM     71  C   UNL     1      13.968  -1.178   9.911  1.00  0.00     0.064 A 
ATOM     72  C   UNL     1      14.473  -1.551  11.165  1.00  0.00     0.173 A 
ATOM     73  C   UNL     1      13.486  -2.196   9.075  1.00  0.00     0.173 A 
ATOM     74  F   UNL     1      14.965  -0.618  11.993  1.00  0.00    -0.203 F 
ATOM     75  C   UNL     1      14.519  -2.888  11.556  1.00  0.00     0.198 A 
ATOM     76  C   UNL     1      13.502  -3.530   9.480  1.00  0.00     0.198 A 
ATOM     77  F   UNL     1      12.987  -1.894   7.868  1.00  0.00    -0.203 F 
ATOM     78  F   UNL     1      15.057  -3.220  12.737  1.00  0.00    -0.200 F 
ATOM     79  C   UNL     1      14.029  -3.876  10.715  1.00  0.00     0.200 A 
ATOM     80  F   UNL     1      13.013  -4.479   8.671  1.00  0.00    -0.200 F 
ATOM     81  F   UNL     1      14.071  -5.161  11.092  1.00  0.00    -0.200 F 
ENDBRANCH  47  71
BRANCH  59  82
ATOM     82  C   UNL     1      19.004   3.444   8.546  1.00  0.00     0.064 A 
ATOM     83  C   UNL     1      19.743   2.690   7.623  1.00  0.00     0.173 A 
ATOM     84  C   UNL     1      19.711   4.163   9.523  1.00  0.00     0.173 A 
ATOM     85  F   UNL     1      19.115   1.973   6.679  1.00  0.00    -0.203 F 
ATOM     86  C   UNL     1      21.133   2.636   7.694  1.00  0.00     0.198 A 
ATOM     87  C   UNL     1      21.101   4.135   9.568  1.00  0.00     0.198 A 
ATOM     88  F   UNL     1      19.052   4.907  10.425  1.00  0.00    -0.203 F 
ATOM     89  F   UNL     1      21.815   1.866   6.834  1.00  0.00    -0.200 F 
ATOM     90  C   UNL     1      21.811   3.364   8.660  1.00  0.00     0.200 A 
ATOM     91  F   UNL     1      21.755   4.854  10.491  1.00  0.00    -0.200 F 
ATOM     92  F   UNL     1      23.148   3.318   8.719  1.00  0.00    -0.200 F 
ENDBRANCH  59  82
ENDBRANCH  33  34
ENDBRANCH  25  28
ENDBRANCH  23  24
ENDBRANCH  22  23
ENDBRANCH   1  22
TORSDOF 14
