REMARK SMILES CCc1cc(OC(F)(F)F)cc2c1O[C@H](C(F)(F)F)C(C(=O)NCCCCNC(=O)c1ccc(-c3c4nc(c(-c5c(F)c(F)c(F)c(F)c5F)c5ccc([nH]5)c(-c5c(F)c(F)c(F)c(F)c5F)c5nc(c(-c6c(F)c(F)c(F)c(F)c6F)c6ccc3[nH]6)C=C5)C=C4)cc1)=C2
REMARK SMILES IDX 25 1 24 2 23 3 21 4 22 5 20 7 3 8 4 9 13 10 5 11 12 12 14 13
REMARK SMILES IDX 11 14 94 15 15 16 2 17 1 18 6 19 7 20 8 21 9 22 10 23 16 24
REMARK SMILES IDX 17 25 18 26 19 27 26 28 27 29 28 30 29 31 30 33 31 34 32 35
REMARK SMILES IDX 93 36 33 37 92 38 34 39 35 40 36 41 86 42 37 43 91 44 85 45
REMARK SMILES IDX 87 46 38 47 90 48 84 49 83 50 39 52 71 53 51 54 70 55 52 56
REMARK SMILES IDX 55 57 69 58 88 59 53 60 54 61 68 63 89 64 56 65 40 66 41 67
REMARK SMILES IDX 49 68 42 69 43 70 47 71 50 72 44 73 45 74 48 75 46 76 72 77
REMARK SMILES IDX 73 78 81 79 74 80 75 81 79 82 82 83 76 84 77 85 80 86 78 87
REMARK SMILES IDX 57 88 58 89 66 90 59 91 60 92 64 93 67 94 61 95 62 96 65 97
REMARK SMILES IDX 63 98
REMARK H PARENT 23 6 28 32 87 51 55 62
REMARK Flexibility Score: inf
ROOT
ATOM      1  C   UNL     1      -0.453   9.043   1.339  1.00  0.00     0.023 C 
ENDROOT
BRANCH   1   2
ATOM      2  C   UNL     1      -0.687   8.246   2.625  1.00  0.00     0.116 C 
BRANCH   2   3
ATOM      3  N   UNL     1      -1.966   7.568   2.580  1.00  0.00    -0.352 N 
ATOM      4  C   UNL     1      -2.340   6.338   2.144  1.00  0.00     0.251 C 
ATOM      5  O   UNL     1      -3.528   6.040   2.262  1.00  0.00    -0.270 OA
ATOM      6  H   UNL     1      -2.711   8.104   2.935  1.00  0.00     0.163 HD
BRANCH   4   7
ATOM      7  C   UNL     1      -1.385   5.316   1.627  1.00  0.00     0.067 C 
ATOM      8  C   UNL     1       1.098   2.014   0.800  1.00  0.00    -0.002 A 
ATOM      9  C   UNL     1       2.381   2.255   0.271  1.00  0.00     0.054 A 
ATOM     10  C   UNL     1       0.268   3.113   1.078  1.00  0.00     0.131 A 
ATOM     11  C   UNL     1       2.810   3.552  -0.020  1.00  0.00     0.130 A 
ATOM     12  C   UNL     1       0.684   4.412   0.778  1.00  0.00     0.021 A 
ATOM     13  O   UNL     1      -0.913   2.875   1.727  1.00  0.00    -0.475 OA
ATOM     14  C   UNL     1       1.950   4.624   0.225  1.00  0.00     0.058 A 
ATOM     15  C   UNL     1      -0.161   5.546   1.133  1.00  0.00     0.025 C 
ATOM     16  C   UNL     1      -1.941   3.899   1.628  1.00  0.00     0.314 C 
BRANCH   8  17
ATOM     17  C   UNL     1       0.648   0.601   1.114  1.00  0.00     0.036 C 
ATOM     18  C   UNL     1       0.947  -0.408   0.010  1.00  0.00     0.009 C 
ENDBRANCH   8  17
BRANCH  11  19
ATOM     19  O   UNL     1       4.028   3.915  -0.521  1.00  0.00    -0.406 OA
BRANCH  19  20
ATOM     20  C   UNL     1       4.951   2.886  -0.835  1.00  0.00     0.573 C 
ATOM     21  F   UNL     1       5.288   2.181   0.266  1.00  0.00    -0.132 F 
ATOM     22  F   UNL     1       4.450   2.053  -1.771  1.00  0.00    -0.132 F 
ATOM     23  F   UNL     1       6.074   3.451  -1.331  1.00  0.00    -0.132 F 
ENDBRANCH  19  20
ENDBRANCH  11  19
BRANCH  16  24
ATOM     24  C   UNL     1      -2.845   3.615   0.409  1.00  0.00     0.429 C 
ATOM     25  F   UNL     1      -2.315   4.097  -0.743  1.00  0.00    -0.167 F 
ATOM     26  F   UNL     1      -3.021   2.281   0.230  1.00  0.00    -0.167 F 
ATOM     27  F   UNL     1      -4.081   4.146   0.533  1.00  0.00    -0.167 F 
ENDBRANCH  16  24
ENDBRANCH   4   7
ENDBRANCH   2   3
ENDBRANCH   1   2
BRANCH   1  28
ATOM     28  C   UNL     1      -1.126  10.418   1.325  1.00  0.00     0.023 C 
BRANCH  28  29
ATOM     29  C   UNL     1      -0.613  11.392   2.381  1.00  0.00     0.116 C 
BRANCH  29  30
ATOM     30  N   UNL     1       0.821  11.619   2.309  1.00  0.00    -0.352 N 
ATOM     31  C   UNL     1       1.533  12.743   2.655  1.00  0.00     0.251 C 
ATOM     32  H   UNL     1       1.355  10.866   1.966  1.00  0.00     0.163 HD
ATOM     33  O   UNL     1       2.734  12.806   2.438  1.00  0.00    -0.269 OA
BRANCH  31  34
ATOM     34  C   UNL     1       0.822  13.895   3.246  1.00  0.00     0.039 A 
ATOM     35  C   UNL     1       1.050  15.164   2.708  1.00  0.00     0.014 A 
ATOM     36  C   UNL     1      -0.084  13.724   4.295  1.00  0.00     0.014 A 
ATOM     37  C   UNL     1       0.315  16.252   3.177  1.00  0.00     0.010 A 
ATOM     38  C   UNL     1      -0.866  14.796   4.714  1.00  0.00     0.010 A 
ATOM     39  C   UNL     1      -0.677  16.069   4.155  1.00  0.00    -0.014 A 
BRANCH  39  40
ATOM     40  C   UNL     1      -1.543  17.197   4.575  1.00  0.00     0.031 A 
ATOM     41  C   UNL     1      -1.482  17.724   5.980  1.00  0.00     0.074 A 
ATOM     42  C   UNL     1      -2.425  17.710   3.696  1.00  0.00     0.049 A 
ATOM     43  N   UNL     1      -2.169  18.694   6.529  1.00  0.00    -0.248 NA
ATOM     44  C   UNL     1      -0.546  17.058   6.897  1.00  0.00     0.031 C 
ATOM     45  C   UNL     1      -2.623  17.238   2.324  1.00  0.00     0.029 A 
ATOM     46  N   UNL     1      -3.324  18.739   3.825  1.00  0.00    -0.354 N 
ATOM     47  C   UNL     1      -1.753  18.750   7.852  1.00  0.00     0.074 A 
ATOM     48  C   UNL     1      -0.797  17.680   8.040  1.00  0.00     0.031 C 
ATOM     49  C   UNL     1      -3.559  17.993   1.730  1.00  0.00     0.029 A 
ATOM     50  C   UNL     1      -4.049  18.982   2.684  1.00  0.00     0.049 A 
ATOM     51  H   UNL     1      -3.438  19.254   4.656  1.00  0.00     0.167 HD
ATOM     52  C   UNL     1      -2.117  19.630   8.814  1.00  0.00     0.037 A 
ATOM     53  C   UNL     1      -5.001  19.901   2.437  1.00  0.00     0.037 A 
ATOM     54  C   UNL     1      -3.054  20.705   8.616  1.00  0.00     0.049 A 
ATOM     55  C   UNL     1      -5.380  20.872   3.522  1.00  0.00     0.074 A 
ATOM     56  C   UNL     1      -3.438  21.692   9.507  1.00  0.00     0.029 A 
ATOM     57  N   UNL     1      -3.760  20.931   7.442  1.00  0.00    -0.354 N 
ATOM     58  N   UNL     1      -4.917  20.970   4.744  1.00  0.00    -0.248 NA
ATOM     59  C   UNL     1      -6.409  21.866   3.187  1.00  0.00     0.031 C 
ATOM     60  C   UNL     1      -4.410  22.486   8.888  1.00  0.00     0.029 A 
ATOM     61  C   UNL     1      -4.595  22.026   7.595  1.00  0.00     0.049 A 
ATOM     62  H   UNL     1      -3.678  20.392   6.622  1.00  0.00     0.167 HD
ATOM     63  C   UNL     1      -5.578  22.047   5.317  1.00  0.00     0.074 A 
ATOM     64  C   UNL     1      -6.460  22.583   4.301  1.00  0.00     0.031 C 
ATOM     65  C   UNL     1      -5.469  22.545   6.573  1.00  0.00     0.037 A 
BRANCH  52  66
ATOM     66  C   UNL     1      -1.493  19.472  10.170  1.00  0.00     0.064 A 
ATOM     67  C   UNL     1      -0.135  19.753  10.391  1.00  0.00     0.173 A 
ATOM     68  C   UNL     1      -2.266  19.072  11.270  1.00  0.00     0.173 A 
ATOM     69  F   UNL     1       0.651  20.128   9.371  1.00  0.00    -0.203 F 
ATOM     70  C   UNL     1       0.430  19.610  11.655  1.00  0.00     0.198 A 
ATOM     71  C   UNL     1      -1.704  18.960  12.539  1.00  0.00     0.198 A 
ATOM     72  F   UNL     1      -3.570  18.796  11.116  1.00  0.00    -0.203 F 
ATOM     73  F   UNL     1       1.739  19.837  11.831  1.00  0.00    -0.200 F 
ATOM     74  C   UNL     1      -0.356  19.221  12.729  1.00  0.00     0.200 A 
ATOM     75  F   UNL     1      -2.467  18.595  13.579  1.00  0.00    -0.200 F 
ATOM     76  F   UNL     1       0.188  19.092  13.947  1.00  0.00    -0.200 F 
ENDBRANCH  52  66
BRANCH  53  77
ATOM     77  C   UNL     1      -5.636  19.968   1.096  1.00  0.00     0.064 A 
ATOM     78  C   UNL     1      -5.382  21.044   0.234  1.00  0.00     0.173 A 
ATOM     79  C   UNL     1      -6.507  18.964   0.648  1.00  0.00     0.173 A 
ATOM     80  F   UNL     1      -4.571  22.038   0.625  1.00  0.00    -0.203 F 
ATOM     81  C   UNL     1      -5.991  21.124  -1.017  1.00  0.00     0.198 A 
ATOM     82  C   UNL     1      -7.094  19.031  -0.614  1.00  0.00     0.198 A 
ATOM     83  F   UNL     1      -6.777  17.911   1.433  1.00  0.00    -0.203 F 
ATOM     84  F   UNL     1      -5.766  22.185  -1.803  1.00  0.00    -0.200 F 
ATOM     85  C   UNL     1      -6.842  20.114  -1.442  1.00  0.00     0.200 A 
ATOM     86  F   UNL     1      -7.903  18.046  -1.027  1.00  0.00    -0.200 F 
ATOM     87  F   UNL     1      -7.424  20.189  -2.646  1.00  0.00    -0.200 F 
ENDBRANCH  53  77
BRANCH  65  88
ATOM     88  C   UNL     1      -6.310  23.742   6.909  1.00  0.00     0.064 A 
ATOM     89  C   UNL     1      -7.700  23.641   7.067  1.00  0.00     0.173 A 
ATOM     90  C   UNL     1      -5.715  24.998   7.100  1.00  0.00     0.173 A 
ATOM     91  F   UNL     1      -8.318  22.465   6.879  1.00  0.00    -0.203 F 
ATOM     92  C   UNL     1      -8.468  24.762   7.373  1.00  0.00     0.198 A 
ATOM     93  C   UNL     1      -6.482  26.110   7.437  1.00  0.00     0.198 A 
ATOM     94  F   UNL     1      -4.388  25.146   6.968  1.00  0.00    -0.203 F 
ATOM     95  F   UNL     1      -9.800  24.653   7.466  1.00  0.00    -0.200 F 
ATOM     96  C   UNL     1      -7.858  25.993   7.564  1.00  0.00     0.200 A 
ATOM     97  F   UNL     1      -5.890  27.296   7.634  1.00  0.00    -0.200 F 
ATOM     98  F   UNL     1      -8.598  27.069   7.863  1.00  0.00    -0.200 F 
ENDBRANCH  65  88
ENDBRANCH  39  40
ENDBRANCH  31  34
ENDBRANCH  29  30
ENDBRANCH  28  29
ENDBRANCH   1  28
TORSDOF 15
