REMARK SMILES O=C(NCCCCNC(=O)c1sccc1NS(=O)(=O)N1CCCC1)c1ccc(-c2c3nc(c(-c4c(F)c(F)c(F)c(F)c4F)c4ccc([nH]4)c(-c4c(F)c(F)c(F)c(F)c4F)c4nc(c(-c5c(F)c(F)c(F)c(F)c5F)c5ccc2[nH]5)C=C4)C=C3)cc1
REMARK SMILES IDX 6 1 5 2 4 3 3 4 1 5 2 6 25 8 26 9 87 10 27 11 86 12 28 13
REMARK SMILES IDX 29 14 30 15 80 16 31 17 85 18 79 19 81 20 32 21 84 22 78 23
REMARK SMILES IDX 77 24 33 26 65 27 45 28 64 29 46 30 49 31 63 32 82 33 47 34
REMARK SMILES IDX 48 35 62 37 83 38 50 39 34 40 35 41 43 42 36 43 37 44 41 45
REMARK SMILES IDX 44 46 38 47 39 48 42 49 40 50 66 51 67 52 75 53 68 54 69 55
REMARK SMILES IDX 73 56 76 57 70 58 71 59 74 60 72 61 51 62 52 63 60 64 53 65
REMARK SMILES IDX 54 66 58 67 61 68 55 69 56 70 59 71 57 72 7 73 8 74 9 75
REMARK SMILES IDX 10 77 11 78 12 79 15 80 13 81 14 82 16 83 17 85 18 86 19 87
REMARK SMILES IDX 20 88 21 89 24 90 22 91 23 92
REMARK H PARENT 3 7 81 25 49 36 8 76 16 84
REMARK Flexibility Score: inf
ROOT
ATOM      1  C   UNL     1       4.490  -2.603  -2.753  1.00  0.00     0.023 C 
ENDROOT
BRANCH   1   2
ATOM      2  C   UNL     1       4.941  -2.123  -1.377  1.00  0.00     0.023 C 
BRANCH   2   3
ATOM      3  C   UNL     1       4.607  -0.673  -1.055  1.00  0.00     0.116 C 
BRANCH   3   4
ATOM      4  N   UNL     1       3.177  -0.410  -0.993  1.00  0.00    -0.352 N 
ATOM      5  O   UNL     1       1.202   0.108  -0.020  1.00  0.00    -0.269 OA
ATOM      6  C   UNL     1       2.426   0.083   0.050  1.00  0.00     0.251 C 
ATOM      7  H   UNL     1       2.674  -0.614  -1.815  1.00  0.00     0.163 HD
BRANCH   6   8
ATOM      8  C   UNL     1       3.105   0.553   1.277  1.00  0.00     0.039 A 
ATOM      9  C   UNL     1       4.247   1.349   1.190  1.00  0.00     0.014 A 
ATOM     10  C   UNL     1       2.614   0.166   2.527  1.00  0.00     0.014 A 
ATOM     11  C   UNL     1       5.003   1.594   2.328  1.00  0.00     0.010 A 
ATOM     12  C   UNL     1       3.316   0.514   3.685  1.00  0.00     0.010 A 
ATOM     13  C   UNL     1       4.541   1.192   3.593  1.00  0.00    -0.014 A 
BRANCH  13  14
ATOM     14  C   UNL     1       5.338   1.546   4.796  1.00  0.00     0.031 A 
ATOM     15  C   UNL     1       5.928   0.487   5.687  1.00  0.00     0.074 A 
ATOM     16  C   UNL     1       5.562   2.849   5.058  1.00  0.00     0.049 A 
ATOM     17  N   UNL     1       6.680   0.629   6.751  1.00  0.00    -0.248 NA
ATOM     18  C   UNL     1       5.632  -0.912   5.349  1.00  0.00     0.031 C 
ATOM     19  C   UNL     1       5.037   3.966   4.269  1.00  0.00     0.029 A 
ATOM     20  N   UNL     1       6.307   3.456   6.036  1.00  0.00    -0.354 N 
ATOM     21  C   UNL     1       6.928  -0.655   7.220  1.00  0.00     0.074 A 
ATOM     22  C   UNL     1       6.221  -1.563   6.343  1.00  0.00     0.031 C 
ATOM     23  C   UNL     1       5.524   5.115   4.754  1.00  0.00     0.029 A 
ATOM     24  C   UNL     1       6.331   4.825   5.932  1.00  0.00     0.049 A 
ATOM     25  H   UNL     1       6.778   2.959   6.743  1.00  0.00     0.167 HD
ATOM     26  C   UNL     1       7.682  -1.037   8.280  1.00  0.00     0.037 A 
ATOM     27  C   UNL     1       6.924   5.750   6.709  1.00  0.00     0.037 A 
ATOM     28  C   UNL     1       8.392  -0.124   9.143  1.00  0.00     0.049 A 
ATOM     29  C   UNL     1       7.717   5.296   7.901  1.00  0.00     0.074 A 
ATOM     30  C   UNL     1       9.215  -0.414  10.217  1.00  0.00     0.029 A 
ATOM     31  N   UNL     1       8.353   1.260   9.036  1.00  0.00    -0.354 N 
ATOM     32  N   UNL     1       7.980   4.079   8.307  1.00  0.00    -0.248 NA
ATOM     33  C   UNL     1       8.294   6.351   8.744  1.00  0.00     0.031 C 
ATOM     34  C   UNL     1       9.621   0.792  10.799  1.00  0.00     0.029 A 
ATOM     35  C   UNL     1       9.110   1.836  10.045  1.00  0.00     0.049 A 
ATOM     36  H   UNL     1       7.860   1.759   8.345  1.00  0.00     0.167 HD
ATOM     37  C   UNL     1       8.775   4.217   9.435  1.00  0.00     0.074 A 
ATOM     38  C   UNL     1       8.968   5.639   9.636  1.00  0.00     0.031 C 
ATOM     39  C   UNL     1       9.298   3.253  10.233  1.00  0.00     0.037 A 
BRANCH  26  40
ATOM     40  C   UNL     1       7.758  -2.507   8.591  1.00  0.00     0.064 A 
ATOM     41  C   UNL     1       8.427  -3.412   7.753  1.00  0.00     0.173 A 
ATOM     42  C   UNL     1       7.183  -3.013   9.768  1.00  0.00     0.173 A 
ATOM     43  F   UNL     1       8.989  -2.987   6.611  1.00  0.00    -0.203 F 
ATOM     44  C   UNL     1       8.486  -4.770   8.062  1.00  0.00     0.198 A 
ATOM     45  C   UNL     1       7.274  -4.365  10.092  1.00  0.00     0.198 A 
ATOM     46  F   UNL     1       6.539  -2.194  10.613  1.00  0.00    -0.203 F 
ATOM     47  F   UNL     1       9.083  -5.622   7.218  1.00  0.00    -0.200 F 
ATOM     48  C   UNL     1       7.916  -5.244   9.234  1.00  0.00     0.200 A 
ATOM     49  F   UNL     1       6.737  -4.817  11.233  1.00  0.00    -0.200 F 
ATOM     50  F   UNL     1       7.980  -6.549   9.533  1.00  0.00    -0.200 F 
ENDBRANCH  26  40
BRANCH  27  51
ATOM     51  C   UNL     1       6.787   7.192   6.379  1.00  0.00     0.064 A 
ATOM     52  C   UNL     1       7.896   7.946   5.972  1.00  0.00     0.173 A 
ATOM     53  C   UNL     1       5.548   7.845   6.460  1.00  0.00     0.173 A 
ATOM     54  F   UNL     1       9.105   7.371   5.896  1.00  0.00    -0.203 F 
ATOM     55  C   UNL     1       7.774   9.302   5.678  1.00  0.00     0.198 A 
ATOM     56  C   UNL     1       5.420   9.192   6.131  1.00  0.00     0.198 A 
ATOM     57  F   UNL     1       4.454   7.167   6.838  1.00  0.00    -0.203 F 
ATOM     58  F   UNL     1       8.859  10.011   5.339  1.00  0.00    -0.200 F 
ATOM     59  C   UNL     1       6.536   9.922   5.751  1.00  0.00     0.200 A 
ATOM     60  F   UNL     1       4.218   9.781   6.184  1.00  0.00    -0.200 F 
ATOM     61  F   UNL     1       6.418  11.225   5.461  1.00  0.00    -0.200 F 
ENDBRANCH  27  51
BRANCH  39  62
ATOM     62  C   UNL     1      10.168   3.707  11.371  1.00  0.00     0.064 A 
ATOM     63  C   UNL     1       9.643   4.388  12.480  1.00  0.00     0.173 A 
ATOM     64  C   UNL     1      11.547   3.447  11.354  1.00  0.00     0.173 A 
ATOM     65  F   UNL     1       8.334   4.678  12.538  1.00  0.00    -0.203 F 
ATOM     66  C   UNL     1      10.472   4.822  13.512  1.00  0.00     0.198 A 
ATOM     67  C   UNL     1      12.366   3.850  12.405  1.00  0.00     0.198 A 
ATOM     68  F   UNL     1      12.100   2.795  10.321  1.00  0.00    -0.203 F 
ATOM     69  F   UNL     1       9.958   5.527  14.529  1.00  0.00    -0.200 F 
ATOM     70  C   UNL     1      11.831   4.547  13.476  1.00  0.00     0.200 A 
ATOM     71  F   UNL     1      13.676   3.569  12.376  1.00  0.00    -0.200 F 
ATOM     72  F   UNL     1      12.626   4.964  14.471  1.00  0.00    -0.200 F 
ENDBRANCH  39  62
ENDBRANCH  13  14
ENDBRANCH   6   8
ENDBRANCH   3   4
ENDBRANCH   2   3
ENDBRANCH   1   2
BRANCH   1  73
ATOM     73  C   UNL     1       4.933  -1.721  -3.916  1.00  0.00     0.116 C 
BRANCH  73  74
ATOM     74  N   UNL     1       6.374  -1.613  -4.024  1.00  0.00    -0.351 N 
ATOM     75  C   UNL     1       7.193  -1.938  -5.078  1.00  0.00     0.263 C 
ATOM     76  H   UNL     1       6.831  -1.256  -3.228  1.00  0.00     0.163 HD
ATOM     77  O   UNL     1       8.406  -1.888  -4.877  1.00  0.00    -0.268 OA
BRANCH  75  78
ATOM     78  C   UNL     1       6.608  -2.303  -6.350  1.00  0.00     0.116 A 
ATOM     79  S   UNL     1       7.021  -3.839  -6.991  1.00  0.00    -0.136 S 
ATOM     80  C   UNL     1       5.758  -1.597  -7.189  1.00  0.00     0.073 A 
ATOM     81  C   UNL     1       6.144  -3.547  -8.423  1.00  0.00     0.068 A 
ATOM     82  C   UNL     1       5.564  -2.300  -8.418  1.00  0.00     0.039 A 
BRANCH  80  83
ATOM     83  N   UNL     1       5.261  -0.304  -6.961  1.00  0.00    -0.269 N 
ATOM     84  H   UNL     1       5.931   0.383  -6.738  1.00  0.00     0.181 HD
BRANCH  83  85
ATOM     85  S   UNL     1       3.671   0.215  -7.023  1.00  0.00     0.301 S 
ATOM     86  O   UNL     1       3.141   0.104  -5.679  1.00  0.00    -0.189 OA
ATOM     87  O   UNL     1       3.701   1.499  -7.679  1.00  0.00    -0.189 OA
BRANCH  85  88
ATOM     88  N   UNL     1       2.797  -0.854  -8.002  1.00  0.00    -0.185 NA
ATOM     89  C   UNL     1       1.443  -0.320  -8.363  1.00  0.00     0.104 C 
ATOM     90  C   UNL     1       2.561  -2.234  -7.465  1.00  0.00     0.104 C 
ATOM     91  C   UNL     1       0.482  -1.057  -7.448  1.00  0.00     0.018 C 
ATOM     92  C   UNL     1       1.054  -2.454  -7.444  1.00  0.00     0.018 C 
ENDBRANCH  85  88
ENDBRANCH  83  85
ENDBRANCH  80  83
ENDBRANCH  75  78
ENDBRANCH  73  74
ENDBRANCH   1  73
TORSDOF 14
