REMARK SMILES O=C(NCCCCNC(=O)[C@H]1CC2=c3ccccc3=N[C@H]2[C@@H](c2ccccc2)[NH2+]1)c1ccc(-c2c3nc(c(-c4c(F)c(F)c(F)c(F)c4F)c4ccc([nH]4)c(-c4c(F)c(F)c(F)c(F)c4F)c4nc(c(-c5c(F)c(F)c(F)c(F)c5F)c5ccc2[nH]5)C=C4)C=C3)cc1
REMARK SMILES IDX 5 1 4 2 3 3 1 4 2 5 30 7 31 8 92 9 32 10 91 11 33 12 34 13
REMARK SMILES IDX 35 14 85 15 36 16 90 17 84 18 86 19 37 20 89 21 83 22 82 23
REMARK SMILES IDX 38 25 70 26 50 27 69 28 51 29 54 30 68 31 87 32 52 33 53 34
REMARK SMILES IDX 67 36 88 37 55 38 39 39 40 40 48 41 41 42 42 43 46 44 49 45
REMARK SMILES IDX 43 46 44 47 47 48 45 49 71 50 72 51 80 52 73 53 74 54 78 55
REMARK SMILES IDX 81 56 75 57 76 58 79 59 77 60 56 61 57 62 65 63 58 64 59 65
REMARK SMILES IDX 63 66 66 67 60 68 61 69 64 70 62 71 6 72 7 73 8 74 9 75
REMARK SMILES IDX 10 77 11 78 12 79 29 80 13 81 22 82 14 85 21 86 15 87 19 88
REMARK SMILES IDX 20 89 16 90 18 91 17 92 23 93 24 94 28 95 25 96 27 97 26 98
REMARK H PARENT 3 6 86 24 54 35 8 76 29 83 29 84
REMARK Flexibility Score: inf
ROOT
ATOM      1  C   UNL     1       4.883   2.454   0.520  1.00  0.00     0.023 C 
ENDROOT
BRANCH   1   2
ATOM      2  C   UNL     1       4.504   0.980   0.419  1.00  0.00     0.116 C 
BRANCH   2   3
ATOM      3  N   UNL     1       3.066   0.775   0.531  1.00  0.00    -0.352 N 
ATOM      4  O   UNL     1       1.037  -0.026  -0.026  1.00  0.00    -0.269 OA
ATOM      5  C   UNL     1       2.257  -0.079  -0.158  1.00  0.00     0.251 C 
ATOM      6  H   UNL     1       2.613   1.335   1.203  1.00  0.00     0.163 HD
BRANCH   5   7
ATOM      7  C   UNL     1       2.865  -1.052  -1.072  1.00  0.00     0.039 A 
ATOM      8  C   UNL     1       2.360  -1.157  -2.368  1.00  0.00     0.014 A 
ATOM      9  C   UNL     1       3.927  -1.852  -0.641  1.00  0.00     0.014 A 
ATOM     10  C   UNL     1       2.936  -2.066  -3.249  1.00  0.00     0.010 A 
ATOM     11  C   UNL     1       4.544  -2.706  -1.541  1.00  0.00     0.010 A 
ATOM     12  C   UNL     1       4.036  -2.837  -2.843  1.00  0.00    -0.014 A 
BRANCH  12  13
ATOM     13  C   UNL     1       4.626  -3.857  -3.735  1.00  0.00     0.031 A 
ATOM     14  C   UNL     1       4.500  -5.307  -3.363  1.00  0.00     0.074 A 
ATOM     15  C   UNL     1       5.288  -3.479  -4.843  1.00  0.00     0.049 A 
ATOM     16  N   UNL     1       5.043  -6.355  -3.924  1.00  0.00    -0.248 NA
ATOM     17  C   UNL     1       3.665  -5.619  -2.188  1.00  0.00     0.031 C 
ATOM     18  C   UNL     1       5.457  -2.099  -5.301  1.00  0.00     0.029 A 
ATOM     19  N   UNL     1       5.947  -4.226  -5.784  1.00  0.00    -0.354 N 
ATOM     20  C   UNL     1       4.619  -7.443  -3.173  1.00  0.00     0.074 A 
ATOM     21  C   UNL     1       3.825  -6.930  -2.081  1.00  0.00     0.031 C 
ATOM     22  C   UNL     1       6.150  -2.101  -6.452  1.00  0.00     0.029 A 
ATOM     23  C   UNL     1       6.519  -3.474  -6.781  1.00  0.00     0.049 A 
ATOM     24  H   UNL     1       6.005  -5.208  -5.749  1.00  0.00     0.167 HD
ATOM     25  C   UNL     1       4.849  -8.756  -3.398  1.00  0.00     0.037 A 
ATOM     26  C   UNL     1       7.267  -3.860  -7.831  1.00  0.00     0.037 A 
ATOM     27  C   UNL     1       5.624  -9.257  -4.501  1.00  0.00     0.049 A 
ATOM     28  C   UNL     1       7.563  -5.326  -8.012  1.00  0.00     0.074 A 
ATOM     29  C   UNL     1       5.931 -10.569  -4.813  1.00  0.00     0.029 A 
ATOM     30  N   UNL     1       6.200  -8.464  -5.482  1.00  0.00    -0.354 N 
ATOM     31  N   UNL     1       7.163  -6.348  -7.295  1.00  0.00    -0.248 NA
ATOM     32  C   UNL     1       8.414  -5.691  -9.152  1.00  0.00     0.031 C 
ATOM     33  C   UNL     1       6.721 -10.569  -5.964  1.00  0.00     0.029 A 
ATOM     34  C   UNL     1       6.859  -9.261  -6.402  1.00  0.00     0.049 A 
ATOM     35  H   UNL     1       6.148  -7.481  -5.519  1.00  0.00     0.167 HD
ATOM     36  C   UNL     1       7.668  -7.477  -7.925  1.00  0.00     0.074 A 
ATOM     37  C   UNL     1       8.398  -7.014  -9.087  1.00  0.00     0.031 C 
ATOM     38  C   UNL     1       7.542  -8.781  -7.575  1.00  0.00     0.037 A 
BRANCH  25  39
ATOM     39  C   UNL     1       4.233  -9.752  -2.463  1.00  0.00     0.064 A 
ATOM     40  C   UNL     1       2.854 -10.007  -2.481  1.00  0.00     0.173 A 
ATOM     41  C   UNL     1       5.035 -10.532  -1.617  1.00  0.00     0.173 A 
ATOM     42  F   UNL     1       2.041  -9.275  -3.258  1.00  0.00    -0.203 F 
ATOM     43  C   UNL     1       2.301 -11.011  -1.691  1.00  0.00     0.198 A 
ATOM     44  C   UNL     1       4.484 -11.554  -0.850  1.00  0.00     0.198 A 
ATOM     45  F   UNL     1       6.360 -10.325  -1.562  1.00  0.00    -0.203 F 
ATOM     46  F   UNL     1       0.979 -11.226  -1.712  1.00  0.00    -0.200 F 
ATOM     47  C   UNL     1       3.118 -11.794  -0.889  1.00  0.00     0.200 A 
ATOM     48  F   UNL     1       5.276 -12.319  -0.087  1.00  0.00    -0.200 F 
ATOM     49  F   UNL     1       2.589 -12.783  -0.155  1.00  0.00    -0.200 F 
ENDBRANCH  25  39
BRANCH  26  50
ATOM     50  C   UNL     1       7.769  -2.858  -8.809  1.00  0.00     0.064 A 
ATOM     51  C   UNL     1       7.318  -2.868 -10.137  1.00  0.00     0.173 A 
ATOM     52  C   UNL     1       8.726  -1.896  -8.455  1.00  0.00     0.173 A 
ATOM     53  F   UNL     1       6.417  -3.780 -10.531  1.00  0.00    -0.203 F 
ATOM     54  C   UNL     1       7.829  -1.978 -11.080  1.00  0.00     0.198 A 
ATOM     55  C   UNL     1       9.211  -0.984  -9.390  1.00  0.00     0.198 A 
ATOM     56  F   UNL     1       9.189  -1.838  -7.198  1.00  0.00    -0.203 F 
ATOM     57  F   UNL     1       7.424  -2.052 -12.355  1.00  0.00    -0.200 F 
ATOM     58  C   UNL     1       8.771  -1.034 -10.705  1.00  0.00     0.200 A 
ATOM     59  F   UNL     1      10.110  -0.062  -9.020  1.00  0.00    -0.200 F 
ATOM     60  F   UNL     1       9.265  -0.180 -11.612  1.00  0.00    -0.200 F 
ENDBRANCH  26  50
BRANCH  38  61
ATOM     61  C   UNL     1       8.135  -9.807  -8.496  1.00  0.00     0.064 A 
ATOM     62  C   UNL     1       9.520  -9.976  -8.625  1.00  0.00     0.173 A 
ATOM     63  C   UNL     1       7.296 -10.671  -9.217  1.00  0.00     0.173 A 
ATOM     64  F   UNL     1      10.364  -9.169  -7.963  1.00  0.00    -0.203 F 
ATOM     65  C   UNL     1      10.045 -10.951  -9.468  1.00  0.00     0.198 A 
ATOM     66  C   UNL     1       7.824 -11.669 -10.030  1.00  0.00     0.198 A 
ATOM     67  F   UNL     1       5.963 -10.561  -9.118  1.00  0.00    -0.203 F 
ATOM     68  F   UNL     1      11.372 -11.059  -9.618  1.00  0.00    -0.200 F 
ATOM     69  C   UNL     1       9.198 -11.802 -10.162  1.00  0.00     0.200 A 
ATOM     70  F   UNL     1       7.003 -12.504 -10.683  1.00  0.00    -0.200 F 
ATOM     71  F   UNL     1       9.706 -12.748 -10.964  1.00  0.00    -0.200 F 
ENDBRANCH  38  61
ENDBRANCH  12  13
ENDBRANCH   5   7
ENDBRANCH   2   3
ENDBRANCH   1   2
BRANCH   1  72
ATOM     72  C   UNL     1       4.195   3.213   1.663  1.00  0.00     0.023 C 
BRANCH  72  73
ATOM     73  C   UNL     1       4.246   2.499   3.014  1.00  0.00     0.116 C 
BRANCH  73  74
ATOM     74  N   UNL     1       5.586   2.520   3.525  1.00  0.00    -0.351 N 
ATOM     75  C   UNL     1       6.195   3.371   4.370  1.00  0.00     0.278 C 
ATOM     76  H   UNL     1       6.157   1.786   3.203  1.00  0.00     0.163 HD
ATOM     77  O   UNL     1       7.434   3.357   4.296  1.00  0.00    -0.268 OA
BRANCH  75  78
ATOM     78  C   UNL     1       5.498   4.252   5.441  1.00  0.00     0.277 C 
ATOM     79  C   UNL     1       3.961   4.512   5.555  1.00  0.00     0.109 C 
ATOM     80  N   UNL     1       6.123   3.865   6.747  1.00  0.00    -0.327 N 
ATOM     81  C   UNL     1       3.724   5.563   6.623  1.00  0.00    -0.024 C 
ATOM     82  C   UNL     1       5.453   4.387   7.970  1.00  0.00     0.243 C 
ATOM     83  H   UNL     1       7.084   4.207   6.747  1.00  0.00     0.347 HD
ATOM     84  H   UNL     1       6.042   2.850   6.801  1.00  0.00     0.347 HD
ATOM     85  C   UNL     1       2.677   6.230   7.106  1.00  0.00     0.002 A 
ATOM     86  C   UNL     1       4.913   5.789   7.527  1.00  0.00     0.196 C 
ATOM     87  C   UNL     1       1.256   6.222   6.954  1.00  0.00     0.010 A 
ATOM     88  C   UNL     1       3.292   7.042   8.187  1.00  0.00     0.066 A 
ATOM     89  N   UNL     1       4.492   6.739   8.578  1.00  0.00    -0.270 NA
ATOM     90  C   UNL     1       0.531   7.115   7.656  1.00  0.00     0.001 A 
ATOM     91  C   UNL     1       2.474   8.133   8.745  1.00  0.00     0.028 A 
ATOM     92  C   UNL     1       1.166   8.156   8.451  1.00  0.00     0.002 A 
BRANCH  82  93
ATOM     93  C   UNL     1       4.456   3.353   8.563  1.00  0.00     0.012 A 
ATOM     94  C   UNL     1       4.665   1.962   8.447  1.00  0.00     0.010 A 
ATOM     95  C   UNL     1       3.312   3.746   9.280  1.00  0.00     0.010 A 
ATOM     96  C   UNL     1       3.722   1.031   8.905  1.00  0.00     0.001 A 
ATOM     97  C   UNL     1       2.359   2.820   9.726  1.00  0.00     0.001 A 
ATOM     98  C   UNL     1       2.556   1.461   9.522  1.00  0.00     0.000 A 
ENDBRANCH  82  93
ENDBRANCH  75  78
ENDBRANCH  73  74
ENDBRANCH  72  73
ENDBRANCH   1  72
TORSDOF 12
