REMARK SMILES O=C(NCCCCNC(=O)[C@H]1CCCCN1C(=O)c1nc(C2CC2)n[nH]1)c1ccc(-c2c3nc(c(-c4c(F)c(F)c(F)c(F)c4F)c4ccc([nH]4)c(-c4c(F)c(F)c(F)c(F)c4F)c4nc(c(-c5c(F)c(F)c(F)c(F)c5F)c5ccc2[nH]5)C=C4)C=C3)cc1
REMARK SMILES IDX 6 1 5 2 4 3 3 4 1 5 2 6 27 8 28 9 89 10 29 11 88 12 30 13
REMARK SMILES IDX 31 14 32 15 82 16 33 17 87 18 81 19 83 20 34 21 86 22 80 23
REMARK SMILES IDX 79 24 35 26 67 27 47 28 66 29 48 30 51 31 65 32 84 33 49 34
REMARK SMILES IDX 50 35 64 37 85 38 52 39 36 40 37 41 45 42 38 43 39 44 43 45
REMARK SMILES IDX 46 46 40 47 41 48 44 49 42 50 68 51 69 52 77 53 70 54 71 55
REMARK SMILES IDX 75 56 78 57 72 58 73 59 76 60 74 61 53 62 54 63 62 64 55 65
REMARK SMILES IDX 56 66 60 67 63 68 57 69 58 70 61 71 59 72 7 73 8 74 9 75
REMARK SMILES IDX 10 77 11 78 12 79 16 80 13 81 15 82 14 83 17 84 18 85 19 86
REMARK SMILES IDX 20 87 26 88 21 89 25 90 22 92 23 93 24 94
REMARK H PARENT 3 7 83 25 51 36 8 76 26 91
REMARK Flexibility Score: inf
ROOT
ATOM      1  C   UNL     1       6.102   9.740  -2.097  1.00  0.00     0.023 C 
ENDROOT
BRANCH   1   2
ATOM      2  C   UNL     1       4.797  10.111  -2.787  1.00  0.00     0.023 C 
BRANCH   2   3
ATOM      3  C   UNL     1       3.840  10.965  -1.965  1.00  0.00     0.116 C 
BRANCH   3   4
ATOM      4  N   UNL     1       4.418  12.225  -1.512  1.00  0.00    -0.352 N 
ATOM      5  O   UNL     1       4.731  14.460  -1.402  1.00  0.00    -0.269 OA
ATOM      6  C   UNL     1       4.058  13.521  -1.806  1.00  0.00     0.251 C 
ATOM      7  H   UNL     1       5.185  12.134  -0.900  1.00  0.00     0.163 HD
BRANCH   6   8
ATOM      8  C   UNL     1       2.873  13.768  -2.652  1.00  0.00     0.039 A 
ATOM      9  C   UNL     1       1.677  13.101  -2.396  1.00  0.00     0.014 A 
ATOM     10  C   UNL     1       2.978  14.638  -3.742  1.00  0.00     0.014 A 
ATOM     11  C   UNL     1       0.658  13.141  -3.336  1.00  0.00     0.010 A 
ATOM     12  C   UNL     1       1.908  14.761  -4.632  1.00  0.00     0.010 A 
ATOM     13  C   UNL     1       0.758  13.975  -4.463  1.00  0.00    -0.014 A 
BRANCH  13  14
ATOM     14  C   UNL     1      -0.379  14.033  -5.416  1.00  0.00     0.031 A 
ATOM     15  C   UNL     1      -0.230  13.577  -6.841  1.00  0.00     0.074 A 
ATOM     16  C   UNL     1      -1.573  14.458  -4.960  1.00  0.00     0.049 A 
ATOM     17  N   UNL     1      -1.129  13.549  -7.794  1.00  0.00    -0.248 NA
ATOM     18  C   UNL     1       1.096  13.095  -7.258  1.00  0.00     0.031 C 
ATOM     19  C   UNL     1      -1.831  14.930  -3.597  1.00  0.00     0.029 A 
ATOM     20  N   UNL     1      -2.795  14.538  -5.575  1.00  0.00    -0.354 N 
ATOM     21  C   UNL     1      -0.474  13.079  -8.925  1.00  0.00     0.074 A 
ATOM     22  C   UNL     1       0.903  12.842  -8.546  1.00  0.00     0.031 C 
ATOM     23  C   UNL     1      -3.137  15.195  -3.462  1.00  0.00     0.029 A 
ATOM     24  C   UNL     1      -3.795  14.983  -4.746  1.00  0.00     0.049 A 
ATOM     25  H   UNL     1      -2.942  14.300  -6.519  1.00  0.00     0.167 HD
ATOM     26  C   UNL     1      -0.982  12.863 -10.162  1.00  0.00     0.037 A 
ATOM     27  C   UNL     1      -5.096  15.216  -4.995  1.00  0.00     0.037 A 
ATOM     28  C   UNL     1      -2.363  13.068 -10.521  1.00  0.00     0.049 A 
ATOM     29  C   UNL     1      -5.627  14.966  -6.375  1.00  0.00     0.074 A 
ATOM     30  C   UNL     1      -2.981  12.839 -11.738  1.00  0.00     0.029 A 
ATOM     31  N   UNL     1      -3.340  13.547  -9.661  1.00  0.00    -0.354 N 
ATOM     32  N   UNL     1      -4.998  14.508  -7.429  1.00  0.00    -0.248 NA
ATOM     33  C   UNL     1      -7.044  15.275  -6.602  1.00  0.00     0.031 C 
ATOM     34  C   UNL     1      -4.324  13.215 -11.626  1.00  0.00     0.029 A 
ATOM     35  C   UNL     1      -4.552  13.639 -10.327  1.00  0.00     0.049 A 
ATOM     36  H   UNL     1      -3.194  13.786  -8.717  1.00  0.00     0.167 HD
ATOM     37  C   UNL     1      -5.941  14.468  -8.444  1.00  0.00     0.074 A 
ATOM     38  C   UNL     1      -7.192  14.921  -7.871  1.00  0.00     0.031 C 
ATOM     39  C   UNL     1      -5.784  14.097  -9.738  1.00  0.00     0.037 A 
BRANCH  26  40
ATOM     40  C   UNL     1      -0.046  12.394 -11.237  1.00  0.00     0.064 A 
ATOM     41  C   UNL     1       0.425  11.074 -11.282  1.00  0.00     0.173 A 
ATOM     42  C   UNL     1       0.319  13.257 -12.283  1.00  0.00     0.173 A 
ATOM     43  F   UNL     1       0.114  10.213 -10.302  1.00  0.00    -0.203 F 
ATOM     44  C   UNL     1       1.235  10.638 -12.329  1.00  0.00     0.198 A 
ATOM     45  C   UNL     1       1.110  12.811 -13.339  1.00  0.00     0.198 A 
ATOM     46  F   UNL     1      -0.110  14.528 -12.291  1.00  0.00    -0.203 F 
ATOM     47  F   UNL     1       1.694   9.378 -12.338  1.00  0.00    -0.200 F 
ATOM     48  C   UNL     1       1.569  11.503 -13.360  1.00  0.00     0.200 A 
ATOM     49  F   UNL     1       1.422  13.646 -14.340  1.00  0.00    -0.200 F 
ATOM     50  F   UNL     1       2.334  11.076 -14.374  1.00  0.00    -0.200 F 
ENDBRANCH  26  40
BRANCH  27  51
ATOM     51  C   UNL     1      -5.971  15.729  -3.910  1.00  0.00     0.064 A 
ATOM     52  C   UNL     1      -6.979  14.931  -3.357  1.00  0.00     0.173 A 
ATOM     53  C   UNL     1      -5.798  17.021  -3.391  1.00  0.00     0.173 A 
ATOM     54  F   UNL     1      -7.193  13.695  -3.832  1.00  0.00    -0.203 F 
ATOM     55  C   UNL     1      -7.791  15.410  -2.331  1.00  0.00     0.198 A 
ATOM     56  C   UNL     1      -6.590  17.488  -2.346  1.00  0.00     0.198 A 
ATOM     57  F   UNL     1      -4.841  17.820  -3.884  1.00  0.00    -0.203 F 
ATOM     58  F   UNL     1      -8.774  14.641  -1.843  1.00  0.00    -0.200 F 
ATOM     59  C   UNL     1      -7.591  16.684  -1.821  1.00  0.00     0.200 A 
ATOM     60  F   UNL     1      -6.379  18.712  -1.844  1.00  0.00    -0.200 F 
ATOM     61  F   UNL     1      -8.364  17.140  -0.827  1.00  0.00    -0.200 F 
ENDBRANCH  27  51
BRANCH  39  62
ATOM     62  C   UNL     1      -7.000  14.156 -10.610  1.00  0.00     0.064 A 
ATOM     63  C   UNL     1      -7.518  15.381 -11.057  1.00  0.00     0.173 A 
ATOM     64  C   UNL     1      -7.644  12.978 -11.015  1.00  0.00     0.173 A 
ATOM     65  F   UNL     1      -6.946  16.534 -10.679  1.00  0.00    -0.203 F 
ATOM     66  C   UNL     1      -8.655  15.424 -11.859  1.00  0.00     0.198 A 
ATOM     67  C   UNL     1      -8.765  13.024 -11.838  1.00  0.00     0.198 A 
ATOM     68  F   UNL     1      -7.183  11.784 -10.616  1.00  0.00    -0.203 F 
ATOM     69  F   UNL     1      -9.162  16.606 -12.235  1.00  0.00    -0.200 F 
ATOM     70  C   UNL     1      -9.274  14.246 -12.252  1.00  0.00     0.200 A 
ATOM     71  F   UNL     1      -9.358  11.886 -12.224  1.00  0.00    -0.200 F 
ATOM     72  F   UNL     1     -10.369  14.290 -13.024  1.00  0.00    -0.200 F 
ENDBRANCH  39  62
ENDBRANCH  13  14
ENDBRANCH   6   8
ENDBRANCH   3   4
ENDBRANCH   2   3
ENDBRANCH   1   2
BRANCH   1  73
ATOM     73  C   UNL     1       5.973   9.138  -0.705  1.00  0.00     0.116 C 
BRANCH  73  74
ATOM     74  N   UNL     1       5.406   7.813  -0.676  1.00  0.00    -0.354 N 
ATOM     75  C   UNL     1       5.530   6.793   0.214  1.00  0.00     0.242 C 
ATOM     76  H   UNL     1       4.822   7.609  -1.442  1.00  0.00     0.163 HD
ATOM     77  O   UNL     1       4.768   5.836   0.010  1.00  0.00    -0.273 OA
BRANCH  75  78
ATOM     78  C   UNL     1       6.481   6.764   1.451  1.00  0.00     0.174 C 
ATOM     79  C   UNL     1       7.589   7.796   1.702  1.00  0.00     0.035 C 
ATOM     80  N   UNL     1       5.710   6.651   2.700  1.00  0.00    -0.324 N 
ATOM     81  C   UNL     1       7.128   9.098   2.392  1.00  0.00     0.004 C 
ATOM     82  C   UNL     1       5.011   7.876   3.071  1.00  0.00     0.121 C 
ATOM     83  C   UNL     1       6.065   8.903   3.479  1.00  0.00     0.022 C 
BRANCH  80  84
ATOM     84  C   UNL     1       6.106   5.680   3.636  1.00  0.00     0.291 C 
ATOM     85  O   UNL     1       7.029   4.901   3.394  1.00  0.00    -0.265 OA
BRANCH  84  86
ATOM     86  C   UNL     1       5.531   5.731   4.959  1.00  0.00     0.214 A 
ATOM     87  N   UNL     1       4.258   5.825   5.288  1.00  0.00    -0.207 NA
ATOM     88  N   UNL     1       6.278   5.700   6.099  1.00  0.00    -0.255 N 
ATOM     89  C   UNL     1       4.294   5.916   6.656  1.00  0.00     0.154 A 
ATOM     90  N   UNL     1       5.521   5.909   7.188  1.00  0.00    -0.158 NA
ATOM     91  H   UNL     1       7.250   5.543   6.121  1.00  0.00     0.192 HD
BRANCH  89  92
ATOM     92  C   UNL     1       3.046   6.019   7.514  1.00  0.00     0.060 C 
ATOM     93  C   UNL     1       1.748   6.465   6.873  1.00  0.00     0.012 C 
ATOM     94  C   UNL     1       1.924   5.035   7.255  1.00  0.00     0.012 C 
ENDBRANCH  89  92
ENDBRANCH  84  86
ENDBRANCH  80  84
ENDBRANCH  75  78
ENDBRANCH  73  74
ENDBRANCH   1  73
TORSDOF 14
