REMARK SMILES Nc1nc(SCc2c(C(=O)NCCCCNC(=O)c3ccc(-c4c5nc(c(-c6c(F)c(F)c(F)c(F)c6F)c6ccc([nH]6)c(-c6c(F)c(F)c(F)c(F)c6F)c6nc(c(-c7c(F)c(F)c(F)c(F)c7F)c7ccc4[nH]7)C=C6)C=C5)cc3)sc3cccc(F)c23)n[nH]1
REMARK SMILES IDX 12 1 11 2 9 3 10 4 8 6 7 7 89 8 82 9 83 10 87 11 84 12 86 13
REMARK SMILES IDX 88 14 85 15 6 16 5 17 4 18 2 19 3 20 91 21 90 22 1 24 13 27
REMARK SMILES IDX 14 28 15 29 16 30 17 31 18 33 19 34 20 35 81 36 21 37 80 38
REMARK SMILES IDX 22 39 23 40 24 41 74 42 25 43 79 44 73 45 75 46 26 47 78 48
REMARK SMILES IDX 72 49 71 50 27 52 59 53 39 54 58 55 40 56 43 57 57 58 76 59
REMARK SMILES IDX 41 60 42 61 56 63 77 64 44 65 28 66 29 67 37 68 30 69 31 70
REMARK SMILES IDX 35 71 38 72 32 73 33 74 36 75 34 76 60 77 61 78 69 79 62 80
REMARK SMILES IDX 63 81 67 82 70 83 64 84 65 85 68 86 66 87 45 88 46 89 54 90
REMARK SMILES IDX 47 91 48 92 52 93 55 94 49 95 50 96 53 97 51 98
REMARK H PARENT 11 5 91 23 1 25 1 26 16 32 75 51 43 62
REMARK Flexibility Score: inf
ROOT
ATOM      1  C   UNL     1       0.486   2.717   1.258  1.00  0.00     0.116 C 
ENDROOT
BRANCH   1   2
ATOM      2  N   UNL     1      -0.469   2.002   0.439  1.00  0.00    -0.351 N 
ATOM      3  C   UNL     1      -0.623   1.949  -0.935  1.00  0.00     0.261 C 
ATOM      4  O   UNL     1      -1.476   1.165  -1.355  1.00  0.00    -0.268 OA
ATOM      5  H   UNL     1      -1.119   1.462   0.944  1.00  0.00     0.163 HD
BRANCH   3   6
ATOM      6  C   UNL     1       0.090   2.885  -1.782  1.00  0.00     0.097 A 
ATOM      7  C   UNL     1       1.377   3.412  -1.827  1.00  0.00    -0.003 A 
ATOM      8  C   UNL     1       1.212   4.812  -2.236  1.00  0.00     0.033 A 
ATOM      9  S   UNL     1      -0.783   3.503  -3.140  1.00  0.00    -0.130 S 
ATOM     10  C   UNL     1       0.085   4.976  -3.046  1.00  0.00     0.038 A 
ATOM     11  C   UNL     1       1.958   5.982  -1.954  1.00  0.00     0.132 A 
ATOM     12  C   UNL     1      -0.255   6.204  -3.643  1.00  0.00     0.020 A 
ATOM     13  C   UNL     1       1.560   7.234  -2.434  1.00  0.00     0.040 A 
ATOM     14  F   UNL     1       3.000   5.923  -1.111  1.00  0.00    -0.206 F 
ATOM     15  C   UNL     1       0.475   7.340  -3.294  1.00  0.00     0.005 A 
BRANCH   7  16
ATOM     16  C   UNL     1       2.675   2.844  -1.306  1.00  0.00     0.116 C 
BRANCH  16  17
ATOM     17  S   UNL     1       3.198   1.221  -1.901  1.00  0.00    -0.080 SA
BRANCH  17  18
ATOM     18  C   UNL     1       2.126  -0.016  -1.312  1.00  0.00     0.210 A 
ATOM     19  C   UNL     1       0.606  -1.056  -0.287  1.00  0.00     0.216 A 
ATOM     20  N   UNL     1       1.356   0.019  -0.181  1.00  0.00    -0.186 NA
ATOM     21  N   UNL     1       1.055  -1.796  -1.340  1.00  0.00    -0.245 N 
ATOM     22  N   UNL     1       2.043  -1.167  -1.991  1.00  0.00    -0.145 NA
ATOM     23  H   UNL     1       0.699  -2.679  -1.590  1.00  0.00     0.193 HD
BRANCH  19  24
ATOM     24  N   UNL     1      -0.482  -1.419   0.410  1.00  0.00    -0.368 N 
ATOM     25  H   UNL     1      -0.788  -0.869   1.167  1.00  0.00     0.159 HD
ATOM     26  H   UNL     1      -0.974  -2.236   0.164  1.00  0.00     0.159 HD
ENDBRANCH  19  24
ENDBRANCH  17  18
ENDBRANCH  16  17
ENDBRANCH   7  16
ENDBRANCH   3   6
ENDBRANCH   1   2
BRANCH   1  27
ATOM     27  C   UNL     1       0.430   2.362   2.747  1.00  0.00     0.023 C 
BRANCH  27  28
ATOM     28  C   UNL     1       0.918   0.947   3.109  1.00  0.00     0.023 C 
BRANCH  28  29
ATOM     29  C   UNL     1       2.396   0.656   2.835  1.00  0.00     0.116 C 
BRANCH  29  30
ATOM     30  N   UNL     1       3.280   1.190   3.858  1.00  0.00    -0.352 N 
ATOM     31  C   UNL     1       4.541   0.787   4.230  1.00  0.00     0.251 C 
ATOM     32  H   UNL     1       2.920   1.956   4.361  1.00  0.00     0.163 HD
ATOM     33  O   UNL     1       5.033   1.267   5.251  1.00  0.00    -0.269 OA
BRANCH  31  34
ATOM     34  C   UNL     1       5.326  -0.205   3.447  1.00  0.00     0.039 A 
ATOM     35  C   UNL     1       6.288  -0.969   4.126  1.00  0.00     0.014 A 
ATOM     36  C   UNL     1       5.207  -0.338   2.061  1.00  0.00     0.014 A 
ATOM     37  C   UNL     1       7.104  -1.855   3.424  1.00  0.00     0.010 A 
ATOM     38  C   UNL     1       5.988  -1.253   1.364  1.00  0.00     0.010 A 
ATOM     39  C   UNL     1       6.958  -1.992   2.038  1.00  0.00    -0.014 A 
BRANCH  39  40
ATOM     40  C   UNL     1       7.815  -2.936   1.323  1.00  0.00     0.031 A 
ATOM     41  C   UNL     1       7.671  -4.378   1.673  1.00  0.00     0.074 A 
ATOM     42  C   UNL     1       8.611  -2.604   0.287  1.00  0.00     0.049 A 
ATOM     43  N   UNL     1       8.557  -5.172   2.184  1.00  0.00    -0.248 NA
ATOM     44  C   UNL     1       6.366  -5.009   1.441  1.00  0.00     0.031 C 
ATOM     45  C   UNL     1       8.686  -1.338  -0.445  1.00  0.00     0.029 A 
ATOM     46  N   UNL     1       9.498  -3.401  -0.377  1.00  0.00    -0.354 N 
ATOM     47  C   UNL     1       7.976  -6.440   2.223  1.00  0.00     0.074 A 
ATOM     48  C   UNL     1       6.599  -6.263   1.835  1.00  0.00     0.031 C 
ATOM     49  C   UNL     1       9.432  -1.510  -1.560  1.00  0.00     0.029 A 
ATOM     50  C   UNL     1      10.011  -2.842  -1.534  1.00  0.00     0.049 A 
ATOM     51  H   UNL     1       9.750  -4.299  -0.060  1.00  0.00     0.167 HD
ATOM     52  C   UNL     1       8.716  -7.567   2.425  1.00  0.00     0.037 A 
ATOM     53  C   UNL     1      10.836  -3.443  -2.423  1.00  0.00     0.037 A 
ATOM     54  C   UNL     1      10.004  -7.262   2.990  1.00  0.00     0.049 A 
ATOM     55  C   UNL     1      11.518  -4.558  -1.723  1.00  0.00     0.074 A 
ATOM     56  C   UNL     1      10.441  -6.670   4.160  1.00  0.00     0.029 A 
ATOM     57  N   UNL     1      11.106  -7.303   2.175  1.00  0.00    -0.354 N 
ATOM     58  N   UNL     1      12.400  -4.402  -0.776  1.00  0.00    -0.248 NA
ATOM     59  C   UNL     1      10.948  -5.892  -1.832  1.00  0.00     0.031 C 
ATOM     60  C   UNL     1      11.614  -5.946   3.793  1.00  0.00     0.029 A 
ATOM     61  C   UNL     1      11.827  -6.167   2.432  1.00  0.00     0.049 A 
ATOM     62  H   UNL     1      11.335  -8.011   1.530  1.00  0.00     0.167 HD
ATOM     63  C   UNL     1      12.195  -5.475   0.077  1.00  0.00     0.074 A 
ATOM     64  C   UNL     1      11.383  -6.416  -0.685  1.00  0.00     0.031 C 
ATOM     65  C   UNL     1      12.474  -5.379   1.410  1.00  0.00     0.037 A 
BRANCH  52  66
ATOM     66  C   UNL     1       8.404  -8.933   1.859  1.00  0.00     0.064 A 
ATOM     67  C   UNL     1       9.167 -10.048   2.271  1.00  0.00     0.173 A 
ATOM     68  C   UNL     1       7.595  -9.143   0.723  1.00  0.00     0.173 A 
ATOM     69  F   UNL     1       9.987  -9.965   3.329  1.00  0.00    -0.203 F 
ATOM     70  C   UNL     1       9.178 -11.248   1.553  1.00  0.00     0.198 A 
ATOM     71  C   UNL     1       7.566 -10.360   0.041  1.00  0.00     0.198 A 
ATOM     72  F   UNL     1       6.886  -8.153   0.167  1.00  0.00    -0.203 F 
ATOM     73  F   UNL     1      10.014 -12.231   1.912  1.00  0.00    -0.200 F 
ATOM     74  C   UNL     1       8.381 -11.401   0.435  1.00  0.00     0.200 A 
ATOM     75  F   UNL     1       6.798 -10.486  -1.050  1.00  0.00    -0.200 F 
ATOM     76  F   UNL     1       8.433 -12.526  -0.290  1.00  0.00    -0.200 F 
ENDBRANCH  52  66
BRANCH  53  77
ATOM     77  C   UNL     1      10.887  -3.275  -3.891  1.00  0.00     0.064 A 
ATOM     78  C   UNL     1      12.000  -3.699  -4.633  1.00  0.00     0.173 A 
ATOM     79  C   UNL     1       9.726  -2.956  -4.622  1.00  0.00     0.173 A 
ATOM     80  F   UNL     1      13.130  -4.061  -4.009  1.00  0.00    -0.203 F 
ATOM     81  C   UNL     1      11.945  -3.826  -6.024  1.00  0.00     0.198 A 
ATOM     82  C   UNL     1       9.676  -3.076  -6.011  1.00  0.00     0.198 A 
ATOM     83  F   UNL     1       8.591  -2.616  -3.995  1.00  0.00    -0.203 F 
ATOM     84  F   UNL     1      13.006  -4.298  -6.694  1.00  0.00    -0.200 F 
ATOM     85  C   UNL     1      10.780  -3.526  -6.710  1.00  0.00     0.200 A 
ATOM     86  F   UNL     1       8.531  -2.817  -6.659  1.00  0.00    -0.200 F 
ATOM     87  F   UNL     1      10.707  -3.711  -8.036  1.00  0.00    -0.200 F 
ENDBRANCH  53  77
BRANCH  65  88
ATOM     88  C   UNL     1      13.273  -4.196   1.876  1.00  0.00     0.064 A 
ATOM     89  C   UNL     1      12.816  -2.869   1.794  1.00  0.00     0.173 A 
ATOM     90  C   UNL     1      14.468  -4.425   2.569  1.00  0.00     0.173 A 
ATOM     91  F   UNL     1      11.633  -2.582   1.237  1.00  0.00    -0.203 F 
ATOM     92  C   UNL     1      13.546  -1.818   2.344  1.00  0.00     0.198 A 
ATOM     93  C   UNL     1      15.178  -3.377   3.150  1.00  0.00     0.198 A 
ATOM     94  F   UNL     1      14.923  -5.678   2.730  1.00  0.00    -0.203 F 
ATOM     95  F   UNL     1      13.092  -0.559   2.245  1.00  0.00    -0.200 F 
ATOM     96  C   UNL     1      14.722  -2.074   3.029  1.00  0.00     0.200 A 
ATOM     97  F   UNL     1      16.289  -3.634   3.854  1.00  0.00    -0.200 F 
ATOM     98  F   UNL     1      15.401  -1.068   3.599  1.00  0.00    -0.200 F 
ENDBRANCH  65  88
ENDBRANCH  39  40
ENDBRANCH  31  34
ENDBRANCH  29  30
ENDBRANCH  28  29
ENDBRANCH  27  28
ENDBRANCH   1  27
TORSDOF 15
