REMARK SMILES O=C(NCCCCNC(=O)c1cc(SC[C@H]2CCOC2)ccn1)c1ccc(-c2c3nc(c(-c4c(F)c(F)c(F)c(F)c4F)c4ccc([nH]4)c(-c4c(F)c(F)c(F)c(F)c4F)c4nc(c(-c5c(F)c(F)c(F)c(F)c5F)c5ccc2[nH]5)C=C4)C=C3)cc1
REMARK SMILES IDX 6 1 5 2 4 3 3 4 1 5 2 6 24 8 25 9 86 10 26 11 85 12 27 13
REMARK SMILES IDX 28 14 29 15 79 16 30 17 84 18 78 19 80 20 31 21 83 22 77 23
REMARK SMILES IDX 76 24 32 26 64 27 44 28 63 29 45 30 48 31 62 32 81 33 46 34
REMARK SMILES IDX 47 35 61 37 82 38 49 39 33 40 34 41 42 42 35 43 36 44 40 45
REMARK SMILES IDX 43 46 37 47 38 48 41 49 39 50 65 51 66 52 74 53 67 54 68 55
REMARK SMILES IDX 72 56 75 57 69 58 70 59 73 60 71 61 50 62 51 63 59 64 52 65
REMARK SMILES IDX 53 66 57 67 60 68 54 69 55 70 58 71 56 72 7 73 8 74 9 75
REMARK SMILES IDX 10 77 11 78 12 79 23 80 13 81 22 82 21 83 14 84 15 85 16 86
REMARK SMILES IDX 17 87 20 88 18 89 19 90
REMARK H PARENT 3 7 80 25 48 36 8 76
REMARK Flexibility Score: inf
ROOT
ATOM      1  C   UNL     1       0.695   7.997  -5.922  1.00  0.00     0.023 C 
ENDROOT
BRANCH   1   2
ATOM      2  C   UNL     1       1.531   8.586  -7.048  1.00  0.00     0.023 C 
BRANCH   2   3
ATOM      3  C   UNL     1       3.017   8.269  -6.991  1.00  0.00     0.116 C 
BRANCH   3   4
ATOM      4  N   UNL     1       3.331   6.864  -7.214  1.00  0.00    -0.352 N 
ATOM      5  O   UNL     1       4.193   5.069  -8.294  1.00  0.00    -0.269 OA
ATOM      6  C   UNL     1       4.109   6.290  -8.197  1.00  0.00     0.251 C 
ATOM      7  H   UNL     1       2.930   6.235  -6.572  1.00  0.00     0.163 HD
BRANCH   6   8
ATOM      8  C   UNL     1       4.826   7.151  -9.164  1.00  0.00     0.039 A 
ATOM      9  C   UNL     1       5.523   8.277  -8.728  1.00  0.00     0.014 A 
ATOM     10  C   UNL     1       4.781   6.845 -10.529  1.00  0.00     0.014 A 
ATOM     11  C   UNL     1       5.994   9.196  -9.656  1.00  0.00     0.010 A 
ATOM     12  C   UNL     1       5.360   7.716 -11.460  1.00  0.00     0.010 A 
ATOM     13  C   UNL     1       5.933   8.923 -11.034  1.00  0.00    -0.014 A 
BRANCH  13  14
ATOM     14  C   UNL     1       6.534   9.905 -11.976  1.00  0.00     0.031 A 
ATOM     15  C   UNL     1       5.702  10.646 -12.987  1.00  0.00     0.074 A 
ATOM     16  C   UNL     1       7.846  10.186 -11.848  1.00  0.00     0.049 A 
ATOM     17  N   UNL     1       6.065  11.600 -13.810  1.00  0.00    -0.248 NA
ATOM     18  C   UNL     1       4.285  10.269 -13.101  1.00  0.00     0.031 C 
ATOM     19  C   UNL     1       8.760   9.512 -10.922  1.00  0.00     0.029 A 
ATOM     20  N   UNL     1       8.630  11.131 -12.458  1.00  0.00    -0.354 N 
ATOM     21  C   UNL     1       4.933  11.926 -14.545  1.00  0.00     0.074 A 
ATOM     22  C   UNL     1       3.873  11.050 -14.091  1.00  0.00     0.031 C 
ATOM     23  C   UNL     1       9.957  10.112 -10.970  1.00  0.00     0.029 A 
ATOM     24  C   UNL     1       9.915  11.168 -11.974  1.00  0.00     0.049 A 
ATOM     25  H   UNL     1       8.304  11.725 -13.172  1.00  0.00     0.167 HD
ATOM     26  C   UNL     1       4.791  12.876 -15.501  1.00  0.00     0.037 A 
ATOM     27  C   UNL     1      10.951  11.961 -12.303  1.00  0.00     0.037 A 
ATOM     28  C   UNL     1       5.844  13.757 -15.939  1.00  0.00     0.049 A 
ATOM     29  C   UNL     1      10.755  13.016 -13.351  1.00  0.00     0.074 A 
ATOM     30  C   UNL     1       5.794  14.756 -16.897  1.00  0.00     0.029 A 
ATOM     31  N   UNL     1       7.139  13.749 -15.442  1.00  0.00    -0.354 N 
ATOM     32  N   UNL     1       9.674  13.319 -14.025  1.00  0.00    -0.248 NA
ATOM     33  C   UNL     1      11.925  13.838 -13.686  1.00  0.00     0.031 C 
ATOM     34  C   UNL     1       7.066  15.330 -17.003  1.00  0.00     0.029 A 
ATOM     35  C   UNL     1       7.899  14.718 -16.081  1.00  0.00     0.049 A 
ATOM     36  H   UNL     1       7.471  13.145 -14.739  1.00  0.00     0.167 HD
ATOM     37  C   UNL     1      10.031  14.361 -14.867  1.00  0.00     0.074 A 
ATOM     38  C   UNL     1      11.419  14.667 -14.587  1.00  0.00     0.031 C 
ATOM     39  C   UNL     1       9.282  14.998 -15.799  1.00  0.00     0.037 A 
BRANCH  26  40
ATOM     40  C   UNL     1       3.445  13.019 -16.153  1.00  0.00     0.064 A 
ATOM     41  C   UNL     1       2.364  13.607 -15.481  1.00  0.00     0.173 A 
ATOM     42  C   UNL     1       3.256  12.632 -17.489  1.00  0.00     0.173 A 
ATOM     43  F   UNL     1       2.491  13.984 -14.200  1.00  0.00    -0.203 F 
ATOM     44  C   UNL     1       1.139  13.791 -16.118  1.00  0.00     0.198 A 
ATOM     45  C   UNL     1       2.036  12.840 -18.130  1.00  0.00     0.198 A 
ATOM     46  F   UNL     1       4.260  12.072 -18.180  1.00  0.00    -0.203 F 
ATOM     47  F   UNL     1       0.111  14.331 -15.447  1.00  0.00    -0.200 F 
ATOM     48  C   UNL     1       0.979  13.416 -17.444  1.00  0.00     0.200 A 
ATOM     49  F   UNL     1       1.887  12.489 -19.415  1.00  0.00    -0.200 F 
ATOM     50  F   UNL     1      -0.196  13.609 -18.059  1.00  0.00    -0.200 F 
ENDBRANCH  26  40
BRANCH  27  51
ATOM     51  C   UNL     1      12.263  11.773 -11.633  1.00  0.00     0.064 A 
ATOM     52  C   UNL     1      12.773  12.737 -10.753  1.00  0.00     0.173 A 
ATOM     53  C   UNL     1      13.025  10.616 -11.849  1.00  0.00     0.173 A 
ATOM     54  F   UNL     1      12.088  13.868 -10.528  1.00  0.00    -0.203 F 
ATOM     55  C   UNL     1      14.005  12.557 -10.127  1.00  0.00     0.198 A 
ATOM     56  C   UNL     1      14.241  10.422 -11.198  1.00  0.00     0.198 A 
ATOM     57  F   UNL     1      12.576   9.661 -12.676  1.00  0.00    -0.203 F 
ATOM     58  F   UNL     1      14.490  13.512  -9.323  1.00  0.00    -0.200 F 
ATOM     59  C   UNL     1      14.733  11.397 -10.344  1.00  0.00     0.200 A 
ATOM     60  F   UNL     1      14.931   9.291 -11.396  1.00  0.00    -0.200 F 
ATOM     61  F   UNL     1      15.913  11.220  -9.734  1.00  0.00    -0.200 F 
ENDBRANCH  27  51
BRANCH  39  62
ATOM     62  C   UNL     1       9.961  16.083 -16.580  1.00  0.00     0.064 A 
ATOM     63  C   UNL     1      10.923  15.784 -17.557  1.00  0.00     0.173 A 
ATOM     64  C   UNL     1       9.650  17.431 -16.351  1.00  0.00     0.173 A 
ATOM     65  F   UNL     1      11.266  14.510 -17.799  1.00  0.00    -0.203 F 
ATOM     66  C   UNL     1      11.574  16.799 -18.252  1.00  0.00     0.198 A 
ATOM     67  C   UNL     1      10.285  18.442 -17.066  1.00  0.00     0.198 A 
ATOM     68  F   UNL     1       8.735  17.766 -15.430  1.00  0.00    -0.203 F 
ATOM     69  F   UNL     1      12.531  16.494 -19.140  1.00  0.00    -0.200 F 
ATOM     70  C   UNL     1      11.253  18.126 -18.008  1.00  0.00     0.200 A 
ATOM     71  F   UNL     1       9.969  19.724 -16.836  1.00  0.00    -0.200 F 
ATOM     72  F   UNL     1      11.886  19.102 -18.673  1.00  0.00    -0.200 F 
ENDBRANCH  39  62
ENDBRANCH  13  14
ENDBRANCH   6   8
ENDBRANCH   3   4
ENDBRANCH   2   3
ENDBRANCH   1   2
BRANCH   1  73
ATOM     73  C   UNL     1       1.212   8.255  -4.514  1.00  0.00     0.116 C 
BRANCH  73  74
ATOM     74  N   UNL     1       1.364   9.658  -4.169  1.00  0.00    -0.351 N 
ATOM     75  C   UNL     1       0.985  10.275  -2.991  1.00  0.00     0.269 C 
ATOM     76  H   UNL     1       1.783  10.233  -4.849  1.00  0.00     0.163 HD
ATOM     77  O   UNL     1       1.226  11.464  -2.808  1.00  0.00    -0.268 OA
BRANCH  75  78
ATOM     78  C   UNL     1       0.291   9.459  -1.957  1.00  0.00     0.129 A 
ATOM     79  C   UNL     1       0.969   8.396  -1.365  1.00  0.00     0.049 A 
ATOM     80  N   UNL     1      -1.032   9.707  -1.804  1.00  0.00    -0.251 NA
ATOM     81  C   UNL     1       0.229   7.479  -0.631  1.00  0.00     0.011 A 
ATOM     82  C   UNL     1      -1.712   8.845  -1.029  1.00  0.00     0.113 A 
ATOM     83  C   UNL     1      -1.138   7.724  -0.449  1.00  0.00     0.035 A 
BRANCH  81  84
ATOM     84  S   UNL     1       0.855   5.951   0.053  1.00  0.00    -0.126 SA
BRANCH  84  85
ATOM     85  C   UNL     1       2.593   5.830  -0.505  1.00  0.00     0.081 C 
BRANCH  85  86
ATOM     86  C   UNL     1       2.871   5.480  -1.970  1.00  0.00     0.027 C 
ATOM     87  C   UNL     1       3.868   4.344  -2.148  1.00  0.00     0.035 C 
ATOM     88  C   UNL     1       1.745   4.963  -2.845  1.00  0.00     0.164 C 
ATOM     89  C   UNL     1       3.712   3.999  -3.619  1.00  0.00     0.160 C 
ATOM     90  O   UNL     1       2.404   4.449  -4.015  1.00  0.00    -0.381 OA
ENDBRANCH  85  86
ENDBRANCH  84  85
ENDBRANCH  81  84
ENDBRANCH  75  78
ENDBRANCH  73  74
ENDBRANCH   1  73
TORSDOF 14
