REMARK SMILES O=C(NCCCCNC(=O)[C@@H]1CCCC[C@H]1C(=O)Nc1ccccc1C(=O)N1CCOCC1)c1ccc(-c2c3nc(c(-c4c(F)c(F)c(F)c(F)c4F)c4ccc([nH]4)c(-c4c(F)c(F)c(F)c(F)c4F)c4nc(c(-c5c(F)c(F)c(F)c(F)c5F)c5ccc2[nH]5)C=C4)C=C3)cc1
REMARK SMILES IDX 6 1 5 2 4 3 3 4 1 5 2 6 34 8 35 9 96 10 36 11 95 12 37 13
REMARK SMILES IDX 38 14 39 15 89 16 40 17 94 18 88 19 90 20 41 21 93 22 87 23
REMARK SMILES IDX 86 24 42 26 74 27 54 28 73 29 55 30 58 31 72 32 91 33 56 34
REMARK SMILES IDX 57 35 71 37 92 38 59 39 43 40 44 41 52 42 45 43 46 44 50 45
REMARK SMILES IDX 53 46 47 47 48 48 51 49 49 50 75 51 76 52 84 53 77 54 78 55
REMARK SMILES IDX 82 56 85 57 79 58 80 59 83 60 81 61 60 62 61 63 69 64 62 65
REMARK SMILES IDX 63 66 67 67 70 68 64 69 65 70 68 71 66 72 7 73 8 74 9 75
REMARK SMILES IDX 10 77 11 78 12 79 16 80 13 81 15 82 14 83 17 84 18 85 19 86
REMARK SMILES IDX 20 88 21 89 25 90 22 91 24 92 23 93 26 94 27 95 28 96 29 97
REMARK SMILES IDX 33 98 30 99 32 100 31 101
REMARK H PARENT 3 7 90 25 58 36 8 76 19 87
REMARK Flexibility Score: inf
ROOT
ATOM      1  C   UNL     1       3.944  -3.572  -1.704  1.00  0.00     0.023 C 
ENDROOT
BRANCH   1   2
ATOM      2  C   UNL     1       4.685  -2.740  -0.659  1.00  0.00     0.023 C 
BRANCH   2   3
ATOM      3  C   UNL     1       4.418  -1.238  -0.681  1.00  0.00     0.116 C 
BRANCH   3   4
ATOM      4  N   UNL     1       3.004  -0.884  -0.711  1.00  0.00    -0.352 N 
ATOM      5  O   UNL     1       1.094   0.149  -0.094  1.00  0.00    -0.269 OA
ATOM      6  C   UNL     1       2.308   0.029   0.044  1.00  0.00     0.251 C 
ATOM      7  H   UNL     1       2.466  -1.374  -1.374  1.00  0.00     0.163 HD
BRANCH   6   8
ATOM      8  C   UNL     1       3.017   0.833   1.058  1.00  0.00     0.039 A 
ATOM      9  C   UNL     1       4.218   1.471   0.749  1.00  0.00     0.014 A 
ATOM     10  C   UNL     1       2.489   0.909   2.350  1.00  0.00     0.014 A 
ATOM     11  C   UNL     1       4.979   2.028   1.769  1.00  0.00     0.010 A 
ATOM     12  C   UNL     1       3.214   1.548   3.358  1.00  0.00     0.010 A 
ATOM     13  C   UNL     1       4.489   2.067   3.086  1.00  0.00    -0.014 A 
BRANCH  13  14
ATOM     14  C   UNL     1       5.327   2.669   4.152  1.00  0.00     0.031 A 
ATOM     15  C   UNL     1       5.862   1.832   5.282  1.00  0.00     0.074 A 
ATOM     16  C   UNL     1       5.642   3.975   4.067  1.00  0.00     0.049 A 
ATOM     17  N   UNL     1       6.641   2.186   6.274  1.00  0.00    -0.248 NA
ATOM     18  C   UNL     1       5.468   0.415   5.310  1.00  0.00     0.031 C 
ATOM     19  C   UNL     1       5.171   4.884   3.020  1.00  0.00     0.029 A 
ATOM     20  N   UNL     1       6.449   4.758   4.850  1.00  0.00    -0.354 N 
ATOM     21  C   UNL     1       6.804   1.050   7.056  1.00  0.00     0.074 A 
ATOM     22  C   UNL     1       6.029  -0.003   6.436  1.00  0.00     0.031 C 
ATOM     23  C   UNL     1       5.744   6.084   3.191  1.00  0.00     0.029 A 
ATOM     24  C   UNL     1       6.573   6.045   4.390  1.00  0.00     0.049 A 
ATOM     25  H   UNL     1       6.897   4.429   5.662  1.00  0.00     0.167 HD
ATOM     26  C   UNL     1       7.539   0.901   8.185  1.00  0.00     0.037 A 
ATOM     27  C   UNL     1       7.272   7.083   4.883  1.00  0.00     0.037 A 
ATOM     28  C   UNL     1       8.335   1.947   8.778  1.00  0.00     0.049 A 
ATOM     29  C   UNL     1       8.083   6.886   6.132  1.00  0.00     0.074 A 
ATOM     30  C   UNL     1       9.149   1.885   9.896  1.00  0.00     0.029 A 
ATOM     31  N   UNL     1       8.416   3.246   8.297  1.00  0.00    -0.354 N 
ATOM     32  N   UNL     1       8.251   5.799   6.845  1.00  0.00    -0.248 NA
ATOM     33  C   UNL     1       8.797   8.061   6.644  1.00  0.00     0.031 C 
ATOM     34  C   UNL     1       9.689   3.157  10.116  1.00  0.00     0.029 A 
ATOM     35  C   UNL     1       9.251   4.000   9.108  1.00  0.00     0.049 A 
ATOM     36  H   UNL     1       7.949   3.583   7.498  1.00  0.00     0.167 HD
ATOM     37  C   UNL     1       9.105   6.152   7.879  1.00  0.00     0.074 A 
ATOM     38  C   UNL     1       9.435   7.550   7.688  1.00  0.00     0.031 C 
ATOM     39  C   UNL     1       9.570   5.389   8.898  1.00  0.00     0.037 A 
BRANCH  26  40
ATOM     40  C   UNL     1       7.503  -0.434   8.873  1.00  0.00     0.064 A 
ATOM     41  C   UNL     1       8.143  -1.561   8.338  1.00  0.00     0.173 A 
ATOM     42  C   UNL     1       6.857  -0.574  10.112  1.00  0.00     0.173 A 
ATOM     43  F   UNL     1       8.765  -1.485   7.152  1.00  0.00    -0.203 F 
ATOM     44  C   UNL     1       8.117  -2.785   9.005  1.00  0.00     0.198 A 
ATOM     45  C   UNL     1       6.856  -1.791  10.789  1.00  0.00     0.198 A 
ATOM     46  F   UNL     1       6.235   0.474  10.672  1.00  0.00    -0.203 F 
ATOM     47  F   UNL     1       8.700  -3.859   8.455  1.00  0.00    -0.200 F 
ATOM     48  C   UNL     1       7.480  -2.897  10.232  1.00  0.00     0.200 A 
ATOM     49  F   UNL     1       6.250  -1.894  11.980  1.00  0.00    -0.200 F 
ATOM     50  F   UNL     1       7.463  -4.072  10.876  1.00  0.00    -0.200 F 
ENDBRANCH  26  40
BRANCH  27  51
ATOM     51  C   UNL     1       7.243   8.390   4.181  1.00  0.00     0.064 A 
ATOM     52  C   UNL     1       8.379   8.877   3.519  1.00  0.00     0.173 A 
ATOM     53  C   UNL     1       6.077   9.167   4.136  1.00  0.00     0.173 A 
ATOM     54  F   UNL     1       9.523   8.177   3.550  1.00  0.00    -0.203 F 
ATOM     55  C   UNL     1       8.352  10.098   2.850  1.00  0.00     0.198 A 
ATOM     56  C   UNL     1       6.042  10.373   3.441  1.00  0.00     0.198 A 
ATOM     57  F   UNL     1       4.962   8.741   4.748  1.00  0.00    -0.203 F 
ATOM     58  F   UNL     1       9.462  10.559   2.257  1.00  0.00    -0.200 F 
ATOM     59  C   UNL     1       7.182  10.841   2.805  1.00  0.00     0.200 A 
ATOM     60  F   UNL     1       4.905  11.079   3.385  1.00  0.00    -0.200 F 
ATOM     61  F   UNL     1       7.153  12.011   2.151  1.00  0.00    -0.200 F 
ENDBRANCH  27  51
BRANCH  39  62
ATOM     62  C   UNL     1      10.512   6.047   9.862  1.00  0.00     0.064 A 
ATOM     63  C   UNL     1      10.066   6.997  10.793  1.00  0.00     0.173 A 
ATOM     64  C   UNL     1      11.874   5.713   9.862  1.00  0.00     0.173 A 
ATOM     65  F   UNL     1       8.776   7.362  10.819  1.00  0.00    -0.203 F 
ATOM     66  C   UNL     1      10.958   7.613  11.667  1.00  0.00     0.198 A 
ATOM     67  C   UNL     1      12.757   6.310  10.757  1.00  0.00     0.198 A 
ATOM     68  F   UNL     1      12.348   4.806   8.995  1.00  0.00    -0.203 F 
ATOM     69  F   UNL     1      10.520   8.558  12.511  1.00  0.00    -0.200 F 
ATOM     70  C   UNL     1      12.300   7.265  11.652  1.00  0.00     0.200 A 
ATOM     71  F   UNL     1      14.052   5.965  10.748  1.00  0.00    -0.200 F 
ATOM     72  F   UNL     1      13.157   7.860  12.494  1.00  0.00    -0.200 F 
ENDBRANCH  39  62
ENDBRANCH  13  14
ENDBRANCH   6   8
ENDBRANCH   3   4
ENDBRANCH   2   3
ENDBRANCH   1   2
BRANCH   1  73
ATOM     73  C   UNL     1       4.063  -3.079  -3.139  1.00  0.00     0.116 C 
BRANCH  73  74
ATOM     74  N   UNL     1       5.375  -3.304  -3.715  1.00  0.00    -0.356 N 
ATOM     75  C   UNL     1       5.645  -3.464  -5.041  1.00  0.00     0.223 C 
ATOM     76  H   UNL     1       6.138  -3.345  -3.093  1.00  0.00     0.163 HD
ATOM     77  O   UNL     1       6.352  -2.592  -5.549  1.00  0.00    -0.275 OA
BRANCH  75  78
ATOM     78  C   UNL     1       5.133  -4.628  -5.896  1.00  0.00     0.091 C 
ATOM     79  C   UNL     1       3.604  -4.538  -6.023  1.00  0.00     0.014 C 
ATOM     80  C   UNL     1       5.540  -6.066  -5.503  1.00  0.00     0.091 C 
ATOM     81  C   UNL     1       3.054  -5.506  -7.054  1.00  0.00     0.001 C 
ATOM     82  C   UNL     1       4.912  -7.086  -6.490  1.00  0.00     0.014 C 
ATOM     83  C   UNL     1       3.409  -6.929  -6.650  1.00  0.00     0.001 C 
BRANCH  80  84
ATOM     84  C   UNL     1       6.989  -6.569  -5.346  1.00  0.00     0.228 C 
ATOM     85  O   UNL     1       7.253  -7.292  -4.375  1.00  0.00    -0.274 OA
ATOM     86  N   UNL     1       7.937  -6.491  -6.323  1.00  0.00    -0.325 N 
ATOM     87  H   UNL     1       8.647  -7.171  -6.287  1.00  0.00     0.169 HD
BRANCH  86  88
ATOM     88  C   UNL     1       8.027  -5.571  -7.365  1.00  0.00     0.054 A 
ATOM     89  C   UNL     1       7.800  -6.071  -8.656  1.00  0.00     0.027 A 
ATOM     90  C   UNL     1       8.341  -4.217  -7.177  1.00  0.00     0.063 A 
ATOM     91  C   UNL     1       7.678  -5.200  -9.736  1.00  0.00     0.002 A 
ATOM     92  C   UNL     1       8.151  -3.346  -8.265  1.00  0.00     0.016 A 
ATOM     93  C   UNL     1       7.794  -3.830  -9.528  1.00  0.00     0.001 A 
BRANCH  90  94
ATOM     94  C   UNL     1       8.980  -3.630  -5.943  1.00  0.00     0.256 C 
ATOM     95  O   UNL     1       9.286  -2.439  -5.907  1.00  0.00    -0.269 OA
ATOM     96  N   UNL     1       9.387  -4.500  -4.924  1.00  0.00    -0.334 N 
ATOM     97  C   UNL     1      10.832  -4.604  -4.753  1.00  0.00     0.148 C 
ATOM     98  C   UNL     1       8.696  -4.381  -3.638  1.00  0.00     0.148 C 
ATOM     99  C   UNL     1      11.194  -5.692  -3.743  1.00  0.00     0.181 C 
ATOM    100  C   UNL     1       9.159  -5.416  -2.606  1.00  0.00     0.181 C 
ATOM    101  O   UNL     1      10.586  -5.417  -2.470  1.00  0.00    -0.378 OA
ENDBRANCH  90  94
ENDBRANCH  86  88
ENDBRANCH  80  84
ENDBRANCH  75  78
ENDBRANCH  73  74
ENDBRANCH   1  73
TORSDOF 14
