REMARK SMILES Cc1cc(C(=O)NCCCCNC(=O)c2ccc(-c3c4nc(c(-c5c(F)c(F)c(F)c(F)c5F)c5ccc([nH]5)c(-c5c(F)c(F)c(F)c(F)c5F)c5nc(c(-c6c(F)c(F)c(F)c(F)c6F)c6ccc3[nH]6)C=C5)C=C4)cc2)c(C)n1[C@@H]1C[N@H+]2CC[C@@H]1CC2
REMARK SMILES IDX 10 1 9 2 8 3 7 4 5 5 6 6 4 8 1 9 2 10 3 11 80 12 78 13 79 14
REMARK SMILES IDX 81 15 82 16 86 17 83 18 87 19 85 20 88 21 84 22 11 24 12 25
REMARK SMILES IDX 13 26 14 28 15 29 16 30 77 31 17 32 76 33 18 34 19 35 20 36
REMARK SMILES IDX 70 37 21 38 75 39 69 40 71 41 22 42 74 43 68 44 67 45 23 47
REMARK SMILES IDX 55 48 35 49 54 50 36 51 39 52 53 53 72 54 37 55 38 56 52 58
REMARK SMILES IDX 73 59 40 60 24 61 25 62 33 63 26 64 27 65 31 66 34 67 28 68
REMARK SMILES IDX 29 69 32 70 30 71 56 72 57 73 65 74 58 75 59 76 63 77 66 78
REMARK SMILES IDX 60 79 61 80 64 81 62 82 41 83 42 84 50 85 43 86 44 87 48 88
REMARK SMILES IDX 51 89 45 90 46 91 49 92 47 93
REMARK H PARENT 7 7 83 23 12 27 71 46 39 57
REMARK Flexibility Score: inf
ROOT
ATOM      1  C   UNL     1      -1.260  -1.295   7.149  1.00  0.00     0.023 C 
ENDROOT
BRANCH   1   2
ATOM      2  C   UNL     1      -1.138  -1.451   5.621  1.00  0.00     0.023 C 
BRANCH   2   3
ATOM      3  C   UNL     1      -1.729  -0.313   4.787  1.00  0.00     0.116 C 
BRANCH   3   4
ATOM      4  N   UNL     1      -1.137   0.970   5.123  1.00  0.00    -0.352 N 
ATOM      5  C   UNL     1      -0.375   1.879   4.431  1.00  0.00     0.253 C 
ATOM      6  O   UNL     1      -0.166   2.946   5.008  1.00  0.00    -0.269 OA
ATOM      7  H   UNL     1      -1.322   1.248   6.049  1.00  0.00     0.163 HD
BRANCH   5   8
ATOM      8  C   UNL     1       0.117   1.610   3.074  1.00  0.00     0.060 A 
ATOM      9  C   UNL     1       0.455  -0.430   0.028  1.00  0.00     0.064 C 
ATOM     10  C   UNL     1       0.551   0.618   1.079  1.00  0.00     0.016 A 
ATOM     11  C   UNL     1       0.330   0.380   2.421  1.00  0.00     0.037 A 
ATOM     12  N   UNL     1       0.839   1.968   0.939  1.00  0.00    -0.339 N 
ATOM     13  C   UNL     1       0.518   2.590   2.156  1.00  0.00     0.028 A 
ATOM     14  C   UNL     1       0.570   4.068   2.419  1.00  0.00     0.065 C 
BRANCH  12  15
ATOM     15  C   UNL     1       1.417   2.662  -0.219  1.00  0.00     0.145 C 
ATOM     16  C   UNL     1       0.706   2.519  -1.586  1.00  0.00     0.288 C 
ATOM     17  C   UNL     1       2.946   2.467  -0.426  1.00  0.00     0.029 C 
ATOM     18  N   UNL     1       1.668   2.250  -2.692  1.00  0.00    -0.333 N 
ATOM     19  C   UNL     1       3.405   3.544  -1.438  1.00  0.00     0.067 C 
ATOM     20  C   UNL     1       3.246   1.127  -1.109  1.00  0.00     0.067 C 
ATOM     21  C   UNL     1       2.643   3.362  -2.765  1.00  0.00     0.262 C 
ATOM     22  C   UNL     1       2.411   1.005  -2.396  1.00  0.00     0.262 C 
ATOM     23  H   UNL     1       1.160   2.161  -3.572  1.00  0.00     0.348 HD
ENDBRANCH  12  15
ENDBRANCH   5   8
ENDBRANCH   3   4
ENDBRANCH   2   3
ENDBRANCH   1   2
BRANCH   1  24
ATOM     24  C   UNL     1      -2.596  -0.791   7.709  1.00  0.00     0.116 C 
BRANCH  24  25
ATOM     25  N   UNL     1      -3.675  -1.750   7.641  1.00  0.00    -0.352 N 
ATOM     26  C   UNL     1      -4.977  -1.564   8.057  1.00  0.00     0.251 C 
ATOM     27  H   UNL     1      -3.457  -2.630   7.257  1.00  0.00     0.163 HD
ATOM     28  O   UNL     1      -5.803  -2.457   7.894  1.00  0.00    -0.269 OA
BRANCH  26  29
ATOM     29  C   UNL     1      -5.388  -0.300   8.738  1.00  0.00     0.039 A 
ATOM     30  C   UNL     1      -4.992  -0.070  10.050  1.00  0.00     0.014 A 
ATOM     31  C   UNL     1      -6.349   0.548   8.165  1.00  0.00     0.014 A 
ATOM     32  C   UNL     1      -5.568   0.991  10.778  1.00  0.00     0.010 A 
ATOM     33  C   UNL     1      -6.965   1.588   8.919  1.00  0.00     0.010 A 
ATOM     34  C   UNL     1      -6.624   1.801  10.263  1.00  0.00    -0.014 A 
BRANCH  34  35
ATOM     35  C   UNL     1      -7.616   2.334  11.295  1.00  0.00     0.031 A 
ATOM     36  C   UNL     1      -8.015   1.167  12.136  1.00  0.00     0.074 A 
ATOM     37  C   UNL     1      -8.238   3.517  11.594  1.00  0.00     0.049 A 
ATOM     38  N   UNL     1      -8.519   0.068  11.645  1.00  0.00    -0.248 NA
ATOM     39  C   UNL     1      -7.576   1.083  13.531  1.00  0.00     0.031 C 
ATOM     40  C   UNL     1      -8.102   4.808  10.916  1.00  0.00     0.029 A 
ATOM     41  N   UNL     1      -9.145   3.833  12.621  1.00  0.00    -0.354 N 
ATOM     42  C   UNL     1      -8.740  -0.735  12.737  1.00  0.00     0.074 A 
ATOM     43  C   UNL     1      -7.941  -0.169  13.807  1.00  0.00     0.031 C 
ATOM     44  C   UNL     1      -8.799   5.771  11.579  1.00  0.00     0.029 A 
ATOM     45  C   UNL     1      -9.502   5.195  12.722  1.00  0.00     0.049 A 
ATOM     46  H   UNL     1      -9.507   3.149  13.229  1.00  0.00     0.167 HD
ATOM     47  C   UNL     1      -9.927  -1.392  12.838  1.00  0.00     0.037 A 
ATOM     48  C   UNL     1     -10.326   5.821  13.623  1.00  0.00     0.037 A 
ATOM     49  C   UNL     1     -10.711  -0.968  13.964  1.00  0.00     0.049 A 
ATOM     50  C   UNL     1     -11.111   4.816  14.363  1.00  0.00     0.074 A 
ATOM     51  C   UNL     1     -10.463  -0.740  15.302  1.00  0.00     0.029 A 
ATOM     52  N   UNL     1     -11.865  -0.273  13.673  1.00  0.00    -0.354 N 
ATOM     53  N   UNL     1     -12.184   4.274  13.879  1.00  0.00    -0.248 NA
ATOM     54  C   UNL     1     -10.777   4.423  15.730  1.00  0.00     0.031 C 
ATOM     55  C   UNL     1     -11.158   0.465  15.610  1.00  0.00     0.029 A 
ATOM     56  C   UNL     1     -11.951   0.810  14.523  1.00  0.00     0.049 A 
ATOM     57  H   UNL     1     -12.518  -0.510  12.975  1.00  0.00     0.167 HD
ATOM     58  C   UNL     1     -12.358   3.167  14.649  1.00  0.00     0.074 A 
ATOM     59  C   UNL     1     -11.674   3.448  15.891  1.00  0.00     0.031 C 
ATOM     60  C   UNL     1     -12.614   1.992  14.024  1.00  0.00     0.037 A 
BRANCH  47  61
ATOM     61  C   UNL     1     -10.517  -1.860  11.545  1.00  0.00     0.064 A 
ATOM     62  C   UNL     1     -10.563  -3.229  11.269  1.00  0.00     0.173 A 
ATOM     63  C   UNL     1     -10.968  -0.977  10.546  1.00  0.00     0.173 A 
ATOM     64  F   UNL     1     -10.212  -4.118  12.212  1.00  0.00    -0.203 F 
ATOM     65  C   UNL     1     -10.986  -3.694  10.024  1.00  0.00     0.198 A 
ATOM     66  C   UNL     1     -11.342  -1.439   9.290  1.00  0.00     0.198 A 
ATOM     67  F   UNL     1     -11.085   0.337  10.801  1.00  0.00    -0.203 F 
ATOM     68  F   UNL     1     -11.053  -5.012   9.792  1.00  0.00    -0.200 F 
ATOM     69  C   UNL     1     -11.345  -2.798   9.027  1.00  0.00     0.200 A 
ATOM     70  F   UNL     1     -11.721  -0.567   8.344  1.00  0.00    -0.200 F 
ATOM     71  F   UNL     1     -11.726  -3.246   7.822  1.00  0.00    -0.200 F 
ENDBRANCH  47  61
BRANCH  48  72
ATOM     72  C   UNL     1     -10.711   7.224  14.017  1.00  0.00     0.064 A 
ATOM     73  C   UNL     1     -12.032   7.503  14.473  1.00  0.00     0.173 A 
ATOM     74  C   UNL     1      -9.752   8.191  14.331  1.00  0.00     0.173 A 
ATOM     75  F   UNL     1     -13.049   6.675  14.197  1.00  0.00    -0.203 F 
ATOM     76  C   UNL     1     -12.338   8.593  15.290  1.00  0.00     0.198 A 
ATOM     77  C   UNL     1     -10.072   9.313  15.119  1.00  0.00     0.198 A 
ATOM     78  F   UNL     1      -8.474   8.012  13.969  1.00  0.00    -0.203 F 
ATOM     79  F   UNL     1     -13.572   8.724  15.801  1.00  0.00    -0.200 F 
ATOM     80  C   UNL     1     -11.351   9.492  15.627  1.00  0.00     0.200 A 
ATOM     81  F   UNL     1      -9.113  10.189  15.451  1.00  0.00    -0.200 F 
ATOM     82  F   UNL     1     -11.621  10.505  16.463  1.00  0.00    -0.200 F 
ENDBRANCH  48  72
BRANCH  60  83
ATOM     83  C   UNL     1     -13.376   2.066  12.704  1.00  0.00     0.064 A 
ATOM     84  C   UNL     1     -13.101   2.931  11.616  1.00  0.00     0.173 A 
ATOM     85  C   UNL     1     -14.493   1.231  12.550  1.00  0.00     0.173 A 
ATOM     86  F   UNL     1     -11.975   3.654  11.552  1.00  0.00    -0.203 F 
ATOM     87  C   UNL     1     -13.964   3.043  10.523  1.00  0.00     0.198 A 
ATOM     88  C   UNL     1     -15.311   1.291  11.421  1.00  0.00     0.198 A 
ATOM     89  F   UNL     1     -14.779   0.318  13.490  1.00  0.00    -0.203 F 
ATOM     90  F   UNL     1     -13.715   3.942   9.559  1.00  0.00    -0.200 F 
ATOM     91  C   UNL     1     -15.069   2.221  10.426  1.00  0.00     0.200 A 
ATOM     92  F   UNL     1     -16.336   0.436  11.300  1.00  0.00    -0.200 F 
ATOM     93  F   UNL     1     -15.884   2.305   9.365  1.00  0.00    -0.200 F 
ENDBRANCH  60  83
ENDBRANCH  34  35
ENDBRANCH  26  29
ENDBRANCH  24  25
ENDBRANCH   1  24
TORSDOF 12
