REMARK SMILES O=C(NCCCCNC(=O)c1cc(OCc2ccccc2C(F)(F)F)cs1)c1ccc(-c2c3nc(c(-c4c(F)c(F)c(F)c(F)c4F)c4ccc([nH]4)c(-c4c(F)c(F)c(F)c(F)c4F)c4nc(c(-c5c(F)c(F)c(F)c(F)c5F)c5ccc2[nH]5)C=C4)C=C3)cc1
REMARK SMILES IDX 6 1 5 2 4 3 3 4 1 5 2 6 28 8 29 9 90 10 30 11 89 12 31 13
REMARK SMILES IDX 32 14 33 15 83 16 34 17 88 18 82 19 84 20 35 21 87 22 81 23
REMARK SMILES IDX 80 24 36 26 68 27 48 28 67 29 49 30 52 31 66 32 85 33 50 34
REMARK SMILES IDX 51 35 65 37 86 38 53 39 37 40 38 41 46 42 39 43 40 44 44 45
REMARK SMILES IDX 47 46 41 47 42 48 45 49 43 50 69 51 70 52 78 53 71 54 72 55
REMARK SMILES IDX 76 56 79 57 73 58 74 59 77 60 75 61 54 62 55 63 63 64 56 65
REMARK SMILES IDX 57 66 61 67 64 68 58 69 59 70 62 71 60 72 7 73 8 74 9 75
REMARK SMILES IDX 10 77 11 78 12 79 27 80 13 81 26 82 14 83 15 84 16 85 17 86
REMARK SMILES IDX 21 87 18 88 20 89 19 90 22 91 23 92 24 93 25 94
REMARK H PARENT 3 7 84 25 52 36 8 76
REMARK Flexibility Score: inf
ROOT
ATOM      1  C   UNL     1       5.100  -1.255   3.393  1.00  0.00     0.023 C 
ENDROOT
BRANCH   1   2
ATOM      2  C   UNL     1       5.430  -0.447   2.142  1.00  0.00     0.023 C 
BRANCH   2   3
ATOM      3  C   UNL     1       4.873  -0.994   0.832  1.00  0.00     0.116 C 
BRANCH   3   4
ATOM      4  N   UNL     1       3.419  -0.976   0.764  1.00  0.00    -0.352 N 
ATOM      5  O   UNL     1       1.350  -0.261   0.245  1.00  0.00    -0.269 OA
ATOM      6  C   UNL     1       2.559  -0.180   0.042  1.00  0.00     0.251 C 
ATOM      7  H   UNL     1       2.975  -1.647   1.331  1.00  0.00     0.163 HD
BRANCH   6   8
ATOM      8  C   UNL     1       3.067   0.800  -0.947  1.00  0.00     0.039 A 
ATOM      9  C   UNL     1       4.087   0.477  -1.844  1.00  0.00     0.014 A 
ATOM     10  C   UNL     1       2.481   2.069  -0.997  1.00  0.00     0.014 A 
ATOM     11  C   UNL     1       4.638   1.464  -2.660  1.00  0.00     0.010 A 
ATOM     12  C   UNL     1       2.975   3.035  -1.879  1.00  0.00     0.010 A 
ATOM     13  C   UNL     1       4.090   2.754  -2.685  1.00  0.00    -0.014 A 
BRANCH  13  14
ATOM     14  C   UNL     1       4.672   3.801  -3.564  1.00  0.00     0.031 A 
ATOM     15  C   UNL     1       5.296   5.036  -2.975  1.00  0.00     0.074 A 
ATOM     16  C   UNL     1       4.626   3.648  -4.901  1.00  0.00     0.049 A 
ATOM     17  N   UNL     1       5.779   6.092  -3.581  1.00  0.00    -0.248 NA
ATOM     18  C   UNL     1       5.382   5.096  -1.508  1.00  0.00     0.031 C 
ATOM     19  C   UNL     1       4.051   2.496  -5.595  1.00  0.00     0.029 A 
ATOM     20  N   UNL     1       5.059   4.467  -5.913  1.00  0.00    -0.354 N 
ATOM     21  C   UNL     1       6.196   6.952  -2.573  1.00  0.00     0.074 A 
ATOM     22  C   UNL     1       5.892   6.304  -1.315  1.00  0.00     0.031 C 
ATOM     23  C   UNL     1       4.173   2.676  -6.918  1.00  0.00     0.029 A 
ATOM     24  C   UNL     1       4.778   3.982  -7.166  1.00  0.00     0.049 A 
ATOM     25  H   UNL     1       5.525   5.320  -5.756  1.00  0.00     0.167 HD
ATOM     26  C   UNL     1       6.782   8.169  -2.689  1.00  0.00     0.037 A 
ATOM     27  C   UNL     1       4.952   4.537  -8.380  1.00  0.00     0.037 A 
ATOM     28  C   UNL     1       7.100   8.800  -3.944  1.00  0.00     0.049 A 
ATOM     29  C   UNL     1       5.574   5.899  -8.485  1.00  0.00     0.074 A 
ATOM     30  C   UNL     1       7.737  10.009  -4.165  1.00  0.00     0.029 A 
ATOM     31  N   UNL     1       6.795   8.275  -5.192  1.00  0.00    -0.354 N 
ATOM     32  N   UNL     1       5.992   6.690  -7.528  1.00  0.00    -0.248 NA
ATOM     33  C   UNL     1       5.748   6.447  -9.837  1.00  0.00     0.031 C 
ATOM     34  C   UNL     1       7.773  10.239  -5.545  1.00  0.00     0.029 A 
ATOM     35  C   UNL     1       7.207   9.149  -6.186  1.00  0.00     0.049 A 
ATOM     36  H   UNL     1       6.352   7.410  -5.348  1.00  0.00     0.167 HD
ATOM     37  C   UNL     1       6.499   7.818  -8.158  1.00  0.00     0.074 A 
ATOM     38  C   UNL     1       6.340   7.607  -9.582  1.00  0.00     0.031 C 
ATOM     39  C   UNL     1       7.050   8.924  -7.602  1.00  0.00     0.037 A 
BRANCH  26  40
ATOM     40  C   UNL     1       7.090   8.914  -1.422  1.00  0.00     0.064 A 
ATOM     41  C   UNL     1       8.107   8.504  -0.547  1.00  0.00     0.173 A 
ATOM     42  C   UNL     1       6.368  10.071  -1.089  1.00  0.00     0.173 A 
ATOM     43  F   UNL     1       8.820   7.399  -0.813  1.00  0.00    -0.203 F 
ATOM     44  C   UNL     1       8.367   9.203   0.629  1.00  0.00     0.198 A 
ATOM     45  C   UNL     1       6.650  10.785   0.073  1.00  0.00     0.198 A 
ATOM     46  F   UNL     1       5.391  10.514  -1.894  1.00  0.00    -0.203 F 
ATOM     47  F   UNL     1       9.306   8.760   1.476  1.00  0.00    -0.200 F 
ATOM     48  C   UNL     1       7.641  10.344   0.936  1.00  0.00     0.200 A 
ATOM     49  F   UNL     1       5.957  11.895   0.361  1.00  0.00    -0.200 F 
ATOM     50  F   UNL     1       7.892  11.015   2.069  1.00  0.00    -0.200 F 
ENDBRANCH  26  40
BRANCH  27  51
ATOM     51  C   UNL     1       4.508   3.790  -9.583  1.00  0.00     0.064 A 
ATOM     52  C   UNL     1       5.436   3.211 -10.457  1.00  0.00     0.173 A 
ATOM     53  C   UNL     1       3.144   3.591  -9.848  1.00  0.00     0.173 A 
ATOM     54  F   UNL     1       6.749   3.389 -10.254  1.00  0.00    -0.203 F 
ATOM     55  C   UNL     1       5.016   2.455 -11.550  1.00  0.00     0.198 A 
ATOM     56  C   UNL     1       2.727   2.814 -10.925  1.00  0.00     0.198 A 
ATOM     57  F   UNL     1       2.219   4.120  -9.035  1.00  0.00    -0.203 F 
ATOM     58  F   UNL     1       5.923   1.926 -12.383  1.00  0.00    -0.200 F 
ATOM     59  C   UNL     1       3.663   2.249 -11.777  1.00  0.00     0.200 A 
ATOM     60  F   UNL     1       1.420   2.602 -11.129  1.00  0.00    -0.200 F 
ATOM     61  F   UNL     1       3.262   1.503 -12.816  1.00  0.00    -0.200 F 
ENDBRANCH  27  51
BRANCH  39  62
ATOM     62  C   UNL     1       7.563   9.983  -8.531  1.00  0.00     0.064 A 
ATOM     63  C   UNL     1       6.694  10.846  -9.215  1.00  0.00     0.173 A 
ATOM     64  C   UNL     1       8.944  10.181  -8.684  1.00  0.00     0.173 A 
ATOM     65  F   UNL     1       5.366  10.686  -9.113  1.00  0.00    -0.203 F 
ATOM     66  C   UNL     1       7.191  11.863 -10.026  1.00  0.00     0.198 A 
ATOM     67  C   UNL     1       9.436  11.214  -9.475  1.00  0.00     0.198 A 
ATOM     68  F   UNL     1       9.815   9.384  -8.047  1.00  0.00    -0.203 F 
ATOM     69  F   UNL     1       6.344  12.659 -10.693  1.00  0.00    -0.200 F 
ATOM     70  C   UNL     1       8.560  12.053 -10.147  1.00  0.00     0.200 A 
ATOM     71  F   UNL     1      10.759  11.403  -9.582  1.00  0.00    -0.200 F 
ATOM     72  F   UNL     1       9.035  13.043 -10.916  1.00  0.00    -0.200 F 
ENDBRANCH  39  62
ENDBRANCH  13  14
ENDBRANCH   6   8
ENDBRANCH   3   4
ENDBRANCH   2   3
ENDBRANCH   1   2
BRANCH   1  73
ATOM     73  C   UNL     1       5.447  -2.740   3.346  1.00  0.00     0.116 C 
BRANCH  73  74
ATOM     74  N   UNL     1       6.858  -3.036   3.210  1.00  0.00    -0.351 N 
ATOM     75  C   UNL     1       7.515  -4.170   3.660  1.00  0.00     0.261 C 
ATOM     76  H   UNL     1       7.408  -2.361   2.751  1.00  0.00     0.163 HD
ATOM     77  O   UNL     1       8.729  -4.243   3.502  1.00  0.00    -0.268 OA
BRANCH  75  78
ATOM     78  C   UNL     1       6.715  -5.191   4.307  1.00  0.00     0.096 A 
ATOM     79  C   UNL     1       5.707  -5.979   3.778  1.00  0.00     0.072 A 
ATOM     80  S   UNL     1       6.940  -5.487   5.975  1.00  0.00    -0.135 S 
ATOM     81  C   UNL     1       4.967  -6.647   4.801  1.00  0.00     0.131 A 
ATOM     82  C   UNL     1       5.566  -6.503   6.033  1.00  0.00     0.112 A 
BRANCH  81  83
ATOM     83  O   UNL     1       3.789  -7.320   4.739  1.00  0.00    -0.488 OA
BRANCH  83  84
ATOM     84  C   UNL     1       3.042  -7.257   3.518  1.00  0.00     0.266 C 
BRANCH  84  85
ATOM     85  C   UNL     1       2.032  -6.111   3.463  1.00  0.00     0.001 A 
ATOM     86  C   UNL     1       2.498  -4.804   3.709  1.00  0.00     0.008 A 
ATOM     87  C   UNL     1       0.670  -6.254   3.106  1.00  0.00     0.062 A 
ATOM     88  C   UNL     1       1.690  -3.673   3.598  1.00  0.00     0.000 A 
ATOM     89  C   UNL     1      -0.141  -5.093   3.013  1.00  0.00     0.013 A 
ATOM     90  C   UNL     1       0.365  -3.817   3.240  1.00  0.00     0.001 A 
BRANCH  87  91
ATOM     91  C   UNL     1      -0.046  -7.568   2.861  1.00  0.00     0.416 C 
ATOM     92  F   UNL     1      -0.784  -7.953   3.940  1.00  0.00    -0.166 F 
ATOM     93  F   UNL     1      -0.930  -7.486   1.824  1.00  0.00    -0.166 F 
ATOM     94  F   UNL     1       0.753  -8.622   2.554  1.00  0.00    -0.166 F 
ENDBRANCH  87  91
ENDBRANCH  84  85
ENDBRANCH  83  84
ENDBRANCH  81  83
ENDBRANCH  75  78
ENDBRANCH  73  74
ENDBRANCH   1  73
TORSDOF 15
