REMARK SMILES O=C(C[C@H]([NH2+]Cc1ccccc1C1CC1)c1cccs1)NCCCCNC(=O)c1ccc(-c2c3nc(c(-c4c(F)c(F)c(F)c(F)c4F)c4ccc([nH]4)c(-c4c(F)c(F)c(F)c(F)c4F)c4nc(c(-c5c(F)c(F)c(F)c(F)c5F)c5ccc2[nH]5)C=C4)C=C3)cc1
REMARK SMILES IDX 22 1 21 2 1 3 2 4 3 6 4 7 16 8 17 9 20 10 18 11 19 12 5 13
REMARK SMILES IDX 6 16 7 17 8 18 12 19 9 20 11 21 10 22 13 23 14 24 15 25
REMARK SMILES IDX 23 26 24 27 25 28 26 29 27 30 28 32 29 33 30 34 91 35 31 36
REMARK SMILES IDX 90 37 32 38 33 39 34 40 84 41 35 42 89 43 83 44 85 45 36 46
REMARK SMILES IDX 88 47 82 48 81 49 37 51 69 52 49 53 68 54 50 55 53 56 67 57
REMARK SMILES IDX 86 58 51 59 52 60 66 62 87 63 54 64 38 65 39 66 47 67 40 68
REMARK SMILES IDX 41 69 45 70 48 71 42 72 43 73 46 74 44 75 70 76 71 77 79 78
REMARK SMILES IDX 72 79 73 80 77 81 80 82 74 83 75 84 78 85 76 86 55 87 56 88
REMARK SMILES IDX 64 89 57 90 58 91 62 92 65 93 59 94 60 95 63 96 61 97
REMARK H PARENT 21 5 5 14 5 15 26 31 85 50 53 61
REMARK Flexibility Score: inf
ROOT
ATOM      1  C   UNL     1       3.572  -0.226   4.193  1.00  0.00     0.116 C 
ENDROOT
BRANCH   1   2
ATOM      2  N   UNL     1       4.196   0.521   3.113  1.00  0.00    -0.356 N 
ATOM      3  O   UNL     1       4.245  -1.226   1.625  1.00  0.00    -0.275 OA
ATOM      4  C   UNL     1       4.513  -0.061   1.902  1.00  0.00     0.226 C 
ATOM      5  H   UNL     1       4.399   1.474   3.250  1.00  0.00     0.163 HD
BRANCH   4   6
ATOM      6  C   UNL     1       5.223   0.858   0.927  1.00  0.00     0.171 C 
BRANCH   6   7
ATOM      7  C   UNL     1       4.249   1.843   0.261  1.00  0.00     0.233 C 
BRANCH   7   8
ATOM      8  C   UNL     1       4.953   3.091  -0.241  1.00  0.00     0.062 A 
ATOM      9  C   UNL     1       4.609   4.405   0.024  1.00  0.00     0.021 A 
ATOM     10  S   UNL     1       6.268   3.005  -1.343  1.00  0.00    -0.143 S 
ATOM     11  C   UNL     1       5.384   5.335  -0.726  1.00  0.00     0.012 A 
ATOM     12  C   UNL     1       6.321   4.705  -1.513  1.00  0.00     0.065 A 
ENDBRANCH   7   8
BRANCH   7  13
ATOM     13  N   UNL     1       3.474   1.224  -0.832  1.00  0.00    -0.335 N 
ATOM     14  H   UNL     1       3.123   0.318  -0.521  1.00  0.00     0.347 HD
ATOM     15  H   UNL     1       4.084   1.113  -1.641  1.00  0.00     0.347 HD
BRANCH  13  16
ATOM     16  C   UNL     1       2.340   2.069  -1.216  1.00  0.00     0.298 C 
BRANCH  16  17
ATOM     17  C   UNL     1       1.350   1.380  -2.125  1.00  0.00     0.010 A 
ATOM     18  C   UNL     1       1.432   1.716  -3.500  1.00  0.00     0.010 A 
ATOM     19  C   UNL     1       0.338   0.500  -1.671  1.00  0.00    -0.036 A 
ATOM     20  C   UNL     1       0.509   1.244  -4.427  1.00  0.00     0.001 A 
ATOM     21  C   UNL     1      -0.584   0.052  -2.652  1.00  0.00     0.004 A 
ATOM     22  C   UNL     1      -0.512   0.417  -3.999  1.00  0.00     0.000 A 
BRANCH  19  23
ATOM     23  C   UNL     1       0.103  -0.043  -0.264  1.00  0.00     0.020 C 
ATOM     24  C   UNL     1       0.845   0.233   1.011  1.00  0.00     0.009 C 
ATOM     25  C   UNL     1      -0.480   0.887   0.778  1.00  0.00     0.009 C 
ENDBRANCH  19  23
ENDBRANCH  16  17
ENDBRANCH  13  16
ENDBRANCH   7  13
ENDBRANCH   6   7
ENDBRANCH   4   6
ENDBRANCH   1   2
BRANCH   1  26
ATOM     26  C   UNL     1       4.283  -0.005   5.529  1.00  0.00     0.023 C 
BRANCH  26  27
ATOM     27  C   UNL     1       4.235   1.429   6.064  1.00  0.00     0.023 C 
BRANCH  27  28
ATOM     28  C   UNL     1       2.838   1.976   6.344  1.00  0.00     0.116 C 
BRANCH  28  29
ATOM     29  N   UNL     1       2.169   1.297   7.441  1.00  0.00    -0.352 N 
ATOM     30  C   UNL     1       1.554   1.820   8.555  1.00  0.00     0.251 C 
ATOM     31  H   UNL     1       2.154   0.314   7.378  1.00  0.00     0.163 HD
ATOM     32  O   UNL     1       1.162   1.075   9.445  1.00  0.00    -0.269 OA
BRANCH  30  33
ATOM     33  C   UNL     1       1.392   3.286   8.703  1.00  0.00     0.039 A 
ATOM     34  C   UNL     1       1.663   3.869   9.945  1.00  0.00     0.014 A 
ATOM     35  C   UNL     1       0.974   4.086   7.637  1.00  0.00     0.014 A 
ATOM     36  C   UNL     1       1.588   5.257  10.095  1.00  0.00     0.010 A 
ATOM     37  C   UNL     1       0.977   5.474   7.765  1.00  0.00     0.010 A 
ATOM     38  C   UNL     1       1.287   6.076   8.994  1.00  0.00    -0.014 A 
BRANCH  38  39
ATOM     39  C   UNL     1       1.307   7.560   9.108  1.00  0.00     0.031 A 
ATOM     40  C   UNL     1       0.055   8.360   8.877  1.00  0.00     0.074 A 
ATOM     41  C   UNL     1       2.470   8.194   9.356  1.00  0.00     0.049 A 
ATOM     42  N   UNL     1      -0.108   9.660   8.861  1.00  0.00    -0.248 NA
ATOM     43  C   UNL     1      -1.173   7.599   8.601  1.00  0.00     0.031 C 
ATOM     44  C   UNL     1       3.764   7.539   9.556  1.00  0.00     0.029 A 
ATOM     45  N   UNL     1       2.756   9.533   9.472  1.00  0.00    -0.354 N 
ATOM     46  C   UNL     1      -1.448   9.870   8.566  1.00  0.00     0.074 A 
ATOM     47  C   UNL     1      -2.041   8.568   8.351  1.00  0.00     0.031 C 
ATOM     48  C   UNL     1       4.699   8.473   9.789  1.00  0.00     0.029 A 
ATOM     49  C   UNL     1       4.083   9.795   9.712  1.00  0.00     0.049 A 
ATOM     50  H   UNL     1       2.074  10.238   9.390  1.00  0.00     0.167 HD
ATOM     51  C   UNL     1      -2.130  11.040   8.507  1.00  0.00     0.037 A 
ATOM     52  C   UNL     1       4.735  10.967   9.842  1.00  0.00     0.037 A 
ATOM     53  C   UNL     1      -1.540  12.335   8.733  1.00  0.00     0.049 A 
ATOM     54  C   UNL     1       3.961  12.254   9.745  1.00  0.00     0.074 A 
ATOM     55  C   UNL     1      -2.157  13.574   8.742  1.00  0.00     0.029 A 
ATOM     56  N   UNL     1      -0.194  12.559   8.983  1.00  0.00    -0.354 N 
ATOM     57  N   UNL     1       2.681  12.437   9.532  1.00  0.00    -0.248 NA
ATOM     58  C   UNL     1       4.723  13.499   9.915  1.00  0.00     0.031 C 
ATOM     59  C   UNL     1      -1.176  14.551   8.940  1.00  0.00     0.029 A 
ATOM     60  C   UNL     1       0.043  13.918   9.120  1.00  0.00     0.049 A 
ATOM     61  H   UNL     1       0.492  11.856   9.053  1.00  0.00     0.167 HD
ATOM     62  C   UNL     1       2.478  13.810   9.572  1.00  0.00     0.074 A 
ATOM     63  C   UNL     1       3.766  14.413   9.846  1.00  0.00     0.031 C 
ATOM     64  C   UNL     1       1.329  14.508   9.398  1.00  0.00     0.037 A 
BRANCH  51  65
ATOM     65  C   UNL     1      -3.596  10.974   8.180  1.00  0.00     0.064 A 
ATOM     66  C   UNL     1      -4.526  10.418   9.072  1.00  0.00     0.173 A 
ATOM     67  C   UNL     1      -4.083  11.504   6.975  1.00  0.00     0.173 A 
ATOM     68  F   UNL     1      -4.114   9.889  10.234  1.00  0.00    -0.203 F 
ATOM     69  C   UNL     1      -5.881  10.363   8.755  1.00  0.00     0.198 A 
ATOM     70  C   UNL     1      -5.443  11.479   6.677  1.00  0.00     0.198 A 
ATOM     71  F   UNL     1      -3.240  12.056   6.088  1.00  0.00    -0.203 F 
ATOM     72  F   UNL     1      -6.740   9.774   9.598  1.00  0.00    -0.200 F 
ATOM     73  C   UNL     1      -6.339  10.900   7.562  1.00  0.00     0.200 A 
ATOM     74  F   UNL     1      -5.886  12.014   5.531  1.00  0.00    -0.200 F 
ATOM     75  F   UNL     1      -7.644  10.852   7.261  1.00  0.00    -0.200 F 
ENDBRANCH  51  65
BRANCH  52  76
ATOM     76  C   UNL     1       6.201  10.977  10.091  1.00  0.00     0.064 A 
ATOM     77  C   UNL     1       6.723  11.412  11.318  1.00  0.00     0.173 A 
ATOM     78  C   UNL     1       7.111  10.559   9.109  1.00  0.00     0.173 A 
ATOM     79  F   UNL     1       5.896  11.842  12.282  1.00  0.00    -0.203 F 
ATOM     80  C   UNL     1       8.098  11.451  11.543  1.00  0.00     0.198 A 
ATOM     81  C   UNL     1       8.484  10.567   9.347  1.00  0.00     0.198 A 
ATOM     82  F   UNL     1       6.665  10.128   7.920  1.00  0.00    -0.203 F 
ATOM     83  F   UNL     1       8.570  11.920  12.706  1.00  0.00    -0.200 F 
ATOM     84  C   UNL     1       8.977  11.022  10.561  1.00  0.00     0.200 A 
ATOM     85  F   UNL     1       9.328  10.135   8.401  1.00  0.00    -0.200 F 
ATOM     86  F   UNL     1      10.298  11.055  10.780  1.00  0.00    -0.200 F 
ENDBRANCH  52  76
BRANCH  64  87
ATOM     87  C   UNL     1       1.399  16.003   9.537  1.00  0.00     0.064 A 
ATOM     88  C   UNL     1       2.047  16.806   8.586  1.00  0.00     0.173 A 
ATOM     89  C   UNL     1       0.775  16.644  10.619  1.00  0.00     0.173 A 
ATOM     90  F   UNL     1       2.672  16.243   7.540  1.00  0.00    -0.203 F 
ATOM     91  C   UNL     1       2.092  18.190   8.729  1.00  0.00     0.198 A 
ATOM     92  C   UNL     1       0.792  18.031  10.739  1.00  0.00     0.198 A 
ATOM     93  F   UNL     1       0.135  15.925  11.553  1.00  0.00    -0.203 F 
ATOM     94  F   UNL     1       2.762  18.932   7.836  1.00  0.00    -0.200 F 
ATOM     95  C   UNL     1       1.458  18.802   9.800  1.00  0.00     0.200 A 
ATOM     96  F   UNL     1       0.164  18.620  11.766  1.00  0.00    -0.200 F 
ATOM     97  F   UNL     1       1.494  20.135   9.930  1.00  0.00    -0.200 F 
ENDBRANCH  64  87
ENDBRANCH  38  39
ENDBRANCH  30  33
ENDBRANCH  28  29
ENDBRANCH  27  28
ENDBRANCH  26  27
ENDBRANCH   1  26
TORSDOF 17
