REMARK SMILES CC1=CC2=[NH+]C(=O)[C@@](C)(CC(=O)NCCCCNC(=O)c3ccc(-c4c5nc(c(-c6c(F)c(F)c(F)c(F)c6F)c6ccc([nH]6)c(-c6c(F)c(F)c(F)c(F)c6F)c6nc(c(-c7c(F)c(F)c(F)c(F)c7F)c7ccc4[nH]7)C=C6)C=C5)cc3)N2C=C1
REMARK SMILES IDX 16 1 15 2 14 3 13 4 11 5 12 6 10 8 8 9 1 10 2 11 3 12 86 13
REMARK SMILES IDX 4 14 85 15 5 16 84 17 6 18 7 20 9 21 17 22 18 23 19 24 20 26
REMARK SMILES IDX 21 27 22 28 83 29 23 30 82 31 24 32 25 33 26 34 76 35 27 36
REMARK SMILES IDX 81 37 75 38 77 39 28 40 80 41 74 42 73 43 29 45 61 46 41 47
REMARK SMILES IDX 60 48 42 49 45 50 59 51 78 52 43 53 44 54 58 56 79 57 46 58
REMARK SMILES IDX 30 59 31 60 39 61 32 62 33 63 37 64 40 65 34 66 35 67 38 68
REMARK SMILES IDX 36 69 62 70 63 71 71 72 64 73 65 74 69 75 72 76 66 77 67 78
REMARK SMILES IDX 70 79 68 80 47 81 48 82 56 83 49 84 50 85 54 86 57 87 51 88
REMARK SMILES IDX 52 89 55 90 53 91
REMARK H PARENT 13 7 5 19 18 25 77 44 45 55
REMARK Flexibility Score: inf
ROOT
ATOM      1  C   UNL     1       1.865   4.144   4.948  1.00  0.00     0.023 C 
ENDROOT
BRANCH   1   2
ATOM      2  C   UNL     1       1.487   2.976   5.863  1.00  0.00     0.023 C 
BRANCH   2   3
ATOM      3  C   UNL     1       0.151   3.135   6.578  1.00  0.00     0.116 C 
BRANCH   3   4
ATOM      4  N   UNL     1      -0.943   3.288   5.641  1.00  0.00    -0.356 N 
ATOM      5  C   UNL     1      -1.873   2.381   5.247  1.00  0.00     0.225 C 
ATOM      6  O   UNL     1      -2.745   2.747   4.457  1.00  0.00    -0.275 OA
ATOM      7  H   UNL     1      -1.025   4.179   5.232  1.00  0.00     0.163 HD
BRANCH   5   8
ATOM      8  C   UNL     1      -1.859   0.988   5.803  1.00  0.00     0.166 C 
BRANCH   8   9
ATOM      9  C   UNL     1      -1.321  -0.165   4.960  1.00  0.00     0.217 C 
ATOM     10  C   UNL     1       0.969  -0.523  -0.266  1.00  0.00     0.045 C 
ATOM     11  C   UNL     1       0.539  -0.377   1.162  1.00  0.00    -0.039 C 
ATOM     12  C   UNL     1       0.642  -1.370   2.070  1.00  0.00     0.102 C 
ATOM     13  C   UNL     1      -0.023   0.919   1.548  1.00  0.00     0.047 C 
ATOM     14  C   UNL     1       0.151  -1.022   3.426  1.00  0.00     0.283 C 
ATOM     15  C   UNL     1      -0.715   1.041   2.696  1.00  0.00     0.202 C 
ATOM     16  N   UNL     1       0.583  -1.566   4.531  1.00  0.00    -0.206 N 
ATOM     17  N   UNL     1      -0.785  -0.001   3.598  1.00  0.00    -0.217 N 
ATOM     18  C   UNL     1      -0.051  -0.850   5.547  1.00  0.00     0.356 C 
ATOM     19  H   UNL     1       1.215  -2.315   4.627  1.00  0.00     0.315 HD
ATOM     20  O   UNL     1       0.345  -0.748   6.697  1.00  0.00    -0.242 OA
ATOM     21  C   UNL     1      -2.367  -1.318   5.005  1.00  0.00     0.076 C 
ENDBRANCH   8   9
ENDBRANCH   5   8
ENDBRANCH   3   4
ENDBRANCH   2   3
ENDBRANCH   1   2
BRANCH   1  22
ATOM     22  C   UNL     1       1.771   5.531   5.577  1.00  0.00     0.116 C 
BRANCH  22  23
ATOM     23  N   UNL     1       2.585   5.670   6.772  1.00  0.00    -0.352 N 
ATOM     24  C   UNL     1       3.415   6.700   7.141  1.00  0.00     0.251 C 
ATOM     25  H   UNL     1       2.535   4.920   7.408  1.00  0.00     0.163 HD
ATOM     26  O   UNL     1       4.124   6.598   8.136  1.00  0.00    -0.269 OA
BRANCH  24  27
ATOM     27  C   UNL     1       3.476   7.926   6.319  1.00  0.00     0.039 A 
ATOM     28  C   UNL     1       4.728   8.443   5.975  1.00  0.00     0.014 A 
ATOM     29  C   UNL     1       2.308   8.563   5.891  1.00  0.00     0.014 A 
ATOM     30  C   UNL     1       4.811   9.567   5.150  1.00  0.00     0.010 A 
ATOM     31  C   UNL     1       2.392   9.645   5.020  1.00  0.00     0.010 A 
ATOM     32  C   UNL     1       3.644  10.158   4.643  1.00  0.00    -0.014 A 
BRANCH  32  33
ATOM     33  C   UNL     1       3.699  11.321   3.724  1.00  0.00     0.031 A 
ATOM     34  C   UNL     1       3.139  12.644   4.162  1.00  0.00     0.074 A 
ATOM     35  C   UNL     1       4.163  11.164   2.471  1.00  0.00     0.049 A 
ATOM     36  N   UNL     1       2.961  13.740   3.469  1.00  0.00    -0.248 NA
ATOM     37  C   UNL     1       2.691  12.736   5.560  1.00  0.00     0.031 C 
ATOM     38  C   UNL     1       4.699   9.920   1.917  1.00  0.00     0.029 A 
ATOM     39  N   UNL     1       4.237  12.053   1.427  1.00  0.00    -0.354 N 
ATOM     40  C   UNL     1       2.353  14.638   4.336  1.00  0.00     0.074 A 
ATOM     41  C   UNL     1       2.159  13.949   5.593  1.00  0.00     0.031 C 
ATOM     42  C   UNL     1       5.050  10.125   0.637  1.00  0.00     0.029 A 
ATOM     43  C   UNL     1       4.729  11.501   0.270  1.00  0.00     0.049 A 
ATOM     44  H   UNL     1       3.963  12.995   1.501  1.00  0.00     0.167 HD
ATOM     45  C   UNL     1       2.003  15.926   4.107  1.00  0.00     0.037 A 
ATOM     46  C   UNL     1       4.888  12.041  -0.954  1.00  0.00     0.037 A 
ATOM     47  C   UNL     1       2.233  16.618   2.866  1.00  0.00     0.049 A 
ATOM     48  C   UNL     1       4.504  13.477  -1.181  1.00  0.00     0.074 A 
ATOM     49  C   UNL     1       1.980  17.943   2.557  1.00  0.00     0.029 A 
ATOM     50  N   UNL     1       2.772  16.037   1.728  1.00  0.00    -0.354 N 
ATOM     51  N   UNL     1       3.982  14.335  -0.339  1.00  0.00    -0.248 NA
ATOM     52  C   UNL     1       4.736  14.021  -2.526  1.00  0.00     0.031 C 
ATOM     53  C   UNL     1       2.331  18.153   1.219  1.00  0.00     0.029 A 
ATOM     54  C   UNL     1       2.844  16.972   0.708  1.00  0.00     0.049 A 
ATOM     55  H   UNL     1       3.062  15.098   1.656  1.00  0.00     0.167 HD
ATOM     56  C   UNL     1       3.849  15.526  -1.040  1.00  0.00     0.074 A 
ATOM     57  C   UNL     1       4.350  15.281  -2.377  1.00  0.00     0.031 C 
ATOM     58  C   UNL     1       3.359  16.715  -0.612  1.00  0.00     0.037 A 
BRANCH  45  59
ATOM     59  C   UNL     1       1.328  16.668   5.223  1.00  0.00     0.064 A 
ATOM     60  C   UNL     1       2.021  17.045   6.383  1.00  0.00     0.173 A 
ATOM     61  C   UNL     1      -0.026  17.023   5.123  1.00  0.00     0.173 A 
ATOM     62  F   UNL     1       3.313  16.719   6.533  1.00  0.00    -0.203 F 
ATOM     63  C   UNL     1       1.375  17.719   7.416  1.00  0.00     0.198 A 
ATOM     64  C   UNL     1      -0.661  17.723   6.145  1.00  0.00     0.198 A 
ATOM     65  F   UNL     1      -0.734  16.692   4.032  1.00  0.00    -0.203 F 
ATOM     66  F   UNL     1       2.043  18.020   8.538  1.00  0.00    -0.200 F 
ATOM     67  C   UNL     1       0.037  18.062   7.294  1.00  0.00     0.200 A 
ATOM     68  F   UNL     1      -1.951  18.064   6.021  1.00  0.00    -0.200 F 
ATOM     69  F   UNL     1      -0.583  18.711   8.289  1.00  0.00    -0.200 F 
ENDBRANCH  45  59
BRANCH  46  70
ATOM     70  C   UNL     1       5.458  11.218  -2.050  1.00  0.00     0.064 A 
ATOM     71  C   UNL     1       6.759  11.447  -2.517  1.00  0.00     0.173 A 
ATOM     72  C   UNL     1       4.726  10.175  -2.637  1.00  0.00     0.173 A 
ATOM     73  F   UNL     1       7.488  12.446  -2.000  1.00  0.00    -0.203 F 
ATOM     74  C   UNL     1       7.304  10.671  -3.537  1.00  0.00     0.198 A 
ATOM     75  C   UNL     1       5.282   9.383  -3.640  1.00  0.00     0.198 A 
ATOM     76  F   UNL     1       3.479   9.912  -2.220  1.00  0.00    -0.203 F 
ATOM     77  F   UNL     1       8.539  10.931  -3.987  1.00  0.00    -0.200 F 
ATOM     78  C   UNL     1       6.568   9.635  -4.093  1.00  0.00     0.200 A 
ATOM     79  F   UNL     1       4.573   8.374  -4.165  1.00  0.00    -0.200 F 
ATOM     80  F   UNL     1       7.097   8.882  -5.066  1.00  0.00    -0.200 F 
ENDBRANCH  46  70
BRANCH  58  81
ATOM     81  C   UNL     1       3.375  17.858  -1.582  1.00  0.00     0.064 A 
ATOM     82  C   UNL     1       2.462  17.936  -2.643  1.00  0.00     0.173 A 
ATOM     83  C   UNL     1       4.276  18.920  -1.407  1.00  0.00     0.173 A 
ATOM     84  F   UNL     1       1.592  16.938  -2.860  1.00  0.00    -0.203 F 
ATOM     85  C   UNL     1       2.459  19.031  -3.503  1.00  0.00     0.198 A 
ATOM     86  C   UNL     1       4.253  20.024  -2.253  1.00  0.00     0.198 A 
ATOM     87  F   UNL     1       5.165  18.893  -0.403  1.00  0.00    -0.203 F 
ATOM     88  F   UNL     1       1.600  19.071  -4.530  1.00  0.00    -0.200 F 
ATOM     89  C   UNL     1       3.348  20.078  -3.302  1.00  0.00     0.200 A 
ATOM     90  F   UNL     1       5.104  21.040  -2.051  1.00  0.00    -0.200 F 
ATOM     91  F   UNL     1       3.334  21.137  -4.123  1.00  0.00    -0.200 F 
ENDBRANCH  58  81
ENDBRANCH  32  33
ENDBRANCH  24  27
ENDBRANCH  22  23
ENDBRANCH   1  22
TORSDOF 12
