REMARK SMILES CSc1ccc(-c2cc(C[C@H]3CCCC3=O)ccc2[C@@H](C)C(=O)NCCCCNC(=O)c2ccc(-c3c4nc(c(-c5c(F)c(F)c(F)c(F)c5F)c5ccc([nH]5)c(-c5c(F)c(F)c(F)c(F)c5F)c5nc(c(-c6c(F)c(F)c(F)c(F)c6F)c6ccc3[nH]6)C=C5)C=C4)cc2)cc1
REMARK SMILES IDX 26 1 25 2 24 3 22 4 23 5 20 7 21 8 19 9 7 10 8 11 9 12 18 13
REMARK SMILES IDX 17 14 6 15 3 16 4 17 96 18 5 19 95 20 2 21 1 22 10 23 11 24
REMARK SMILES IDX 12 25 15 26 13 27 14 28 16 29 27 30 28 31 29 32 30 33 31 35
REMARK SMILES IDX 32 36 33 37 94 38 34 39 93 40 35 41 36 42 37 43 87 44 38 45
REMARK SMILES IDX 92 46 86 47 88 48 39 49 91 50 85 51 84 52 40 54 72 55 52 56
REMARK SMILES IDX 71 57 53 58 56 59 70 60 89 61 54 62 55 63 69 65 90 66 57 67
REMARK SMILES IDX 41 68 42 69 50 70 43 71 44 72 48 73 51 74 45 75 46 76 49 77
REMARK SMILES IDX 47 78 73 79 74 80 82 81 75 82 76 83 80 84 83 85 77 86 78 87
REMARK SMILES IDX 81 88 79 89 58 90 59 91 67 92 60 93 61 94 65 95 68 96 62 97
REMARK SMILES IDX 63 98 66 99 64 100
REMARK H PARENT 24 6 29 34 88 53 56 64
REMARK Flexibility Score: inf
ROOT
ATOM      1  C   UNL     1       0.436   7.612   8.387  1.00  0.00     0.023 C 
ENDROOT
BRANCH   1   2
ATOM      2  C   UNL     1      -0.878   7.509   7.609  1.00  0.00     0.116 C 
BRANCH   2   3
ATOM      3  N   UNL     1      -0.669   7.613   6.182  1.00  0.00    -0.356 N 
ATOM      4  C   UNL     1      -0.508   6.668   5.215  1.00  0.00     0.227 C 
ATOM      5  O   UNL     1      -0.248   7.101   4.084  1.00  0.00    -0.274 OA
ATOM      6  H   UNL     1      -0.636   8.538   5.848  1.00  0.00     0.163 HD
BRANCH   4   7
ATOM      7  C   UNL     1      -0.633   5.149   5.451  1.00  0.00     0.106 C 
ATOM      8  C   UNL     1      -1.979   4.703   6.021  1.00  0.00     0.023 C 
BRANCH   7   9
ATOM      9  C   UNL     1       0.609   4.544   6.108  1.00  0.00    -0.028 A 
ATOM     10  C   UNL     1       1.667   3.985   5.348  1.00  0.00    -0.014 A 
ATOM     11  C   UNL     1       2.869   3.625   6.000  1.00  0.00     0.012 A 
ATOM     12  C   UNL     1       3.010   3.702   7.390  1.00  0.00    -0.047 A 
ATOM     13  C   UNL     1       0.745   4.550   7.505  1.00  0.00     0.005 A 
ATOM     14  C   UNL     1       1.927   4.158   8.137  1.00  0.00     0.004 A 
BRANCH  10  15
ATOM     15  C   UNL     1       1.481   3.518   3.963  1.00  0.00    -0.018 A 
ATOM     16  C   UNL     1       0.959   2.453   1.386  1.00  0.00     0.007 A 
ATOM     17  C   UNL     1       1.039   1.613   2.494  1.00  0.00     0.015 A 
ATOM     18  C   UNL     1       1.151   3.830   1.578  1.00  0.00     0.015 A 
ATOM     19  C   UNL     1       1.293   2.140   3.760  1.00  0.00     0.010 A 
ATOM     20  C   UNL     1       1.424   4.358   2.850  1.00  0.00     0.010 A 
BRANCH  16  21
ATOM     21  S   UNL     1       0.567   1.878  -0.262  1.00  0.00    -0.130 SA
ATOM     22  C   UNL     1       0.976   0.111  -0.177  1.00  0.00     0.091 C 
ENDBRANCH  16  21
ENDBRANCH  10  15
BRANCH  12  23
ATOM     23  C   UNL     1       4.258   3.201   8.083  1.00  0.00     0.047 C 
BRANCH  23  24
ATOM     24  C   UNL     1       4.353   1.676   8.237  1.00  0.00     0.060 C 
ATOM     25  C   UNL     1       3.125   0.993   8.852  1.00  0.00     0.012 C 
ATOM     26  C   UNL     1       4.516   0.968   6.914  1.00  0.00     0.136 C 
ATOM     27  C   UNL     1       2.914  -0.310   8.089  1.00  0.00     0.009 C 
ATOM     28  C   UNL     1       3.490  -0.105   6.699  1.00  0.00     0.076 C 
ATOM     29  O   UNL     1       5.380   1.247   6.091  1.00  0.00    -0.299 OA
ENDBRANCH  23  24
ENDBRANCH  12  23
ENDBRANCH   7   9
ENDBRANCH   4   7
ENDBRANCH   2   3
ENDBRANCH   1   2
BRANCH   1  30
ATOM     30  C   UNL     1       0.838   9.022   8.805  1.00  0.00     0.023 C 
BRANCH  30  31
ATOM     31  C   UNL     1      -0.151   9.733   9.719  1.00  0.00     0.116 C 
BRANCH  31  32
ATOM     32  N   UNL     1      -0.480   8.998  10.932  1.00  0.00    -0.352 N 
ATOM     33  C   UNL     1      -0.825   9.505  12.166  1.00  0.00     0.251 C 
ATOM     34  H   UNL     1      -0.452   8.017  10.861  1.00  0.00     0.163 HD
ATOM     35  O   UNL     1      -1.012   8.765  13.118  1.00  0.00    -0.269 OA
BRANCH  33  36
ATOM     36  C   UNL     1      -0.911  10.971  12.328  1.00  0.00     0.039 A 
ATOM     37  C   UNL     1      -0.182  11.578  13.352  1.00  0.00     0.014 A 
ATOM     38  C   UNL     1      -1.642  11.743  11.421  1.00  0.00     0.014 A 
ATOM     39  C   UNL     1      -0.117  12.970  13.415  1.00  0.00     0.010 A 
ATOM     40  C   UNL     1      -1.513  13.126  11.438  1.00  0.00     0.010 A 
ATOM     41  C   UNL     1      -0.744  13.752  12.431  1.00  0.00    -0.014 A 
BRANCH  41  42
ATOM     42  C   UNL     1      -0.604  15.228  12.415  1.00  0.00     0.031 A 
ATOM     43  C   UNL     1      -1.812  16.097  12.614  1.00  0.00     0.074 A 
ATOM     44  C   UNL     1       0.593  15.781  12.139  1.00  0.00     0.049 A 
ATOM     45  N   UNL     1      -1.914  17.400  12.554  1.00  0.00    -0.248 NA
ATOM     46  C   UNL     1      -3.084  15.407  12.885  1.00  0.00     0.031 C 
ATOM     47  C   UNL     1       1.825  15.040  11.865  1.00  0.00     0.029 A 
ATOM     48  N   UNL     1       0.966  17.097  12.029  1.00  0.00    -0.354 N 
ATOM     49  C   UNL     1      -3.257  17.682  12.758  1.00  0.00     0.074 A 
ATOM     50  C   UNL     1      -3.943  16.415  12.891  1.00  0.00     0.031 C 
ATOM     51  C   UNL     1       2.822  15.912  11.641  1.00  0.00     0.029 A 
ATOM     52  C   UNL     1       2.294  17.270  11.723  1.00  0.00     0.049 A 
ATOM     53  H   UNL     1       0.341  17.847  12.157  1.00  0.00     0.167 HD
ATOM     54  C   UNL     1      -3.861  18.890  12.852  1.00  0.00     0.037 A 
ATOM     55  C   UNL     1       3.002  18.398  11.529  1.00  0.00     0.037 A 
ATOM     56  C   UNL     1      -3.169  20.147  12.760  1.00  0.00     0.049 A 
ATOM     57  C   UNL     1       2.311  19.729  11.655  1.00  0.00     0.074 A 
ATOM     58  C   UNL     1      -3.673  21.424  12.927  1.00  0.00     0.029 A 
ATOM     59  N   UNL     1      -1.818  20.283  12.476  1.00  0.00    -0.354 N 
ATOM     60  N   UNL     1       1.055  19.985  11.929  1.00  0.00    -0.248 NA
ATOM     61  C   UNL     1       3.136  20.927  11.447  1.00  0.00     0.031 C 
ATOM     62  C   UNL     1      -2.635  22.335  12.709  1.00  0.00     0.029 A 
ATOM     63  C   UNL     1      -1.475  21.625  12.443  1.00  0.00     0.049 A 
ATOM     64  H   UNL     1      -1.195  19.536  12.322  1.00  0.00     0.167 HD
ATOM     65  C   UNL     1       0.943  21.368  11.948  1.00  0.00     0.074 A 
ATOM     66  C   UNL     1       2.262  21.898  11.672  1.00  0.00     0.031 C 
ATOM     67  C   UNL     1      -0.155  22.131  12.171  1.00  0.00     0.037 A 
BRANCH  54  68
ATOM     68  C   UNL     1      -5.343  18.907  13.080  1.00  0.00     0.064 A 
ATOM     69  C   UNL     1      -5.900  18.519  14.308  1.00  0.00     0.173 A 
ATOM     70  C   UNL     1      -6.214  19.340  12.070  1.00  0.00     0.173 A 
ATOM     71  F   UNL     1      -5.109  18.083  15.300  1.00  0.00    -0.203 F 
ATOM     72  C   UNL     1      -7.278  18.535  14.506  1.00  0.00     0.198 A 
ATOM     73  C   UNL     1      -7.590  19.383  12.282  1.00  0.00     0.198 A 
ATOM     74  F   UNL     1      -5.732  19.725  10.879  1.00  0.00    -0.203 F 
ATOM     75  F   UNL     1      -7.790  18.113  15.670  1.00  0.00    -0.200 F 
ATOM     76  C   UNL     1      -8.121  18.973  13.496  1.00  0.00     0.200 A 
ATOM     77  F   UNL     1      -8.403  19.815  11.309  1.00  0.00    -0.200 F 
ATOM     78  F   UNL     1      -9.447  18.992  13.690  1.00  0.00    -0.200 F 
ENDBRANCH  54  68
BRANCH  55  79
ATOM     79  C   UNL     1       4.454  18.320  11.225  1.00  0.00     0.064 A 
ATOM     80  C   UNL     1       5.406  18.709  12.177  1.00  0.00     0.173 A 
ATOM     81  C   UNL     1       4.919  17.860   9.985  1.00  0.00     0.173 A 
ATOM     82  F   UNL     1       5.008  19.175  13.370  1.00  0.00    -0.203 F 
ATOM     83  C   UNL     1       6.769  18.655  11.895  1.00  0.00     0.198 A 
ATOM     84  C   UNL     1       6.283  17.784   9.713  1.00  0.00     0.198 A 
ATOM     85  F   UNL     1       4.047  17.472   9.043  1.00  0.00    -0.203 F 
ATOM     86  F   UNL     1       7.657  19.070  12.809  1.00  0.00    -0.200 F 
ATOM     87  C   UNL     1       7.207  18.188  10.665  1.00  0.00     0.200 A 
ATOM     88  F   UNL     1       6.703  17.321   8.527  1.00  0.00    -0.200 F 
ATOM     89  F   UNL     1       8.518  18.134  10.395  1.00  0.00    -0.200 F 
ENDBRANCH  55  79
BRANCH  67  90
ATOM     90  C   UNL     1       0.026  23.618  12.146  1.00  0.00     0.064 A 
ATOM     91  C   UNL     1       0.200  24.313  10.941  1.00  0.00     0.173 A 
ATOM     92  C   UNL     1      -0.030  24.361  13.335  1.00  0.00     0.173 A 
ATOM     93  F   UNL     1       0.276  23.643   9.781  1.00  0.00    -0.203 F 
ATOM     94  C   UNL     1       0.326  25.699  10.928  1.00  0.00     0.198 A 
ATOM     95  C   UNL     1       0.070  25.749  13.315  1.00  0.00     0.198 A 
ATOM     96  F   UNL     1      -0.201  23.742  14.512  1.00  0.00    -0.203 F 
ATOM     97  F   UNL     1       0.526  26.341   9.769  1.00  0.00    -0.200 F 
ATOM     98  C   UNL     1       0.253  26.416  12.113  1.00  0.00     0.200 A 
ATOM     99  F   UNL     1      -0.012  26.442  14.460  1.00  0.00    -0.200 F 
ATOM    100  F   UNL     1       0.363  27.752  12.097  1.00  0.00    -0.200 F 
ENDBRANCH  67  90
ENDBRANCH  41  42
ENDBRANCH  33  36
ENDBRANCH  31  32
ENDBRANCH  30  31
ENDBRANCH   1  30
TORSDOF 16
