REMARK SMILES CS(=O)(=O)c1ccc(/C=C(/C(=O)NCCCCNC(=O)c2ccc(-c3c4nc(c(-c5c(F)c(F)c(F)c(F)c5F)c5ccc([nH]5)c(-c5c(F)c(F)c(F)c(F)c5F)c5nc(c(-c6c(F)c(F)c(F)c(F)c6F)c6ccc3[nH]6)C=C5)C=C4)cc2)c2ccc(F)cc2)cc1
REMARK SMILES IDX 15 1 14 2 13 3 11 4 12 5 10 7 9 8 8 9 5 10 6 11 92 12 7 13
REMARK SMILES IDX 91 14 2 15 1 16 3 17 4 18 84 19 85 20 90 21 86 22 89 23
REMARK SMILES IDX 87 24 88 25 16 26 17 27 18 28 19 29 20 31 21 32 22 33 83 34
REMARK SMILES IDX 23 35 82 36 24 37 25 38 26 39 76 40 27 41 81 42 75 43 77 44
REMARK SMILES IDX 28 45 80 46 74 47 73 48 29 50 61 51 41 52 60 53 42 54 45 55
REMARK SMILES IDX 59 56 78 57 43 58 44 59 58 61 79 62 46 63 30 64 31 65 39 66
REMARK SMILES IDX 32 67 33 68 37 69 40 70 34 71 35 72 38 73 36 74 62 75 63 76
REMARK SMILES IDX 71 77 64 78 65 79 69 80 72 81 66 82 67 83 70 84 68 85 47 86
REMARK SMILES IDX 48 87 56 88 49 89 50 90 54 91 57 92 51 93 52 94 55 95 53 96
REMARK H PARENT 13 6 18 30 77 49 45 60
REMARK Flexibility Score: inf
ROOT
ATOM      1  C   UNL     1       1.334   6.432   7.551  1.00  0.00     0.023 C 
ENDROOT
BRANCH   1   2
ATOM      2  C   UNL     1       2.657   5.681   7.375  1.00  0.00     0.116 C 
BRANCH   2   3
ATOM      3  N   UNL     1       2.713   4.540   8.267  1.00  0.00    -0.352 N 
ATOM      4  C   UNL     1       2.457   3.213   8.111  1.00  0.00     0.251 C 
ATOM      5  O   UNL     1       2.575   2.520   9.125  1.00  0.00    -0.269 OA
ATOM      6  H   UNL     1       2.997   4.775   9.179  1.00  0.00     0.163 HD
BRANCH   4   7
ATOM      7  C   UNL     1       2.128   2.569   6.782  1.00  0.00     0.047 C 
ATOM      8  C   UNL     1       1.426   3.209   5.821  1.00  0.00     0.022 C 
BRANCH   8   9
ATOM      9  C   UNL     1       1.101   2.781   4.444  1.00  0.00    -0.025 A 
ATOM     10  C   UNL     1       0.588   2.103   1.770  1.00  0.00     0.067 A 
ATOM     11  C   UNL     1       0.321   1.182   2.784  1.00  0.00     0.021 A 
ATOM     12  C   UNL     1       1.070   3.375   2.079  1.00  0.00     0.021 A 
ATOM     13  C   UNL     1       0.565   1.530   4.118  1.00  0.00     0.009 A 
ATOM     14  C   UNL     1       1.323   3.709   3.412  1.00  0.00     0.009 A 
BRANCH  10  15
ATOM     15  S   UNL     1       0.307   1.668   0.070  1.00  0.00     0.175 S 
ATOM     16  C   UNL     1       1.113   0.104  -0.148  1.00  0.00     0.163 C 
ATOM     17  O   UNL     1       1.017   2.631  -0.746  1.00  0.00    -0.224 OA
ATOM     18  O   UNL     1      -1.125   1.470  -0.076  1.00  0.00    -0.224 OA
ENDBRANCH  10  15
ENDBRANCH   8   9
BRANCH   7  19
ATOM     19  C   UNL     1       2.462   1.130   6.633  1.00  0.00    -0.013 A 
ATOM     20  C   UNL     1       1.757   0.190   7.409  1.00  0.00     0.012 A 
ATOM     21  C   UNL     1       3.401   0.674   5.696  1.00  0.00     0.012 A 
ATOM     22  C   UNL     1       1.964  -1.177   7.234  1.00  0.00     0.040 A 
ATOM     23  C   UNL     1       3.600  -0.698   5.517  1.00  0.00     0.040 A 
ATOM     24  C   UNL     1       2.876  -1.608   6.282  1.00  0.00     0.123 A 
ATOM     25  F   UNL     1       3.054  -2.922   6.090  1.00  0.00    -0.207 F 
ENDBRANCH   7  19
ENDBRANCH   4   7
ENDBRANCH   2   3
ENDBRANCH   1   2
BRANCH   1  26
ATOM     26  C   UNL     1       1.215   7.214   8.866  1.00  0.00     0.023 C 
BRANCH  26  27
ATOM     27  C   UNL     1       2.253   8.314   9.065  1.00  0.00     0.116 C 
BRANCH  27  28
ATOM     28  N   UNL     1       2.258   9.292   7.990  1.00  0.00    -0.352 N 
ATOM     29  C   UNL     1       2.569  10.627   8.033  1.00  0.00     0.251 C 
ATOM     30  H   UNL     1       2.002   8.947   7.104  1.00  0.00     0.163 HD
ATOM     31  O   UNL     1       2.413  11.322   7.033  1.00  0.00    -0.269 OA
BRANCH  29  32
ATOM     32  C   UNL     1       3.058  11.241   9.286  1.00  0.00     0.039 A 
ATOM     33  C   UNL     1       2.537  12.482   9.663  1.00  0.00     0.014 A 
ATOM     34  C   UNL     1       4.036  10.624  10.071  1.00  0.00     0.014 A 
ATOM     35  C   UNL     1       2.965  13.085  10.846  1.00  0.00     0.010 A 
ATOM     36  C   UNL     1       4.417  11.196  11.282  1.00  0.00     0.010 A 
ATOM     37  C   UNL     1       3.894  12.437  11.675  1.00  0.00    -0.014 A 
BRANCH  37  38
ATOM     38  C   UNL     1       4.341  13.061  12.944  1.00  0.00     0.031 A 
ATOM     39  C   UNL     1       5.761  13.526  13.098  1.00  0.00     0.074 A 
ATOM     40  C   UNL     1       3.477  13.171  13.971  1.00  0.00     0.049 A 
ATOM     41  N   UNL     1       6.345  14.078  14.133  1.00  0.00    -0.248 NA
ATOM     42  C   UNL     1       6.653  13.318  11.947  1.00  0.00     0.031 C 
ATOM     43  C   UNL     1       2.090  12.705  13.962  1.00  0.00     0.029 A 
ATOM     44  N   UNL     1       3.641  13.707  15.223  1.00  0.00    -0.354 N 
ATOM     45  C   UNL     1       7.669  14.269  13.762  1.00  0.00     0.074 A 
ATOM     46  C   UNL     1       7.817  13.729  12.428  1.00  0.00     0.031 C 
ATOM     47  C   UNL     1       1.521  12.998  15.143  1.00  0.00     0.029 A 
ATOM     48  C   UNL     1       2.508  13.651  15.997  1.00  0.00     0.049 A 
ATOM     49  H   UNL     1       4.490  14.094  15.537  1.00  0.00     0.167 HD
ATOM     50  C   UNL     1       8.666  14.864  14.461  1.00  0.00     0.037 A 
ATOM     51  C   UNL     1       2.291  14.088  17.252  1.00  0.00     0.037 A 
ATOM     52  C   UNL     1       8.508  15.428  15.775  1.00  0.00     0.049 A 
ATOM     53  C   UNL     1       3.402  14.783  17.990  1.00  0.00     0.074 A 
ATOM     54  C   UNL     1       9.442  16.094  16.549  1.00  0.00     0.029 A 
ATOM     55  N   UNL     1       7.331  15.396  16.509  1.00  0.00    -0.354 N 
ATOM     56  N   UNL     1       4.632  15.019  17.603  1.00  0.00    -0.248 NA
ATOM     57  C   UNL     1       3.087  15.290  19.332  1.00  0.00     0.031 C 
ATOM     58  C   UNL     1       8.838  16.439  17.764  1.00  0.00     0.029 A 
ATOM     59  C   UNL     1       7.517  16.025  17.729  1.00  0.00     0.049 A 
ATOM     60  H   UNL     1       6.489  14.986  16.208  1.00  0.00     0.167 HD
ATOM     61  C   UNL     1       5.228  15.727  18.638  1.00  0.00     0.074 A 
ATOM     62  C   UNL     1       4.219  15.895  19.663  1.00  0.00     0.031 C 
ATOM     63  C   UNL     1       6.496  16.196  18.731  1.00  0.00     0.037 A 
BRANCH  50  64
ATOM     64  C   UNL     1      10.015  14.941  13.808  1.00  0.00     0.064 A 
ATOM     65  C   UNL     1      10.255  15.790  12.717  1.00  0.00     0.173 A 
ATOM     66  C   UNL     1      11.087  14.177  14.292  1.00  0.00     0.173 A 
ATOM     67  F   UNL     1       9.259  16.531  12.207  1.00  0.00    -0.203 F 
ATOM     68  C   UNL     1      11.509  15.848  12.115  1.00  0.00     0.198 A 
ATOM     69  C   UNL     1      12.348  14.258  13.706  1.00  0.00     0.198 A 
ATOM     70  F   UNL     1      10.913  13.352  15.336  1.00  0.00    -0.203 F 
ATOM     71  F   UNL     1      11.700  16.628  11.042  1.00  0.00    -0.200 F 
ATOM     72  C   UNL     1      12.556  15.087  12.614  1.00  0.00     0.200 A 
ATOM     73  F   UNL     1      13.361  13.530  14.195  1.00  0.00    -0.200 F 
ATOM     74  F   UNL     1      13.763  15.146  12.036  1.00  0.00    -0.200 F 
ENDBRANCH  50  64
BRANCH  51  75
ATOM     75  C   UNL     1       0.950  13.930  17.869  1.00  0.00     0.064 A 
ATOM     76  C   UNL     1       0.117  15.040  18.069  1.00  0.00     0.173 A 
ATOM     77  C   UNL     1       0.475  12.675  18.273  1.00  0.00     0.173 A 
ATOM     78  F   UNL     1       0.537  16.263  17.715  1.00  0.00    -0.203 F 
ATOM     79  C   UNL     1      -1.132  14.903  18.670  1.00  0.00     0.198 A 
ATOM     80  C   UNL     1      -0.785  12.536  18.852  1.00  0.00     0.198 A 
ATOM     81  F   UNL     1       1.232  11.582  18.097  1.00  0.00    -0.203 F 
ATOM     82  F   UNL     1      -1.889  15.986  18.890  1.00  0.00    -0.200 F 
ATOM     83  C   UNL     1      -1.584  13.651  19.057  1.00  0.00     0.200 A 
ATOM     84  F   UNL     1      -1.224  11.322  19.213  1.00  0.00    -0.200 F 
ATOM     85  F   UNL     1      -2.785  13.519  19.635  1.00  0.00    -0.200 F 
ENDBRANCH  51  75
BRANCH  63  86
ATOM     86  C   UNL     1       6.848  16.974  19.964  1.00  0.00     0.064 A 
ATOM     87  C   UNL     1       7.007  16.348  21.209  1.00  0.00     0.173 A 
ATOM     88  C   UNL     1       7.047  18.360  19.893  1.00  0.00     0.173 A 
ATOM     89  F   UNL     1       6.812  15.026  21.331  1.00  0.00    -0.203 F 
ATOM     90  C   UNL     1       7.322  17.088  22.346  1.00  0.00     0.198 A 
ATOM     91  C   UNL     1       7.389  19.093  21.026  1.00  0.00     0.198 A 
ATOM     92  F   UNL     1       6.913  19.004  18.724  1.00  0.00    -0.203 F 
ATOM     93  F   UNL     1       7.418  16.478  23.535  1.00  0.00    -0.200 F 
ATOM     94  C   UNL     1       7.518  18.459  22.252  1.00  0.00     0.200 A 
ATOM     95  F   UNL     1       7.588  20.415  20.932  1.00  0.00    -0.200 F 
ATOM     96  F   UNL     1       7.821  19.169  23.347  1.00  0.00    -0.200 F 
ENDBRANCH  63  86
ENDBRANCH  37  38
ENDBRANCH  29  32
ENDBRANCH  27  28
ENDBRANCH  26  27
ENDBRANCH   1  26
TORSDOF 14
