REMARK SMILES COc1cc(C[N@@H+]2CCO[C@@H](CC(=O)NCCCCNC(=O)c3ccc(-c4c5nc(c(-c6c(F)c(F)c(F)c(F)c6F)c6ccc([nH]6)c(-c6c(F)c(F)c(F)c(F)c6F)c6nc(c(-c7c(F)c(F)c(F)c(F)c7F)c7ccc4[nH]7)C=C6)C=C5)cc3)C2)ccc1O
REMARK SMILES IDX 16 1 15 2 13 3 14 4 12 6 11 7 7 8 8 9 86 10 9 12 10 13 6 14
REMARK SMILES IDX 5 15 3 16 4 17 89 18 88 19 87 20 2 21 1 22 90 23 17 25 18 26
REMARK SMILES IDX 19 27 20 28 21 29 22 31 23 32 24 33 85 34 25 35 84 36 26 37
REMARK SMILES IDX 27 38 28 39 78 40 29 41 83 42 77 43 79 44 30 45 82 46 76 47
REMARK SMILES IDX 75 48 31 50 63 51 43 52 62 53 44 54 47 55 61 56 80 57 45 58
REMARK SMILES IDX 46 59 60 61 81 62 48 63 32 64 33 65 41 66 34 67 35 68 39 69
REMARK SMILES IDX 42 70 36 71 37 72 40 73 38 74 64 75 65 76 73 77 66 78 67 79
REMARK SMILES IDX 71 80 74 81 68 82 69 83 72 84 70 85 49 86 50 87 58 88 51 89
REMARK SMILES IDX 52 90 56 91 59 92 53 93 54 94 57 95 55 96
REMARK H PARENT 15 5 7 11 90 24 20 30 79 49 47 60
REMARK Flexibility Score: inf
ROOT
ATOM      1  C   UNL     1      -1.939   4.248   6.994  1.00  0.00     0.116 C 
ENDROOT
BRANCH   1   2
ATOM      2  N   UNL     1      -2.277   2.874   6.663  1.00  0.00    -0.356 N 
ATOM      3  C   UNL     1      -1.573   1.944   5.952  1.00  0.00     0.222 C 
ATOM      4  O   UNL     1      -2.109   0.858   5.729  1.00  0.00    -0.275 OA
ATOM      5  H   UNL     1      -3.148   2.566   7.004  1.00  0.00     0.163 HD
BRANCH   3   6
ATOM      6  C   UNL     1      -0.185   2.259   5.424  1.00  0.00     0.138 C 
BRANCH   6   7
ATOM      7  C   UNL     1      -0.192   2.750   3.972  1.00  0.00     0.182 C 
ATOM      8  N   UNL     1      -1.152   4.611   2.481  1.00  0.00    -0.327 N 
ATOM      9  C   UNL     1       0.212   4.781   1.981  1.00  0.00     0.291 C 
ATOM     10  C   UNL     1      -1.151   3.936   3.778  1.00  0.00     0.295 C 
ATOM     11  H   UNL     1      -1.490   5.563   2.621  1.00  0.00     0.348 HD
ATOM     12  C   UNL     1       1.180   3.614   2.259  1.00  0.00     0.222 C 
ATOM     13  O   UNL     1       1.141   3.173   3.626  1.00  0.00    -0.366 OA
BRANCH   8  14
ATOM     14  C   UNL     1      -2.175   4.149   1.541  1.00  0.00     0.299 C 
BRANCH  14  15
ATOM     15  C   UNL     1      -2.177   2.667   1.261  1.00  0.00     0.010 A 
ATOM     16  C   UNL     1      -1.176   0.756   0.183  1.00  0.00     0.160 A 
ATOM     17  C   UNL     1      -1.316   2.135   0.294  1.00  0.00     0.060 A 
ATOM     18  C   UNL     1      -1.949  -0.099   0.969  1.00  0.00     0.157 A 
ATOM     19  C   UNL     1      -2.842   0.411   1.898  1.00  0.00     0.051 A 
ATOM     20  C   UNL     1      -2.964   1.793   2.038  1.00  0.00     0.013 A 
BRANCH  16  21
ATOM     21  O   UNL     1      -0.272   0.253  -0.712  1.00  0.00    -0.493 OA
ATOM     22  C   UNL     1       0.935  -0.139  -0.049  1.00  0.00     0.278 C 
ENDBRANCH  16  21
BRANCH  18  23
ATOM     23  O   UNL     1      -1.839  -1.454   0.847  1.00  0.00    -0.504 OA
ATOM     24  H   UNL     1      -1.242  -1.821   0.226  1.00  0.00     0.293 HD
ENDBRANCH  18  23
ENDBRANCH  14  15
ENDBRANCH   8  14
ENDBRANCH   6   7
ENDBRANCH   3   6
ENDBRANCH   1   2
BRANCH   1  25
ATOM     25  C   UNL     1      -2.768   5.249   6.180  1.00  0.00     0.023 C 
BRANCH  25  26
ATOM     26  C   UNL     1      -4.087   5.669   6.797  1.00  0.00     0.023 C 
BRANCH  26  27
ATOM     27  C   UNL     1      -3.941   6.456   8.080  1.00  0.00     0.116 C 
BRANCH  27  28
ATOM     28  N   UNL     1      -3.131   7.661   7.944  1.00  0.00    -0.352 N 
ATOM     29  C   UNL     1      -3.345   8.892   8.518  1.00  0.00     0.251 C 
ATOM     30  H   UNL     1      -2.334   7.584   7.371  1.00  0.00     0.163 HD
ATOM     31  O   UNL     1      -2.627   9.850   8.255  1.00  0.00    -0.269 OA
BRANCH  29  32
ATOM     32  C   UNL     1      -4.500   9.043   9.422  1.00  0.00     0.039 A 
ATOM     33  C   UNL     1      -5.418  10.066   9.183  1.00  0.00     0.014 A 
ATOM     34  C   UNL     1      -4.729   8.089  10.415  1.00  0.00     0.014 A 
ATOM     35  C   UNL     1      -6.617  10.081   9.894  1.00  0.00     0.010 A 
ATOM     36  C   UNL     1      -5.967   8.039  11.034  1.00  0.00     0.010 A 
ATOM     37  C   UNL     1      -6.918   9.042  10.790  1.00  0.00    -0.014 A 
BRANCH  37  38
ATOM     38  C   UNL     1      -8.206   8.993  11.518  1.00  0.00     0.031 A 
ATOM     39  C   UNL     1      -8.201   9.044  13.020  1.00  0.00     0.074 A 
ATOM     40  C   UNL     1      -9.357   8.817  10.842  1.00  0.00     0.049 A 
ATOM     41  N   UNL     1      -9.197   8.908  13.858  1.00  0.00    -0.248 NA
ATOM     42  C   UNL     1      -6.892   9.225  13.670  1.00  0.00     0.031 C 
ATOM     43  C   UNL     1      -9.477   8.684   9.389  1.00  0.00     0.029 A 
ATOM     44  N   UNL     1     -10.648   8.709  11.292  1.00  0.00    -0.354 N 
ATOM     45  C   UNL     1      -8.628   8.957  15.123  1.00  0.00     0.074 A 
ATOM     46  C   UNL     1      -7.198   9.066  14.947  1.00  0.00     0.031 C 
ATOM     47  C   UNL     1     -10.773   8.543   9.065  1.00  0.00     0.029 A 
ATOM     48  C   UNL     1     -11.570   8.543  10.288  1.00  0.00     0.049 A 
ATOM     49  H   UNL     1     -10.891   8.747  12.245  1.00  0.00     0.167 HD
ATOM     50  C   UNL     1      -9.248   8.946  16.326  1.00  0.00     0.037 A 
ATOM     51  C   UNL     1     -12.908   8.407  10.354  1.00  0.00     0.037 A 
ATOM     52  C   UNL     1     -10.674   8.895  16.491  1.00  0.00     0.049 A 
ATOM     53  C   UNL     1     -13.577   8.441  11.701  1.00  0.00     0.074 A 
ATOM     54  C   UNL     1     -11.412   8.959  17.659  1.00  0.00     0.029 A 
ATOM     55  N   UNL     1     -11.581   8.777  15.447  1.00  0.00    -0.354 N 
ATOM     56  N   UNL     1     -13.037   8.560  12.890  1.00  0.00    -0.248 NA
ATOM     57  C   UNL     1     -15.042   8.329  11.715  1.00  0.00     0.031 C 
ATOM     58  C   UNL     1     -12.765   8.847  17.324  1.00  0.00     0.029 A 
ATOM     59  C   UNL     1     -12.872   8.755  15.945  1.00  0.00     0.049 A 
ATOM     60  H   UNL     1     -11.341   8.719  14.494  1.00  0.00     0.167 HD
ATOM     61  C   UNL     1     -14.094   8.565  13.790  1.00  0.00     0.074 A 
ATOM     62  C   UNL     1     -15.308   8.451  13.008  1.00  0.00     0.031 C 
ATOM     63  C   UNL     1     -14.063   8.654  15.143  1.00  0.00     0.037 A 
BRANCH  50  64
ATOM     64  C   UNL     1      -8.382   9.010  17.549  1.00  0.00     0.064 A 
ATOM     65  C   UNL     1      -7.666  10.171  17.884  1.00  0.00     0.173 A 
ATOM     66  C   UNL     1      -8.272   7.903  18.403  1.00  0.00     0.173 A 
ATOM     67  F   UNL     1      -7.722  11.251  17.090  1.00  0.00    -0.203 F 
ATOM     68  C   UNL     1      -6.847  10.208  19.009  1.00  0.00     0.198 A 
ATOM     69  C   UNL     1      -7.477   7.955  19.545  1.00  0.00     0.198 A 
ATOM     70  F   UNL     1      -8.935   6.769  18.130  1.00  0.00    -0.203 F 
ATOM     71  F   UNL     1      -6.127  11.307  19.274  1.00  0.00    -0.200 F 
ATOM     72  C   UNL     1      -6.758   9.104  19.842  1.00  0.00     0.200 A 
ATOM     73  F   UNL     1      -7.399   6.890  20.355  1.00  0.00    -0.200 F 
ATOM     74  F   UNL     1      -5.971   9.142  20.926  1.00  0.00    -0.200 F 
ENDBRANCH  50  64
BRANCH  51  75
ATOM     75  C   UNL     1     -13.705   8.272   9.107  1.00  0.00     0.064 A 
ATOM     76  C   UNL     1     -14.529   9.317   8.668  1.00  0.00     0.173 A 
ATOM     77  C   UNL     1     -13.661   7.105   8.331  1.00  0.00     0.173 A 
ATOM     78  F   UNL     1     -14.618  10.446   9.387  1.00  0.00    -0.203 F 
ATOM     79  C   UNL     1     -15.296   9.193   7.511  1.00  0.00     0.198 A 
ATOM     80  C   UNL     1     -14.408   6.992   7.160  1.00  0.00     0.198 A 
ATOM     81  F   UNL     1     -12.882   6.079   8.704  1.00  0.00    -0.203 F 
ATOM     82  F   UNL     1     -16.107  10.192   7.137  1.00  0.00    -0.200 F 
ATOM     83  C   UNL     1     -15.231   8.032   6.755  1.00  0.00     0.200 A 
ATOM     84  F   UNL     1     -14.333   5.874   6.425  1.00  0.00    -0.200 F 
ATOM     85  F   UNL     1     -15.966   7.914   5.641  1.00  0.00    -0.200 F 
ENDBRANCH  51  75
BRANCH  63  86
ATOM     86  C   UNL     1     -15.381   8.666  15.858  1.00  0.00     0.064 A 
ATOM     87  C   UNL     1     -16.155   7.505  15.989  1.00  0.00     0.173 A 
ATOM     88  C   UNL     1     -15.847   9.844  16.462  1.00  0.00     0.173 A 
ATOM     89  F   UNL     1     -15.756   6.360  15.417  1.00  0.00    -0.203 F 
ATOM     90  C   UNL     1     -17.361   7.527  16.682  1.00  0.00     0.198 A 
ATOM     91  C   UNL     1     -17.040   9.855  17.177  1.00  0.00     0.198 A 
ATOM     92  F   UNL     1     -15.137  10.979  16.369  1.00  0.00    -0.203 F 
ATOM     93  F   UNL     1     -18.107   6.416  16.761  1.00  0.00    -0.200 F 
ATOM     94  C   UNL     1     -17.799   8.700  17.282  1.00  0.00     0.200 A 
ATOM     95  F   UNL     1     -17.455  10.985  17.767  1.00  0.00    -0.200 F 
ATOM     96  F   UNL     1     -18.957   8.716  17.956  1.00  0.00    -0.200 F 
ENDBRANCH  63  86
ENDBRANCH  37  38
ENDBRANCH  29  32
ENDBRANCH  27  28
ENDBRANCH  26  27
ENDBRANCH  25  26
ENDBRANCH   1  25
TORSDOF 16
