REMARK SMILES C[C@H]1CCC[C@@H]1n1c(SCC(=O)NCCCCNC(=O)c2ccc(-c3c4nc(c(-c5c(F)c(F)c(F)c(F)c5F)c5ccc([nH]5)c(-c5c(F)c(F)c(F)c(F)c5F)c5nc(c(-c6c(F)c(F)c(F)c(F)c6F)c6ccc3[nH]6)C=C5)C=C4)cc2)nc2cnccc21
REMARK SMILES IDX 15 1 14 2 13 3 11 4 12 5 10 7 9 8 8 9 7 10 90 11 84 12 85 13
REMARK SMILES IDX 89 14 86 15 88 16 87 17 6 18 1 19 2 20 3 21 4 22 5 23 16 24
REMARK SMILES IDX 17 25 18 26 19 27 20 29 21 30 22 31 83 32 23 33 82 34 24 35
REMARK SMILES IDX 25 36 26 37 76 38 27 39 81 40 75 41 77 42 28 43 80 44 74 45
REMARK SMILES IDX 73 46 29 48 61 49 41 50 60 51 42 52 45 53 59 54 78 55 43 56
REMARK SMILES IDX 44 57 58 59 79 60 46 61 30 62 31 63 39 64 32 65 33 66 37 67
REMARK SMILES IDX 40 68 34 69 35 70 38 71 36 72 62 73 63 74 71 75 64 76 65 77
REMARK SMILES IDX 69 78 72 79 66 80 67 81 70 82 68 83 47 84 48 85 56 86 49 87
REMARK SMILES IDX 50 88 54 89 57 90 51 91 52 92 55 93 53 94
REMARK H PARENT 13 6 18 28 77 47 45 58
REMARK Flexibility Score: inf
ROOT
ATOM      1  C   UNL     1      -0.882   4.649  -4.224  1.00  0.00     0.023 C 
ENDROOT
BRANCH   1   2
ATOM      2  C   UNL     1      -2.174   4.082  -3.655  1.00  0.00     0.116 C 
BRANCH   2   3
ATOM      3  N   UNL     1      -2.049   2.693  -3.282  1.00  0.00    -0.355 N 
ATOM      4  C   UNL     1      -2.529   2.081  -2.175  1.00  0.00     0.230 C 
ATOM      5  O   UNL     1      -2.775   0.874  -2.294  1.00  0.00    -0.274 OA
ATOM      6  H   UNL     1      -1.552   2.121  -3.911  1.00  0.00     0.163 HD
BRANCH   4   7
ATOM      7  C   UNL     1      -2.893   2.818  -0.911  1.00  0.00     0.178 C 
BRANCH   7   8
ATOM      8  S   UNL     1      -1.710   3.683   0.103  1.00  0.00    -0.078 SA
BRANCH   8   9
ATOM      9  C   UNL     1      -0.023   3.291   0.046  1.00  0.00     0.169 A 
ATOM     10  N   UNL     1       0.670   2.102   0.311  1.00  0.00    -0.315 N 
ATOM     11  C   UNL     1       2.027   2.449   0.374  1.00  0.00     0.072 A 
ATOM     12  N   UNL     1       0.791   4.327   0.138  1.00  0.00    -0.221 NA
ATOM     13  C   UNL     1       2.032   3.840   0.424  1.00  0.00     0.108 A 
ATOM     14  C   UNL     1       3.242   1.755   0.468  1.00  0.00     0.049 A 
ATOM     15  C   UNL     1       3.213   4.524   0.741  1.00  0.00     0.141 A 
ATOM     16  C   UNL     1       4.368   2.513   0.767  1.00  0.00     0.113 A 
ATOM     17  N   UNL     1       4.374   3.849   0.934  1.00  0.00    -0.262 NA
BRANCH  10  18
ATOM     18  C   UNL     1       0.098   0.829   0.769  1.00  0.00     0.093 C 
ATOM     19  C   UNL     1       1.819  -0.461   2.232  1.00  0.00     0.010 C 
ATOM     20  C   UNL     1       1.014  -0.411   0.936  1.00  0.00     0.009 C 
ATOM     21  C   UNL     1       0.054  -1.602   0.871  1.00  0.00     0.005 C 
ATOM     22  C   UNL     1      -0.924  -1.224  -0.212  1.00  0.00     0.002 C 
ATOM     23  C   UNL     1      -0.946   0.294  -0.205  1.00  0.00     0.026 C 
ENDBRANCH  10  18
ENDBRANCH   8   9
ENDBRANCH   7   8
ENDBRANCH   4   7
ENDBRANCH   2   3
ENDBRANCH   1   2
BRANCH   1  24
ATOM     24  C   UNL     1      -0.294   3.914  -5.437  1.00  0.00     0.023 C 
BRANCH  24  25
ATOM     25  C   UNL     1      -1.263   3.590  -6.576  1.00  0.00     0.116 C 
BRANCH  25  26
ATOM     26  N   UNL     1      -2.037   4.714  -7.062  1.00  0.00    -0.352 N 
ATOM     27  C   UNL     1      -1.847   5.685  -8.003  1.00  0.00     0.251 C 
ATOM     28  H   UNL     1      -2.905   4.798  -6.606  1.00  0.00     0.163 HD
ATOM     29  O   UNL     1      -2.839   6.373  -8.276  1.00  0.00    -0.269 OA
BRANCH  27  30
ATOM     30  C   UNL     1      -0.555   6.015  -8.659  1.00  0.00     0.039 A 
ATOM     31  C   UNL     1       0.629   5.295  -8.520  1.00  0.00     0.014 A 
ATOM     32  C   UNL     1      -0.539   7.191  -9.439  1.00  0.00     0.014 A 
ATOM     33  C   UNL     1       1.814   5.791  -9.051  1.00  0.00     0.010 A 
ATOM     34  C   UNL     1       0.639   7.679  -9.995  1.00  0.00     0.010 A 
ATOM     35  C   UNL     1       1.825   6.997  -9.763  1.00  0.00    -0.014 A 
BRANCH  35  36
ATOM     36  C   UNL     1       3.086   7.393 -10.388  1.00  0.00     0.031 A 
ATOM     37  C   UNL     1       3.601   6.379 -11.348  1.00  0.00     0.074 A 
ATOM     38  C   UNL     1       3.709   8.574 -10.195  1.00  0.00     0.049 A 
ATOM     39  N   UNL     1       4.678   5.674 -11.244  1.00  0.00    -0.248 NA
ATOM     40  C   UNL     1       2.743   5.995 -12.481  1.00  0.00     0.031 C 
ATOM     41  C   UNL     1       3.182   9.754  -9.507  1.00  0.00     0.029 A 
ATOM     42  N   UNL     1       4.926   9.004 -10.653  1.00  0.00    -0.354 N 
ATOM     43  C   UNL     1       4.735   4.894 -12.396  1.00  0.00     0.074 A 
ATOM     44  C   UNL     1       3.455   5.014 -13.039  1.00  0.00     0.031 C 
ATOM     45  C   UNL     1       3.963  10.822  -9.787  1.00  0.00     0.029 A 
ATOM     46  C   UNL     1       5.118  10.378 -10.549  1.00  0.00     0.049 A 
ATOM     47  H   UNL     1       5.605   8.394 -11.022  1.00  0.00     0.167 HD
ATOM     48  C   UNL     1       5.933   4.446 -12.862  1.00  0.00     0.037 A 
ATOM     49  C   UNL     1       6.129  11.101 -11.091  1.00  0.00     0.037 A 
ATOM     50  C   UNL     1       6.938   4.513 -11.836  1.00  0.00     0.049 A 
ATOM     51  C   UNL     1       7.261  10.177 -11.330  1.00  0.00     0.074 A 
ATOM     52  C   UNL     1       7.243   3.824 -10.684  1.00  0.00     0.029 A 
ATOM     53  N   UNL     1       7.591   5.713 -11.784  1.00  0.00    -0.354 N 
ATOM     54  N   UNL     1       7.956   9.618 -10.379  1.00  0.00    -0.248 NA
ATOM     55  C   UNL     1       7.453   9.615 -12.662  1.00  0.00     0.031 C 
ATOM     56  C   UNL     1       7.946   4.745  -9.851  1.00  0.00     0.029 A 
ATOM     57  C   UNL     1       8.082   5.952 -10.534  1.00  0.00     0.049 A 
ATOM     58  H   UNL     1       7.694   6.324 -12.550  1.00  0.00     0.167 HD
ATOM     59  C   UNL     1       8.319   8.395 -10.903  1.00  0.00     0.074 A 
ATOM     60  C   UNL     1       8.154   8.525 -12.344  1.00  0.00     0.031 C 
ATOM     61  C   UNL     1       8.393   7.296 -10.101  1.00  0.00     0.037 A 
BRANCH  48  62
ATOM     62  C   UNL     1       6.330   4.470 -14.326  1.00  0.00     0.064 A 
ATOM     63  C   UNL     1       7.589   3.953 -14.701  1.00  0.00     0.173 A 
ATOM     64  C   UNL     1       5.697   5.278 -15.296  1.00  0.00     0.173 A 
ATOM     65  F   UNL     1       8.301   3.203 -13.847  1.00  0.00    -0.203 F 
ATOM     66  C   UNL     1       8.190   4.277 -15.922  1.00  0.00     0.198 A 
ATOM     67  C   UNL     1       6.277   5.558 -16.532  1.00  0.00     0.198 A 
ATOM     68  F   UNL     1       4.556   5.930 -15.047  1.00  0.00    -0.203 F 
ATOM     69  F   UNL     1       9.438   3.865 -16.182  1.00  0.00    -0.200 F 
ATOM     70  C   UNL     1       7.534   5.083 -16.835  1.00  0.00     0.200 A 
ATOM     71  F   UNL     1       5.639   6.369 -17.388  1.00  0.00    -0.200 F 
ATOM     72  F   UNL     1       8.130   5.444 -17.979  1.00  0.00    -0.200 F 
ENDBRANCH  48  62
BRANCH  49  73
ATOM     73  C   UNL     1       6.120  12.478 -11.653  1.00  0.00     0.064 A 
ATOM     74  C   UNL     1       7.324  13.133 -11.976  1.00  0.00     0.173 A 
ATOM     75  C   UNL     1       4.944  13.050 -12.172  1.00  0.00     0.173 A 
ATOM     76  F   UNL     1       8.497  12.643 -11.549  1.00  0.00    -0.203 F 
ATOM     77  C   UNL     1       7.352  14.252 -12.816  1.00  0.00     0.198 A 
ATOM     78  C   UNL     1       4.973  14.173 -13.003  1.00  0.00     0.198 A 
ATOM     79  F   UNL     1       3.751  12.475 -11.970  1.00  0.00    -0.203 F 
ATOM     80  F   UNL     1       8.527  14.793 -13.170  1.00  0.00    -0.200 F 
ATOM     81  C   UNL     1       6.178  14.760 -13.343  1.00  0.00     0.200 A 
ATOM     82  F   UNL     1       3.832  14.637 -13.531  1.00  0.00    -0.200 F 
ATOM     83  F   UNL     1       6.209  15.782 -14.209  1.00  0.00    -0.200 F 
ENDBRANCH  49  73
BRANCH  61  84
ATOM     84  C   UNL     1       8.631   7.507  -8.641  1.00  0.00     0.064 A 
ATOM     85  C   UNL     1       7.710   8.088  -7.758  1.00  0.00     0.173 A 
ATOM     86  C   UNL     1       9.804   6.960  -8.100  1.00  0.00     0.173 A 
ATOM     87  F   UNL     1       6.539   8.570  -8.198  1.00  0.00    -0.203 F 
ATOM     88  C   UNL     1       7.964   8.126  -6.388  1.00  0.00     0.198 A 
ATOM     89  C   UNL     1      10.035   6.965  -6.731  1.00  0.00     0.198 A 
ATOM     90  F   UNL     1      10.700   6.364  -8.903  1.00  0.00    -0.203 F 
ATOM     91  F   UNL     1       7.074   8.685  -5.555  1.00  0.00    -0.200 F 
ATOM     92  C   UNL     1       9.117   7.551  -5.875  1.00  0.00     0.200 A 
ATOM     93  F   UNL     1      11.130   6.368  -6.239  1.00  0.00    -0.200 F 
ATOM     94  F   UNL     1       9.333   7.537  -4.552  1.00  0.00    -0.200 F 
ENDBRANCH  61  84
ENDBRANCH  35  36
ENDBRANCH  27  30
ENDBRANCH  25  26
ENDBRANCH  24  25
ENDBRANCH   1  24
TORSDOF 14
