REMARK SMILES Cc1cc(CNC(=O)C[C@H](C)CC(=O)NCCCCNC(=O)c2ccc(-c3c4nc(c(-c5c(F)c(F)c(F)c(F)c5F)c5ccc([nH]5)c(-c5c(F)c(F)c(F)c(F)c5F)c5nc(c(-c6c(F)c(F)c(F)c(F)c6F)c6ccc3[nH]6)C=C5)C=C4)cc2)cc(C)c1F
REMARK SMILES IDX 16 1 15 2 13 3 14 4 12 6 10 7 11 8 9 9 7 10 6 11 8 13 5 14
REMARK SMILES IDX 4 15 1 16 2 17 3 18 89 19 87 20 90 21 86 22 88 23 17 24
REMARK SMILES IDX 18 25 19 26 20 27 21 28 22 30 23 31 24 32 85 33 25 34 84 35
REMARK SMILES IDX 26 36 27 37 28 38 78 39 29 40 83 41 77 42 79 43 30 44 82 45
REMARK SMILES IDX 76 46 75 47 31 49 63 50 43 51 62 52 44 53 47 54 61 55 80 56
REMARK SMILES IDX 45 57 46 58 60 60 81 61 48 62 32 63 33 64 41 65 34 66 35 67
REMARK SMILES IDX 39 68 42 69 36 70 37 71 40 72 38 73 64 74 65 75 73 76 66 77
REMARK SMILES IDX 67 78 71 79 74 80 68 81 69 82 72 83 70 84 49 85 50 86 58 87
REMARK SMILES IDX 51 88 52 89 56 90 59 91 53 92 54 93 57 94 55 95
REMARK H PARENT 15 5 6 12 20 29 79 48 47 59
REMARK Flexibility Score: inf
ROOT
ATOM      1  C   UNL     1       3.603  -5.960   4.865  1.00  0.00     0.116 C 
ENDROOT
BRANCH   1   2
ATOM      2  N   UNL     1       3.420  -4.577   5.252  1.00  0.00    -0.356 N 
ATOM      3  C   UNL     1       2.565  -3.645   4.747  1.00  0.00     0.220 C 
ATOM      4  O   UNL     1       2.666  -2.482   5.141  1.00  0.00    -0.275 OA
ATOM      5  H   UNL     1       3.998  -4.265   5.986  1.00  0.00     0.163 HD
BRANCH   3   6
ATOM      6  C   UNL     1       1.511  -4.036   3.722  1.00  0.00     0.103 C 
BRANCH   6   7
ATOM      7  C   UNL     1       2.039  -4.035   2.272  1.00  0.00     0.004 C 
ATOM      8  C   UNL     1       2.185  -5.463   1.730  1.00  0.00     0.009 C 
BRANCH   7   9
ATOM      9  C   UNL     1       1.120  -3.211   1.347  1.00  0.00     0.103 C 
BRANCH   9  10
ATOM     10  C   UNL     1       1.502  -3.336  -0.120  1.00  0.00     0.220 C 
ATOM     11  N   UNL     1       2.672  -2.806  -0.570  1.00  0.00    -0.352 N 
ATOM     12  H   UNL     1       3.003  -3.161  -1.427  1.00  0.00     0.163 HD
ATOM     13  O   UNL     1       0.799  -3.979  -0.902  1.00  0.00    -0.275 OA
BRANCH  11  14
ATOM     14  C   UNL     1       3.491  -1.788   0.047  1.00  0.00     0.151 C 
BRANCH  14  15
ATOM     15  C   UNL     1       4.966  -2.111   0.025  1.00  0.00    -0.028 A 
ATOM     16  C   UNL     1       7.389  -4.574   1.643  1.00  0.00     0.047 C 
ATOM     17  C   UNL     1       6.859  -3.444   0.816  1.00  0.00    -0.015 A 
ATOM     18  C   UNL     1       5.478  -3.229   0.704  1.00  0.00     0.012 A 
ATOM     19  C   UNL     1       7.731  -2.531   0.224  1.00  0.00     0.129 A 
ATOM     20  C   UNL     1       7.255  -1.431  -0.492  1.00  0.00    -0.015 A 
ATOM     21  F   UNL     1       9.054  -2.709   0.359  1.00  0.00    -0.206 F 
ATOM     22  C   UNL     1       5.870  -1.230  -0.587  1.00  0.00     0.012 A 
ATOM     23  C   UNL     1       8.201  -0.466  -1.139  1.00  0.00     0.047 C 
ENDBRANCH  14  15
ENDBRANCH  11  14
ENDBRANCH   9  10
ENDBRANCH   7   9
ENDBRANCH   6   7
ENDBRANCH   3   6
ENDBRANCH   1   2
BRANCH   1  24
ATOM     24  C   UNL     1       4.814  -6.099   3.938  1.00  0.00     0.023 C 
BRANCH  24  25
ATOM     25  C   UNL     1       6.110  -6.399   4.677  1.00  0.00     0.023 C 
BRANCH  25  26
ATOM     26  C   UNL     1       6.149  -7.817   5.231  1.00  0.00     0.116 C 
BRANCH  26  27
ATOM     27  N   UNL     1       6.227  -8.828   4.180  1.00  0.00    -0.352 N 
ATOM     28  C   UNL     1       7.257  -9.684   3.859  1.00  0.00     0.251 C 
ATOM     29  H   UNL     1       5.423  -8.911   3.618  1.00  0.00     0.163 HD
ATOM     30  O   UNL     1       7.215 -10.365   2.846  1.00  0.00    -0.269 OA
BRANCH  28  31
ATOM     31  C   UNL     1       8.433  -9.742   4.747  1.00  0.00     0.039 A 
ATOM     32  C   UNL     1       9.713  -9.651   4.199  1.00  0.00     0.014 A 
ATOM     33  C   UNL     1       8.255  -9.827   6.129  1.00  0.00     0.014 A 
ATOM     34  C   UNL     1      10.816  -9.556   5.049  1.00  0.00     0.010 A 
ATOM     35  C   UNL     1       9.336  -9.618   6.970  1.00  0.00     0.010 A 
ATOM     36  C   UNL     1      10.629  -9.498   6.439  1.00  0.00    -0.014 A 
BRANCH  36  37
ATOM     37  C   UNL     1      11.767  -9.393   7.380  1.00  0.00     0.031 A 
ATOM     38  C   UNL     1      12.009 -10.518   8.348  1.00  0.00     0.074 A 
ATOM     39  C   UNL     1      12.526  -8.281   7.415  1.00  0.00     0.049 A 
ATOM     40  N   UNL     1      12.847 -10.586   9.349  1.00  0.00    -0.248 NA
ATOM     41  C   UNL     1      11.165 -11.716   8.190  1.00  0.00     0.031 C 
ATOM     42  C   UNL     1      12.367  -7.115   6.545  1.00  0.00     0.029 A 
ATOM     43  N   UNL     1      13.585  -7.952   8.223  1.00  0.00    -0.354 N 
ATOM     44  C   UNL     1      12.617 -11.819   9.944  1.00  0.00     0.074 A 
ATOM     45  C   UNL     1      11.514 -12.436   9.245  1.00  0.00     0.031 C 
ATOM     46  C   UNL     1      13.320  -6.214   6.841  1.00  0.00     0.029 A 
ATOM     47  C   UNL     1      14.129  -6.722   7.944  1.00  0.00     0.049 A 
ATOM     48  H   UNL     1      13.922  -8.541   8.935  1.00  0.00     0.167 HD
ATOM     49  C   UNL     1      13.295 -12.405  10.956  1.00  0.00     0.037 A 
ATOM     50  C   UNL     1      15.168  -6.086   8.519  1.00  0.00     0.037 A 
ATOM     51  C   UNL     1      14.423 -11.810  11.615  1.00  0.00     0.049 A 
ATOM     52  C   UNL     1      15.892  -6.753   9.658  1.00  0.00     0.074 A 
ATOM     53  C   UNL     1      15.197 -12.329  12.637  1.00  0.00     0.029 A 
ATOM     54  N   UNL     1      14.950 -10.568  11.298  1.00  0.00    -0.354 N 
ATOM     55  N   UNL     1      15.679  -7.928  10.200  1.00  0.00    -0.248 NA
ATOM     56  C   UNL     1      17.002  -6.005  10.267  1.00  0.00     0.031 C 
ATOM     57  C   UNL     1      16.184 -11.390  12.950  1.00  0.00     0.029 A 
ATOM     58  C   UNL     1      16.042 -10.302  12.103  1.00  0.00     0.049 A 
ATOM     59  H   UNL     1      14.598  -9.964  10.603  1.00  0.00     0.167 HD
ATOM     60  C   UNL     1      16.643  -8.073  11.188  1.00  0.00     0.074 A 
ATOM     61  C   UNL     1      17.450  -6.871  11.166  1.00  0.00     0.031 C 
ATOM     62  C   UNL     1      16.843  -9.108  12.039  1.00  0.00     0.037 A 
BRANCH  49  63
ATOM     63  C   UNL     1      12.860 -13.776  11.376  1.00  0.00     0.064 A 
ATOM     64  C   UNL     1      13.093 -14.893  10.559  1.00  0.00     0.173 A 
ATOM     65  C   UNL     1      12.239 -13.985  12.616  1.00  0.00     0.173 A 
ATOM     66  F   UNL     1      13.665 -14.739   9.355  1.00  0.00    -0.203 F 
ATOM     67  C   UNL     1      12.703 -16.166  10.959  1.00  0.00     0.198 A 
ATOM     68  C   UNL     1      11.875 -15.265  13.025  1.00  0.00     0.198 A 
ATOM     69  F   UNL     1      11.993 -12.950  13.433  1.00  0.00    -0.203 F 
ATOM     70  F   UNL     1      12.897 -17.212  10.143  1.00  0.00    -0.200 F 
ATOM     71  C   UNL     1      12.103 -16.353  12.195  1.00  0.00     0.200 A 
ATOM     72  F   UNL     1      11.303 -15.447  14.223  1.00  0.00    -0.200 F 
ATOM     73  F   UNL     1      11.737 -17.582  12.583  1.00  0.00    -0.200 F 
ENDBRANCH  49  63
BRANCH  50  74
ATOM     74  C   UNL     1      15.622  -4.769   8.001  1.00  0.00     0.064 A 
ATOM     75  C   UNL     1      16.843  -4.659   7.319  1.00  0.00     0.173 A 
ATOM     76  C   UNL     1      14.869  -3.602   8.185  1.00  0.00     0.173 A 
ATOM     77  F   UNL     1      17.608  -5.745   7.138  1.00  0.00    -0.203 F 
ATOM     78  C   UNL     1      17.303  -3.427   6.860  1.00  0.00     0.198 A 
ATOM     79  C   UNL     1      15.320  -2.373   7.704  1.00  0.00     0.198 A 
ATOM     80  F   UNL     1      13.694  -3.654   8.828  1.00  0.00    -0.203 F 
ATOM     81  F   UNL     1      18.495  -3.343   6.252  1.00  0.00    -0.200 F 
ATOM     82  C   UNL     1      16.540  -2.285   7.049  1.00  0.00     0.200 A 
ATOM     83  F   UNL     1      14.576  -1.273   7.881  1.00  0.00    -0.200 F 
ATOM     84  F   UNL     1      16.984  -1.099   6.610  1.00  0.00    -0.200 F 
ENDBRANCH  50  74
BRANCH  62  85
ATOM     85  C   UNL     1      17.997  -9.010  12.990  1.00  0.00     0.064 A 
ATOM     86  C   UNL     1      17.941  -8.188  14.123  1.00  0.00     0.173 A 
ATOM     87  C   UNL     1      19.131  -9.816  12.811  1.00  0.00     0.173 A 
ATOM     88  F   UNL     1      16.880  -7.393  14.328  1.00  0.00    -0.203 F 
ATOM     89  C   UNL     1      18.986  -8.169  15.041  1.00  0.00     0.198 A 
ATOM     90  C   UNL     1      20.163  -9.813  13.744  1.00  0.00     0.198 A 
ATOM     91  F   UNL     1      19.224 -10.626  11.746  1.00  0.00    -0.203 F 
ATOM     92  F   UNL     1      18.925  -7.357  16.105  1.00  0.00    -0.200 F 
ATOM     93  C   UNL     1      20.091  -8.988  14.856  1.00  0.00     0.200 A 
ATOM     94  F   UNL     1      21.222 -10.616  13.572  1.00  0.00    -0.200 F 
ATOM     95  F   UNL     1      21.087  -8.982  15.752  1.00  0.00    -0.200 F 
ENDBRANCH  62  85
ENDBRANCH  36  37
ENDBRANCH  28  31
ENDBRANCH  26  27
ENDBRANCH  25  26
ENDBRANCH  24  25
ENDBRANCH   1  24
TORSDOF 16
