REMARK SMILES O=C(NCCCCNC(=O)[C@H](Cc1ccc([N+](=O)[O-])cc1)N1C(=O)c2ccccc2C1=O)c1ccc(-c2c3nc(c(-c4c(F)c(F)c(F)c(F)c4F)c4ccc([nH]4)c(-c4c(F)c(F)c(F)c(F)c4F)c4nc(c(-c5c(F)c(F)c(F)c(F)c5F)c5ccc2[nH]5)C=C4)C=C3)cc1
REMARK SMILES IDX 6 1 5 2 4 3 3 4 1 5 2 6 33 8 34 9 95 10 35 11 94 12 36 13
REMARK SMILES IDX 37 14 38 15 88 16 39 17 93 18 87 19 89 20 40 21 92 22 86 23
REMARK SMILES IDX 85 24 41 26 73 27 53 28 72 29 54 30 57 31 71 32 90 33 55 34
REMARK SMILES IDX 56 35 70 37 91 38 58 39 42 40 43 41 51 42 44 43 45 44 49 45
REMARK SMILES IDX 52 46 46 47 47 48 50 49 48 50 74 51 75 52 83 53 76 54 77 55
REMARK SMILES IDX 81 56 84 57 78 58 79 59 82 60 80 61 59 62 60 63 68 64 61 65
REMARK SMILES IDX 62 66 66 67 69 68 63 69 64 70 67 71 65 72 7 73 8 74 9 75
REMARK SMILES IDX 10 77 11 78 22 79 23 80 31 81 24 82 25 83 30 84 32 85 26 86
REMARK SMILES IDX 29 87 27 88 28 89 12 90 13 91 14 92 21 93 15 94 20 95 16 96
REMARK SMILES IDX 17 97 18 98 19 99
REMARK H PARENT 3 7 89 25 57 36 8 76
REMARK Flexibility Score: inf
ROOT
ATOM      1  C   UNL     1       5.381   6.126  -8.684  1.00  0.00     0.023 C 
ENDROOT
BRANCH   1   2
ATOM      2  C   UNL     1       4.551   5.477  -9.792  1.00  0.00     0.023 C 
BRANCH   2   3
ATOM      3  C   UNL     1       3.050   5.708  -9.695  1.00  0.00     0.116 C 
BRANCH   3   4
ATOM      4  N   UNL     1       2.682   7.109  -9.825  1.00  0.00    -0.352 N 
ATOM      5  O   UNL     1       1.617   8.892 -10.717  1.00  0.00    -0.269 OA
ATOM      6  C   UNL     1       1.721   7.673 -10.631  1.00  0.00     0.251 C 
ATOM      7  H   UNL     1       3.189   7.737  -9.262  1.00  0.00     0.163 HD
BRANCH   6   8
ATOM      8  C   UNL     1       0.831   6.795 -11.421  1.00  0.00     0.039 A 
ATOM      9  C   UNL     1       0.228   5.684 -10.829  1.00  0.00     0.014 A 
ATOM     10  C   UNL     1       0.621   7.073 -12.775  1.00  0.00     0.014 A 
ATOM     11  C   UNL     1      -0.453   4.770 -11.621  1.00  0.00     0.010 A 
ATOM     12  C   UNL     1      -0.145   6.198 -13.552  1.00  0.00     0.010 A 
ATOM     13  C   UNL     1      -0.660   5.022 -12.989  1.00  0.00    -0.014 A 
BRANCH  13  14
ATOM     14  C   UNL     1      -1.473   4.058 -13.772  1.00  0.00     0.031 A 
ATOM     15  C   UNL     1      -0.875   3.243 -14.884  1.00  0.00     0.074 A 
ATOM     16  C   UNL     1      -2.758   3.874 -13.413  1.00  0.00     0.049 A 
ATOM     17  N   UNL     1      -1.432   2.300 -15.603  1.00  0.00    -0.248 NA
ATOM     18  C   UNL     1       0.522   3.523 -15.246  1.00  0.00     0.031 C 
ATOM     19  C   UNL     1      -3.452   4.630 -12.367  1.00  0.00     0.029 A 
ATOM     20  N   UNL     1      -3.697   2.978 -13.853  1.00  0.00    -0.354 N 
ATOM     21  C   UNL     1      -0.463   1.884 -16.506  1.00  0.00     0.074 A 
ATOM     22  C   UNL     1       0.712   2.695 -16.265  1.00  0.00     0.031 C 
ATOM     23  C   UNL     1      -4.680   4.122 -12.199  1.00  0.00     0.029 A 
ATOM     24  C   UNL     1      -4.881   3.045 -13.161  1.00  0.00     0.049 A 
ATOM     25  H   UNL     1      -3.538   2.348 -14.592  1.00  0.00     0.167 HD
ATOM     26  C   UNL     1      -0.547   0.909 -17.444  1.00  0.00     0.037 A 
ATOM     27  C   UNL     1      -6.007   2.319 -13.285  1.00  0.00     0.037 A 
ATOM     28  C   UNL     1      -1.715   0.096 -17.671  1.00  0.00     0.049 A 
ATOM     29  C   UNL     1      -6.058   1.227 -14.312  1.00  0.00     0.074 A 
ATOM     30  C   UNL     1      -1.897  -0.919 -18.596  1.00  0.00     0.029 A 
ATOM     31  N   UNL     1      -2.901   0.202 -16.959  1.00  0.00    -0.354 N 
ATOM     32  N   UNL     1      -5.129   0.840 -15.151  1.00  0.00    -0.248 NA
ATOM     33  C   UNL     1      -7.314   0.473 -14.411  1.00  0.00     0.031 C 
ATOM     34  C   UNL     1      -3.201  -1.408 -18.462  1.00  0.00     0.029 A 
ATOM     35  C   UNL     1      -3.820  -0.724 -17.429  1.00  0.00     0.049 A 
ATOM     36  H   UNL     1      -3.066   0.840 -16.228  1.00  0.00     0.167 HD
ATOM     37  C   UNL     1      -5.687  -0.198 -15.881  1.00  0.00     0.074 A 
ATOM     38  C   UNL     1      -7.022  -0.407 -15.357  1.00  0.00     0.031 C 
ATOM     39  C   UNL     1      -5.149  -0.905 -16.904  1.00  0.00     0.037 A 
BRANCH  26  40
ATOM     40  C   UNL     1       0.657   0.663 -18.306  1.00  0.00     0.064 A 
ATOM     41  C   UNL     1       1.796   0.013 -17.806  1.00  0.00     0.173 A 
ATOM     42  C   UNL     1       0.648   1.022 -19.663  1.00  0.00     0.173 A 
ATOM     43  F   UNL     1       1.858  -0.339 -16.514  1.00  0.00    -0.203 F 
ATOM     44  C   UNL     1       2.886  -0.257 -18.630  1.00  0.00     0.198 A 
ATOM     45  C   UNL     1       1.731   0.730 -20.489  1.00  0.00     0.198 A 
ATOM     46  F   UNL     1      -0.418   1.640 -20.191  1.00  0.00    -0.203 F 
ATOM     47  F   UNL     1       3.975  -0.852 -18.125  1.00  0.00    -0.200 F 
ATOM     48  C   UNL     1       2.850   0.094 -19.972  1.00  0.00     0.200 A 
ATOM     49  F   UNL     1       1.690   1.060 -21.787  1.00  0.00    -0.200 F 
ATOM     50  F   UNL     1       3.895  -0.178 -20.766  1.00  0.00    -0.200 F 
ENDBRANCH  26  40
BRANCH  27  51
ATOM     51  C   UNL     1      -7.168   2.611 -12.407  1.00  0.00     0.064 A 
ATOM     52  C   UNL     1      -7.563   1.713 -11.407  1.00  0.00     0.173 A 
ATOM     53  C   UNL     1      -7.889   3.806 -12.536  1.00  0.00     0.173 A 
ATOM     54  F   UNL     1      -6.914   0.549 -11.257  1.00  0.00    -0.203 F 
ATOM     55  C   UNL     1      -8.646   1.994 -10.576  1.00  0.00     0.198 A 
ATOM     56  C   UNL     1      -8.952   4.100 -11.686  1.00  0.00     0.198 A 
ATOM     57  F   UNL     1      -7.544   4.701 -13.473  1.00  0.00    -0.203 F 
ATOM     58  F   UNL     1      -9.028   1.103  -9.652  1.00  0.00    -0.200 F 
ATOM     59  C   UNL     1      -9.334   3.191 -10.712  1.00  0.00     0.200 A 
ATOM     60  F   UNL     1      -9.602   5.266 -11.808  1.00  0.00    -0.200 F 
ATOM     61  F   UNL     1     -10.368   3.467  -9.905  1.00  0.00    -0.200 F 
ENDBRANCH  27  51
BRANCH  39  62
ATOM     62  C   UNL     1      -6.016  -1.960 -17.521  1.00  0.00     0.064 A 
ATOM     63  C   UNL     1      -7.101  -1.621 -18.343  1.00  0.00     0.173 A 
ATOM     64  C   UNL     1      -5.761  -3.319 -17.291  1.00  0.00     0.173 A 
ATOM     65  F   UNL     1      -7.393  -0.333 -18.577  1.00  0.00    -0.203 F 
ATOM     66  C   UNL     1      -7.919  -2.606 -18.887  1.00  0.00     0.198 A 
ATOM     67  C   UNL     1      -6.567  -4.303 -17.857  1.00  0.00     0.198 A 
ATOM     68  F   UNL     1      -4.733  -3.693 -16.514  1.00  0.00    -0.203 F 
ATOM     69  F   UNL     1      -8.982  -2.258 -19.626  1.00  0.00    -0.200 F 
ATOM     70  C   UNL     1      -7.650  -3.945 -18.647  1.00  0.00     0.200 A 
ATOM     71  F   UNL     1      -6.303  -5.596 -17.630  1.00  0.00    -0.200 F 
ATOM     72  F   UNL     1      -8.443  -4.892 -19.167  1.00  0.00    -0.200 F 
ENDBRANCH  39  62
ENDBRANCH  13  14
ENDBRANCH   6   8
ENDBRANCH   3   4
ENDBRANCH   2   3
ENDBRANCH   1   2
BRANCH   1  73
ATOM     73  C   UNL     1       4.895   5.855  -7.258  1.00  0.00     0.116 C 
BRANCH  73  74
ATOM     74  N   UNL     1       4.801   4.432  -7.000  1.00  0.00    -0.354 N 
ATOM     75  C   UNL     1       5.565   3.686  -6.151  1.00  0.00     0.243 C 
ATOM     76  H   UNL     1       4.102   3.946  -7.495  1.00  0.00     0.163 HD
ATOM     77  O   UNL     1       5.883   2.568  -6.562  1.00  0.00    -0.273 OA
BRANCH  75  78
ATOM     78  C   UNL     1       6.128   4.305  -4.858  1.00  0.00     0.187 C 
BRANCH  78  79
ATOM     79  N   UNL     1       5.084   5.011  -4.093  1.00  0.00    -0.261 N 
ATOM     80  C   UNL     1       3.980   4.423  -3.534  1.00  0.00     0.262 C 
ATOM     81  C   UNL     1       5.064   6.364  -3.882  1.00  0.00     0.262 C 
ATOM     82  O   UNL     1       3.511   3.315  -3.696  1.00  0.00    -0.269 OA
ATOM     83  C   UNL     1       3.312   5.443  -2.735  1.00  0.00     0.053 A 
ATOM     84  C   UNL     1       3.920   6.648  -3.015  1.00  0.00     0.053 A 
ATOM     85  O   UNL     1       5.822   7.219  -4.301  1.00  0.00    -0.269 OA
ATOM     86  C   UNL     1       2.259   5.337  -1.847  1.00  0.00     0.015 A 
ATOM     87  C   UNL     1       3.457   7.836  -2.485  1.00  0.00     0.015 A 
ATOM     88  C   UNL     1       1.797   6.520  -1.264  1.00  0.00     0.001 A 
ATOM     89  C   UNL     1       2.375   7.762  -1.599  1.00  0.00     0.001 A 
ENDBRANCH  78  79
BRANCH  78  90
ATOM     90  C   UNL     1       7.003   3.322  -4.027  1.00  0.00     0.071 C 
BRANCH  90  91
ATOM     91  C   UNL     1       6.271   2.254  -3.243  1.00  0.00    -0.045 A 
ATOM     92  C   UNL     1       5.754   1.121  -3.892  1.00  0.00     0.011 A 
ATOM     93  C   UNL     1       5.992   2.445  -1.881  1.00  0.00     0.011 A 
ATOM     94  C   UNL     1       4.848   0.281  -3.246  1.00  0.00     0.086 A 
ATOM     95  C   UNL     1       5.098   1.600  -1.219  1.00  0.00     0.086 A 
ATOM     96  C   UNL     1       4.490   0.551  -1.923  1.00  0.00     0.269 A 
BRANCH  96  97
ATOM     97  N   UNL     1       3.424  -0.229  -1.287  1.00  0.00     0.062 N 
ATOM     98  O   UNL     1       2.873  -1.115  -1.957  1.00  0.00    -0.258 OA
ATOM     99  O   UNL     1       3.125   0.051  -0.116  1.00  0.00    -0.258 OA
ENDBRANCH  96  97
ENDBRANCH  90  91
ENDBRANCH  78  90
ENDBRANCH  75  78
ENDBRANCH  73  74
ENDBRANCH   1  73
TORSDOF 15
