REMARK SMILES CC[C@@H](Sc1nnc2ccc3ccccc3n12)C(=O)Nc1cccc(C(=O)NCCCCNC(=O)c2ccc(-c3c4nc(c(-c5c(F)c(F)c(F)c(F)c5F)c5ccc([nH]5)c(-c5c(F)c(F)c(F)c(F)c5F)c5nc(c(-c6c(F)c(F)c(F)c(F)c6F)c6ccc3[nH]6)C=C5)C=C4)cc2)c1
REMARK SMILES IDX 29 1 28 2 26 3 27 4 25 6 21 7 22 8 99 9 23 10 24 11 20 12
REMARK SMILES IDX 18 13 19 14 3 16 2 17 1 18 4 19 5 20 6 21 17 22 7 23 8 24
REMARK SMILES IDX 16 25 9 26 11 27 15 28 10 29 12 30 14 31 13 32 30 33 31 34
REMARK SMILES IDX 32 35 33 36 34 37 35 39 36 40 37 41 98 42 38 43 97 44 39 45
REMARK SMILES IDX 40 46 41 47 91 48 42 49 96 50 90 51 92 52 43 53 95 54 89 55
REMARK SMILES IDX 88 56 44 58 76 59 56 60 75 61 57 62 60 63 74 64 93 65 58 66
REMARK SMILES IDX 59 67 73 69 94 70 61 71 45 72 46 73 54 74 47 75 48 76 52 77
REMARK SMILES IDX 55 78 49 79 50 80 53 81 51 82 77 83 78 84 86 85 79 86 80 87
REMARK SMILES IDX 84 88 87 89 81 90 82 91 85 92 83 93 62 94 63 95 71 96 64 97
REMARK SMILES IDX 65 98 69 99 72 100 66 101 67 102 70 103 68 104
REMARK H PARENT 28 5 20 15 33 38 92 57 60 68
REMARK Flexibility Score: inf
ROOT
ATOM      1  C   UNL     1      -3.642  -4.582   3.713  1.00  0.00     0.116 C 
ENDROOT
BRANCH   1   2
ATOM      2  N   UNL     1      -4.611  -3.507   3.739  1.00  0.00    -0.352 N 
ATOM      3  C   UNL     1      -4.834  -2.470   2.865  1.00  0.00     0.251 C 
ATOM      4  O   UNL     1      -5.794  -1.732   3.100  1.00  0.00    -0.269 OA
ATOM      5  H   UNL     1      -5.215  -3.521   4.516  1.00  0.00     0.163 HD
BRANCH   3   6
ATOM      6  C   UNL     1      -3.950  -2.167   1.701  1.00  0.00     0.041 A 
ATOM      7  C   UNL     1      -2.084  -2.640   0.235  1.00  0.00     0.041 A 
ATOM      8  C   UNL     1      -2.196  -1.381  -0.331  1.00  0.00     0.026 A 
ATOM      9  C   UNL     1      -3.067  -3.080   1.119  1.00  0.00     0.040 A 
ATOM     10  C   UNL     1      -3.142  -0.480   0.151  1.00  0.00     0.003 A 
ATOM     11  C   UNL     1      -3.978  -0.856   1.200  1.00  0.00     0.014 A 
BRANCH   7  12
ATOM     12  N   UNL     1      -1.010  -3.502  -0.024  1.00  0.00    -0.325 N 
ATOM     13  C   UNL     1       0.328  -3.318   0.229  1.00  0.00     0.237 C 
ATOM     14  O   UNL     1       1.053  -4.311   0.059  1.00  0.00    -0.273 OA
ATOM     15  H   UNL     1      -1.248  -4.358  -0.446  1.00  0.00     0.169 HD
BRANCH  13  16
ATOM     16  C   UNL     1       0.959  -2.019   0.794  1.00  0.00     0.144 C 
BRANCH  16  17
ATOM     17  C   UNL     1       0.833  -0.821  -0.152  1.00  0.00     0.021 C 
ATOM     18  C   UNL     1       2.026   0.126  -0.175  1.00  0.00     0.005 C 
ENDBRANCH  16  17
BRANCH  16  19
ATOM     19  S   UNL     1       0.446  -1.841   2.553  1.00  0.00    -0.072 SA
BRANCH  19  20
ATOM     20  C   UNL     1       0.916  -0.226   2.947  1.00  0.00     0.196 A 
ATOM     21  N   UNL     1       0.144   0.796   2.643  1.00  0.00    -0.122 NA
ATOM     22  N   UNL     1       2.058   0.216   3.599  1.00  0.00    -0.270 N 
ATOM     23  N   UNL     1       0.771   1.942   3.039  1.00  0.00    -0.129 NA
ATOM     24  C   UNL     1       1.911   1.605   3.599  1.00  0.00     0.161 A 
ATOM     25  C   UNL     1       3.197  -0.424   4.175  1.00  0.00     0.057 A 
ATOM     26  C   UNL     1       2.923   2.427   4.144  1.00  0.00     0.050 A 
ATOM     27  C   UNL     1       4.182   0.428   4.728  1.00  0.00    -0.001 A 
ATOM     28  C   UNL     1       3.377  -1.807   4.233  1.00  0.00     0.027 A 
ATOM     29  C   UNL     1       4.020   1.885   4.686  1.00  0.00     0.014 A 
ATOM     30  C   UNL     1       5.325  -0.115   5.327  1.00  0.00     0.010 A 
ATOM     31  C   UNL     1       4.526  -2.335   4.836  1.00  0.00     0.002 A 
ATOM     32  C   UNL     1       5.495  -1.496   5.382  1.00  0.00     0.001 A 
ENDBRANCH  19  20
ENDBRANCH  16  19
ENDBRANCH  13  16
ENDBRANCH   7  12
ENDBRANCH   3   6
ENDBRANCH   1   2
BRANCH   1  33
ATOM     33  C   UNL     1      -3.354  -5.222   5.059  1.00  0.00     0.023 C 
BRANCH  33  34
ATOM     34  C   UNL     1      -4.556  -5.704   5.860  1.00  0.00     0.023 C 
BRANCH  34  35
ATOM     35  C   UNL     1      -5.619  -6.505   5.104  1.00  0.00     0.116 C 
BRANCH  35  36
ATOM     36  N   UNL     1      -5.153  -7.641   4.332  1.00  0.00    -0.352 N 
ATOM     37  C   UNL     1      -4.835  -8.940   4.627  1.00  0.00     0.251 C 
ATOM     38  H   UNL     1      -5.038  -7.430   3.377  1.00  0.00     0.163 HD
ATOM     39  O   UNL     1      -4.701  -9.708   3.672  1.00  0.00    -0.269 OA
BRANCH  37  40
ATOM     40  C   UNL     1      -4.545  -9.446   5.993  1.00  0.00     0.039 A 
ATOM     41  C   UNL     1      -4.802  -8.749   7.170  1.00  0.00     0.014 A 
ATOM     42  C   UNL     1      -3.880 -10.682   6.077  1.00  0.00     0.014 A 
ATOM     43  C   UNL     1      -4.227  -9.152   8.365  1.00  0.00     0.010 A 
ATOM     44  C   UNL     1      -3.362 -11.132   7.285  1.00  0.00     0.010 A 
ATOM     45  C   UNL     1      -3.464 -10.319   8.411  1.00  0.00    -0.014 A 
BRANCH  45  46
ATOM     46  C   UNL     1      -2.835 -10.652   9.686  1.00  0.00     0.031 A 
ATOM     47  C   UNL     1      -3.757 -10.857  10.843  1.00  0.00     0.074 A 
ATOM     48  C   UNL     1      -1.509 -10.859   9.802  1.00  0.00     0.049 A 
ATOM     49  N   UNL     1      -3.719 -10.321  12.023  1.00  0.00    -0.248 NA
ATOM     50  C   UNL     1      -4.910 -11.746  10.627  1.00  0.00     0.031 C 
ATOM     51  C   UNL     1      -0.514 -10.971   8.732  1.00  0.00     0.029 A 
ATOM     52  N   UNL     1      -0.788 -11.136  10.925  1.00  0.00    -0.354 N 
ATOM     53  C   UNL     1      -4.759 -10.907  12.746  1.00  0.00     0.074 A 
ATOM     54  C   UNL     1      -5.514 -11.704  11.813  1.00  0.00     0.031 C 
ATOM     55  C   UNL     1       0.610 -11.527   9.231  1.00  0.00     0.029 A 
ATOM     56  C   UNL     1       0.455 -11.691  10.666  1.00  0.00     0.049 A 
ATOM     57  H   UNL     1      -1.120 -10.959  11.835  1.00  0.00     0.167 HD
ATOM     58  C   UNL     1      -4.846 -10.838  14.102  1.00  0.00     0.037 A 
ATOM     59  C   UNL     1       1.244 -12.339  11.555  1.00  0.00     0.037 A 
ATOM     60  C   UNL     1      -4.106  -9.737  14.644  1.00  0.00     0.049 A 
ATOM     61  C   UNL     1       0.811 -11.950  12.920  1.00  0.00     0.074 A 
ATOM     62  C   UNL     1      -4.179  -8.363  14.512  1.00  0.00     0.029 A 
ATOM     63  N   UNL     1      -2.905  -9.977  15.260  1.00  0.00    -0.354 N 
ATOM     64  N   UNL     1       0.966 -10.762  13.436  1.00  0.00    -0.248 NA
ATOM     65  C   UNL     1      -0.170 -12.796  13.584  1.00  0.00     0.031 C 
ATOM     66  C   UNL     1      -2.830  -7.911  14.586  1.00  0.00     0.029 A 
ATOM     67  C   UNL     1      -2.030  -9.037  14.780  1.00  0.00     0.049 A 
ATOM     68  H   UNL     1      -2.709 -10.684  15.917  1.00  0.00     0.167 HD
ATOM     69  C   UNL     1      -0.163 -10.565  14.217  1.00  0.00     0.074 A 
ATOM     70  C   UNL     1      -0.773 -11.884  14.349  1.00  0.00     0.031 C 
ATOM     71  C   UNL     1      -0.652  -9.314  14.456  1.00  0.00     0.037 A 
BRANCH  58  72
ATOM     72  C   UNL     1      -5.393 -11.950  14.959  1.00  0.00     0.064 A 
ATOM     73  C   UNL     1      -5.687 -11.719  16.317  1.00  0.00     0.173 A 
ATOM     74  C   UNL     1      -5.371 -13.303  14.559  1.00  0.00     0.173 A 
ATOM     75  F   UNL     1      -5.693 -10.473  16.813  1.00  0.00    -0.203 F 
ATOM     76  C   UNL     1      -5.898 -12.771  17.214  1.00  0.00     0.198 A 
ATOM     77  C   UNL     1      -5.635 -14.347  15.444  1.00  0.00     0.198 A 
ATOM     78  F   UNL     1      -4.989 -13.668  13.328  1.00  0.00    -0.203 F 
ATOM     79  F   UNL     1      -6.065 -12.511  18.517  1.00  0.00    -0.200 F 
ATOM     80  C   UNL     1      -5.872 -14.083  16.776  1.00  0.00     0.200 A 
ATOM     81  F   UNL     1      -5.582 -15.612  15.005  1.00  0.00    -0.200 F 
ATOM     82  F   UNL     1      -6.023 -15.093  17.643  1.00  0.00    -0.200 F 
ENDBRANCH  58  72
BRANCH  59  83
ATOM     83  C   UNL     1       2.094 -13.524  11.289  1.00  0.00     0.064 A 
ATOM     84  C   UNL     1       3.093 -13.915  12.193  1.00  0.00     0.173 A 
ATOM     85  C   UNL     1       1.776 -14.445  10.269  1.00  0.00     0.173 A 
ATOM     86  F   UNL     1       3.417 -13.123  13.225  1.00  0.00    -0.203 F 
ATOM     87  C   UNL     1       3.728 -15.158  12.088  1.00  0.00     0.198 A 
ATOM     88  C   UNL     1       2.422 -15.675  10.156  1.00  0.00     0.198 A 
ATOM     89  F   UNL     1       0.769 -14.212   9.416  1.00  0.00    -0.203 F 
ATOM     90  F   UNL     1       4.635 -15.523  13.005  1.00  0.00    -0.200 F 
ATOM     91  C   UNL     1       3.389 -16.037  11.073  1.00  0.00     0.200 A 
ATOM     92  F   UNL     1       2.056 -16.529   9.190  1.00  0.00    -0.200 F 
ATOM     93  F   UNL     1       3.961 -17.247  11.002  1.00  0.00    -0.200 F 
ENDBRANCH  59  83
BRANCH  71  94
ATOM     94  C   UNL     1       0.196  -8.136  14.071  1.00  0.00     0.064 A 
ATOM     95  C   UNL     1       0.550  -7.843  12.743  1.00  0.00     0.173 A 
ATOM     96  C   UNL     1       0.508  -7.183  15.049  1.00  0.00     0.173 A 
ATOM     97  F   UNL     1       0.189  -8.651  11.739  1.00  0.00    -0.203 F 
ATOM     98  C   UNL     1       1.223  -6.667  12.418  1.00  0.00     0.198 A 
ATOM     99  C   UNL     1       1.148  -5.992  14.716  1.00  0.00     0.198 A 
ATOM    100  F   UNL     1       0.137  -7.380  16.324  1.00  0.00    -0.203 F 
ATOM    101  F   UNL     1       1.552  -6.411  11.143  1.00  0.00    -0.200 F 
ATOM    102  C   UNL     1       1.513  -5.738  13.404  1.00  0.00     0.200 A 
ATOM    103  F   UNL     1       1.379  -5.072  15.663  1.00  0.00    -0.200 F 
ATOM    104  F   UNL     1       2.115  -4.584  13.084  1.00  0.00    -0.200 F 
ENDBRANCH  71  94
ENDBRANCH  45  46
ENDBRANCH  37  40
ENDBRANCH  35  36
ENDBRANCH  34  35
ENDBRANCH  33  34
ENDBRANCH   1  33
TORSDOF 16
