REMARK SMILES O=C(NCCCCNC(=O)[C@H]1CCC(=O)N(C2CCCCC2)[C@H]1c1ccccc1)c1ccc(-c2c3nc(c(-c4c(F)c(F)c(F)c(F)c4F)c4ccc([nH]4)c(-c4c(F)c(F)c(F)c(F)c4F)c4nc(c(-c5c(F)c(F)c(F)c(F)c5F)c5ccc2[nH]5)C=C4)C=C3)cc1
REMARK SMILES IDX 5 1 4 2 3 3 1 4 2 5 30 7 31 8 92 9 32 10 91 11 33 12 34 13
REMARK SMILES IDX 35 14 85 15 36 16 90 17 84 18 86 19 37 20 89 21 83 22 82 23
REMARK SMILES IDX 38 25 70 26 50 27 69 28 51 29 54 30 68 31 87 32 52 33 53 34
REMARK SMILES IDX 67 36 88 37 55 38 39 39 40 40 48 41 41 42 42 43 46 44 49 45
REMARK SMILES IDX 43 46 44 47 47 48 45 49 71 50 72 51 80 52 73 53 74 54 78 55
REMARK SMILES IDX 81 56 75 57 76 58 79 59 77 60 56 61 57 62 65 63 58 64 59 65
REMARK SMILES IDX 63 66 66 67 60 68 61 69 64 70 62 71 6 72 7 73 8 74 9 75
REMARK SMILES IDX 10 77 11 78 12 79 23 80 13 81 16 82 14 83 15 84 24 85 25 86
REMARK SMILES IDX 29 87 26 88 28 89 27 90 17 91 18 92 22 93 19 94 21 95 20 96
REMARK H PARENT 3 6 86 24 54 35 8 76
REMARK Flexibility Score: inf
ROOT
ATOM      1  C   UNL     1      11.095  -8.311  -1.535  1.00  0.00     0.023 C 
ENDROOT
BRANCH   1   2
ATOM      2  C   UNL     1      11.540  -8.957  -2.842  1.00  0.00     0.116 C 
BRANCH   2   3
ATOM      3  N   UNL     1      12.303  -8.056  -3.692  1.00  0.00    -0.352 N 
ATOM      4  O   UNL     1      14.043  -7.408  -4.979  1.00  0.00    -0.269 OA
ATOM      5  C   UNL     1      13.447  -8.314  -4.405  1.00  0.00     0.251 C 
ATOM      6  H   UNL     1      11.952  -7.139  -3.765  1.00  0.00     0.163 HD
BRANCH   5   7
ATOM      7  C   UNL     1      13.976  -9.692  -4.448  1.00  0.00     0.039 A 
ATOM      8  C   UNL     1      13.127 -10.767  -4.723  1.00  0.00     0.014 A 
ATOM      9  C   UNL     1      15.331  -9.907  -4.185  1.00  0.00     0.014 A 
ATOM     10  C   UNL     1      13.604 -12.066  -4.602  1.00  0.00     0.010 A 
ATOM     11  C   UNL     1      15.826 -11.212  -4.140  1.00  0.00     0.010 A 
ATOM     12  C   UNL     1      14.959 -12.302  -4.316  1.00  0.00    -0.014 A 
BRANCH  12  13
ATOM     13  C   UNL     1      15.457 -13.697  -4.254  1.00  0.00     0.031 A 
ATOM     14  C   UNL     1      15.954 -14.288  -2.967  1.00  0.00     0.074 A 
ATOM     15  C   UNL     1      15.431 -14.440  -5.377  1.00  0.00     0.049 A 
ATOM     16  N   UNL     1      16.404 -15.495  -2.733  1.00  0.00    -0.248 NA
ATOM     17  C   UNL     1      15.956 -13.409  -1.789  1.00  0.00     0.031 C 
ATOM     18  C   UNL     1      14.976 -13.966  -6.685  1.00  0.00     0.029 A 
ATOM     19  N   UNL     1      15.775 -15.747  -5.596  1.00  0.00    -0.354 N 
ATOM     20  C   UNL     1      16.762 -15.516  -1.392  1.00  0.00     0.074 A 
ATOM     21  C   UNL     1      16.499 -14.192  -0.867  1.00  0.00     0.031 C 
ATOM     22  C   UNL     1      15.024 -14.980  -7.560  1.00  0.00     0.029 A 
ATOM     23  C   UNL     1      15.567 -16.157  -6.889  1.00  0.00     0.049 A 
ATOM     24  H   UNL     1      16.137 -16.336  -4.895  1.00  0.00     0.167 HD
ATOM     25  C   UNL     1      17.256 -16.549  -0.667  1.00  0.00     0.037 A 
ATOM     26  C   UNL     1      15.797 -17.346  -7.475  1.00  0.00     0.037 A 
ATOM     27  C   UNL     1      17.500 -17.867  -1.194  1.00  0.00     0.049 A 
ATOM     28  C   UNL     1      16.366 -18.465  -6.653  1.00  0.00     0.074 A 
ATOM     29  C   UNL     1      17.957 -18.993  -0.531  1.00  0.00     0.029 A 
ATOM     30  N   UNL     1      17.309 -18.236  -2.519  1.00  0.00    -0.354 N 
ATOM     31  N   UNL     1      16.666 -18.483  -5.377  1.00  0.00    -0.248 NA
ATOM     32  C   UNL     1      16.631 -19.727  -7.354  1.00  0.00     0.031 C 
ATOM     33  C   UNL     1      18.088 -20.029  -1.463  1.00  0.00     0.029 A 
ATOM     34  C   UNL     1      17.665 -19.564  -2.698  1.00  0.00     0.049 A 
ATOM     35  H   UNL     1      16.971 -17.642  -3.227  1.00  0.00     0.167 HD
ATOM     36  C   UNL     1      17.140 -19.760  -5.117  1.00  0.00     0.074 A 
ATOM     37  C   UNL     1      17.071 -20.493  -6.365  1.00  0.00     0.031 C 
ATOM     38  C   UNL     1      17.593 -20.277  -3.948  1.00  0.00     0.037 A 
BRANCH  25  39
ATOM     39  C   UNL     1      17.592 -16.287   0.774  1.00  0.00     0.064 A 
ATOM     40  C   UNL     1      16.596 -16.092   1.742  1.00  0.00     0.173 A 
ATOM     41  C   UNL     1      18.930 -16.260   1.196  1.00  0.00     0.173 A 
ATOM     42  F   UNL     1      15.301 -16.096   1.389  1.00  0.00    -0.203 F 
ATOM     43  C   UNL     1      16.927 -15.850   3.073  1.00  0.00     0.198 A 
ATOM     44  C   UNL     1      19.257 -16.046   2.533  1.00  0.00     0.198 A 
ATOM     45  F   UNL     1      19.922 -16.448   0.313  1.00  0.00    -0.203 F 
ATOM     46  F   UNL     1      15.960 -15.617   3.972  1.00  0.00    -0.200 F 
ATOM     47  C   UNL     1      18.257 -15.832   3.469  1.00  0.00     0.200 A 
ATOM     48  F   UNL     1      20.542 -16.040   2.915  1.00  0.00    -0.200 F 
ATOM     49  F   UNL     1      18.573 -15.601   4.750  1.00  0.00    -0.200 F 
ENDBRANCH  25  39
BRANCH  26  50
ATOM     50  C   UNL     1      15.471 -17.527  -8.911  1.00  0.00     0.064 A 
ATOM     51  C   UNL     1      14.390 -18.325  -9.306  1.00  0.00     0.173 A 
ATOM     52  C   UNL     1      16.206 -16.875  -9.912  1.00  0.00     0.173 A 
ATOM     53  F   UNL     1      13.669 -18.980  -8.384  1.00  0.00    -0.203 F 
ATOM     54  C   UNL     1      14.057 -18.468 -10.651  1.00  0.00     0.198 A 
ATOM     55  C   UNL     1      15.856 -16.997 -11.254  1.00  0.00     0.198 A 
ATOM     56  F   UNL     1      17.245 -16.095  -9.582  1.00  0.00    -0.203 F 
ATOM     57  F   UNL     1      13.034 -19.258 -11.005  1.00  0.00    -0.200 F 
ATOM     58  C   UNL     1      14.784 -17.797 -11.623  1.00  0.00     0.200 A 
ATOM     59  F   UNL     1      16.550 -16.333 -12.188  1.00  0.00    -0.200 F 
ATOM     60  F   UNL     1      14.454 -17.922 -12.915  1.00  0.00    -0.200 F 
ENDBRANCH  26  50
BRANCH  38  61
ATOM     61  C   UNL     1      18.025 -21.714  -3.964  1.00  0.00     0.064 A 
ATOM     62  C   UNL     1      19.220 -22.114  -4.579  1.00  0.00     0.173 A 
ATOM     63  C   UNL     1      17.245 -22.697  -3.336  1.00  0.00     0.173 A 
ATOM     64  F   UNL     1      19.990 -21.214  -5.209  1.00  0.00    -0.203 F 
ATOM     65  C   UNL     1      19.606 -23.452  -4.587  1.00  0.00     0.198 A 
ATOM     66  C   UNL     1      17.648 -24.029  -3.322  1.00  0.00     0.198 A 
ATOM     67  F   UNL     1      16.096 -22.363  -2.731  1.00  0.00    -0.203 F 
ATOM     68  F   UNL     1      20.727 -23.820  -5.223  1.00  0.00    -0.200 F 
ATOM     69  C   UNL     1      18.823 -24.407  -3.954  1.00  0.00     0.200 A 
ATOM     70  F   UNL     1      16.896 -24.948  -2.702  1.00  0.00    -0.200 F 
ATOM     71  F   UNL     1      19.198 -25.693  -3.961  1.00  0.00    -0.200 F 
ENDBRANCH  38  61
ENDBRANCH  12  13
ENDBRANCH   5   7
ENDBRANCH   2   3
ENDBRANCH   1   2
BRANCH   1  72
ATOM     72  C   UNL     1      10.231  -7.058  -1.696  1.00  0.00     0.023 C 
BRANCH  72  73
ATOM     73  C   UNL     1       9.001  -7.256  -2.578  1.00  0.00     0.116 C 
BRANCH  73  74
ATOM     74  N   UNL     1       8.060  -8.180  -1.965  1.00  0.00    -0.356 N 
ATOM     75  C   UNL     1       6.882  -7.914  -1.317  1.00  0.00     0.225 C 
ATOM     76  H   UNL     1       8.305  -9.132  -2.023  1.00  0.00     0.163 HD
ATOM     77  O   UNL     1       6.338  -8.841  -0.727  1.00  0.00    -0.275 OA
BRANCH  75  78
ATOM     78  C   UNL     1       6.323  -6.506  -1.420  1.00  0.00     0.106 C 
ATOM     79  C   UNL     1       5.719  -6.276  -2.799  1.00  0.00     0.026 C 
ATOM     80  C   UNL     1       5.332  -6.002  -0.356  1.00  0.00     0.128 C 
ATOM     81  C   UNL     1       5.586  -4.788  -3.029  1.00  0.00     0.101 C 
ATOM     82  N   UNL     1       5.139  -4.535  -0.568  1.00  0.00    -0.332 N 
ATOM     83  C   UNL     1       5.161  -3.950  -1.835  1.00  0.00     0.223 C 
ATOM     84  O   UNL     1       4.933  -2.754  -2.030  1.00  0.00    -0.275 OA
BRANCH  80  85
ATOM     85  C   UNL     1       3.993  -6.731  -0.221  1.00  0.00    -0.025 A 
ATOM     86  C   UNL     1       2.806  -6.261  -0.809  1.00  0.00     0.006 A 
ATOM     87  C   UNL     1       3.911  -7.904   0.550  1.00  0.00     0.006 A 
ATOM     88  C   UNL     1       1.592  -6.932  -0.631  1.00  0.00     0.000 A 
ATOM     89  C   UNL     1       2.705  -8.594   0.702  1.00  0.00     0.000 A 
ATOM     90  C   UNL     1       1.543  -8.104   0.117  1.00  0.00     0.000 A 
ENDBRANCH  80  85
BRANCH  82  91
ATOM     91  C   UNL     1       4.878  -3.689   0.622  1.00  0.00     0.085 C 
ATOM     92  C   UNL     1       6.035  -2.694   0.845  1.00  0.00     0.025 C 
ATOM     93  C   UNL     1       3.490  -3.016   0.586  1.00  0.00     0.025 C 
ATOM     94  C   UNL     1       5.759  -1.699   1.966  1.00  0.00     0.002 C 
ATOM     95  C   UNL     1       3.287  -2.004   1.709  1.00  0.00     0.002 C 
ATOM     96  C   UNL     1       4.425  -0.993   1.762  1.00  0.00     0.000 C 
ENDBRANCH  82  91
ENDBRANCH  75  78
ENDBRANCH  73  74
ENDBRANCH  72  73
ENDBRANCH   1  72
TORSDOF 13
