REMARK SMILES O=C(Cn1nc(C(=O)NCCCCNC(=O)c2ccc(-c3c4nc(c(-c5c(F)c(F)c(F)c(F)c5F)c5ccc([nH]5)c(-c5c(F)c(F)c(F)c(F)c5F)c5nc(c(-c6c(F)c(F)c(F)c(F)c6F)c6ccc3[nH]6)C=C5)C=C4)cc2)c2ccccc2c1=O)NCc1ccc(F)cc1
REMARK SMILES IDX 10 1 9 2 7 3 8 4 6 6 4 7 5 8 86 9 85 10 87 11 80 12 84 13
REMARK SMILES IDX 81 14 83 15 82 16 3 17 2 18 1 19 88 20 89 22 90 23 91 24
REMARK SMILES IDX 96 25 92 26 95 27 93 28 94 29 11 30 12 31 13 32 14 33 15 34
REMARK SMILES IDX 16 36 17 37 18 38 79 39 19 40 78 41 20 42 21 43 22 44 72 45
REMARK SMILES IDX 23 46 77 47 71 48 73 49 24 50 76 51 70 52 69 53 25 55 57 56
REMARK SMILES IDX 37 57 56 58 38 59 41 60 55 61 74 62 39 63 40 64 54 66 75 67
REMARK SMILES IDX 42 68 26 69 27 70 35 71 28 72 29 73 33 74 36 75 30 76 31 77
REMARK SMILES IDX 34 78 32 79 58 80 59 81 67 82 60 83 61 84 65 85 68 86 62 87
REMARK SMILES IDX 63 88 66 89 64 90 43 91 44 92 52 93 45 94 46 95 50 96 53 97
REMARK SMILES IDX 47 98 48 99 51 100 49 101
REMARK H PARENT 9 5 88 21 14 35 73 54 41 65
REMARK Flexibility Score: inf
ROOT
ATOM      1  C   UNL     1       5.730  -2.493  -3.555  1.00  0.00     0.116 C 
ENDROOT
BRANCH   1   2
ATOM      2  N   UNL     1       6.516  -1.470  -4.227  1.00  0.00    -0.351 N 
ATOM      3  C   UNL     1       6.561  -0.099  -4.090  1.00  0.00     0.272 C 
ATOM      4  O   UNL     1       7.473   0.497  -4.654  1.00  0.00    -0.267 OA
ATOM      5  H   UNL     1       7.133  -1.823  -4.908  1.00  0.00     0.163 HD
BRANCH   3   6
ATOM      6  C   UNL     1       5.510   0.678  -3.271  1.00  0.00     0.156 A 
ATOM      7  N   UNL     1       3.822   0.566  -1.670  1.00  0.00    -0.219 N 
ATOM      8  N   UNL     1       4.859   0.005  -2.370  1.00  0.00    -0.163 NA
ATOM      9  C   UNL     1       3.383   1.865  -1.896  1.00  0.00     0.275 A 
ATOM     10  C   UNL     1       4.239   2.707  -2.747  1.00  0.00     0.051 A 
ATOM     11  O   UNL     1       2.354   2.337  -1.423  1.00  0.00    -0.267 OA
ATOM     12  C   UNL     1       5.260   2.126  -3.499  1.00  0.00     0.020 A 
ATOM     13  C   UNL     1       3.986   4.086  -2.811  1.00  0.00     0.014 A 
ATOM     14  C   UNL     1       5.991   2.945  -4.370  1.00  0.00     0.011 A 
ATOM     15  C   UNL     1       4.745   4.894  -3.651  1.00  0.00     0.001 A 
ATOM     16  C   UNL     1       5.735   4.320  -4.442  1.00  0.00     0.001 A 
BRANCH   7  17
ATOM     17  C   UNL     1       2.917  -0.405  -1.044  1.00  0.00     0.248 C 
BRANCH  17  18
ATOM     18  C   UNL     1       2.258  -0.019   0.279  1.00  0.00     0.242 C 
ATOM     19  O   UNL     1       1.222  -0.573   0.650  1.00  0.00    -0.273 OA
ATOM     20  N   UNL     1       2.949   0.861   1.076  1.00  0.00    -0.350 N 
ATOM     21  H   UNL     1       3.903   1.032   0.899  1.00  0.00     0.163 HD
BRANCH  20  22
ATOM     22  C   UNL     1       2.296   1.539   2.169  1.00  0.00     0.151 C 
BRANCH  22  23
ATOM     23  C   UNL     1       2.741   1.046   3.520  1.00  0.00    -0.029 A 
ATOM     24  C   UNL     1       3.358   1.923   4.427  1.00  0.00     0.008 A 
ATOM     25  C   UNL     1       2.482  -0.276   3.917  1.00  0.00     0.008 A 
ATOM     26  C   UNL     1       3.708   1.484   5.704  1.00  0.00     0.039 A 
ATOM     27  C   UNL     1       2.836  -0.713   5.194  1.00  0.00     0.039 A 
ATOM     28  C   UNL     1       3.444   0.172   6.076  1.00  0.00     0.123 A 
ATOM     29  F   UNL     1       3.773  -0.244   7.306  1.00  0.00    -0.207 F 
ENDBRANCH  22  23
ENDBRANCH  20  22
ENDBRANCH  17  18
ENDBRANCH   7  17
ENDBRANCH   3   6
ENDBRANCH   1   2
BRANCH   1  30
ATOM     30  C   UNL     1       4.848  -3.293  -4.508  1.00  0.00     0.023 C 
BRANCH  30  31
ATOM     31  C   UNL     1       5.601  -4.140  -5.532  1.00  0.00     0.023 C 
BRANCH  31  32
ATOM     32  C   UNL     1       6.681  -5.055  -4.966  1.00  0.00     0.116 C 
BRANCH  32  33
ATOM     33  N   UNL     1       6.194  -6.009  -3.978  1.00  0.00    -0.352 N 
ATOM     34  C   UNL     1       6.488  -7.349  -3.858  1.00  0.00     0.251 C 
ATOM     35  H   UNL     1       5.571  -5.647  -3.308  1.00  0.00     0.163 HD
ATOM     36  O   UNL     1       5.937  -8.040  -3.008  1.00  0.00    -0.269 OA
BRANCH  34  37
ATOM     37  C   UNL     1       7.438  -7.960  -4.809  1.00  0.00     0.039 A 
ATOM     38  C   UNL     1       8.673  -7.358  -5.057  1.00  0.00     0.014 A 
ATOM     39  C   UNL     1       7.044  -9.092  -5.527  1.00  0.00     0.014 A 
ATOM     40  C   UNL     1       9.422  -7.766  -6.154  1.00  0.00     0.010 A 
ATOM     41  C   UNL     1       7.842  -9.554  -6.576  1.00  0.00     0.010 A 
ATOM     42  C   UNL     1       9.005  -8.855  -6.938  1.00  0.00    -0.014 A 
BRANCH  42  43
ATOM     43  C   UNL     1       9.777  -9.219  -8.154  1.00  0.00     0.031 A 
ATOM     44  C   UNL     1       9.165  -9.077  -9.523  1.00  0.00     0.074 A 
ATOM     45  C   UNL     1      11.056  -9.619  -8.027  1.00  0.00     0.049 A 
ATOM     46  N   UNL     1       9.687  -9.348 -10.694  1.00  0.00    -0.248 NA
ATOM     47  C   UNL     1       7.788  -8.563  -9.590  1.00  0.00     0.031 C 
ATOM     48  C   UNL     1      11.766  -9.771  -6.757  1.00  0.00     0.029 A 
ATOM     49  N   UNL     1      11.992  -9.946  -8.975  1.00  0.00    -0.354 N 
ATOM     50  C   UNL     1       8.701  -9.060 -11.628  1.00  0.00     0.074 A 
ATOM     51  C   UNL     1       7.538  -8.616 -10.891  1.00  0.00     0.031 C 
ATOM     52  C   UNL     1      13.039 -10.110  -7.005  1.00  0.00     0.029 A 
ATOM     53  C   UNL     1      13.217 -10.264  -8.445  1.00  0.00     0.049 A 
ATOM     54  H   UNL     1      11.803  -9.952  -9.941  1.00  0.00     0.167 HD
ATOM     55  C   UNL     1       8.765  -9.147 -12.979  1.00  0.00     0.037 A 
ATOM     56  C   UNL     1      14.356 -10.653  -9.050  1.00  0.00     0.037 A 
ATOM     57  C   UNL     1       9.932  -9.563 -13.712  1.00  0.00     0.049 A 
ATOM     58  C   UNL     1      14.385 -10.785 -10.545  1.00  0.00     0.074 A 
ATOM     59  C   UNL     1      10.098  -9.670 -15.082  1.00  0.00     0.029 A 
ATOM     60  N   UNL     1      11.137  -9.937 -13.134  1.00  0.00    -0.354 N 
ATOM     61  N   UNL     1      13.441 -10.523 -11.415  1.00  0.00    -0.248 NA
ATOM     62  C   UNL     1      15.633 -11.278 -11.141  1.00  0.00     0.031 C 
ATOM     63  C   UNL     1      11.389 -10.145 -15.332  1.00  0.00     0.029 A 
ATOM     64  C   UNL     1      12.044 -10.291 -14.121  1.00  0.00     0.049 A 
ATOM     65  H   UNL     1      11.320  -9.949 -12.167  1.00  0.00     0.167 HD
ATOM     66  C   UNL     1      13.981 -10.810 -12.660  1.00  0.00     0.074 A 
ATOM     67  C   UNL     1      15.344 -11.245 -12.435  1.00  0.00     0.031 C 
ATOM     68  C   UNL     1      13.396 -10.726 -13.880  1.00  0.00     0.037 A 
BRANCH  55  69
ATOM     69  C   UNL     1       7.535  -8.793 -13.764  1.00  0.00     0.064 A 
ATOM     70  C   UNL     1       7.116  -7.463 -13.914  1.00  0.00     0.173 A 
ATOM     71  C   UNL     1       6.809  -9.790 -14.434  1.00  0.00     0.173 A 
ATOM     72  F   UNL     1       7.769  -6.474 -13.285  1.00  0.00    -0.203 F 
ATOM     73  C   UNL     1       6.007  -7.145 -14.694  1.00  0.00     0.198 A 
ATOM     74  C   UNL     1       5.715  -9.466 -15.233  1.00  0.00     0.198 A 
ATOM     75  F   UNL     1       7.172 -11.077 -14.329  1.00  0.00    -0.203 F 
ATOM     76  F   UNL     1       5.606  -5.871 -14.798  1.00  0.00    -0.200 F 
ATOM     77  C   UNL     1       5.314  -8.145 -15.360  1.00  0.00     0.200 A 
ATOM     78  F   UNL     1       5.055 -10.432 -15.886  1.00  0.00    -0.200 F 
ATOM     79  F   UNL     1       4.256  -7.835 -16.123  1.00  0.00    -0.200 F 
ENDBRANCH  55  69
BRANCH  56  80
ATOM     80  C   UNL     1      15.557 -10.940  -8.226  1.00  0.00     0.064 A 
ATOM     81  C   UNL     1      16.667 -10.086  -8.253  1.00  0.00     0.173 A 
ATOM     82  C   UNL     1      15.603 -12.048  -7.367  1.00  0.00     0.173 A 
ATOM     83  F   UNL     1      16.676  -9.026  -9.074  1.00  0.00    -0.203 F 
ATOM     84  C   UNL     1      17.779 -10.330  -7.451  1.00  0.00     0.198 A 
ATOM     85  C   UNL     1      16.704 -12.275  -6.546  1.00  0.00     0.198 A 
ATOM     86  F   UNL     1      14.563 -12.892  -7.304  1.00  0.00    -0.203 F 
ATOM     87  F   UNL     1      18.839  -9.512  -7.513  1.00  0.00    -0.200 F 
ATOM     88  C   UNL     1      17.793 -11.418  -6.591  1.00  0.00     0.200 A 
ATOM     89  F   UNL     1      16.705 -13.317  -5.704  1.00  0.00    -0.200 F 
ATOM     90  F   UNL     1      18.855 -11.641  -5.806  1.00  0.00    -0.200 F 
ENDBRANCH  56  80
BRANCH  68  91
ATOM     91  C   UNL     1      14.229 -11.102 -15.069  1.00  0.00     0.064 A 
ATOM     92  C   UNL     1      14.536 -12.441 -15.352  1.00  0.00     0.173 A 
ATOM     93  C   UNL     1      14.678 -10.119 -15.964  1.00  0.00     0.173 A 
ATOM     94  F   UNL     1      14.140 -13.414 -14.518  1.00  0.00    -0.203 F 
ATOM     95  C   UNL     1      15.278 -12.780 -16.480  1.00  0.00     0.198 A 
ATOM     96  C   UNL     1      15.397 -10.465 -17.104  1.00  0.00     0.198 A 
ATOM     97  F   UNL     1      14.403  -8.825 -15.740  1.00  0.00    -0.203 F 
ATOM     98  F   UNL     1      15.592 -14.062 -16.712  1.00  0.00    -0.200 F 
ATOM     99  C   UNL     1      15.700 -11.794 -17.359  1.00  0.00     0.200 A 
ATOM    100  F   UNL     1      15.794  -9.512 -17.959  1.00  0.00    -0.200 F 
ATOM    101  F   UNL     1      16.406 -12.124 -18.449  1.00  0.00    -0.200 F 
ENDBRANCH  68  91
ENDBRANCH  42  43
ENDBRANCH  34  37
ENDBRANCH  32  33
ENDBRANCH  31  32
ENDBRANCH  30  31
ENDBRANCH   1  30
TORSDOF 15
