REMARK SMILES C[NH+](C)CCCNC(=O)[C@@H]1[C@@H](C(=O)NCCCCNC(=O)c2ccc(-c3c4nc(c(-c5c(F)c(F)c(F)c(F)c5F)c5ccc([nH]5)c(-c5c(F)c(F)c(F)c(F)c5F)c5nc(c(-c6c(F)c(F)c(F)c(F)c6F)c6ccc3[nH]6)C=C5)C=C4)cc2)C1(C)C
REMARK SMILES IDX 15 1 14 2 12 3 13 4 11 6 10 7 85 8 86 9 87 10 8 11 7 12 9 14
REMARK SMILES IDX 6 15 5 16 4 17 2 18 1 19 3 20 16 22 17 23 18 24 19 25 20 26
REMARK SMILES IDX 21 28 22 29 23 30 84 31 24 32 83 33 25 34 26 35 27 36 77 37
REMARK SMILES IDX 28 38 82 39 76 40 78 41 29 42 81 43 75 44 74 45 30 47 62 48
REMARK SMILES IDX 42 49 61 50 43 51 46 52 60 53 79 54 44 55 45 56 59 58 80 59
REMARK SMILES IDX 47 60 31 61 32 62 40 63 33 64 34 65 38 66 41 67 35 68 36 69
REMARK SMILES IDX 39 70 37 71 63 72 64 73 72 74 65 75 66 76 70 77 73 78 67 79
REMARK SMILES IDX 68 80 71 81 69 82 48 83 49 84 57 85 50 86 51 87 55 88 58 89
REMARK SMILES IDX 52 90 53 91 56 92 54 93
REMARK H PARENT 14 5 7 13 2 21 19 27 78 46 46 57
REMARK Flexibility Score: inf
ROOT
ATOM      1  C   UNL     1       1.411  -1.739   0.403  1.00  0.00     0.116 C 
ENDROOT
BRANCH   1   2
ATOM      2  N   UNL     1       0.517  -2.565   1.182  1.00  0.00    -0.356 N 
ATOM      3  C   UNL     1       0.201  -3.894   1.184  1.00  0.00     0.224 C 
ATOM      4  O   UNL     1      -0.749  -4.219   1.897  1.00  0.00    -0.275 OA
ATOM      5  H   UNL     1       0.025  -2.054   1.865  1.00  0.00     0.163 HD
BRANCH   3   6
ATOM      6  C   UNL     1       0.931  -4.977   0.478  1.00  0.00     0.098 C 
ATOM      7  C   UNL     1       2.314  -4.900  -0.102  1.00  0.00     0.098 C 
ATOM      8  C   UNL     1       1.122  -5.145  -1.026  1.00  0.00    -0.011 C 
ATOM      9  C   UNL     1       0.780  -4.029  -1.988  1.00  0.00     0.013 C 
ATOM     10  C   UNL     1       0.928  -6.516  -1.627  1.00  0.00     0.013 C 
BRANCH   7  11
ATOM     11  C   UNL     1       3.317  -5.907   0.337  1.00  0.00     0.224 C 
ATOM     12  N   UNL     1       4.527  -5.439   0.791  1.00  0.00    -0.356 N 
ATOM     13  H   UNL     1       5.169  -6.123   1.089  1.00  0.00     0.163 HD
ATOM     14  O   UNL     1       3.086  -7.107   0.323  1.00  0.00    -0.275 OA
BRANCH  12  15
ATOM     15  C   UNL     1       4.979  -4.061   0.887  1.00  0.00     0.121 C 
BRANCH  15  16
ATOM     16  C   UNL     1       5.936  -3.807   2.042  1.00  0.00     0.083 C 
BRANCH  16  17
ATOM     17  C   UNL     1       7.292  -4.519   1.989  1.00  0.00     0.263 C 
BRANCH  17  18
ATOM     18  N   UNL     1       8.272  -4.131   0.975  1.00  0.00    -0.340 N 
ATOM     19  C   UNL     1       8.028  -4.660  -0.359  1.00  0.00     0.332 C 
ATOM     20  C   UNL     1       8.575  -2.706   0.949  1.00  0.00     0.332 C 
ATOM     21  H   UNL     1       9.118  -4.600   1.298  1.00  0.00     0.347 HD
ENDBRANCH  17  18
ENDBRANCH  16  17
ENDBRANCH  15  16
ENDBRANCH  12  15
ENDBRANCH   7  11
ENDBRANCH   3   6
ENDBRANCH   1   2
BRANCH   1  22
ATOM     22  C   UNL     1       0.645  -0.738  -0.457  1.00  0.00     0.023 C 
BRANCH  22  23
ATOM     23  C   UNL     1       0.067   0.446   0.308  1.00  0.00     0.023 C 
BRANCH  23  24
ATOM     24  C   UNL     1       1.085   1.249   1.106  1.00  0.00     0.116 C 
BRANCH  24  25
ATOM     25  N   UNL     1       2.216   1.697   0.305  1.00  0.00    -0.352 N 
ATOM     26  C   UNL     1       2.776   2.946   0.204  1.00  0.00     0.251 C 
ATOM     27  H   UNL     1       2.642   1.000  -0.246  1.00  0.00     0.163 HD
ATOM     28  O   UNL     1       3.644   3.163  -0.635  1.00  0.00    -0.269 OA
BRANCH  26  29
ATOM     29  C   UNL     1       2.305   4.034   1.084  1.00  0.00     0.039 A 
ATOM     30  C   UNL     1       2.087   5.296   0.530  1.00  0.00     0.014 A 
ATOM     31  C   UNL     1       2.053   3.808   2.440  1.00  0.00     0.014 A 
ATOM     32  C   UNL     1       1.551   6.310   1.323  1.00  0.00     0.010 A 
ATOM     33  C   UNL     1       1.422   4.787   3.200  1.00  0.00     0.010 A 
ATOM     34  C   UNL     1       1.172   6.052   2.652  1.00  0.00    -0.014 A 
BRANCH  34  35
ATOM     35  C   UNL     1       0.499   7.102   3.457  1.00  0.00     0.031 A 
ATOM     36  C   UNL     1       1.137   7.639   4.707  1.00  0.00     0.074 A 
ATOM     37  C   UNL     1      -0.706   7.559   3.062  1.00  0.00     0.049 A 
ATOM     38  N   UNL     1       0.727   8.601   5.496  1.00  0.00    -0.248 NA
ATOM     39  C   UNL     1       2.385   6.998   5.149  1.00  0.00     0.031 C 
ATOM     40  C   UNL     1      -1.462   7.059   1.912  1.00  0.00     0.029 A 
ATOM     41  N   UNL     1      -1.500   8.553   3.573  1.00  0.00    -0.354 N 
ATOM     42  C   UNL     1       1.663   8.679   6.518  1.00  0.00     0.074 A 
ATOM     43  C   UNL     1       2.623   7.621   6.293  1.00  0.00     0.031 C 
ATOM     44  C   UNL     1      -2.582   7.785   1.772  1.00  0.00     0.029 A 
ATOM     45  C   UNL     1      -2.642   8.774   2.842  1.00  0.00     0.049 A 
ATOM     46  H   UNL     1      -1.274   9.060   4.386  1.00  0.00     0.167 HD
ATOM     47  C   UNL     1       1.735   9.573   7.533  1.00  0.00     0.037 A 
ATOM     48  C   UNL     1      -3.622   9.681   3.010  1.00  0.00     0.037 A 
ATOM     49  C   UNL     1       0.779  10.629   7.746  1.00  0.00     0.049 A 
ATOM     50  C   UNL     1      -3.515  10.665   4.144  1.00  0.00     0.074 A 
ATOM     51  C   UNL     1       0.789  11.622   8.710  1.00  0.00     0.029 A 
ATOM     52  N   UNL     1      -0.367  10.822   6.988  1.00  0.00    -0.354 N 
ATOM     53  N   UNL     1      -2.573  10.791   5.048  1.00  0.00    -0.248 NA
ATOM     54  C   UNL     1      -4.603  11.643   4.269  1.00  0.00     0.031 C 
ATOM     55  C   UNL     1      -0.381  12.377   8.574  1.00  0.00     0.029 A 
ATOM     56  C   UNL     1      -1.087  11.900   7.481  1.00  0.00     0.049 A 
ATOM     57  H   UNL     1      -0.630  10.275   6.213  1.00  0.00     0.167 HD
ATOM     58  C   UNL     1      -2.942  11.874   5.834  1.00  0.00     0.074 A 
ATOM     59  C   UNL     1      -4.176  12.389   5.277  1.00  0.00     0.031 C 
ATOM     60  C   UNL     1      -2.321  12.393   6.923  1.00  0.00     0.037 A 
BRANCH  47  61
ATOM     61  C   UNL     1       2.888   9.448   8.490  1.00  0.00     0.064 A 
ATOM     62  C   UNL     1       4.210   9.704   8.091  1.00  0.00     0.173 A 
ATOM     63  C   UNL     1       2.667   9.102   9.832  1.00  0.00     0.173 A 
ATOM     64  F   UNL     1       4.481  10.026   6.817  1.00  0.00    -0.203 F 
ATOM     65  C   UNL     1       5.267   9.588   8.990  1.00  0.00     0.198 A 
ATOM     66  C   UNL     1       3.723   9.021  10.736  1.00  0.00     0.198 A 
ATOM     67  F   UNL     1       1.425   8.849  10.270  1.00  0.00    -0.203 F 
ATOM     68  F   UNL     1       6.525   9.782   8.570  1.00  0.00    -0.200 F 
ATOM     69  C   UNL     1       5.023   9.255  10.313  1.00  0.00     0.200 A 
ATOM     70  F   UNL     1       3.483   8.714  12.018  1.00  0.00    -0.200 F 
ATOM     71  F   UNL     1       6.040   9.153  11.179  1.00  0.00    -0.200 F 
ENDBRANCH  47  61
BRANCH  48  72
ATOM     72  C   UNL     1      -4.769   9.725   2.065  1.00  0.00     0.064 A 
ATOM     73  C   UNL     1      -4.958  10.816   1.204  1.00  0.00     0.173 A 
ATOM     74  C   UNL     1      -5.707   8.683   2.009  1.00  0.00     0.173 A 
ATOM     75  F   UNL     1      -4.099  11.846   1.230  1.00  0.00    -0.203 F 
ATOM     76  C   UNL     1      -6.054  10.876   0.346  1.00  0.00     0.198 A 
ATOM     77  C   UNL     1      -6.783   8.728   1.125  1.00  0.00     0.198 A 
ATOM     78  F   UNL     1      -5.569   7.612   2.804  1.00  0.00    -0.203 F 
ATOM     79  F   UNL     1      -6.240  11.957  -0.424  1.00  0.00    -0.200 F 
ATOM     80  C   UNL     1      -6.963   9.830   0.303  1.00  0.00     0.200 A 
ATOM     81  F   UNL     1      -7.647   7.705   1.073  1.00  0.00    -0.200 F 
ATOM     82  F   UNL     1      -8.015   9.886  -0.525  1.00  0.00    -0.200 F 
ENDBRANCH  48  72
BRANCH  60  83
ATOM     83  C   UNL     1      -2.961  13.594   7.563  1.00  0.00     0.064 A 
ATOM     84  C   UNL     1      -4.199  13.510   8.220  1.00  0.00     0.173 A 
ATOM     85  C   UNL     1      -2.332  14.847   7.512  1.00  0.00     0.173 A 
ATOM     86  F   UNL     1      -4.850  12.338   8.287  1.00  0.00    -0.203 F 
ATOM     87  C   UNL     1      -4.807  14.644   8.752  1.00  0.00     0.198 A 
ATOM     88  C   UNL     1      -2.923  15.971   8.082  1.00  0.00     0.198 A 
ATOM     89  F   UNL     1      -1.142  14.984   6.908  1.00  0.00    -0.203 F 
ATOM     90  F   UNL     1      -6.026  14.552   9.302  1.00  0.00    -0.200 F 
ATOM     91  C   UNL     1      -4.167  15.872   8.687  1.00  0.00     0.200 A 
ATOM     92  F   UNL     1      -2.294  17.154   8.035  1.00  0.00    -0.200 F 
ATOM     93  F   UNL     1      -4.756  16.963   9.195  1.00  0.00    -0.200 F 
ENDBRANCH  60  83
ENDBRANCH  34  35
ENDBRANCH  26  29
ENDBRANCH  24  25
ENDBRANCH  23  24
ENDBRANCH  22  23
ENDBRANCH   1  22
TORSDOF 16
