REMARK SMILES CC(C)(C)C(=O)N1CCCC[C@@H]1C(=O)NCCCCNC(=O)c1ccc(-c2c3nc(c(-c4c(F)c(F)c(F)c(F)c4F)c4ccc([nH]4)c(-c4c(F)c(F)c(F)c(F)c4F)c4nc(c(-c5c(F)c(F)c(F)c(F)c5F)c5ccc2[nH]5)C=C4)C=C3)cc1
REMARK SMILES IDX 17 1 16 2 15 3 13 4 14 5 12 7 7 8 8 9 9 10 11 11 10 12 5 13
REMARK SMILES IDX 6 14 2 15 1 16 3 17 4 18 18 19 19 20 20 21 21 22 22 24 23 25
REMARK SMILES IDX 24 26 85 27 25 28 84 29 26 30 27 31 28 32 78 33 29 34 83 35
REMARK SMILES IDX 77 36 79 37 30 38 82 39 76 40 75 41 31 43 63 44 43 45 62 46
REMARK SMILES IDX 44 47 47 48 61 49 80 50 45 51 46 52 60 54 81 55 48 56 32 57
REMARK SMILES IDX 33 58 41 59 34 60 35 61 39 62 42 63 36 64 37 65 40 66 38 67
REMARK SMILES IDX 64 68 65 69 73 70 66 71 67 72 71 73 74 74 68 75 69 76 72 77
REMARK SMILES IDX 70 78 49 79 50 80 58 81 51 82 52 83 56 84 59 85 53 86 54 87
REMARK SMILES IDX 57 88 55 89
REMARK H PARENT 15 6 20 23 79 42 47 53
REMARK Flexibility Score: inf
ROOT
ATOM      1  C   UNL     1      -2.445   4.677   0.937  1.00  0.00     0.023 C 
ENDROOT
BRANCH   1   2
ATOM      2  C   UNL     1      -1.559   3.758   0.107  1.00  0.00     0.116 C 
BRANCH   2   3
ATOM      3  N   UNL     1      -2.350   3.034  -0.872  1.00  0.00    -0.354 N 
ATOM      4  C   UNL     1      -2.107   2.810  -2.193  1.00  0.00     0.242 C 
ATOM      5  O   UNL     1      -3.014   2.302  -2.859  1.00  0.00    -0.273 OA
ATOM      6  H   UNL     1      -3.189   2.648  -0.530  1.00  0.00     0.163 HD
BRANCH   4   7
ATOM      7  C   UNL     1      -0.830   3.329  -2.874  1.00  0.00     0.174 C 
ATOM      8  N   UNL     1       0.461   3.159  -2.163  1.00  0.00    -0.330 N 
ATOM      9  C   UNL     1       1.553   4.003  -2.653  1.00  0.00     0.120 C 
ATOM     10  C   UNL     1       1.203   5.476  -2.592  1.00  0.00     0.022 C 
ATOM     11  C   UNL     1      -1.169   4.841  -3.098  1.00  0.00     0.035 C 
ATOM     12  C   UNL     1      -0.003   5.744  -3.474  1.00  0.00     0.004 C 
BRANCH   8  13
ATOM     13  C   UNL     1       0.844   2.199  -1.239  1.00  0.00     0.228 C 
ATOM     14  O   UNL     1       1.579   2.580  -0.314  1.00  0.00    -0.274 OA
BRANCH  13  15
ATOM     15  C   UNL     1       0.540   0.675  -1.371  1.00  0.00     0.041 C 
ATOM     16  C   UNL     1       1.260  -0.032  -0.189  1.00  0.00     0.021 C 
ATOM     17  C   UNL     1       1.148   0.153  -2.679  1.00  0.00     0.021 C 
ATOM     18  C   UNL     1      -0.916   0.227  -1.283  1.00  0.00     0.021 C 
ENDBRANCH  13  15
ENDBRANCH   8  13
ENDBRANCH   4   7
ENDBRANCH   2   3
ENDBRANCH   1   2
BRANCH   1  19
ATOM     19  C   UNL     1      -3.411   3.931   1.855  1.00  0.00     0.023 C 
BRANCH  19  20
ATOM     20  C   UNL     1      -2.732   3.008   2.858  1.00  0.00     0.116 C 
BRANCH  20  21
ATOM     21  N   UNL     1      -1.859   3.734   3.767  1.00  0.00    -0.352 N 
ATOM     22  C   UNL     1      -1.875   3.752   5.140  1.00  0.00     0.251 C 
ATOM     23  H   UNL     1      -1.164   4.287   3.341  1.00  0.00     0.163 HD
ATOM     24  O   UNL     1      -1.221   4.575   5.765  1.00  0.00    -0.269 OA
BRANCH  22  25
ATOM     25  C   UNL     1      -2.709   2.767   5.857  1.00  0.00     0.039 A 
ATOM     26  C   UNL     1      -3.509   3.196   6.917  1.00  0.00     0.014 A 
ATOM     27  C   UNL     1      -2.707   1.424   5.467  1.00  0.00     0.014 A 
ATOM     28  C   UNL     1      -4.343   2.281   7.560  1.00  0.00     0.010 A 
ATOM     29  C   UNL     1      -3.605   0.537   6.046  1.00  0.00     0.010 A 
ATOM     30  C   UNL     1      -4.415   0.950   7.114  1.00  0.00    -0.014 A 
BRANCH  30  31
ATOM     31  C   UNL     1      -5.295  -0.039   7.784  1.00  0.00     0.031 A 
ATOM     32  C   UNL     1      -4.688  -1.234   8.467  1.00  0.00     0.074 A 
ATOM     33  C   UNL     1      -6.633   0.110   7.739  1.00  0.00     0.049 A 
ATOM     34  N   UNL     1      -5.279  -2.240   9.062  1.00  0.00    -0.248 NA
ATOM     35  C   UNL     1      -3.219  -1.329   8.451  1.00  0.00     0.031 C 
ATOM     36  C   UNL     1      -7.341   1.202   7.071  1.00  0.00     0.029 A 
ATOM     37  N   UNL     1      -7.636  -0.665   8.264  1.00  0.00    -0.354 N 
ATOM     38  C   UNL     1      -4.257  -3.085   9.475  1.00  0.00     0.074 A 
ATOM     39  C   UNL     1      -3.016  -2.515   9.002  1.00  0.00     0.031 C 
ATOM     40  C   UNL     1      -8.662   1.044   7.252  1.00  0.00     0.029 A 
ATOM     41  C   UNL     1      -8.896  -0.179   8.014  1.00  0.00     0.049 A 
ATOM     42  H   UNL     1      -7.468  -1.492   8.772  1.00  0.00     0.167 HD
ATOM     43  C   UNL     1      -4.343  -4.220  10.210  1.00  0.00     0.037 A 
ATOM     44  C   UNL     1     -10.101  -0.670   8.359  1.00  0.00     0.037 A 
ATOM     45  C   UNL     1      -5.580  -4.772  10.696  1.00  0.00     0.049 A 
ATOM     46  C   UNL     1     -10.170  -1.940   9.166  1.00  0.00     0.074 A 
ATOM     47  C   UNL     1      -5.775  -5.893  11.482  1.00  0.00     0.029 A 
ATOM     48  N   UNL     1      -6.835  -4.241  10.436  1.00  0.00    -0.354 N 
ATOM     49  N   UNL     1      -9.195  -2.699   9.605  1.00  0.00    -0.248 NA
ATOM     50  C   UNL     1     -11.511  -2.412   9.537  1.00  0.00     0.031 C 
ATOM     51  C   UNL     1      -7.151  -6.071  11.655  1.00  0.00     0.029 A 
ATOM     52  C   UNL     1      -7.811  -5.022  11.034  1.00  0.00     0.049 A 
ATOM     53  H   UNL     1      -7.007  -3.430   9.906  1.00  0.00     0.167 HD
ATOM     54  C   UNL     1      -9.800  -3.711  10.339  1.00  0.00     0.074 A 
ATOM     55  C   UNL     1     -11.225  -3.463  10.293  1.00  0.00     0.031 C 
ATOM     56  C   UNL     1      -9.226  -4.750  10.996  1.00  0.00     0.037 A 
BRANCH  43  57
ATOM     57  C   UNL     1      -3.061  -4.934  10.533  1.00  0.00     0.064 A 
ATOM     58  C   UNL     1      -2.098  -4.374  11.389  1.00  0.00     0.173 A 
ATOM     59  C   UNL     1      -2.797  -6.203   9.995  1.00  0.00     0.173 A 
ATOM     60  F   UNL     1      -2.293  -3.158  11.921  1.00  0.00    -0.203 F 
ATOM     61  C   UNL     1      -0.907  -5.040  11.664  1.00  0.00     0.198 A 
ATOM     62  C   UNL     1      -1.621  -6.883  10.302  1.00  0.00     0.198 A 
ATOM     63  F   UNL     1      -3.682  -6.788   9.175  1.00  0.00    -0.203 F 
ATOM     64  F   UNL     1       0.022  -4.457  12.434  1.00  0.00    -0.200 F 
ATOM     65  C   UNL     1      -0.672  -6.297  11.127  1.00  0.00     0.200 A 
ATOM     66  F   UNL     1      -1.403  -8.104   9.795  1.00  0.00    -0.200 F 
ATOM     67  F   UNL     1       0.472  -6.940  11.397  1.00  0.00    -0.200 F 
ENDBRANCH  43  57
BRANCH  44  68
ATOM     68  C   UNL     1     -11.340   0.058   7.977  1.00  0.00     0.064 A 
ATOM     69  C   UNL     1     -12.145   0.669   8.950  1.00  0.00     0.173 A 
ATOM     70  C   UNL     1     -11.755   0.146   6.640  1.00  0.00     0.173 A 
ATOM     71  F   UNL     1     -11.802   0.597  10.244  1.00  0.00    -0.203 F 
ATOM     72  C   UNL     1     -13.331   1.314   8.603  1.00  0.00     0.198 A 
ATOM     73  C   UNL     1     -12.924   0.820   6.292  1.00  0.00     0.198 A 
ATOM     74  F   UNL     1     -11.018  -0.414   5.670  1.00  0.00    -0.203 F 
ATOM     75  F   UNL     1     -14.108   1.840   9.559  1.00  0.00    -0.200 F 
ATOM     76  C   UNL     1     -13.716   1.393   7.274  1.00  0.00     0.200 A 
ATOM     77  F   UNL     1     -13.284   0.908   5.004  1.00  0.00    -0.200 F 
ATOM     78  F   UNL     1     -14.856   2.014   6.941  1.00  0.00    -0.200 F 
ENDBRANCH  44  68
BRANCH  56  79
ATOM     79  C   UNL     1     -10.133  -5.657  11.778  1.00  0.00     0.064 A 
ATOM     80  C   UNL     1     -11.039  -6.526  11.152  1.00  0.00     0.173 A 
ATOM     81  C   UNL     1     -10.071  -5.675  13.181  1.00  0.00     0.173 A 
ATOM     82  F   UNL     1     -11.147  -6.541   9.815  1.00  0.00    -0.203 F 
ATOM     83  C   UNL     1     -11.875  -7.350  11.902  1.00  0.00     0.198 A 
ATOM     84  C   UNL     1     -10.881  -6.527  13.925  1.00  0.00     0.198 A 
ATOM     85  F   UNL     1      -9.215  -4.871  13.830  1.00  0.00    -0.203 F 
ATOM     86  F   UNL     1     -12.776  -8.126  11.284  1.00  0.00    -0.200 F 
ATOM     87  C   UNL     1     -11.790  -7.355  13.286  1.00  0.00     0.200 A 
ATOM     88  F   UNL     1     -10.784  -6.543  15.262  1.00  0.00    -0.200 F 
ATOM     89  F   UNL     1     -12.592  -8.153  14.005  1.00  0.00    -0.200 F 
ENDBRANCH  56  79
ENDBRANCH  30  31
ENDBRANCH  22  25
ENDBRANCH  20  21
ENDBRANCH  19  20
ENDBRANCH   1  19
TORSDOF 13
