REMARK SMILES CSc1cccc(NC(=O)C[C@H]2Sc3cc(C(=O)NCCCCNC(=O)c4ccc(-c5c6nc(c(-c7c(F)c(F)c(F)c(F)c7F)c7ccc([nH]7)c(-c7c(F)c(F)c(F)c(F)c7F)c7nc(c(-c8c(F)c(F)c(F)c(F)c8F)c8ccc5[nH]8)C=C7)C=C6)cc4)ccc3N=C2O)c1
REMARK SMILES IDX 20 1 19 2 17 3 18 4 16 6 12 7 13 8 94 9 14 10 93 11 15 12
REMARK SMILES IDX 92 13 91 14 90 15 11 16 9 17 8 18 10 20 7 21 3 22 4 23 96 24
REMARK SMILES IDX 5 25 6 26 2 27 1 28 95 29 21 31 22 32 23 33 24 34 25 35
REMARK SMILES IDX 26 37 27 38 28 39 89 40 29 41 88 42 30 43 31 44 32 45 82 46
REMARK SMILES IDX 33 47 87 48 81 49 83 50 34 51 86 52 80 53 79 54 35 56 67 57
REMARK SMILES IDX 47 58 66 59 48 60 51 61 65 62 84 63 49 64 50 65 64 67 85 68
REMARK SMILES IDX 52 69 36 70 37 71 45 72 38 73 39 74 43 75 46 76 40 77 41 78
REMARK SMILES IDX 44 79 42 80 68 81 69 82 77 83 70 84 71 85 75 86 78 87 72 88
REMARK SMILES IDX 73 89 76 90 74 91 53 92 54 93 62 94 55 95 56 96 60 97 63 98
REMARK SMILES IDX 57 99 58 100 61 101 59 102
REMARK H PARENT 19 5 8 19 95 30 24 36 83 55 51 66
REMARK Flexibility Score: inf
ROOT
ATOM      1  C   UNL     1       5.396  11.734  -0.540  1.00  0.00     0.116 C 
ENDROOT
BRANCH   1   2
ATOM      2  N   UNL     1       5.314  10.982   0.701  1.00  0.00    -0.352 N 
ATOM      3  C   UNL     1       5.437   9.630   0.923  1.00  0.00     0.251 C 
ATOM      4  O   UNL     1       5.330   9.186   2.062  1.00  0.00    -0.269 OA
ATOM      5  H   UNL     1       5.144  11.522   1.506  1.00  0.00     0.163 HD
BRANCH   3   6
ATOM      6  C   UNL     1       5.580   8.695  -0.215  1.00  0.00     0.041 A 
ATOM      7  C   UNL     1       2.650   6.753  -3.320  1.00  0.00     0.147 C 
ATOM      8  S   UNL     1       3.046   5.964  -1.705  1.00  0.00    -0.110 SA
ATOM      9  C   UNL     1       3.868   6.467  -4.191  1.00  0.00     0.200 C 
ATOM     10  C   UNL     1       4.516   6.953  -1.474  1.00  0.00     0.035 A 
ATOM     11  N   UNL     1       5.105   6.689  -3.873  1.00  0.00    -0.216 NA
ATOM     12  C   UNL     1       4.653   7.656  -0.282  1.00  0.00     0.031 A 
ATOM     13  C   UNL     1       5.344   7.232  -2.587  1.00  0.00     0.080 A 
ATOM     14  C   UNL     1       6.372   8.164  -2.441  1.00  0.00     0.030 A 
ATOM     15  C   UNL     1       6.492   8.899  -1.257  1.00  0.00     0.016 A 
BRANCH   7  16
ATOM     16  C   UNL     1       1.284   6.478  -3.943  1.00  0.00     0.125 C 
BRANCH  16  17
ATOM     17  C   UNL     1       0.224   6.035  -2.974  1.00  0.00     0.226 C 
ATOM     18  N   UNL     1       0.017   4.734  -2.632  1.00  0.00    -0.326 N 
ATOM     19  H   UNL     1      -0.743   4.621  -2.017  1.00  0.00     0.169 HD
ATOM     20  O   UNL     1      -0.494   6.888  -2.437  1.00  0.00    -0.275 OA
BRANCH  18  21
ATOM     21  C   UNL     1       0.637   3.510  -2.953  1.00  0.00     0.042 A 
ATOM     22  C   UNL     1       0.743   1.119  -2.463  1.00  0.00     0.009 A 
ATOM     23  C   UNL     1       1.790   0.972  -3.371  1.00  0.00     0.015 A 
ATOM     24  C   UNL     1       0.170   2.381  -2.262  1.00  0.00     0.041 A 
ATOM     25  C   UNL     1       2.252   2.078  -4.072  1.00  0.00     0.003 A 
ATOM     26  C   UNL     1       1.674   3.334  -3.867  1.00  0.00     0.026 A 
BRANCH  22  27
ATOM     27  S   UNL     1       0.129  -0.309  -1.592  1.00  0.00    -0.130 SA
ATOM     28  C   UNL     1       0.950  -0.040  -0.001  1.00  0.00     0.091 C 
ENDBRANCH  22  27
ENDBRANCH  18  21
ENDBRANCH  16  17
ENDBRANCH   7  16
BRANCH   9  29
ATOM     29  O   UNL     1       3.642   5.952  -5.404  1.00  0.00    -0.496 OA
ATOM     30  H   UNL     1       2.764   5.774  -5.681  1.00  0.00     0.295 HD
ENDBRANCH   9  29
ENDBRANCH   3   6
ENDBRANCH   1   2
BRANCH   1  31
ATOM     31  C   UNL     1       4.330  12.816  -0.688  1.00  0.00     0.023 C 
BRANCH  31  32
ATOM     32  C   UNL     1       4.303  13.890   0.395  1.00  0.00     0.023 C 
BRANCH  32  33
ATOM     33  C   UNL     1       5.639  14.551   0.709  1.00  0.00     0.116 C 
BRANCH  33  34
ATOM     34  N   UNL     1       6.248  15.203  -0.440  1.00  0.00    -0.352 N 
ATOM     35  C   UNL     1       6.738  16.483  -0.572  1.00  0.00     0.251 C 
ATOM     36  H   UNL     1       6.322  14.643  -1.247  1.00  0.00     0.163 HD
ATOM     37  O   UNL     1       7.120  16.880  -1.664  1.00  0.00    -0.269 OA
BRANCH  35  38
ATOM     38  C   UNL     1       6.769  17.393   0.596  1.00  0.00     0.039 A 
ATOM     39  C   UNL     1       6.367  18.721   0.423  1.00  0.00     0.014 A 
ATOM     40  C   UNL     1       7.187  16.950   1.853  1.00  0.00     0.014 A 
ATOM     41  C   UNL     1       6.316  19.580   1.524  1.00  0.00     0.010 A 
ATOM     42  C   UNL     1       7.045  17.778   2.963  1.00  0.00     0.010 A 
ATOM     43  C   UNL     1       6.615  19.105   2.811  1.00  0.00    -0.014 A 
BRANCH  43  44
ATOM     44  C   UNL     1       6.496  19.984   4.004  1.00  0.00     0.031 A 
ATOM     45  C   UNL     1       7.709  20.298   4.837  1.00  0.00     0.074 A 
ATOM     46  C   UNL     1       5.288  20.456   4.370  1.00  0.00     0.049 A 
ATOM     47  N   UNL     1       7.801  21.005   5.936  1.00  0.00    -0.248 NA
ATOM     48  C   UNL     1       8.986  19.717   4.394  1.00  0.00     0.031 C 
ATOM     49  C   UNL     1       4.028  20.180   3.679  1.00  0.00     0.029 A 
ATOM     50  N   UNL     1       4.920  21.261   5.420  1.00  0.00    -0.354 N 
ATOM     51  C   UNL     1       9.135  20.941   6.318  1.00  0.00     0.074 A 
ATOM     52  C   UNL     1       9.803  20.074   5.373  1.00  0.00     0.031 C 
ATOM     53  C   UNL     1       3.032  20.830   4.303  1.00  0.00     0.029 A 
ATOM     54  C   UNL     1       3.574  21.534   5.461  1.00  0.00     0.049 A 
ATOM     55  H   UNL     1       5.560  21.611   6.080  1.00  0.00     0.167 HD
ATOM     56  C   UNL     1       9.753  21.570   7.346  1.00  0.00     0.037 A 
ATOM     57  C   UNL     1       2.857  22.264   6.336  1.00  0.00     0.037 A 
ATOM     58  C   UNL     1       9.088  22.448   8.272  1.00  0.00     0.049 A 
ATOM     59  C   UNL     1       3.566  22.946   7.476  1.00  0.00     0.074 A 
ATOM     60  C   UNL     1       9.634  23.177   9.314  1.00  0.00     0.029 A 
ATOM     61  N   UNL     1       7.726  22.712   8.271  1.00  0.00    -0.354 N 
ATOM     62  N   UNL     1       4.841  22.939   7.782  1.00  0.00    -0.248 NA
ATOM     63  C   UNL     1       2.737  23.747   8.387  1.00  0.00     0.031 C 
ATOM     64  C   UNL     1       8.595  23.837   9.978  1.00  0.00     0.029 A 
ATOM     65  C   UNL     1       7.410  23.574   9.309  1.00  0.00     0.049 A 
ATOM     66  H   UNL     1       7.079  22.341   7.628  1.00  0.00     0.167 HD
ATOM     67  C   UNL     1       4.973  23.760   8.894  1.00  0.00     0.074 A 
ATOM     68  C   UNL     1       3.649  24.259   9.201  1.00  0.00     0.031 C 
ATOM     69  C   UNL     1       6.090  24.074   9.595  1.00  0.00     0.037 A 
BRANCH  56  70
ATOM     70  C   UNL     1      11.227  21.332   7.522  1.00  0.00     0.064 A 
ATOM     71  C   UNL     1      12.167  21.809   6.595  1.00  0.00     0.173 A 
ATOM     72  C   UNL     1      11.709  20.651   8.650  1.00  0.00     0.173 A 
ATOM     73  F   UNL     1      11.761  22.458   5.493  1.00  0.00    -0.203 F 
ATOM     74  C   UNL     1      13.530  21.582   6.773  1.00  0.00     0.198 A 
ATOM     75  C   UNL     1      13.075  20.458   8.843  1.00  0.00     0.198 A 
ATOM     76  F   UNL     1      10.856  20.179   9.572  1.00  0.00    -0.203 F 
ATOM     77  F   UNL     1      14.403  21.998   5.845  1.00  0.00    -0.200 F 
ATOM     78  C   UNL     1      13.983  20.915   7.900  1.00  0.00     0.200 A 
ATOM     79  F   UNL     1      13.512  19.826   9.941  1.00  0.00    -0.200 F 
ATOM     80  F   UNL     1      15.295  20.705   8.075  1.00  0.00    -0.200 F 
ENDBRANCH  56  70
BRANCH  57  81
ATOM     81  C   UNL     1       1.388  22.414   6.155  1.00  0.00     0.064 A 
ATOM     82  C   UNL     1       0.826  23.653   5.814  1.00  0.00     0.173 A 
ATOM     83  C   UNL     1       0.515  21.330   6.329  1.00  0.00     0.173 A 
ATOM     84  F   UNL     1       1.615  24.726   5.657  1.00  0.00    -0.203 F 
ATOM     85  C   UNL     1      -0.553  23.808   5.680  1.00  0.00     0.198 A 
ATOM     86  C   UNL     1      -0.860  21.478   6.162  1.00  0.00     0.198 A 
ATOM     87  F   UNL     1       1.000  20.122   6.649  1.00  0.00    -0.203 F 
ATOM     88  F   UNL     1      -1.066  25.015   5.407  1.00  0.00    -0.200 F 
ATOM     89  C   UNL     1      -1.394  22.719   5.848  1.00  0.00     0.200 A 
ATOM     90  F   UNL     1      -1.669  20.419   6.308  1.00  0.00    -0.200 F 
ATOM     91  F   UNL     1      -2.719  22.866   5.716  1.00  0.00    -0.200 F 
ENDBRANCH  57  81
BRANCH  69  92
ATOM     92  C   UNL     1       5.942  25.044  10.733  1.00  0.00     0.064 A 
ATOM     93  C   UNL     1       5.278  24.701  11.921  1.00  0.00     0.173 A 
ATOM     94  C   UNL     1       6.510  26.325  10.646  1.00  0.00     0.173 A 
ATOM     95  F   UNL     1       4.706  23.495  12.050  1.00  0.00    -0.203 F 
ATOM     96  C   UNL     1       5.162  25.615  12.965  1.00  0.00     0.198 A 
ATOM     97  C   UNL     1       6.424  27.223  11.706  1.00  0.00     0.198 A 
ATOM     98  F   UNL     1       7.164  26.702   9.537  1.00  0.00    -0.203 F 
ATOM     99  F   UNL     1       4.477  25.285  14.068  1.00  0.00    -0.200 F 
ATOM    100  C   UNL     1       5.742  26.871  12.861  1.00  0.00     0.200 A 
ATOM    101  F   UNL     1       7.000  28.429  11.610  1.00  0.00    -0.200 F 
ATOM    102  F   UNL     1       5.637  27.745  13.871  1.00  0.00    -0.200 F 
ENDBRANCH  69  92
ENDBRANCH  43  44
ENDBRANCH  35  38
ENDBRANCH  33  34
ENDBRANCH  32  33
ENDBRANCH  31  32
ENDBRANCH   1  31
TORSDOF 16
