REMARK SMILES O=C(NCCCCNC(=O)[C@H]1C[NH2+]C[C@H]1c1ccc(C2CC2)cc1)c1ccc(-c2c3nc(c(-c4c(F)c(F)c(F)c(F)c4F)c4ccc([nH]4)c(-c4c(F)c(F)c(F)c(F)c4F)c4nc(c(-c5c(F)c(F)c(F)c(F)c5F)c5ccc2[nH]5)C=C4)C=C3)cc1
REMARK SMILES IDX 5 1 4 2 3 3 1 4 2 5 25 7 26 8 87 9 27 10 86 11 28 12 29 13
REMARK SMILES IDX 30 14 80 15 31 16 85 17 79 18 81 19 32 20 84 21 78 22 77 23
REMARK SMILES IDX 33 25 65 26 45 27 64 28 46 29 49 30 63 31 82 32 47 33 48 34
REMARK SMILES IDX 62 36 83 37 50 38 34 39 35 40 43 41 36 42 37 43 41 44 44 45
REMARK SMILES IDX 38 46 39 47 42 48 40 49 66 50 67 51 75 52 68 53 69 54 73 55
REMARK SMILES IDX 76 56 70 57 71 58 74 59 72 60 51 61 52 62 60 63 53 64 54 65
REMARK SMILES IDX 58 66 61 67 55 68 56 69 59 70 57 71 6 72 7 73 8 74 9 75
REMARK SMILES IDX 10 77 11 78 12 79 15 80 13 81 14 82 16 85 17 86 24 87 18 88
REMARK SMILES IDX 23 89 19 90 20 91 21 92 22 93
REMARK H PARENT 3 6 81 24 49 35 8 76 13 83 13 84
REMARK Flexibility Score: inf
ROOT
ATOM      1  C   UNL     1      11.044   2.551   6.702  1.00  0.00     0.023 C 
ENDROOT
BRANCH   1   2
ATOM      2  C   UNL     1      11.203   1.042   6.677  1.00  0.00     0.116 C 
BRANCH   2   3
ATOM      3  N   UNL     1      11.966   0.584   5.525  1.00  0.00    -0.352 N 
ATOM      4  O   UNL     1      13.736  -0.325   4.454  1.00  0.00    -0.269 OA
ATOM      5  C   UNL     1      13.114  -0.168   5.500  1.00  0.00     0.251 C 
ATOM      6  H   UNL     1      11.611   0.849   4.646  1.00  0.00     0.163 HD
BRANCH   5   7
ATOM      7  C   UNL     1      13.601  -0.778   6.753  1.00  0.00     0.039 A 
ATOM      8  C   UNL     1      12.708  -1.422   7.613  1.00  0.00     0.014 A 
ATOM      9  C   UNL     1      14.960  -0.704   7.069  1.00  0.00     0.014 A 
ATOM     10  C   UNL     1      13.146  -1.879   8.846  1.00  0.00     0.010 A 
ATOM     11  C   UNL     1      15.418  -1.254   8.268  1.00  0.00     0.010 A 
ATOM     12  C   UNL     1      14.511  -1.837   9.167  1.00  0.00    -0.014 A 
BRANCH  12  13
ATOM     13  C   UNL     1      14.982  -2.539  10.382  1.00  0.00     0.031 A 
ATOM     14  C   UNL     1      15.604  -1.798  11.526  1.00  0.00     0.074 A 
ATOM     15  C   UNL     1      14.843  -3.879  10.421  1.00  0.00     0.049 A 
ATOM     16  N   UNL     1      16.104  -2.277  12.637  1.00  0.00    -0.248 NA
ATOM     17  C   UNL     1      15.685  -0.333  11.414  1.00  0.00     0.031 C 
ATOM     18  C   UNL     1      14.267  -4.695   9.347  1.00  0.00     0.029 A 
ATOM     19  N   UNL     1      15.168  -4.792  11.389  1.00  0.00    -0.354 N 
ATOM     20  C   UNL     1      16.582  -1.182  13.343  1.00  0.00     0.074 A 
ATOM     21  C   UNL     1      16.319  -0.010  12.535  1.00  0.00     0.031 C 
ATOM     22  C   UNL     1      14.258  -5.980   9.723  1.00  0.00     0.029 A 
ATOM     23  C   UNL     1      14.894  -6.089  11.029  1.00  0.00     0.049 A 
ATOM     24  H   UNL     1      15.561  -4.543  12.257  1.00  0.00     0.167 HD
ATOM     25  C   UNL     1      17.183  -1.170  14.556  1.00  0.00     0.037 A 
ATOM     26  C   UNL     1      15.164  -7.245  11.660  1.00  0.00     0.037 A 
ATOM     27  C   UNL     1      17.407  -2.345  15.359  1.00  0.00     0.049 A 
ATOM     28  C   UNL     1      15.858  -7.194  12.989  1.00  0.00     0.074 A 
ATOM     29  C   UNL     1      17.919  -2.427  16.642  1.00  0.00     0.029 A 
ATOM     30  N   UNL     1      17.142  -3.645  14.951  1.00  0.00    -0.354 N 
ATOM     31  N   UNL     1      16.243  -6.147  13.677  1.00  0.00    -0.248 NA
ATOM     32  C   UNL     1      16.169  -8.480  13.622  1.00  0.00     0.031 C 
ATOM     33  C   UNL     1      18.020  -3.778  16.987  1.00  0.00     0.029 A 
ATOM     34  C   UNL     1      17.526  -4.537  15.939  1.00  0.00     0.049 A 
ATOM     35  H   UNL     1      16.741  -3.895  14.088  1.00  0.00     0.167 HD
ATOM     36  C   UNL     1      16.839  -6.646  14.824  1.00  0.00     0.074 A 
ATOM     37  C   UNL     1      16.737  -8.089  14.754  1.00  0.00     0.031 C 
ATOM     38  C   UNL     1      17.427  -5.970  15.840  1.00  0.00     0.037 A 
BRANCH  25  39
ATOM     39  C   UNL     1      17.668   0.141  15.099  1.00  0.00     0.064 A 
ATOM     40  C   UNL     1      16.786   1.098  15.620  1.00  0.00     0.173 A 
ATOM     41  C   UNL     1      19.045   0.396  15.194  1.00  0.00     0.173 A 
ATOM     42  F   UNL     1      15.460   0.904  15.549  1.00  0.00    -0.203 F 
ATOM     43  C   UNL     1      17.265   2.264  16.213  1.00  0.00     0.198 A 
ATOM     44  C   UNL     1      19.521   1.553  15.806  1.00  0.00     0.198 A 
ATOM     45  F   UNL     1      19.931  -0.491  14.716  1.00  0.00    -0.203 F 
ATOM     46  F   UNL     1      16.404   3.173  16.691  1.00  0.00    -0.200 F 
ATOM     47  C   UNL     1      18.631   2.486  16.315  1.00  0.00     0.200 A 
ATOM     48  F   UNL     1      20.841   1.758  15.915  1.00  0.00    -0.200 F 
ATOM     49  F   UNL     1      19.089   3.598  16.905  1.00  0.00    -0.200 F 
ENDBRANCH  25  39
BRANCH  26  50
ATOM     50  C   UNL     1      14.824  -8.537  11.013  1.00  0.00     0.064 A 
ATOM     51  C   UNL     1      13.838  -9.377  11.544  1.00  0.00     0.173 A 
ATOM     52  C   UNL     1      15.479  -8.955   9.844  1.00  0.00     0.173 A 
ATOM     53  F   UNL     1      13.197  -9.029  12.670  1.00  0.00    -0.203 F 
ATOM     54  C   UNL     1      13.533 -10.596  10.942  1.00  0.00     0.198 A 
ATOM     55  C   UNL     1      15.149 -10.157   9.224  1.00  0.00     0.198 A 
ATOM     56  F   UNL     1      16.426  -8.183   9.291  1.00  0.00    -0.203 F 
ATOM     57  F   UNL     1      12.618 -11.403  11.496  1.00  0.00    -0.200 F 
ATOM     58  C   UNL     1      14.184 -10.982   9.779  1.00  0.00     0.200 A 
ATOM     59  F   UNL     1      15.768 -10.516   8.091  1.00  0.00    -0.200 F 
ATOM     60  F   UNL     1      13.886 -12.152   9.198  1.00  0.00    -0.200 F 
ENDBRANCH  26  50
BRANCH  38  61
ATOM     61  C   UNL     1      18.009  -6.790  16.951  1.00  0.00     0.064 A 
ATOM     62  C   UNL     1      19.197  -7.514  16.774  1.00  0.00     0.173 A 
ATOM     63  C   UNL     1      17.393  -6.828  18.210  1.00  0.00     0.173 A 
ATOM     64  F   UNL     1      19.809  -7.525  15.580  1.00  0.00    -0.203 F 
ATOM     65  C   UNL     1      19.740  -8.261  17.815  1.00  0.00     0.198 A 
ATOM     66  C   UNL     1      17.954  -7.553  19.257  1.00  0.00     0.198 A 
ATOM     67  F   UNL     1      16.256  -6.151  18.428  1.00  0.00    -0.203 F 
ATOM     68  F   UNL     1      20.852  -8.979  17.612  1.00  0.00    -0.200 F 
ATOM     69  C   UNL     1      19.122  -8.273  19.057  1.00  0.00     0.200 A 
ATOM     70  F   UNL     1      17.363  -7.556  20.460  1.00  0.00    -0.200 F 
ATOM     71  F   UNL     1      19.651  -8.986  20.061  1.00  0.00    -0.200 F 
ENDBRANCH  38  61
ENDBRANCH  12  13
ENDBRANCH   5   7
ENDBRANCH   2   3
ENDBRANCH   1   2
BRANCH   1  72
ATOM     72  C   UNL     1      10.277   3.118   5.515  1.00  0.00     0.023 C 
BRANCH  72  73
ATOM     73  C   UNL     1       8.857   2.587   5.342  1.00  0.00     0.116 C 
BRANCH  73  74
ATOM     74  N   UNL     1       8.003   2.956   6.456  1.00  0.00    -0.356 N 
ATOM     75  C   UNL     1       6.894   3.747   6.501  1.00  0.00     0.229 C 
ATOM     76  H   UNL     1       8.270   2.571   7.322  1.00  0.00     0.163 HD
ATOM     77  O   UNL     1       6.377   3.942   7.604  1.00  0.00    -0.275 OA
BRANCH  75  78
ATOM     78  C   UNL     1       6.312   4.326   5.218  1.00  0.00     0.146 C 
ATOM     79  C   UNL     1       4.810   4.067   5.178  1.00  0.00     0.274 C 
ATOM     80  C   UNL     1       6.389   5.853   5.119  1.00  0.00     0.092 C 
ATOM     81  N   UNL     1       4.161   5.190   5.865  1.00  0.00    -0.345 N 
ATOM     82  C   UNL     1       5.101   6.327   5.813  1.00  0.00     0.269 C 
ATOM     83  H   UNL     1       3.966   4.941   6.835  1.00  0.00     0.346 HD
ATOM     84  H   UNL     1       3.275   5.428   5.420  1.00  0.00     0.346 HD
BRANCH  80  85
ATOM     85  C   UNL     1       7.716   6.471   5.516  1.00  0.00    -0.038 A 
ATOM     86  C   UNL     1       7.902   7.219   6.680  1.00  0.00     0.004 A 
ATOM     87  C   UNL     1       8.837   6.268   4.699  1.00  0.00     0.004 A 
ATOM     88  C   UNL     1       9.173   7.684   7.046  1.00  0.00     0.004 A 
ATOM     89  C   UNL     1      10.107   6.738   5.073  1.00  0.00     0.004 A 
ATOM     90  C   UNL     1      10.317   7.425   6.277  1.00  0.00    -0.045 A 
BRANCH  90  91
ATOM     91  C   UNL     1      11.679   7.857   6.789  1.00  0.00     0.019 C 
ATOM     92  C   UNL     1      12.913   7.025   6.527  1.00  0.00     0.009 C 
ATOM     93  C   UNL     1      12.753   8.362   5.861  1.00  0.00     0.009 C 
ENDBRANCH  90  91
ENDBRANCH  80  85
ENDBRANCH  75  78
ENDBRANCH  73  74
ENDBRANCH  72  73
ENDBRANCH   1  72
TORSDOF 13
