REMARK SMILES COc1cccc(C(=O)NNC(=O)[C@H]2CC(C)=C(C)C[C@@H]2C(=O)NCCCCNC(=O)c2ccc(-c3c4nc(c(-c5c(F)c(F)c(F)c(F)c5F)c5ccc([nH]5)c(-c5c(F)c(F)c(F)c(F)c5F)c5nc(c(-c6c(F)c(F)c(F)c(F)c6F)c6ccc3[nH]6)C=C5)C=C4)cc2)c1
REMARK SMILES IDX 25 1 24 2 22 3 23 4 21 6 14 7 15 8 16 9 20 10 17 11 18 12
REMARK SMILES IDX 19 13 12 14 11 15 13 17 10 18 8 19 9 20 7 22 3 23 4 24 95 25
REMARK SMILES IDX 5 26 6 27 2 28 1 29 26 30 27 31 28 32 29 33 30 34 31 36
REMARK SMILES IDX 32 37 33 38 94 39 34 40 93 41 35 42 36 43 37 44 87 45 38 46
REMARK SMILES IDX 92 47 86 48 88 49 39 50 91 51 85 52 84 53 40 55 72 56 52 57
REMARK SMILES IDX 71 58 53 59 56 60 70 61 89 62 54 63 55 64 69 66 90 67 57 68
REMARK SMILES IDX 41 69 42 70 50 71 43 72 44 73 48 74 51 75 45 76 46 77 49 78
REMARK SMILES IDX 47 79 73 80 74 81 82 82 75 83 76 84 80 85 83 86 77 87 78 88
REMARK SMILES IDX 81 89 79 90 58 91 59 92 67 93 60 94 61 95 65 96 68 97 62 98
REMARK SMILES IDX 63 99 66 100 64 101
REMARK H PARENT 24 5 11 16 10 21 29 35 88 54 56 65
REMARK Flexibility Score: inf
ROOT
ATOM      1  C   UNL     1       7.530   1.917  -3.080  1.00  0.00     0.116 C 
ENDROOT
BRANCH   1   2
ATOM      2  N   UNL     1       8.536   1.403  -2.170  1.00  0.00    -0.356 N 
ATOM      3  C   UNL     1       8.576   0.223  -1.487  1.00  0.00     0.224 C 
ATOM      4  O   UNL     1       9.533   0.024  -0.740  1.00  0.00    -0.275 OA
ATOM      5  H   UNL     1       9.307   1.997  -2.023  1.00  0.00     0.163 HD
BRANCH   3   6
ATOM      6  C   UNL     1       7.501  -0.833  -1.750  1.00  0.00     0.095 C 
ATOM      7  C   UNL     1       7.277  -1.691  -0.494  1.00  0.00     0.097 C 
ATOM      8  C   UNL     1       7.793  -3.129  -0.511  1.00  0.00     0.045 C 
ATOM      9  C   UNL     1       8.007  -3.773  -1.857  1.00  0.00    -0.074 C 
ATOM     10  C   UNL     1       7.908  -1.565  -3.039  1.00  0.00     0.045 C 
ATOM     11  C   UNL     1       8.135  -5.275  -1.796  1.00  0.00     0.039 C 
ATOM     12  C   UNL     1       8.084  -3.058  -2.995  1.00  0.00    -0.074 C 
ATOM     13  C   UNL     1       8.409  -3.680  -4.332  1.00  0.00     0.039 C 
BRANCH   7  14
ATOM     14  C   UNL     1       5.850  -1.532   0.035  1.00  0.00     0.242 C 
ATOM     15  N   UNL     1       4.813  -2.341  -0.327  1.00  0.00    -0.267 N 
ATOM     16  H   UNL     1       4.000  -2.290   0.227  1.00  0.00     0.191 HD
ATOM     17  O   UNL     1       5.585  -0.603   0.808  1.00  0.00    -0.273 OA
BRANCH  15  18
ATOM     18  N   UNL     1       4.783  -3.227  -1.391  1.00  0.00    -0.263 N 
ATOM     19  C   UNL     1       3.700  -4.004  -1.765  1.00  0.00     0.269 C 
ATOM     20  O   UNL     1       3.878  -4.928  -2.559  1.00  0.00    -0.267 OA
ATOM     21  H   UNL     1       5.604  -3.312  -1.928  1.00  0.00     0.191 HD
BRANCH  19  22
ATOM     22  C   UNL     1       2.328  -3.772  -1.228  1.00  0.00     0.045 A 
ATOM     23  C   UNL     1       0.556  -2.343  -0.383  1.00  0.00     0.119 A 
ATOM     24  C   UNL     1      -0.269  -3.461  -0.244  1.00  0.00     0.046 A 
ATOM     25  C   UNL     1       1.838  -2.495  -0.919  1.00  0.00     0.060 A 
ATOM     26  C   UNL     1       0.180  -4.726  -0.620  1.00  0.00     0.005 A 
ATOM     27  C   UNL     1       1.480  -4.882  -1.102  1.00  0.00     0.014 A 
BRANCH  23  28
ATOM     28  O   UNL     1      -0.004  -1.167   0.033  1.00  0.00    -0.497 OA
ATOM     29  C   UNL     1       0.819  -0.007   0.000  1.00  0.00     0.278 C 
ENDBRANCH  23  28
ENDBRANCH  19  22
ENDBRANCH  15  18
ENDBRANCH   7  14
ENDBRANCH   3   6
ENDBRANCH   1   2
BRANCH   1  30
ATOM     30  C   UNL     1       6.705   3.028  -2.434  1.00  0.00     0.023 C 
BRANCH  30  31
ATOM     31  C   UNL     1       7.505   4.279  -2.057  1.00  0.00     0.023 C 
BRANCH  31  32
ATOM     32  C   UNL     1       8.323   4.897  -3.186  1.00  0.00     0.116 C 
BRANCH  32  33
ATOM     33  N   UNL     1       7.510   5.304  -4.321  1.00  0.00    -0.352 N 
ATOM     34  C   UNL     1       7.548   6.476  -5.041  1.00  0.00     0.251 C 
ATOM     35  H   UNL     1       6.838   4.648  -4.616  1.00  0.00     0.163 HD
ATOM     36  O   UNL     1       6.697   6.707  -5.888  1.00  0.00    -0.269 OA
BRANCH  34  37
ATOM     37  C   UNL     1       8.602   7.475  -4.759  1.00  0.00     0.039 A 
ATOM     38  C   UNL     1       8.236   8.815  -4.610  1.00  0.00     0.014 A 
ATOM     39  C   UNL     1       9.939   7.093  -4.623  1.00  0.00     0.014 A 
ATOM     40  C   UNL     1       9.199   9.760  -4.252  1.00  0.00     0.010 A 
ATOM     41  C   UNL     1      10.884   8.021  -4.194  1.00  0.00     0.010 A 
ATOM     42  C   UNL     1      10.523   9.364  -3.999  1.00  0.00    -0.014 A 
BRANCH  42  43
ATOM     43  C   UNL     1      11.537  10.336  -3.514  1.00  0.00     0.031 A 
ATOM     44  C   UNL     1      12.746  10.653  -4.349  1.00  0.00     0.074 A 
ATOM     45  C   UNL     1      11.399  10.886  -2.292  1.00  0.00     0.049 A 
ATOM     46  N   UNL     1      13.769  11.420  -4.068  1.00  0.00    -0.248 NA
ATOM     47  C   UNL     1      12.830  10.002  -5.666  1.00  0.00     0.031 C 
ATOM     48  C   UNL     1      10.295  10.624  -1.366  1.00  0.00     0.029 A 
ATOM     49  N   UNL     1      12.198  11.772  -1.611  1.00  0.00    -0.354 N 
ATOM     50  C   UNL     1      14.617  11.337  -5.164  1.00  0.00     0.074 A 
ATOM     51  C   UNL     1      14.019  10.401  -6.091  1.00  0.00     0.031 C 
ATOM     52  C   UNL     1      10.475  11.349  -0.250  1.00  0.00     0.029 A 
ATOM     53  C   UNL     1      11.726  12.092  -0.361  1.00  0.00     0.049 A 
ATOM     54  H   UNL     1      13.031  12.142  -1.983  1.00  0.00     0.167 HD
ATOM     55  C   UNL     1      15.778  11.999  -5.387  1.00  0.00     0.037 A 
ATOM     56  C   UNL     1      12.248  12.886   0.593  1.00  0.00     0.037 A 
ATOM     57  C   UNL     1      16.362  12.943  -4.469  1.00  0.00     0.049 A 
ATOM     58  C   UNL     1      13.552  13.592   0.327  1.00  0.00     0.074 A 
ATOM     59  C   UNL     1      17.506  13.705  -4.628  1.00  0.00     0.029 A 
ATOM     60  N   UNL     1      15.849  13.249  -3.217  1.00  0.00    -0.354 N 
ATOM     61  N   UNL     1      14.308  13.561  -0.743  1.00  0.00    -0.248 NA
ATOM     62  C   UNL     1      14.071  14.450   1.402  1.00  0.00     0.031 C 
ATOM     63  C   UNL     1      17.715  14.431  -3.452  1.00  0.00     0.029 A 
ATOM     64  C   UNL     1      16.669  14.169  -2.583  1.00  0.00     0.049 A 
ATOM     65  H   UNL     1      15.025  12.869  -2.836  1.00  0.00     0.167 HD
ATOM     66  C   UNL     1      15.372  14.415  -0.484  1.00  0.00     0.074 A 
ATOM     67  C   UNL     1      15.154  14.964   0.837  1.00  0.00     0.031 C 
ATOM     68  C   UNL     1      16.434  14.716  -1.270  1.00  0.00     0.037 A 
BRANCH  55  69
ATOM     69  C   UNL     1      16.496  11.732  -6.679  1.00  0.00     0.064 A 
ATOM     70  C   UNL     1      15.980  12.162  -7.911  1.00  0.00     0.173 A 
ATOM     71  C   UNL     1      17.741  11.084  -6.681  1.00  0.00     0.173 A 
ATOM     72  F   UNL     1      14.789  12.778  -7.966  1.00  0.00    -0.203 F 
ATOM     73  C   UNL     1      16.669  11.930  -9.098  1.00  0.00     0.198 A 
ATOM     74  C   UNL     1      18.443  10.882  -7.867  1.00  0.00     0.198 A 
ATOM     75  F   UNL     1      18.284  10.657  -5.531  1.00  0.00    -0.203 F 
ATOM     76  F   UNL     1      16.134  12.309 -10.267  1.00  0.00    -0.200 F 
ATOM     77  C   UNL     1      17.904  11.299  -9.075  1.00  0.00     0.200 A 
ATOM     78  F   UNL     1      19.643  10.286  -7.841  1.00  0.00    -0.200 F 
ATOM     79  F   UNL     1      18.572  11.088 -10.217  1.00  0.00    -0.200 F 
ENDBRANCH  55  69
BRANCH  56  80
ATOM     80  C   UNL     1      11.536  13.070   1.886  1.00  0.00     0.064 A 
ATOM     81  C   UNL     1      10.982  14.310   2.234  1.00  0.00     0.173 A 
ATOM     82  C   UNL     1      11.414  12.021   2.809  1.00  0.00     0.173 A 
ATOM     83  F   UNL     1      11.090  15.351   1.395  1.00  0.00    -0.203 F 
ATOM     84  C   UNL     1      10.358  14.501   3.465  1.00  0.00     0.198 A 
ATOM     85  C   UNL     1      10.761  12.204   4.026  1.00  0.00     0.198 A 
ATOM     86  F   UNL     1      11.923  10.813   2.524  1.00  0.00    -0.203 F 
ATOM     87  F   UNL     1       9.887  15.711   3.794  1.00  0.00    -0.200 F 
ATOM     88  C   UNL     1      10.244  13.446   4.358  1.00  0.00     0.200 A 
ATOM     89  F   UNL     1      10.639  11.178   4.879  1.00  0.00    -0.200 F 
ATOM     90  F   UNL     1       9.644  13.630   5.542  1.00  0.00    -0.200 F 
ENDBRANCH  56  80
BRANCH  68  91
ATOM     91  C   UNL     1      17.424  15.715  -0.742  1.00  0.00     0.064 A 
ATOM     92  C   UNL     1      18.286  15.410   0.322  1.00  0.00     0.173 A 
ATOM     93  C   UNL     1      17.535  16.983  -1.333  1.00  0.00     0.173 A 
ATOM     94  F   UNL     1      18.210  14.217   0.932  1.00  0.00    -0.203 F 
ATOM     95  C   UNL     1      19.204  16.346   0.790  1.00  0.00     0.198 A 
ATOM     96  C   UNL     1      18.477  17.904  -0.884  1.00  0.00     0.198 A 
ATOM     97  F   UNL     1      16.739  17.324  -2.358  1.00  0.00    -0.203 F 
ATOM     98  F   UNL     1      19.982  16.051   1.841  1.00  0.00    -0.200 F 
ATOM     99  C   UNL     1      19.304  17.589   0.182  1.00  0.00     0.200 A 
ATOM    100  F   UNL     1      18.583  19.098  -1.484  1.00  0.00    -0.200 F 
ATOM    101  F   UNL     1      20.194  18.485   0.629  1.00  0.00    -0.200 F 
ENDBRANCH  68  91
ENDBRANCH  42  43
ENDBRANCH  34  37
ENDBRANCH  32  33
ENDBRANCH  31  32
ENDBRANCH  30  31
ENDBRANCH   1  30
TORSDOF 15
