REMARK SMILES O=C(COc1ccc(/C=N/NC(=O)c2cc3cc([N+](=O)[O-])ccc3o2)cc1)NCCCCNC(=O)c1ccc(-c2c3nc(c(-c4c(F)c(F)c(F)c(F)c4F)c4ccc([nH]4)c(-c4c(F)c(F)c(F)c(F)c4F)c4nc(c(-c5c(F)c(F)c(F)c(F)c5F)c5ccc2[nH]5)C=C4)C=C3)cc1
REMARK SMILES IDX 1 1 2 2 28 3 3 5 4 6 5 7 6 8 27 9 7 10 26 11 8 12 9 13 10 14
REMARK SMILES IDX 11 15 12 16 13 18 14 19 15 20 25 21 16 22 24 23 17 24 23 25
REMARK SMILES IDX 18 26 22 27 19 28 20 29 21 30 29 31 30 32 31 33 32 34 33 35
REMARK SMILES IDX 34 36 35 38 36 39 37 40 98 41 38 42 97 43 39 44 40 45 41 46
REMARK SMILES IDX 91 47 42 48 96 49 90 50 92 51 43 52 95 53 89 54 88 55 44 57
REMARK SMILES IDX 76 58 56 59 75 60 57 61 60 62 74 63 93 64 58 65 59 66 73 68
REMARK SMILES IDX 94 69 61 70 45 71 46 72 54 73 47 74 48 75 52 76 55 77 49 78
REMARK SMILES IDX 50 79 53 80 51 81 77 82 78 83 86 84 79 85 80 86 84 87 87 88
REMARK SMILES IDX 81 89 82 90 85 91 83 92 62 93 63 94 71 95 64 96 65 97 69 98
REMARK SMILES IDX 72 99 66 100 67 101 70 102 68 103
REMARK H PARENT 28 4 11 17 33 37 92 56 60 67
REMARK Flexibility Score: inf
ROOT
ATOM      1  O   UNL     1       1.017   0.820  -0.382  1.00  0.00    -0.271 OA
ATOM      2  C   UNL     1       2.124   0.334  -0.172  1.00  0.00     0.257 C 
ATOM      3  N   UNL     1       2.771  -0.502  -1.063  1.00  0.00    -0.353 N 
ATOM      4  H   UNL     1       3.728  -0.694  -0.930  1.00  0.00     0.163 HD
ENDROOT
BRANCH   2   5
ATOM      5  C   UNL     1       2.884   0.561   1.140  1.00  0.00     0.329 C 
BRANCH   5   6
ATOM      6  O   UNL     1       3.732  -0.502   1.572  1.00  0.00    -0.484 OA
BRANCH   6   7
ATOM      7  C   UNL     1       3.095  -1.562   2.163  1.00  0.00     0.120 A 
ATOM      8  C   UNL     1       3.655  -2.048   3.345  1.00  0.00     0.047 A 
ATOM      9  C   UNL     1       2.028  -2.249   1.577  1.00  0.00     0.047 A 
ATOM     10  C   UNL     1       3.150  -3.213   3.936  1.00  0.00     0.013 A 
ATOM     11  C   UNL     1       1.539  -3.425   2.144  1.00  0.00     0.013 A 
ATOM     12  C   UNL     1       2.104  -3.909   3.319  1.00  0.00    -0.005 A 
BRANCH  12  13
ATOM     13  C   UNL     1       1.657  -5.229   3.809  1.00  0.00     0.141 C 
ATOM     14  N   UNL     1       2.009  -5.642   4.976  1.00  0.00    -0.180 NA
BRANCH  14  15
ATOM     15  N   UNL     1       1.783  -6.921   5.370  1.00  0.00    -0.240 N 
ATOM     16  C   UNL     1       1.064  -7.977   4.860  1.00  0.00     0.307 C 
ATOM     17  H   UNL     1       2.239  -7.144   6.214  1.00  0.00     0.194 HD
ATOM     18  O   UNL     1       1.481  -9.108   5.133  1.00  0.00    -0.264 OA
BRANCH  16  19
ATOM     19  C   UNL     1      -0.194  -7.826   4.155  1.00  0.00     0.194 A 
ATOM     20  C   UNL     1      -0.485  -8.138   2.832  1.00  0.00     0.065 A 
ATOM     21  O   UNL     1      -1.315  -8.063   4.918  1.00  0.00    -0.451 OA
ATOM     22  C   UNL     1      -1.630  -8.989   2.890  1.00  0.00     0.028 A 
ATOM     23  C   UNL     1      -2.100  -8.903   4.194  1.00  0.00     0.135 A 
ATOM     24  C   UNL     1      -2.209  -9.933   2.021  1.00  0.00     0.097 A 
ATOM     25  C   UNL     1      -3.128  -9.683   4.719  1.00  0.00     0.055 A 
ATOM     26  C   UNL     1      -3.157 -10.824   2.566  1.00  0.00     0.270 A 
ATOM     27  C   UNL     1      -3.620 -10.695   3.887  1.00  0.00     0.089 A 
BRANCH  26  28
ATOM     28  N   UNL     1      -3.587 -11.980   1.765  1.00  0.00     0.062 N 
ATOM     29  O   UNL     1      -3.265 -12.002   0.569  1.00  0.00    -0.258 OA
ATOM     30  O   UNL     1      -4.228 -12.873   2.338  1.00  0.00    -0.258 OA
ENDBRANCH  26  28
ENDBRANCH  16  19
ENDBRANCH  14  15
ENDBRANCH  12  13
ENDBRANCH   6   7
ENDBRANCH   5   6
ENDBRANCH   2   5
BRANCH   3  31
ATOM     31  C   UNL     1       2.081  -1.103  -2.185  1.00  0.00     0.116 C 
BRANCH  31  32
ATOM     32  C   UNL     1       2.468  -0.497  -3.527  1.00  0.00     0.023 C 
BRANCH  32  33
ATOM     33  C   UNL     1       3.948  -0.632  -3.885  1.00  0.00     0.023 C 
BRANCH  33  34
ATOM     34  C   UNL     1       4.491  -2.058  -3.913  1.00  0.00     0.116 C 
BRANCH  34  35
ATOM     35  N   UNL     1       3.875  -2.885  -4.940  1.00  0.00    -0.352 N 
ATOM     36  C   UNL     1       4.464  -3.633  -5.931  1.00  0.00     0.251 C 
ATOM     37  H   UNL     1       2.891  -2.912  -4.922  1.00  0.00     0.163 HD
ATOM     38  O   UNL     1       3.768  -4.160  -6.797  1.00  0.00    -0.269 OA
BRANCH  36  39
ATOM     39  C   UNL     1       5.935  -3.782  -5.984  1.00  0.00     0.039 A 
ATOM     40  C   UNL     1       6.583  -3.642  -7.214  1.00  0.00     0.014 A 
ATOM     41  C   UNL     1       6.677  -4.059  -4.832  1.00  0.00     0.014 A 
ATOM     42  C   UNL     1       7.978  -3.703  -7.276  1.00  0.00     0.010 A 
ATOM     43  C   UNL     1       8.070  -4.041  -4.883  1.00  0.00     0.010 A 
ATOM     44  C   UNL     1       8.736  -3.860  -6.104  1.00  0.00    -0.014 A 
BRANCH  44  45
ATOM     45  C   UNL     1      10.223  -3.822  -6.137  1.00  0.00     0.031 A 
ATOM     46  C   UNL     1      11.024  -5.027  -5.726  1.00  0.00     0.074 A 
ATOM     47  C   UNL     1      10.854  -2.680  -6.473  1.00  0.00     0.049 A 
ATOM     48  N   UNL     1      12.323  -5.164  -5.624  1.00  0.00    -0.248 NA
ATOM     49  C   UNL     1      10.264  -6.231  -5.356  1.00  0.00     0.031 C 
ATOM     50  C   UNL     1      10.195  -1.429  -6.850  1.00  0.00     0.029 A 
ATOM     51  N   UNL     1      12.193  -2.382  -6.544  1.00  0.00    -0.354 N 
ATOM     52  C   UNL     1      12.533  -6.458  -5.167  1.00  0.00     0.074 A 
ATOM     53  C   UNL     1      11.228  -7.049  -4.958  1.00  0.00     0.031 C 
ATOM     54  C   UNL     1      11.128  -0.508  -7.137  1.00  0.00     0.029 A 
ATOM     55  C   UNL     1      12.451  -1.086  -6.921  1.00  0.00     0.049 A 
ATOM     56  H   UNL     1      12.902  -3.035  -6.343  1.00  0.00     0.167 HD
ATOM     57  C   UNL     1      13.706  -7.104  -4.960  1.00  0.00     0.037 A 
ATOM     58  C   UNL     1      13.620  -0.434  -7.067  1.00  0.00     0.037 A 
ATOM     59  C   UNL     1      15.003  -6.520  -5.188  1.00  0.00     0.049 A 
ATOM     60  C   UNL     1      14.910  -1.168  -6.809  1.00  0.00     0.074 A 
ATOM     61  C   UNL     1      16.248  -7.113  -5.068  1.00  0.00     0.029 A 
ATOM     62  N   UNL     1      15.223  -5.206  -5.575  1.00  0.00    -0.354 N 
ATOM     63  N   UNL     1      15.096  -2.414  -6.448  1.00  0.00    -0.248 NA
ATOM     64  C   UNL     1      16.153  -0.403  -6.984  1.00  0.00     0.031 C 
ATOM     65  C   UNL     1      17.222  -6.143  -5.323  1.00  0.00     0.029 A 
ATOM     66  C   UNL     1      16.585  -4.962  -5.667  1.00  0.00     0.049 A 
ATOM     67  H   UNL     1      14.517  -4.545  -5.757  1.00  0.00     0.167 HD
ATOM     68  C   UNL     1      16.472  -2.592  -6.387  1.00  0.00     0.074 A 
ATOM     69  C   UNL     1      17.073  -1.330  -6.762  1.00  0.00     0.031 C 
ATOM     70  C   UNL     1      17.173  -3.703  -6.051  1.00  0.00     0.037 A 
BRANCH  57  71
ATOM     71  C   UNL     1      13.645  -8.518  -4.457  1.00  0.00     0.064 A 
ATOM     72  C   UNL     1      13.165  -9.567  -5.256  1.00  0.00     0.173 A 
ATOM     73  C   UNL     1      14.113  -8.837  -3.172  1.00  0.00     0.173 A 
ATOM     74  F   UNL     1      12.697  -9.318  -6.489  1.00  0.00    -0.203 F 
ATOM     75  C   UNL     1      13.125 -10.874  -4.777  1.00  0.00     0.198 A 
ATOM     76  C   UNL     1      14.104 -10.150  -2.710  1.00  0.00     0.198 A 
ATOM     77  F   UNL     1      14.589  -7.875  -2.368  1.00  0.00    -0.203 F 
ATOM     78  F   UNL     1      12.613 -11.850  -5.540  1.00  0.00    -0.200 F 
ATOM     79  C   UNL     1      13.602 -11.166  -3.509  1.00  0.00     0.200 A 
ATOM     80  F   UNL     1      14.579 -10.432  -1.489  1.00  0.00    -0.200 F 
ATOM     81  F   UNL     1      13.571 -12.426  -3.053  1.00  0.00    -0.200 F 
ENDBRANCH  57  71
BRANCH  58  82
ATOM     82  C   UNL     1      13.632   0.990  -7.497  1.00  0.00     0.064 A 
ATOM     83  C   UNL     1      14.137   1.359  -8.752  1.00  0.00     0.173 A 
ATOM     84  C   UNL     1      13.154   2.011  -6.662  1.00  0.00     0.173 A 
ATOM     85  F   UNL     1      14.626   0.421  -9.578  1.00  0.00    -0.203 F 
ATOM     86  C   UNL     1      14.188   2.694  -9.145  1.00  0.00     0.198 A 
ATOM     87  C   UNL     1      13.175   3.343  -7.070  1.00  0.00     0.198 A 
ATOM     88  F   UNL     1      12.656   1.713  -5.453  1.00  0.00    -0.203 F 
ATOM     89  F   UNL     1      14.725   3.022 -10.328  1.00  0.00    -0.200 F 
ATOM     90  C   UNL     1      13.701   3.685  -8.306  1.00  0.00     0.200 A 
ATOM     91  F   UNL     1      12.690   4.296  -6.262  1.00  0.00    -0.200 F 
ATOM     92  F   UNL     1      13.748   4.970  -8.685  1.00  0.00    -0.200 F 
ENDBRANCH  58  82
BRANCH  70  93
ATOM     93  C   UNL     1      18.672  -3.620  -6.114  1.00  0.00     0.064 A 
ATOM     94  C   UNL     1      19.412  -2.861  -5.195  1.00  0.00     0.173 A 
ATOM     95  C   UNL     1      19.380  -4.343  -7.087  1.00  0.00     0.173 A 
ATOM     96  F   UNL     1      18.783  -2.140  -4.254  1.00  0.00    -0.203 F 
ATOM     97  C   UNL     1      20.802  -2.806  -5.266  1.00  0.00     0.198 A 
ATOM     98  C   UNL     1      20.771  -4.313  -7.133  1.00  0.00     0.198 A 
ATOM     99  F   UNL     1      18.723  -5.091  -7.987  1.00  0.00    -0.203 F 
ATOM    100  F   UNL     1      21.483  -2.032  -4.410  1.00  0.00    -0.200 F 
ATOM    101  C   UNL     1      21.480  -3.538  -6.229  1.00  0.00     0.200 A 
ATOM    102  F   UNL     1      21.425  -5.035  -8.054  1.00  0.00    -0.200 F 
ATOM    103  F   UNL     1      22.818  -3.491  -6.289  1.00  0.00    -0.200 F 
ENDBRANCH  70  93
ENDBRANCH  44  45
ENDBRANCH  36  39
ENDBRANCH  34  35
ENDBRANCH  33  34
ENDBRANCH  32  33
ENDBRANCH  31  32
ENDBRANCH   3  31
TORSDOF 17
