REMARK SMILES CC(C)(CC(=O)NCCCCNC(=O)c1ccc(-c2c3nc(c(-c4c(F)c(F)c(F)c(F)c4F)c4ccc([nH]4)c(-c4c(F)c(F)c(F)c(F)c4F)c4nc(c(-c5c(F)c(F)c(F)c(F)c5F)c5ccc2[nH]5)C=C4)C=C3)cc1)CC(=O)Nc1cccc(C(=O)NC2CC2)c1
REMARK SMILES IDX 5 1 6 2 7 3 4 5 2 6 1 7 3 8 78 9 79 10 80 11 81 12 82 14
REMARK SMILES IDX 83 15 93 16 84 17 86 18 85 19 87 20 88 21 89 22 90 24 91 25
REMARK SMILES IDX 92 26 8 27 9 28 10 29 11 30 12 31 13 32 14 34 15 35 16 36
REMARK SMILES IDX 77 37 17 38 76 39 18 40 19 41 20 42 70 43 21 44 75 45 69 46
REMARK SMILES IDX 71 47 22 48 74 49 68 50 67 51 23 53 55 54 35 55 54 56 36 57
REMARK SMILES IDX 39 58 53 59 72 60 37 61 38 62 52 64 73 65 40 66 24 67 25 68
REMARK SMILES IDX 33 69 26 70 27 71 31 72 34 73 28 74 29 75 32 76 30 77 56 78
REMARK SMILES IDX 57 79 65 80 58 81 59 82 63 83 66 84 60 85 61 86 64 87 62 88
REMARK SMILES IDX 41 89 42 90 50 91 43 92 44 93 48 94 51 95 45 96 46 97 49 98
REMARK SMILES IDX 47 99
REMARK H PARENT 7 4 81 13 89 23 12 33 71 52 39 63
REMARK Flexibility Score: inf
ROOT
ATOM      1  C   UNL     1      -0.306   0.632   1.421  1.00  0.00     0.220 C 
ATOM      2  O   UNL     1      -0.516   1.416   2.332  1.00  0.00    -0.275 OA
ATOM      3  N   UNL     1      -0.755  -0.656   1.572  1.00  0.00    -0.356 N 
ATOM      4  H   UNL     1      -1.682  -0.819   1.863  1.00  0.00     0.163 HD
ENDROOT
BRANCH   1   5
ATOM      5  C   UNL     1       0.391   0.925   0.102  1.00  0.00     0.107 C 
BRANCH   5   6
ATOM      6  C   UNL     1       1.067   2.251  -0.247  1.00  0.00    -0.018 C 
ATOM      7  C   UNL     1       2.532   2.053   0.227  1.00  0.00     0.012 C 
ATOM      8  C   UNL     1       1.111   2.394  -1.805  1.00  0.00     0.012 C 
BRANCH   6   9
ATOM      9  C   UNL     1       0.478   3.575   0.297  1.00  0.00     0.107 C 
BRANCH   9  10
ATOM     10  C   UNL     1      -0.740   3.705   1.198  1.00  0.00     0.224 C 
ATOM     11  O   UNL     1      -0.591   4.284   2.288  1.00  0.00    -0.275 OA
ATOM     12  N   UNL     1      -2.028   3.408   0.860  1.00  0.00    -0.326 N 
ATOM     13  H   UNL     1      -2.649   3.462   1.623  1.00  0.00     0.169 HD
BRANCH  12  14
ATOM     14  C   UNL     1      -2.662   3.043  -0.338  1.00  0.00     0.041 A 
ATOM     15  C   UNL     1      -3.662   3.912  -0.775  1.00  0.00     0.026 A 
ATOM     16  C   UNL     1      -2.524   1.798  -0.985  1.00  0.00     0.040 A 
ATOM     17  C   UNL     1      -4.405   3.610  -1.907  1.00  0.00     0.003 A 
ATOM     18  C   UNL     1      -3.163   1.516  -2.197  1.00  0.00     0.041 A 
ATOM     19  C   UNL     1      -4.126   2.448  -2.628  1.00  0.00     0.014 A 
BRANCH  18  20
ATOM     20  C   UNL     1      -2.996   0.318  -3.093  1.00  0.00     0.251 C 
ATOM     21  O   UNL     1      -3.890   0.111  -3.925  1.00  0.00    -0.269 OA
ATOM     22  N   UNL     1      -1.924  -0.544  -3.203  1.00  0.00    -0.349 N 
ATOM     23  H   UNL     1      -1.886  -0.964  -4.093  1.00  0.00     0.164 HD
BRANCH  22  24
ATOM     24  C   UNL     1      -0.861  -0.985  -2.370  1.00  0.00     0.082 C 
ATOM     25  C   UNL     1      -0.113  -2.244  -2.790  1.00  0.00     0.027 C 
ATOM     26  C   UNL     1       0.593  -0.936  -2.797  1.00  0.00     0.027 C 
ENDBRANCH  22  24
ENDBRANCH  18  20
ENDBRANCH  12  14
ENDBRANCH   9  10
ENDBRANCH   6   9
ENDBRANCH   5   6
ENDBRANCH   1   5
BRANCH   3  27
ATOM     27  C   UNL     1       0.120  -1.774   1.309  1.00  0.00     0.116 C 
BRANCH  27  28
ATOM     28  C   UNL     1       1.386  -1.650   2.169  1.00  0.00     0.023 C 
BRANCH  28  29
ATOM     29  C   UNL     1       1.089  -1.590   3.670  1.00  0.00     0.023 C 
BRANCH  29  30
ATOM     30  C   UNL     1       0.173  -2.706   4.141  1.00  0.00     0.116 C 
BRANCH  30  31
ATOM     31  N   UNL     1       0.629  -4.006   3.666  1.00  0.00    -0.352 N 
ATOM     32  C   UNL     1       0.816  -5.164   4.379  1.00  0.00     0.251 C 
ATOM     33  H   UNL     1       0.831  -4.061   2.704  1.00  0.00     0.163 HD
ATOM     34  O   UNL     1       1.379  -6.120   3.900  1.00  0.00    -0.269 OA
BRANCH  32  35
ATOM     35  C   UNL     1       0.317  -5.176   5.762  1.00  0.00     0.039 A 
ATOM     36  C   UNL     1       1.199  -5.499   6.790  1.00  0.00     0.014 A 
ATOM     37  C   UNL     1      -0.994  -4.764   6.019  1.00  0.00     0.014 A 
ATOM     38  C   UNL     1       0.768  -5.368   8.105  1.00  0.00     0.010 A 
ATOM     39  C   UNL     1      -1.384  -4.541   7.327  1.00  0.00     0.010 A 
ATOM     40  C   UNL     1      -0.514  -4.863   8.379  1.00  0.00    -0.014 A 
BRANCH  40  41
ATOM     41  C   UNL     1      -0.987  -4.706   9.770  1.00  0.00     0.031 A 
ATOM     42  C   UNL     1      -2.159  -5.517  10.241  1.00  0.00     0.074 A 
ATOM     43  C   UNL     1      -0.399  -3.801  10.574  1.00  0.00     0.049 A 
ATOM     44  N   UNL     1      -2.769  -5.495  11.398  1.00  0.00    -0.248 NA
ATOM     45  C   UNL     1      -2.752  -6.451   9.269  1.00  0.00     0.031 C 
ATOM     46  C   UNL     1       0.705  -2.918  10.193  1.00  0.00     0.029 A 
ATOM     47  N   UNL     1      -0.654  -3.471  11.879  1.00  0.00    -0.354 N 
ATOM     48  C   UNL     1      -3.821  -6.393  11.281  1.00  0.00     0.074 A 
ATOM     49  C   UNL     1      -3.814  -6.890   9.925  1.00  0.00     0.031 C 
ATOM     50  C   UNL     1       1.053  -2.169  11.251  1.00  0.00     0.029 A 
ATOM     51  C   UNL     1       0.175  -2.492  12.370  1.00  0.00     0.049 A 
ATOM     52  H   UNL     1      -1.364  -3.894  12.414  1.00  0.00     0.167 HD
ATOM     53  C   UNL     1      -4.694  -6.791  12.235  1.00  0.00     0.037 A 
ATOM     54  C   UNL     1       0.213  -1.925  13.589  1.00  0.00     0.037 A 
ATOM     55  C   UNL     1      -4.664  -6.314  13.590  1.00  0.00     0.049 A 
ATOM     56  C   UNL     1      -0.760  -2.397  14.636  1.00  0.00     0.074 A 
ATOM     57  C   UNL     1      -5.454  -6.698  14.658  1.00  0.00     0.029 A 
ATOM     58  N   UNL     1      -3.791  -5.343  14.062  1.00  0.00    -0.354 N 
ATOM     59  N   UNL     1      -1.700  -3.306  14.543  1.00  0.00    -0.248 NA
ATOM     60  C   UNL     1      -0.660  -1.771  15.961  1.00  0.00     0.031 C 
ATOM     61  C   UNL     1      -5.092  -5.925  15.765  1.00  0.00     0.029 A 
ATOM     62  C   UNL     1      -4.038  -5.099  15.403  1.00  0.00     0.049 A 
ATOM     63  H   UNL     1      -3.099  -4.895  13.524  1.00  0.00     0.167 HD
ATOM     64  C   UNL     1      -2.285  -3.383  15.800  1.00  0.00     0.074 A 
ATOM     65  C   UNL     1      -1.579  -2.439  16.643  1.00  0.00     0.031 C 
ATOM     66  C   UNL     1      -3.313  -4.160  16.220  1.00  0.00     0.037 A 
BRANCH  53  67
ATOM     67  C   UNL     1      -5.741  -7.792  11.842  1.00  0.00     0.064 A 
ATOM     68  C   UNL     1      -5.411  -9.117  11.516  1.00  0.00     0.173 A 
ATOM     69  C   UNL     1      -7.096  -7.428  11.809  1.00  0.00     0.173 A 
ATOM     70  F   UNL     1      -4.129  -9.513  11.515  1.00  0.00    -0.203 F 
ATOM     71  C   UNL     1      -6.393 -10.029  11.141  1.00  0.00     0.198 A 
ATOM     72  C   UNL     1      -8.079  -8.352  11.467  1.00  0.00     0.198 A 
ATOM     73  F   UNL     1      -7.467  -6.175  12.112  1.00  0.00    -0.203 F 
ATOM     74  F   UNL     1      -6.046 -11.272  10.777  1.00  0.00    -0.200 F 
ATOM     75  C   UNL     1      -7.726  -9.649  11.124  1.00  0.00     0.200 A 
ATOM     76  F   UNL     1      -9.368  -7.987  11.463  1.00  0.00    -0.200 F 
ATOM     77  F   UNL     1      -8.671 -10.531  10.770  1.00  0.00    -0.200 F 
ENDBRANCH  53  67
BRANCH  54  78
ATOM     78  C   UNL     1       1.224  -0.878  13.893  1.00  0.00     0.064 A 
ATOM     79  C   UNL     1       2.274  -1.128  14.787  1.00  0.00     0.173 A 
ATOM     80  C   UNL     1       1.162   0.392  13.301  1.00  0.00     0.173 A 
ATOM     81  F   UNL     1       2.368  -2.322  15.392  1.00  0.00    -0.203 F 
ATOM     82  C   UNL     1       3.207  -0.141  15.098  1.00  0.00     0.198 A 
ATOM     83  C   UNL     1       2.113   1.368  13.588  1.00  0.00     0.198 A 
ATOM     84  F   UNL     1       0.182   0.680  12.431  1.00  0.00    -0.203 F 
ATOM     85  F   UNL     1       4.172  -0.393  15.994  1.00  0.00    -0.200 F 
ATOM     86  C   UNL     1       3.129   1.104  14.494  1.00  0.00     0.200 A 
ATOM     87  F   UNL     1       2.043   2.566  12.991  1.00  0.00    -0.200 F 
ATOM     88  F   UNL     1       4.029   2.052  14.791  1.00  0.00    -0.200 F 
ENDBRANCH  54  78
BRANCH  66  89
ATOM     89  C   UNL     1      -3.710  -4.049  17.663  1.00  0.00     0.064 A 
ATOM     90  C   UNL     1      -4.367  -2.915  18.161  1.00  0.00     0.173 A 
ATOM     91  C   UNL     1      -3.472  -5.114  18.545  1.00  0.00     0.173 A 
ATOM     92  F   UNL     1      -4.605  -1.866  17.359  1.00  0.00    -0.203 F 
ATOM     93  C   UNL     1      -4.746  -2.839  19.498  1.00  0.00     0.198 A 
ATOM     94  C   UNL     1      -3.883  -5.048  19.873  1.00  0.00     0.198 A 
ATOM     95  F   UNL     1      -2.856  -6.225  18.115  1.00  0.00    -0.203 F 
ATOM     96  F   UNL     1      -5.327  -1.726  19.965  1.00  0.00    -0.200 F 
ATOM     97  C   UNL     1      -4.512  -3.908  20.350  1.00  0.00     0.200 A 
ATOM     98  F   UNL     1      -3.672  -6.089  20.690  1.00  0.00    -0.200 F 
ATOM     99  F   UNL     1      -4.888  -3.837  21.634  1.00  0.00    -0.200 F 
ENDBRANCH  66  89
ENDBRANCH  40  41
ENDBRANCH  32  35
ENDBRANCH  30  31
ENDBRANCH  29  30
ENDBRANCH  28  29
ENDBRANCH  27  28
ENDBRANCH   3  27
TORSDOF 17
