REMARK SMILES Cn1cc2cc(C(=O)NCCCCNC(=O)c3ccc(-c4c5nc(c(-c6c(F)c(F)c(F)c(F)c6F)c6ccc([nH]6)c(-c6c(F)c(F)c(F)c(F)c6F)c6nc(c(-c7c(F)c(F)c(F)c(F)c7F)c7ccc4[nH]7)C=C6)C=C5)cc3)ccc2n1
REMARK SMILES IDX 12 1 11 2 10 3 9 4 7 5 8 6 6 8 1 9 2 10 3 11 83 12 4 13
REMARK SMILES IDX 82 14 5 15 81 16 80 17 13 18 14 19 15 20 16 22 17 23 18 24
REMARK SMILES IDX 79 25 19 26 78 27 20 28 21 29 22 30 72 31 23 32 77 33 71 34
REMARK SMILES IDX 73 35 24 36 76 37 70 38 69 39 25 41 57 42 37 43 56 44 38 45
REMARK SMILES IDX 41 46 55 47 74 48 39 49 40 50 54 52 75 53 42 54 26 55 27 56
REMARK SMILES IDX 35 57 28 58 29 59 33 60 36 61 30 62 31 63 34 64 32 65 58 66
REMARK SMILES IDX 59 67 67 68 60 69 61 70 65 71 68 72 62 73 63 74 66 75 64 76
REMARK SMILES IDX 43 77 44 78 52 79 45 80 46 81 50 82 53 83 47 84 48 85 51 86
REMARK SMILES IDX 49 87
REMARK H PARENT 9 7 14 21 73 40 41 51
REMARK Flexibility Score: inf
ROOT
ATOM      1  C   UNL     1       6.979   1.233   1.534  1.00  0.00     0.023 C 
ENDROOT
BRANCH   1   2
ATOM      2  C   UNL     1       5.566   1.526   1.022  1.00  0.00     0.023 C 
BRANCH   2   3
ATOM      3  C   UNL     1       5.200   0.801  -0.276  1.00  0.00     0.116 C 
BRANCH   3   4
ATOM      4  N   UNL     1       4.825  -0.571  -0.006  1.00  0.00    -0.352 N 
ATOM      5  C   UNL     1       3.618  -1.188   0.200  1.00  0.00     0.251 C 
ATOM      6  O   UNL     1       3.651  -2.406   0.389  1.00  0.00    -0.269 OA
ATOM      7  H   UNL     1       5.592  -1.186   0.037  1.00  0.00     0.163 HD
BRANCH   5   8
ATOM      8  C   UNL     1       2.287  -0.497   0.179  1.00  0.00     0.040 A 
ATOM      9  C   UNL     1      -3.580  -0.268  -0.044  1.00  0.00     0.173 C 
ATOM     10  N   UNL     1      -2.139  -0.196  -0.029  1.00  0.00    -0.275 N 
ATOM     11  C   UNL     1      -1.270  -1.241  -0.163  1.00  0.00     0.117 A 
ATOM     12  N   UNL     1      -1.547   1.002   0.159  1.00  0.00    -0.173 NA
ATOM     13  C   UNL     1      -0.033  -0.676  -0.024  1.00  0.00     0.021 A 
ATOM     14  C   UNL     1      -0.233   0.730   0.196  1.00  0.00     0.092 A 
ATOM     15  C   UNL     1       1.179  -1.356  -0.056  1.00  0.00     0.025 A 
ATOM     16  C   UNL     1       0.858   1.577   0.422  1.00  0.00     0.032 A 
ATOM     17  C   UNL     1       2.108   0.905   0.436  1.00  0.00     0.016 A 
ENDBRANCH   5   8
ENDBRANCH   3   4
ENDBRANCH   2   3
ENDBRANCH   1   2
BRANCH   1  18
ATOM     18  C   UNL     1       8.106   1.700   0.619  1.00  0.00     0.116 C 
BRANCH  18  19
ATOM     19  N   UNL     1       8.063   3.124   0.328  1.00  0.00    -0.352 N 
ATOM     20  C   UNL     1       9.107   3.976   0.055  1.00  0.00     0.251 C 
ATOM     21  H   UNL     1       7.167   3.533   0.328  1.00  0.00     0.163 HD
ATOM     22  O   UNL     1       8.912   5.176  -0.078  1.00  0.00    -0.269 OA
BRANCH  20  23
ATOM     23  C   UNL     1      10.478   3.432  -0.031  1.00  0.00     0.039 A 
ATOM     24  C   UNL     1      11.490   4.053   0.705  1.00  0.00     0.014 A 
ATOM     25  C   UNL     1      10.756   2.303  -0.804  1.00  0.00     0.014 A 
ATOM     26  C   UNL     1      12.771   3.498   0.721  1.00  0.00     0.010 A 
ATOM     27  C   UNL     1      12.014   1.714  -0.737  1.00  0.00     0.010 A 
ATOM     28  C   UNL     1      13.032   2.303   0.030  1.00  0.00    -0.014 A 
BRANCH  28  29
ATOM     29  C   UNL     1      14.360   1.648   0.105  1.00  0.00     0.031 A 
ATOM     30  C   UNL     1      15.213   1.529  -1.125  1.00  0.00     0.074 A 
ATOM     31  C   UNL     1      14.764   1.097   1.267  1.00  0.00     0.049 A 
ATOM     32  N   UNL     1      16.363   0.923  -1.280  1.00  0.00    -0.248 NA
ATOM     33  C   UNL     1      14.691   2.150  -2.353  1.00  0.00     0.031 C 
ATOM     34  C   UNL     1      14.000   1.102   2.516  1.00  0.00     0.029 A 
ATOM     35  N   UNL     1      15.910   0.411   1.581  1.00  0.00    -0.354 N 
ATOM     36  C   UNL     1      16.691   1.075  -2.621  1.00  0.00     0.074 A 
ATOM     37  C   UNL     1      15.600   1.789  -3.247  1.00  0.00     0.031 C 
ATOM     38  C   UNL     1      14.706   0.467   3.465  1.00  0.00     0.029 A 
ATOM     39  C   UNL     1      15.954  -0.020   2.885  1.00  0.00     0.049 A 
ATOM     40  H   UNL     1      16.633   0.244   0.934  1.00  0.00     0.167 HD
ATOM     41  C   UNL     1      17.813   0.673  -3.264  1.00  0.00     0.037 A 
ATOM     42  C   UNL     1      16.894  -0.733   3.535  1.00  0.00     0.037 A 
ATOM     43  C   UNL     1      18.911  -0.006  -2.630  1.00  0.00     0.049 A 
ATOM     44  C   UNL     1      18.135  -1.155   2.797  1.00  0.00     0.074 A 
ATOM     45  C   UNL     1      20.120  -0.395  -3.181  1.00  0.00     0.029 A 
ATOM     46  N   UNL     1      18.934  -0.396  -1.299  1.00  0.00    -0.354 N 
ATOM     47  N   UNL     1      18.467  -0.943   1.547  1.00  0.00    -0.248 NA
ATOM     48  C   UNL     1      19.136  -1.911   3.563  1.00  0.00     0.031 C 
ATOM     49  C   UNL     1      20.859  -1.054  -2.194  1.00  0.00     0.029 A 
ATOM     50  C   UNL     1      20.130  -1.036  -1.016  1.00  0.00     0.049 A 
ATOM     51  H   UNL     1      18.209  -0.241  -0.652  1.00  0.00     0.167 HD
ATOM     52  C   UNL     1      19.724  -1.509   1.384  1.00  0.00     0.074 A 
ATOM     53  C   UNL     1      20.102  -2.063   2.667  1.00  0.00     0.031 C 
ATOM     54  C   UNL     1      20.495  -1.567   0.272  1.00  0.00     0.037 A 
BRANCH  41  55
ATOM     55  C   UNL     1      17.916   0.965  -4.732  1.00  0.00     0.064 A 
ATOM     56  C   UNL     1      18.114   2.270  -5.208  1.00  0.00     0.173 A 
ATOM     57  C   UNL     1      17.868  -0.076  -5.671  1.00  0.00     0.173 A 
ATOM     58  F   UNL     1      18.155   3.302  -4.351  1.00  0.00    -0.203 F 
ATOM     59  C   UNL     1      18.238   2.524  -6.571  1.00  0.00     0.198 A 
ATOM     60  C   UNL     1      18.020   0.178  -7.031  1.00  0.00     0.198 A 
ATOM     61  F   UNL     1      17.685  -1.343  -5.268  1.00  0.00    -0.203 F 
ATOM     62  F   UNL     1      18.386   3.783  -7.005  1.00  0.00    -0.200 F 
ATOM     63  C   UNL     1      18.200   1.478  -7.480  1.00  0.00     0.200 A 
ATOM     64  F   UNL     1      17.995  -0.835  -7.908  1.00  0.00    -0.200 F 
ATOM     65  F   UNL     1      18.330   1.723  -8.791  1.00  0.00    -0.200 F 
ENDBRANCH  41  55
BRANCH  42  66
ATOM     66  C   UNL     1      16.712  -1.073   4.970  1.00  0.00     0.064 A 
ATOM     67  C   UNL     1      17.515  -0.482   5.955  1.00  0.00     0.173 A 
ATOM     68  C   UNL     1      15.751  -2.006   5.384  1.00  0.00     0.173 A 
ATOM     69  F   UNL     1      18.462   0.401   5.605  1.00  0.00    -0.203 F 
ATOM     70  C   UNL     1      17.381  -0.830   7.298  1.00  0.00     0.198 A 
ATOM     71  C   UNL     1      15.599  -2.333   6.730  1.00  0.00     0.198 A 
ATOM     72  F   UNL     1      14.954  -2.596   4.481  1.00  0.00    -0.203 F 
ATOM     73  F   UNL     1      18.196  -0.288   8.212  1.00  0.00    -0.200 F 
ATOM     74  C   UNL     1      16.421  -1.752   7.684  1.00  0.00     0.200 A 
ATOM     75  F   UNL     1      14.662  -3.215   7.102  1.00  0.00    -0.200 F 
ATOM     76  F   UNL     1      16.294  -2.088   8.975  1.00  0.00    -0.200 F 
ENDBRANCH  42  66
BRANCH  54  77
ATOM     77  C   UNL     1      21.842  -2.215   0.402  1.00  0.00     0.064 A 
ATOM     78  C   UNL     1      21.980  -3.604   0.534  1.00  0.00     0.173 A 
ATOM     79  C   UNL     1      23.009  -1.438   0.351  1.00  0.00     0.173 A 
ATOM     80  F   UNL     1      20.893  -4.386   0.603  1.00  0.00    -0.203 F 
ATOM     81  C   UNL     1      23.239  -4.190   0.633  1.00  0.00     0.198 A 
ATOM     82  C   UNL     1      24.267  -2.030   0.422  1.00  0.00     0.198 A 
ATOM     83  F   UNL     1      22.930  -0.105   0.220  1.00  0.00    -0.203 F 
ATOM     84  F   UNL     1      23.347  -5.515   0.803  1.00  0.00    -0.200 F 
ATOM     85  C   UNL     1      24.380  -3.404   0.570  1.00  0.00     0.200 A 
ATOM     86  F   UNL     1      25.369  -1.271   0.348  1.00  0.00    -0.200 F 
ATOM     87  F   UNL     1      25.591  -3.972   0.657  1.00  0.00    -0.200 F 
ENDBRANCH  54  77
ENDBRANCH  28  29
ENDBRANCH  20  23
ENDBRANCH  18  19
ENDBRANCH   1  18
TORSDOF 11
