REMARK SMILES Cc1cccc(C(=O)NCCCCNC(=O)c2ccc(-c3c4nc(c(-c5c(F)c(F)c(F)c(F)c5F)c5ccc([nH]5)c(-c5c(F)c(F)c(F)c(F)c5F)c5nc(c(-c6c(F)c(F)c(F)c(F)c6F)c6ccc3[nH]6)C=C5)C=C4)cc2)c1O[C@H](C)[C@H](C)O
REMARK SMILES IDX 10 1 9 2 7 3 8 4 6 6 1 7 2 8 3 9 80 10 4 11 5 12 81 13 82 14
REMARK SMILES IDX 83 15 84 16 85 17 86 18 11 20 12 21 13 22 14 23 15 24 16 26
REMARK SMILES IDX 17 27 18 28 79 29 19 30 78 31 20 32 21 33 22 34 72 35 23 36
REMARK SMILES IDX 77 37 71 38 73 39 24 40 76 41 70 42 69 43 25 45 57 46 37 47
REMARK SMILES IDX 56 48 38 49 41 50 55 51 74 52 39 53 40 54 54 56 75 57 42 58
REMARK SMILES IDX 26 59 27 60 35 61 28 62 29 63 33 64 36 65 30 66 31 67 34 68
REMARK SMILES IDX 32 69 58 70 59 71 67 72 60 73 61 74 65 75 68 76 62 77 63 78
REMARK SMILES IDX 66 79 64 80 43 81 44 82 52 83 45 84 46 85 50 86 53 87 47 88
REMARK SMILES IDX 48 89 51 90 49 91
REMARK H PARENT 9 5 86 19 14 25 73 44 41 55
REMARK Flexibility Score: inf
ROOT
ATOM      1  C   UNL     1       3.955   3.131  -2.510  1.00  0.00     0.116 C 
ENDROOT
BRANCH   1   2
ATOM      2  N   UNL     1       4.256   1.661  -2.522  1.00  0.00    -0.352 N 
ATOM      3  C   UNL     1       3.925   0.397  -3.009  1.00  0.00     0.255 C 
ATOM      4  O   UNL     1       4.842  -0.399  -2.726  1.00  0.00    -0.269 OA
ATOM      5  H   UNL     1       5.027   1.532  -1.923  1.00  0.00     0.163 HD
BRANCH   3   6
ATOM      6  C   UNL     1       2.764  -0.248  -3.763  1.00  0.00     0.082 A 
ATOM      7  C   UNL     1      -1.000  -0.929  -4.341  1.00  0.00     0.048 C 
ATOM      8  C   UNL     1       0.506  -1.075  -4.424  1.00  0.00    -0.008 A 
ATOM      9  C   UNL     1       1.043  -2.031  -5.275  1.00  0.00     0.007 A 
ATOM     10  C   UNL     1       1.359  -0.292  -3.579  1.00  0.00     0.135 A 
ATOM     11  C   UNL     1       2.416  -2.138  -5.369  1.00  0.00     0.001 A 
ATOM     12  C   UNL     1       3.243  -1.237  -4.673  1.00  0.00     0.018 A 
BRANCH  10  13
ATOM     13  O   UNL     1       0.562   0.168  -2.569  1.00  0.00    -0.487 OA
BRANCH  13  14
ATOM     14  C   UNL     1       0.880   1.343  -1.851  1.00  0.00     0.198 C 
ATOM     15  C   UNL     1       1.050   2.426  -2.928  1.00  0.00     0.056 C 
BRANCH  14  16
ATOM     16  C   UNL     1       1.710   0.818  -0.624  1.00  0.00     0.151 C 
ATOM     17  C   UNL     1       0.948   1.038   0.678  1.00  0.00     0.042 C 
BRANCH  16  18
ATOM     18  O   UNL     1       2.988   1.319  -0.339  1.00  0.00    -0.390 OA
ATOM     19  H   UNL     1       2.915   2.236  -0.031  1.00  0.00     0.211 HD
ENDBRANCH  16  18
ENDBRANCH  14  16
ENDBRANCH  13  14
ENDBRANCH  10  13
ENDBRANCH   3   6
ENDBRANCH   1   2
BRANCH   1  20
ATOM     20  C   UNL     1       3.248   3.853  -1.280  1.00  0.00     0.023 C 
BRANCH  20  21
ATOM     21  C   UNL     1       3.925   3.898   0.121  1.00  0.00     0.023 C 
BRANCH  21  22
ATOM     22  C   UNL     1       3.841   5.153   1.032  1.00  0.00     0.116 C 
BRANCH  22  23
ATOM     23  N   UNL     1       2.561   5.852   1.109  1.00  0.00    -0.352 N 
ATOM     24  C   UNL     1       2.213   7.139   0.751  1.00  0.00     0.251 C 
ATOM     25  H   UNL     1       1.822   5.315   1.478  1.00  0.00     0.163 HD
ATOM     26  O   UNL     1       1.245   7.667   1.306  1.00  0.00    -0.269 OA
BRANCH  24  27
ATOM     27  C   UNL     1       2.880   7.859  -0.366  1.00  0.00     0.039 A 
ATOM     28  C   UNL     1       2.401   9.114  -0.791  1.00  0.00     0.014 A 
ATOM     29  C   UNL     1       3.844   7.223  -1.132  1.00  0.00     0.014 A 
ATOM     30  C   UNL     1       2.775   9.624  -2.041  1.00  0.00     0.010 A 
ATOM     31  C   UNL     1       4.222   7.708  -2.346  1.00  0.00     0.010 A 
ATOM     32  C   UNL     1       3.623   8.860  -2.833  1.00  0.00    -0.014 A 
BRANCH  32  33
ATOM     33  C   UNL     1       3.885   9.004  -4.248  1.00  0.00     0.031 A 
ATOM     34  C   UNL     1       5.127   9.636  -4.706  1.00  0.00     0.074 A 
ATOM     35  C   UNL     1       3.196   8.137  -5.026  1.00  0.00     0.049 A 
ATOM     36  N   UNL     1       5.374   9.894  -5.940  1.00  0.00    -0.248 NA
ATOM     37  C   UNL     1       6.202  10.044  -3.805  1.00  0.00     0.031 C 
ATOM     38  C   UNL     1       3.537   7.609  -6.342  1.00  0.00     0.029 A 
ATOM     39  N   UNL     1       1.925   7.598  -4.763  1.00  0.00    -0.354 N 
ATOM     40  C   UNL     1       6.714  10.182  -6.038  1.00  0.00     0.074 A 
ATOM     41  C   UNL     1       7.138  10.427  -4.683  1.00  0.00     0.031 C 
ATOM     42  C   UNL     1       2.424   7.102  -6.901  1.00  0.00     0.029 A 
ATOM     43  C   UNL     1       1.314   7.443  -6.024  1.00  0.00     0.049 A 
ATOM     44  H   UNL     1       1.542   7.376  -3.883  1.00  0.00     0.167 HD
ATOM     45  C   UNL     1       7.313  10.028  -7.253  1.00  0.00     0.037 A 
ATOM     46  C   UNL     1       0.290   8.287  -6.357  1.00  0.00     0.037 A 
ATOM     47  C   UNL     1       6.303   9.777  -8.290  1.00  0.00     0.049 A 
ATOM     48  C   UNL     1       0.644   9.241  -7.477  1.00  0.00     0.074 A 
ATOM     49  C   UNL     1       5.942   8.658  -9.017  1.00  0.00     0.029 A 
ATOM     50  N   UNL     1       5.283  10.711  -8.475  1.00  0.00    -0.354 N 
ATOM     51  N   UNL     1       1.863   9.477  -7.882  1.00  0.00    -0.248 NA
ATOM     52  C   UNL     1      -0.346  10.008  -8.224  1.00  0.00     0.031 C 
ATOM     53  C   UNL     1       4.628   8.880  -9.526  1.00  0.00     0.029 A 
ATOM     54  C   UNL     1       4.218  10.152  -9.157  1.00  0.00     0.049 A 
ATOM     55  H   UNL     1       5.317  11.644  -8.162  1.00  0.00     0.167 HD
ATOM     56  C   UNL     1       1.851  10.425  -8.866  1.00  0.00     0.074 A 
ATOM     57  C   UNL     1       0.440  10.698  -9.071  1.00  0.00     0.031 C 
ATOM     58  C   UNL     1       3.004  10.928  -9.402  1.00  0.00     0.037 A 
BRANCH  45  59
ATOM     59  C   UNL     1       8.805   9.920  -7.511  1.00  0.00     0.064 A 
ATOM     60  C   UNL     1       9.287   9.852  -8.838  1.00  0.00     0.173 A 
ATOM     61  C   UNL     1       9.803   9.779  -6.522  1.00  0.00     0.173 A 
ATOM     62  F   UNL     1       8.453   9.951  -9.883  1.00  0.00    -0.203 F 
ATOM     63  C   UNL     1      10.641   9.663  -9.143  1.00  0.00     0.198 A 
ATOM     64  C   UNL     1      11.163   9.646  -6.828  1.00  0.00     0.198 A 
ATOM     65  F   UNL     1       9.514   9.698  -5.221  1.00  0.00    -0.203 F 
ATOM     66  F   UNL     1      11.028   9.553 -10.421  1.00  0.00    -0.200 F 
ATOM     67  C   UNL     1      11.582   9.576  -8.137  1.00  0.00     0.200 A 
ATOM     68  F   UNL     1      12.058   9.556  -5.833  1.00  0.00    -0.200 F 
ATOM     69  F   UNL     1      12.879   9.405  -8.425  1.00  0.00    -0.200 F 
ENDBRANCH  45  59
BRANCH  46  70
ATOM     70  C   UNL     1      -0.571   8.599  -5.176  1.00  0.00     0.064 A 
ATOM     71  C   UNL     1      -1.302   7.535  -4.607  1.00  0.00     0.173 A 
ATOM     72  C   UNL     1      -0.334   9.719  -4.365  1.00  0.00     0.173 A 
ATOM     73  F   UNL     1      -1.549   6.432  -5.333  1.00  0.00    -0.203 F 
ATOM     74  C   UNL     1      -1.661   7.535  -3.260  1.00  0.00     0.198 A 
ATOM     75  C   UNL     1      -0.707   9.720  -3.017  1.00  0.00     0.198 A 
ATOM     76  F   UNL     1       0.371  10.758  -4.835  1.00  0.00    -0.203 F 
ATOM     77  F   UNL     1      -2.245   6.452  -2.724  1.00  0.00    -0.200 F 
ATOM     78  C   UNL     1      -1.336   8.615  -2.458  1.00  0.00     0.200 A 
ATOM     79  F   UNL     1      -0.381  10.759  -2.234  1.00  0.00    -0.200 F 
ATOM     80  F   UNL     1      -1.599   8.579  -1.144  1.00  0.00    -0.200 F 
ENDBRANCH  46  70
BRANCH  58  81
ATOM     81  C   UNL     1       3.091  12.177 -10.252  1.00  0.00     0.064 A 
ATOM     82  C   UNL     1       2.173  13.240 -10.184  1.00  0.00     0.173 A 
ATOM     83  C   UNL     1       4.222  12.406 -11.072  1.00  0.00     0.173 A 
ATOM     84  F   UNL     1       1.131  13.215  -9.343  1.00  0.00    -0.203 F 
ATOM     85  C   UNL     1       2.333  14.406 -10.937  1.00  0.00     0.198 A 
ATOM     86  C   UNL     1       4.415  13.601 -11.765  1.00  0.00     0.198 A 
ATOM     87  F   UNL     1       5.192  11.488 -11.202  1.00  0.00    -0.203 F 
ATOM     88  F   UNL     1       1.398  15.365 -10.877  1.00  0.00    -0.200 F 
ATOM     89  C   UNL     1       3.459  14.592 -11.715  1.00  0.00     0.200 A 
ATOM     90  F   UNL     1       5.543  13.791 -12.462  1.00  0.00    -0.200 F 
ATOM     91  F   UNL     1       3.632  15.734 -12.394  1.00  0.00    -0.200 F 
ENDBRANCH  58  81
ENDBRANCH  32  33
ENDBRANCH  24  27
ENDBRANCH  22  23
ENDBRANCH  21  22
ENDBRANCH  20  21
ENDBRANCH   1  20
TORSDOF 15
