REMARK SMILES C[NH+]1CCN(c2nc3c(cc2F)c(=O)c(C(=O)NCCCCNC(=O)c2ccc(-c4c5nc(c(-c6c(F)c(F)c(F)c(F)c6F)c6ccc([nH]6)c(-c6c(F)c(F)c(F)c(F)c6F)c6nc(c(-c7c(F)c(F)c(F)c(F)c7F)c7ccc4[nH]7)C=C6)C=C5)cc2)cn3-c2ccc(F)cc2F)CC1
REMARK SMILES IDX 21 1 20 2 19 3 18 4 16 5 17 6 15 8 6 9 7 10 11 11 8 12 10 13
REMARK SMILES IDX 12 14 9 15 90 16 13 17 89 18 14 19 5 20 1 21 2 22 3 23
REMARK SMILES IDX 100 24 4 26 99 27 91 28 92 29 97 30 93 31 96 32 98 33 94 34
REMARK SMILES IDX 95 35 22 36 23 37 24 38 25 40 26 41 27 42 88 43 28 44 87 45
REMARK SMILES IDX 29 46 30 47 31 48 81 49 32 50 86 51 80 52 82 53 33 54 85 55
REMARK SMILES IDX 79 56 78 57 34 59 66 60 46 61 65 62 47 63 50 64 64 65 83 66
REMARK SMILES IDX 48 67 49 68 63 70 84 71 51 72 35 73 36 74 44 75 37 76 38 77
REMARK SMILES IDX 42 78 45 79 39 80 40 81 43 82 41 83 67 84 68 85 76 86 69 87
REMARK SMILES IDX 70 88 74 89 77 90 71 91 72 92 75 93 73 94 52 95 53 96 61 97
REMARK SMILES IDX 54 98 55 99 59 100 62 101 56 102 57 103 60 104 58 105
REMARK H PARENT 18 7 2 25 23 39 82 58 50 69
REMARK Flexibility Score: inf
ROOT
ATOM      1  C   UNL     1      -9.334  -0.111   6.894  1.00  0.00     0.023 C 
ENDROOT
BRANCH   1   2
ATOM      2  C   UNL     1      -8.301  -0.243   5.780  1.00  0.00     0.023 C 
BRANCH   2   3
ATOM      3  C   UNL     1      -8.814  -0.905   4.499  1.00  0.00     0.116 C 
BRANCH   3   4
ATOM      4  N   UNL     1      -9.478   0.059   3.644  1.00  0.00    -0.352 N 
ATOM      5  C   UNL     1      -9.023   0.827   2.619  1.00  0.00     0.256 C 
ATOM      6  O   UNL     1      -9.859   1.556   2.075  1.00  0.00    -0.269 OA
ATOM      7  H   UNL     1     -10.434   0.180   3.843  1.00  0.00     0.163 HD
BRANCH   5   8
ATOM      8  C   UNL     1      -7.628   0.769   2.095  1.00  0.00     0.104 A 
ATOM      9  C   UNL     1      -2.867  -0.127   0.547  1.00  0.00     0.167 A 
ATOM     10  N   UNL     1      -3.923   0.537   0.011  1.00  0.00    -0.209 NA
ATOM     11  C   UNL     1      -2.959  -0.723   1.807  1.00  0.00     0.166 A 
ATOM     12  C   UNL     1      -5.093   0.617   0.695  1.00  0.00     0.151 A 
ATOM     13  C   UNL     1      -4.115  -0.590   2.549  1.00  0.00     0.059 A 
ATOM     14  F   UNL     1      -1.916  -1.369   2.350  1.00  0.00    -0.203 F 
ATOM     15  C   UNL     1      -5.187   0.100   1.985  1.00  0.00     0.069 A 
ATOM     16  N   UNL     1      -6.248   1.238   0.117  1.00  0.00    -0.297 N 
ATOM     17  C   UNL     1      -6.391   0.349   2.786  1.00  0.00     0.203 A 
ATOM     18  C   UNL     1      -7.441   1.214   0.839  1.00  0.00     0.111 A 
ATOM     19  O   UNL     1      -6.281   0.241   4.000  1.00  0.00    -0.288 OA
BRANCH   9  20
ATOM     20  N   UNL     1      -1.710  -0.156  -0.185  1.00  0.00    -0.343 N 
ATOM     21  C   UNL     1       2.513   0.145   0.126  1.00  0.00     0.332 C 
ATOM     22  N   UNL     1       1.164   0.014  -0.417  1.00  0.00    -0.334 N 
ATOM     23  C   UNL     1       0.341   1.202  -0.086  1.00  0.00     0.283 C 
ATOM     24  C   UNL     1       0.508  -1.202   0.116  1.00  0.00     0.283 C 
ATOM     25  H   UNL     1       1.242  -0.059  -1.432  1.00  0.00     0.347 HD
ATOM     26  C   UNL     1      -1.110   1.100  -0.625  1.00  0.00     0.179 C 
ATOM     27  C   UNL     1      -0.935  -1.372  -0.401  1.00  0.00     0.179 C 
ENDBRANCH   9  20
BRANCH  16  28
ATOM     28  C   UNL     1      -6.232   1.817  -1.190  1.00  0.00     0.083 A 
ATOM     29  C   UNL     1      -5.793   1.079  -2.303  1.00  0.00     0.033 A 
ATOM     30  C   UNL     1      -6.667   3.139  -1.407  1.00  0.00     0.150 A 
ATOM     31  C   UNL     1      -5.795   1.646  -3.580  1.00  0.00     0.041 A 
ATOM     32  C   UNL     1      -6.661   3.714  -2.673  1.00  0.00     0.080 A 
ATOM     33  F   UNL     1      -7.078   3.888  -0.371  1.00  0.00    -0.205 F 
ATOM     34  C   UNL     1      -6.226   2.957  -3.750  1.00  0.00     0.126 A 
ATOM     35  F   UNL     1      -6.219   3.498  -4.975  1.00  0.00    -0.207 F 
ENDBRANCH  16  28
ENDBRANCH   5   8
ENDBRANCH   3   4
ENDBRANCH   2   3
ENDBRANCH   1   2
BRANCH   1  36
ATOM     36  C   UNL     1      -9.820  -1.433   7.467  1.00  0.00     0.116 C 
BRANCH  36  37
ATOM     37  N   UNL     1      -8.754  -2.254   8.024  1.00  0.00    -0.352 N 
ATOM     38  C   UNL     1      -8.821  -3.087   9.113  1.00  0.00     0.251 C 
ATOM     39  H   UNL     1      -7.883  -2.207   7.566  1.00  0.00     0.163 HD
ATOM     40  O   UNL     1      -7.836  -3.684   9.528  1.00  0.00    -0.269 OA
BRANCH  38  41
ATOM     41  C   UNL     1     -10.114  -3.210   9.807  1.00  0.00     0.039 A 
ATOM     42  C   UNL     1     -10.194  -2.836  11.150  1.00  0.00     0.014 A 
ATOM     43  C   UNL     1     -11.254  -3.596   9.095  1.00  0.00     0.014 A 
ATOM     44  C   UNL     1     -11.441  -2.788  11.770  1.00  0.00     0.010 A 
ATOM     45  C   UNL     1     -12.501  -3.497   9.699  1.00  0.00     0.010 A 
ATOM     46  C   UNL     1     -12.601  -3.091  11.039  1.00  0.00    -0.014 A 
BRANCH  46  47
ATOM     47  C   UNL     1     -13.935  -3.022  11.673  1.00  0.00     0.031 A 
ATOM     48  C   UNL     1     -14.675  -4.292  11.966  1.00  0.00     0.074 A 
ATOM     49  C   UNL     1     -14.491  -1.826  11.938  1.00  0.00     0.049 A 
ATOM     50  N   UNL     1     -15.869  -4.454  12.473  1.00  0.00    -0.248 NA
ATOM     51  C   UNL     1     -13.987  -5.548  11.625  1.00  0.00     0.031 C 
ATOM     52  C   UNL     1     -13.873  -0.527  11.668  1.00  0.00     0.029 A 
ATOM     53  N   UNL     1     -15.705  -1.510  12.492  1.00  0.00    -0.354 N 
ATOM     54  C   UNL     1     -16.074  -5.825  12.513  1.00  0.00     0.074 A 
ATOM     55  C   UNL     1     -14.907  -6.450  11.930  1.00  0.00     0.031 C 
ATOM     56  C   UNL     1     -14.705   0.446  12.076  1.00  0.00     0.029 A 
ATOM     57  C   UNL     1     -15.921  -0.160  12.613  1.00  0.00     0.049 A 
ATOM     58  H   UNL     1     -16.360  -2.188  12.775  1.00  0.00     0.167 HD
ATOM     59  C   UNL     1     -17.131  -6.502  13.017  1.00  0.00     0.037 A 
ATOM     60  C   UNL     1     -16.981   0.507  13.106  1.00  0.00     0.037 A 
ATOM     61  C   UNL     1     -18.281  -5.879  13.610  1.00  0.00     0.049 A 
ATOM     62  C   UNL     1     -18.155  -0.269  13.635  1.00  0.00     0.074 A 
ATOM     63  C   UNL     1     -19.388  -6.477  14.183  1.00  0.00     0.029 A 
ATOM     64  N   UNL     1     -18.467  -4.508  13.709  1.00  0.00    -0.354 N 
ATOM     65  N   UNL     1     -18.322  -1.567  13.710  1.00  0.00    -0.248 NA
ATOM     66  C   UNL     1     -19.289   0.512  14.151  1.00  0.00     0.031 C 
ATOM     67  C   UNL     1     -20.260  -5.468  14.604  1.00  0.00     0.029 A 
ATOM     68  C   UNL     1     -19.680  -4.241  14.322  1.00  0.00     0.049 A 
ATOM     69  H   UNL     1     -17.832  -3.826  13.391  1.00  0.00     0.167 HD
ATOM     70  C   UNL     1     -19.563  -1.760  14.297  1.00  0.00     0.074 A 
ATOM     71  C   UNL     1     -20.107  -0.445  14.568  1.00  0.00     0.031 C 
ATOM     72  C   UNL     1     -20.196  -2.923  14.587  1.00  0.00     0.037 A 
BRANCH  59  73
ATOM     73  C   UNL     1     -17.077  -7.997  12.960  1.00  0.00     0.064 A 
ATOM     74  C   UNL     1     -16.232  -8.726  13.811  1.00  0.00     0.173 A 
ATOM     75  C   UNL     1     -17.890  -8.710  12.068  1.00  0.00     0.173 A 
ATOM     76  F   UNL     1     -15.423  -8.086  14.668  1.00  0.00    -0.203 F 
ATOM     77  C   UNL     1     -16.189 -10.116  13.756  1.00  0.00     0.198 A 
ATOM     78  C   UNL     1     -17.861 -10.101  12.032  1.00  0.00     0.198 A 
ATOM     79  F   UNL     1     -18.713  -8.057  11.233  1.00  0.00    -0.203 F 
ATOM     80  F   UNL     1     -15.346 -10.790  14.550  1.00  0.00    -0.200 F 
ATOM     81  C   UNL     1     -17.008 -10.802  12.872  1.00  0.00     0.200 A 
ATOM     82  F   UNL     1     -18.656 -10.765  11.181  1.00  0.00    -0.200 F 
ATOM     83  F   UNL     1     -16.968 -12.141  12.823  1.00  0.00    -0.200 F 
ENDBRANCH  59  73
BRANCH  60  84
ATOM     84  C   UNL     1     -16.961   1.989  13.159  1.00  0.00     0.064 A 
ATOM     85  C   UNL     1     -16.795   2.657  14.379  1.00  0.00     0.173 A 
ATOM     86  C   UNL     1     -17.095   2.766  11.999  1.00  0.00     0.173 A 
ATOM     87  F   UNL     1     -16.683   1.954  15.516  1.00  0.00    -0.203 F 
ATOM     88  C   UNL     1     -16.773   4.049  14.441  1.00  0.00     0.198 A 
ATOM     89  C   UNL     1     -17.055   4.158  12.059  1.00  0.00     0.198 A 
ATOM     90  F   UNL     1     -17.255   2.172  10.808  1.00  0.00    -0.203 F 
ATOM     91  F   UNL     1     -16.642   4.663  15.624  1.00  0.00    -0.200 F 
ATOM     92  C   UNL     1     -16.898   4.798  13.280  1.00  0.00     0.200 A 
ATOM     93  F   UNL     1     -17.168   4.879  10.936  1.00  0.00    -0.200 F 
ATOM     94  F   UNL     1     -16.873   6.136  13.339  1.00  0.00    -0.200 F 
ENDBRANCH  60  84
BRANCH  72  95
ATOM     95  C   UNL     1     -21.538  -2.833  15.245  1.00  0.00     0.064 A 
ATOM     96  C   UNL     1     -22.687  -2.498  14.515  1.00  0.00     0.173 A 
ATOM     97  C   UNL     1     -21.688  -3.160  16.601  1.00  0.00     0.173 A 
ATOM     98  F   UNL     1     -22.589  -2.165  13.219  1.00  0.00    -0.203 F 
ATOM     99  C   UNL     1     -23.939  -2.488  15.121  1.00  0.00     0.198 A 
ATOM    100  C   UNL     1     -22.944  -3.170  17.199  1.00  0.00     0.198 A 
ATOM    101  F   UNL     1     -20.617  -3.492  17.338  1.00  0.00    -0.203 F 
ATOM    102  F   UNL     1     -25.023  -2.144  14.412  1.00  0.00    -0.200 F 
ATOM    103  C   UNL     1     -24.068  -2.833  16.459  1.00  0.00     0.200 A 
ATOM    104  F   UNL     1     -23.069  -3.513  18.488  1.00  0.00    -0.200 F 
ATOM    105  F   UNL     1     -25.277  -2.838  17.037  1.00  0.00    -0.200 F 
ENDBRANCH  72  95
ENDBRANCH  46  47
ENDBRANCH  38  41
ENDBRANCH  36  37
ENDBRANCH   1  36
TORSDOF 13
