REMARK SMILES CCc1ccc(C(=O)NCCCCNC(=O)c2ccc(-c3c4nc(c(-c5c(F)c(F)c(F)c(F)c5F)c5ccc([nH]5)c(-c5c(F)c(F)c(F)c(F)c5F)c5nc(c(-c6c(F)c(F)c(F)c(F)c6F)c6ccc3[nH]6)C=C5)C=C4)cc2)cc1S(=O)(=O)Nc1ccc(F)c(F)c1F
REMARK SMILES IDX 11 1 10 2 9 3 7 4 8 5 6 7 3 8 4 9 81 10 5 11 80 12 2 13 1 14
REMARK SMILES IDX 82 15 83 16 84 17 85 18 86 20 87 21 93 22 88 23 91 24 94 25
REMARK SMILES IDX 89 26 92 27 90 28 12 29 13 30 14 31 15 32 16 34 17 35 18 36
REMARK SMILES IDX 79 37 19 38 78 39 20 40 21 41 22 42 72 43 23 44 77 45 71 46
REMARK SMILES IDX 73 47 24 48 76 49 70 50 69 51 25 53 57 54 37 55 56 56 38 57
REMARK SMILES IDX 41 58 55 59 74 60 39 61 40 62 54 64 75 65 42 66 26 67 27 68
REMARK SMILES IDX 35 69 28 70 29 71 33 72 36 73 30 74 31 75 34 76 32 77 58 78
REMARK SMILES IDX 59 79 67 80 60 81 61 82 65 83 68 84 62 85 63 86 66 87 64 88
REMARK SMILES IDX 43 89 44 90 52 91 45 92 46 93 50 94 53 95 47 96 48 97 51 98
REMARK SMILES IDX 49 99
REMARK H PARENT 9 6 85 19 14 33 73 52 41 63
REMARK Flexibility Score: inf
ROOT
ATOM      1  C   UNL     1       0.726   3.590   6.066  1.00  0.00     0.023 C 
ENDROOT
BRANCH   1   2
ATOM      2  C   UNL     1       1.957   2.704   5.873  1.00  0.00     0.116 C 
BRANCH   2   3
ATOM      3  N   UNL     1       1.828   1.513   6.695  1.00  0.00    -0.352 N 
ATOM      4  C   UNL     1       1.439   0.236   6.383  1.00  0.00     0.251 C 
ATOM      5  O   UNL     1       1.325  -0.588   7.287  1.00  0.00    -0.269 OA
ATOM      6  H   UNL     1       2.060   1.647   7.642  1.00  0.00     0.163 HD
BRANCH   4   7
ATOM      7  C   UNL     1       1.312  -0.202   4.973  1.00  0.00     0.041 A 
ATOM      8  C   UNL     1       1.722  -0.877   2.267  1.00  0.00    -0.028 A 
ATOM      9  C   UNL     1       2.119  -1.741   3.311  1.00  0.00     0.006 A 
ATOM     10  C   UNL     1       0.911   0.228   2.604  1.00  0.00     0.091 A 
ATOM     11  C   UNL     1       1.927  -1.405   4.646  1.00  0.00     0.014 A 
ATOM     12  C   UNL     1       0.706   0.546   3.965  1.00  0.00     0.036 A 
BRANCH   8  13
ATOM     13  C   UNL     1       2.292  -1.230   0.917  1.00  0.00     0.033 C 
ATOM     14  C   UNL     1       3.120  -0.132   0.263  1.00  0.00     0.009 C 
ENDBRANCH   8  13
BRANCH  10  15
ATOM     15  S   UNL     1       0.132   1.402   1.494  1.00  0.00     0.262 S 
ATOM     16  O   UNL     1      -1.232   1.600   1.937  1.00  0.00    -0.201 OA
ATOM     17  O   UNL     1       1.038   2.533   1.441  1.00  0.00    -0.201 OA
BRANCH  15  18
ATOM     18  N   UNL     1       0.100   0.812  -0.060  1.00  0.00    -0.277 N 
ATOM     19  H   UNL     1       0.529   1.370  -0.748  1.00  0.00     0.180 HD
BRANCH  18  20
ATOM     20  C   UNL     1      -0.479  -0.409  -0.506  1.00  0.00     0.088 A 
ATOM     21  C   UNL     1      -0.030  -0.852  -1.764  1.00  0.00     0.033 A 
ATOM     22  C   UNL     1      -1.277  -1.262   0.267  1.00  0.00     0.185 A 
ATOM     23  C   UNL     1      -0.265  -2.164  -2.178  1.00  0.00     0.045 A 
ATOM     24  C   UNL     1      -1.527  -2.562  -0.159  1.00  0.00     0.196 A 
ATOM     25  F   UNL     1      -1.732  -0.891   1.470  1.00  0.00    -0.201 F 
ATOM     26  C   UNL     1      -0.996  -3.017  -1.359  1.00  0.00     0.162 A 
ATOM     27  F   UNL     1      -2.221  -3.400   0.623  1.00  0.00    -0.200 F 
ATOM     28  F   UNL     1      -1.150  -4.296  -1.723  1.00  0.00    -0.204 F 
ENDBRANCH  18  20
ENDBRANCH  15  18
ENDBRANCH  10  15
ENDBRANCH   4   7
ENDBRANCH   2   3
ENDBRANCH   1   2
BRANCH   1  29
ATOM     29  C   UNL     1       0.680   4.281   7.434  1.00  0.00     0.023 C 
BRANCH  29  30
ATOM     30  C   UNL     1       1.813   5.270   7.684  1.00  0.00     0.116 C 
BRANCH  30  31
ATOM     31  N   UNL     1       1.851   6.342   6.704  1.00  0.00    -0.352 N 
ATOM     32  C   UNL     1       2.201   7.656   6.882  1.00  0.00     0.251 C 
ATOM     33  H   UNL     1       1.591   6.092   5.788  1.00  0.00     0.163 HD
ATOM     34  O   UNL     1       2.058   8.466   5.973  1.00  0.00    -0.269 OA
BRANCH  32  35
ATOM     35  C   UNL     1       2.722   8.101   8.190  1.00  0.00     0.039 A 
ATOM     36  C   UNL     1       2.196   9.264   8.757  1.00  0.00     0.014 A 
ATOM     37  C   UNL     1       3.720   7.380   8.851  1.00  0.00     0.014 A 
ATOM     38  C   UNL     1       2.638   9.680  10.013  1.00  0.00     0.010 A 
ATOM     39  C   UNL     1       4.112   7.759  10.132  1.00  0.00     0.010 A 
ATOM     40  C   UNL     1       3.582   8.917  10.720  1.00  0.00    -0.014 A 
BRANCH  40  41
ATOM     41  C   UNL     1       4.034   9.331  12.070  1.00  0.00     0.031 A 
ATOM     42  C   UNL     1       5.459   9.751  12.293  1.00  0.00     0.074 A 
ATOM     43  C   UNL     1       3.170   9.283  13.103  1.00  0.00     0.049 A 
ATOM     44  N   UNL     1       6.050  10.120  13.402  1.00  0.00    -0.248 NA
ATOM     45  C   UNL     1       6.346   9.728  11.120  1.00  0.00     0.031 C 
ATOM     46  C   UNL     1       1.778   8.838  13.020  1.00  0.00     0.029 A 
ATOM     47  N   UNL     1       3.339   9.607  14.425  1.00  0.00    -0.354 N 
ATOM     48  C   UNL     1       7.375  10.358  13.062  1.00  0.00     0.074 A 
ATOM     49  C   UNL     1       7.515  10.040  11.657  1.00  0.00     0.031 C 
ATOM     50  C   UNL     1       1.212   8.942  14.233  1.00  0.00     0.029 A 
ATOM     51  C   UNL     1       2.207   9.432  15.182  1.00  0.00     0.049 A 
ATOM     52  H   UNL     1       4.191   9.933  14.796  1.00  0.00     0.167 HD
ATOM     53  C   UNL     1       8.377  10.826  13.844  1.00  0.00     0.037 A 
ATOM     54  C   UNL     1       1.997   9.649  16.494  1.00  0.00     0.037 A 
ATOM     55  C   UNL     1       8.225  11.166  15.234  1.00  0.00     0.049 A 
ATOM     56  C   UNL     1       3.121  10.189  17.336  1.00  0.00     0.074 A 
ATOM     57  C   UNL     1       9.163  11.697  16.102  1.00  0.00     0.029 A 
ATOM     58  N   UNL     1       7.053  11.008  15.960  1.00  0.00    -0.354 N 
ATOM     59  N   UNL     1       4.351  10.479  16.988  1.00  0.00    -0.248 NA
ATOM     60  C   UNL     1       2.821  10.447  18.751  1.00  0.00     0.031 C 
ATOM     61  C   UNL     1       8.570  11.825  17.363  1.00  0.00     0.029 A 
ATOM     62  C   UNL     1       7.248  11.420  17.269  1.00  0.00     0.049 A 
ATOM     63  H   UNL     1       6.208  10.656  15.599  1.00  0.00     0.167 HD
ATOM     64  C   UNL     1       4.962  10.982  18.128  1.00  0.00     0.074 A 
ATOM     65  C   UNL     1       3.962  10.972  19.175  1.00  0.00     0.031 C 
ATOM     66  C   UNL     1       6.237  11.414  18.294  1.00  0.00     0.037 A 
BRANCH  53  67
ATOM     67  C   UNL     1       9.726  11.002  13.209  1.00  0.00     0.064 A 
ATOM     68  C   UNL     1       9.963  12.005  12.256  1.00  0.00     0.173 A 
ATOM     69  C   UNL     1      10.801  10.179  13.576  1.00  0.00     0.173 A 
ATOM     70  F   UNL     1       8.966  12.810  11.860  1.00  0.00    -0.203 F 
ATOM     71  C   UNL     1      11.219  12.157  11.672  1.00  0.00     0.198 A 
ATOM     72  C   UNL     1      12.062  10.354  13.013  1.00  0.00     0.198 A 
ATOM     73  F   UNL     1      10.630   9.208  14.485  1.00  0.00    -0.203 F 
ATOM     74  F   UNL     1      11.408  13.087  10.726  1.00  0.00    -0.200 F 
ATOM     75  C   UNL     1      12.268  11.336  12.056  1.00  0.00     0.200 A 
ATOM     76  F   UNL     1      13.079   9.568  13.393  1.00  0.00    -0.200 F 
ATOM     77  F   UNL     1      13.477  11.487  11.497  1.00  0.00    -0.200 F 
ENDBRANCH  53  67
BRANCH  54  78
ATOM     78  C   UNL     1       0.657   9.395  17.084  1.00  0.00     0.064 A 
ATOM     79  C   UNL     1      -0.154  10.457  17.506  1.00  0.00     0.173 A 
ATOM     80  C   UNL     1       0.164   8.093  17.243  1.00  0.00     0.173 A 
ATOM     81  F   UNL     1       0.283  11.720  17.392  1.00  0.00    -0.203 F 
ATOM     82  C   UNL     1      -1.399  10.226  18.088  1.00  0.00     0.198 A 
ATOM     83  C   UNL     1      -1.093   7.863  17.800  1.00  0.00     0.198 A 
ATOM     84  F   UNL     1       0.899   7.043  16.849  1.00  0.00    -0.203 F 
ATOM     85  F   UNL     1      -2.133  11.257  18.528  1.00  0.00    -0.200 F 
ATOM     86  C   UNL     1      -1.869   8.929  18.230  1.00  0.00     0.200 A 
ATOM     87  F   UNL     1      -1.550   6.610  17.923  1.00  0.00    -0.200 F 
ATOM     88  F   UNL     1      -3.066   8.706  18.789  1.00  0.00    -0.200 F 
ENDBRANCH  54  78
BRANCH  66  89
ATOM     89  C   UNL     1       6.606  11.951  19.647  1.00  0.00     0.064 A 
ATOM     90  C   UNL     1       6.745  11.111  20.762  1.00  0.00     0.173 A 
ATOM     91  C   UNL     1       6.846  13.322  19.822  1.00  0.00     0.173 A 
ATOM     92  F   UNL     1       6.512   9.795  20.649  1.00  0.00    -0.203 F 
ATOM     93  C   UNL     1       7.078  11.630  22.010  1.00  0.00     0.198 A 
ATOM     94  C   UNL     1       7.210  13.833  21.064  1.00  0.00     0.198 A 
ATOM     95  F   UNL     1       6.734  14.166  18.785  1.00  0.00    -0.203 F 
ATOM     96  F   UNL     1       7.151  10.818  23.073  1.00  0.00    -0.200 F 
ATOM     97  C   UNL     1       7.316  12.989  22.159  1.00  0.00     0.200 A 
ATOM     98  F   UNL     1       7.452  15.144  21.203  1.00  0.00    -0.200 F 
ATOM     99  F   UNL     1       7.638  13.486  23.361  1.00  0.00    -0.200 F 
ENDBRANCH  66  89
ENDBRANCH  40  41
ENDBRANCH  32  35
ENDBRANCH  30  31
ENDBRANCH  29  30
ENDBRANCH   1  29
TORSDOF 15
