REMARK SMILES O=C(NCCCCNC(=O)[C@@H](Cc1ccccc1)N1C(=O)/C(=C/c2ccncc2)SC1=S)c1ccc(-c2c3nc(c(-c4c(F)c(F)c(F)c(F)c4F)c4ccc([nH]4)c(-c4c(F)c(F)c(F)c(F)c4F)c4nc(c(-c5c(F)c(F)c(F)c(F)c5F)c5ccc2[nH]5)C=C4)C=C3)cc1
REMARK SMILES IDX 5 1 4 2 3 3 1 4 2 5 33 7 34 8 95 9 35 10 94 11 36 12 37 13
REMARK SMILES IDX 38 14 88 15 39 16 93 17 87 18 89 19 40 20 92 21 86 22 85 23
REMARK SMILES IDX 41 25 73 26 53 27 72 28 54 29 57 30 71 31 90 32 55 33 56 34
REMARK SMILES IDX 70 36 91 37 58 38 42 39 43 40 51 41 44 42 45 43 49 44 52 45
REMARK SMILES IDX 46 46 47 47 50 48 48 49 74 50 75 51 83 52 76 53 77 54 81 55
REMARK SMILES IDX 84 56 78 57 79 58 82 59 80 60 59 61 60 62 68 63 61 64 62 65
REMARK SMILES IDX 66 66 69 67 63 68 64 69 67 70 65 71 6 72 7 73 8 74 9 75
REMARK SMILES IDX 10 77 11 78 12 79 13 80 14 81 18 82 15 83 17 84 16 85 19 86
REMARK SMILES IDX 20 87 31 88 21 89 22 90 30 91 32 92 23 93 24 94 25 95 29 96
REMARK SMILES IDX 26 97 28 98 27 99
REMARK H PARENT 3 6 89 24 57 35 8 76
REMARK Flexibility Score: inf
ROOT
ATOM      1  C   UNL     1       5.729  -1.877  -1.190  1.00  0.00     0.023 C 
ENDROOT
BRANCH   1   2
ATOM      2  C   UNL     1       5.050  -0.612  -0.689  1.00  0.00     0.116 C 
BRANCH   2   3
ATOM      3  N   UNL     1       3.598  -0.600  -0.840  1.00  0.00    -0.352 N 
ATOM      4  O   UNL     1       1.457  -0.200  -0.200  1.00  0.00    -0.269 OA
ATOM      5  C   UNL     1       2.651  -0.108   0.038  1.00  0.00     0.251 C 
ATOM      6  H   UNL     1       3.249  -0.992  -1.673  1.00  0.00     0.163 HD
BRANCH   5   7
ATOM      7  C   UNL     1       3.123   0.474   1.313  1.00  0.00     0.039 A 
ATOM      8  C   UNL     1       4.162   1.403   1.306  1.00  0.00     0.014 A 
ATOM      9  C   UNL     1       2.630  -0.032   2.517  1.00  0.00     0.014 A 
ATOM     10  C   UNL     1       4.860   1.643   2.480  1.00  0.00     0.010 A 
ATOM     11  C   UNL     1       3.263   0.308   3.716  1.00  0.00     0.010 A 
ATOM     12  C   UNL     1       4.425   1.093   3.700  1.00  0.00    -0.014 A 
BRANCH  12  13
ATOM     13  C   UNL     1       5.218   1.361   4.929  1.00  0.00     0.031 A 
ATOM     14  C   UNL     1       5.878   0.246   5.697  1.00  0.00     0.074 A 
ATOM     15  C   UNL     1       5.406   2.641   5.306  1.00  0.00     0.049 A 
ATOM     16  N   UNL     1       6.629   0.316   6.769  1.00  0.00    -0.248 NA
ATOM     17  C   UNL     1       5.665  -1.126   5.209  1.00  0.00     0.031 C 
ATOM     18  C   UNL     1       4.820   3.806   4.639  1.00  0.00     0.029 A 
ATOM     19  N   UNL     1       6.171   3.181   6.307  1.00  0.00    -0.354 N 
ATOM     20  C   UNL     1       6.940  -0.996   7.106  1.00  0.00     0.074 A 
ATOM     21  C   UNL     1       6.293  -1.845   6.130  1.00  0.00     0.031 C 
ATOM     22  C   UNL     1       5.311   4.922   5.192  1.00  0.00     0.029 A 
ATOM     23  C   UNL     1       6.181   4.554   6.303  1.00  0.00     0.049 A 
ATOM     24  H   UNL     1       6.664   2.638   6.963  1.00  0.00     0.167 HD
ATOM     25  C   UNL     1       7.698  -1.446   8.136  1.00  0.00     0.037 A 
ATOM     26  C   UNL     1       6.811   5.425   7.111  1.00  0.00     0.037 A 
ATOM     27  C   UNL     1       8.379  -0.594   9.078  1.00  0.00     0.049 A 
ATOM     28  C   UNL     1       7.653   4.898   8.234  1.00  0.00     0.074 A 
ATOM     29  C   UNL     1       9.197  -0.955  10.136  1.00  0.00     0.029 A 
ATOM     30  N   UNL     1       8.329   0.792   9.069  1.00  0.00    -0.354 N 
ATOM     31  N   UNL     1       7.929   3.655   8.545  1.00  0.00    -0.248 NA
ATOM     32  C   UNL     1       8.257   5.894   9.127  1.00  0.00     0.031 C 
ATOM     33  C   UNL     1       9.614   0.212  10.787  1.00  0.00     0.029 A 
ATOM     34  C   UNL     1       9.088   1.301  10.112  1.00  0.00     0.049 A 
ATOM     35  H   UNL     1       7.828   1.335   8.418  1.00  0.00     0.167 HD
ATOM     36  C   UNL     1       8.738   3.717   9.669  1.00  0.00     0.074 A 
ATOM     37  C   UNL     1       8.932   5.122   9.967  1.00  0.00     0.031 C 
ATOM     38  C   UNL     1       9.263   2.701  10.396  1.00  0.00     0.037 A 
BRANCH  25  39
ATOM     39  C   UNL     1       7.819  -2.931   8.320  1.00  0.00     0.064 A 
ATOM     40  C   UNL     1       8.609  -3.722   7.473  1.00  0.00     0.173 A 
ATOM     41  C   UNL     1       7.176  -3.564   9.396  1.00  0.00     0.173 A 
ATOM     42  F   UNL     1       9.235  -3.168   6.423  1.00  0.00    -0.203 F 
ATOM     43  C   UNL     1       8.735  -5.093   7.684  1.00  0.00     0.198 A 
ATOM     44  C   UNL     1       7.324  -4.931   9.618  1.00  0.00     0.198 A 
ATOM     45  F   UNL     1       6.413  -2.853  10.240  1.00  0.00    -0.203 F 
ATOM     46  F   UNL     1       9.467  -5.835   6.841  1.00  0.00    -0.200 F 
ATOM     47  C   UNL     1       8.099  -5.695   8.760  1.00  0.00     0.200 A 
ATOM     48  F   UNL     1       6.716  -5.508  10.665  1.00  0.00    -0.200 F 
ATOM     49  F   UNL     1       8.229  -7.013   8.967  1.00  0.00    -0.200 F 
ENDBRANCH  25  39
BRANCH  26  50
ATOM     50  C   UNL     1       6.658   6.882   6.876  1.00  0.00     0.064 A 
ATOM     51  C   UNL     1       7.727   7.649   6.396  1.00  0.00     0.173 A 
ATOM     52  C   UNL     1       5.430   7.527   7.086  1.00  0.00     0.173 A 
ATOM     53  F   UNL     1       8.925   7.079   6.198  1.00  0.00    -0.203 F 
ATOM     54  C   UNL     1       7.574   9.009   6.137  1.00  0.00     0.198 A 
ATOM     55  C   UNL     1       5.271   8.880   6.799  1.00  0.00     0.198 A 
ATOM     56  F   UNL     1       4.376   6.832   7.538  1.00  0.00    -0.203 F 
ATOM     57  F   UNL     1       8.619   9.727   5.704  1.00  0.00    -0.200 F 
ATOM     58  C   UNL     1       6.344   9.621   6.329  1.00  0.00     0.200 A 
ATOM     59  F   UNL     1       4.075   9.461   6.967  1.00  0.00    -0.200 F 
ATOM     60  F   UNL     1       6.193  10.925   6.062  1.00  0.00    -0.200 F 
ENDBRANCH  26  50
BRANCH  38  61
ATOM     61  C   UNL     1      10.104   3.082  11.575  1.00  0.00     0.064 A 
ATOM     62  C   UNL     1       9.525   3.573  12.755  1.00  0.00     0.173 A 
ATOM     63  C   UNL     1      11.499   2.947  11.529  1.00  0.00     0.173 A 
ATOM     64  F   UNL     1       8.196   3.737  12.837  1.00  0.00    -0.203 F 
ATOM     65  C   UNL     1      10.318   3.941  13.838  1.00  0.00     0.198 A 
ATOM     66  C   UNL     1      12.286   3.294  12.623  1.00  0.00     0.198 A 
ATOM     67  F   UNL     1      12.097   2.479  10.423  1.00  0.00    -0.203 F 
ATOM     68  F   UNL     1       9.749   4.453  14.938  1.00  0.00    -0.200 F 
ATOM     69  C   UNL     1      11.696   3.797  13.773  1.00  0.00     0.200 A 
ATOM     70  F   UNL     1      13.617   3.149  12.562  1.00  0.00    -0.200 F 
ATOM     71  F   UNL     1      12.457   4.155  14.816  1.00  0.00    -0.200 F 
ENDBRANCH  38  61
ENDBRANCH  12  13
ENDBRANCH   5   7
ENDBRANCH   2   3
ENDBRANCH   1   2
BRANCH   1  72
ATOM     72  C   UNL     1       5.528  -2.134  -2.674  1.00  0.00     0.023 C 
BRANCH  72  73
ATOM     73  C   UNL     1       6.152  -1.090  -3.600  1.00  0.00     0.116 C 
BRANCH  73  74
ATOM     74  N   UNL     1       7.271  -1.664  -4.309  1.00  0.00    -0.354 N 
ATOM     75  C   UNL     1       7.382  -2.139  -5.574  1.00  0.00     0.243 C 
ATOM     76  H   UNL     1       8.100  -1.720  -3.781  1.00  0.00     0.163 HD
ATOM     77  O   UNL     1       8.438  -2.728  -5.841  1.00  0.00    -0.273 OA
BRANCH  75  78
ATOM     78  C   UNL     1       6.258  -2.083  -6.638  1.00  0.00     0.185 C 
BRANCH  78  79
ATOM     79  C   UNL     1       5.248  -3.249  -6.323  1.00  0.00     0.071 C 
BRANCH  79  80
ATOM     80  C   UNL     1       4.040  -3.115  -5.402  1.00  0.00    -0.045 A 
ATOM     81  C   UNL     1       3.225  -1.979  -5.295  1.00  0.00     0.004 A 
ATOM     82  C   UNL     1       3.654  -4.250  -4.660  1.00  0.00     0.004 A 
ATOM     83  C   UNL     1       2.108  -1.953  -4.449  1.00  0.00     0.000 A 
ATOM     84  C   UNL     1       2.541  -4.227  -3.811  1.00  0.00     0.000 A 
ATOM     85  C   UNL     1       1.771  -3.074  -3.700  1.00  0.00     0.000 A 
ENDBRANCH  79  80
ENDBRANCH  78  79
BRANCH  78  86
ATOM     86  N   UNL     1       5.665  -0.789  -7.060  1.00  0.00    -0.280 N 
ATOM     87  C   UNL     1       4.640  -0.845  -7.997  1.00  0.00     0.266 C 
ATOM     88  C   UNL     1       6.257   0.460  -6.999  1.00  0.00     0.149 C 
ATOM     89  O   UNL     1       4.239  -1.839  -8.586  1.00  0.00    -0.268 OA
ATOM     90  C   UNL     1       4.094   0.505  -8.270  1.00  0.00     0.081 C 
ATOM     91  S   UNL     1       5.141   1.684  -7.621  1.00  0.00    -0.054 SA
ATOM     92  S   UNL     1       7.764   0.923  -6.461  1.00  0.00    -0.052 S 
ATOM     93  C   UNL     1       2.919   0.663  -8.892  1.00  0.00     0.029 C 
BRANCH  93  94
ATOM     94  C   UNL     1       2.250   1.937  -9.165  1.00  0.00    -0.021 A 
ATOM     95  C   UNL     1       2.806   2.878 -10.031  1.00  0.00     0.028 A 
ATOM     96  C   UNL     1       1.012   2.200  -8.579  1.00  0.00     0.028 A 
ATOM     97  C   UNL     1       2.107   4.051 -10.258  1.00  0.00     0.111 A 
ATOM     98  C   UNL     1       0.392   3.404  -8.869  1.00  0.00     0.111 A 
ATOM     99  N   UNL     1       0.913   4.336  -9.694  1.00  0.00    -0.265 NA
ENDBRANCH  93  94
ENDBRANCH  78  86
ENDBRANCH  75  78
ENDBRANCH  73  74
ENDBRANCH  72  73
ENDBRANCH   1  72
TORSDOF 15
