REMARK SMILES COc1ccc(Br)cc1CNc1ccc(N2CCOCC2)c(C(=O)NCCCCNC(=O)c2ccc(-c3c4nc(c(-c5c(F)c(F)c(F)c(F)c5F)c5ccc([nH]5)c(-c5c(F)c(F)c(F)c(F)c5F)c5nc(c(-c6c(F)c(F)c(F)c(F)c6F)c6ccc3[nH]6)C=C5)C=C4)cc2)c1
REMARK SMILES IDX 26 1 25 2 23 3 24 4 22 6 12 7 13 8 96 9 14 10 15 11 11 12
REMARK SMILES IDX 10 14 9 15 3 16 4 17 5 18 8 19 6 20 7 21 2 22 1 23 16 24
REMARK SMILES IDX 17 25 21 26 18 27 20 28 19 29 27 30 28 31 29 32 30 33 31 34
REMARK SMILES IDX 32 36 33 37 34 38 95 39 35 40 94 41 36 42 37 43 38 44 88 45
REMARK SMILES IDX 39 46 93 47 87 48 89 49 40 50 92 51 86 52 85 53 41 55 73 56
REMARK SMILES IDX 53 57 72 58 54 59 57 60 71 61 90 62 55 63 56 64 70 66 91 67
REMARK SMILES IDX 58 68 42 69 43 70 51 71 44 72 45 73 49 74 52 75 46 76 47 77
REMARK SMILES IDX 50 78 48 79 74 80 75 81 83 82 76 83 77 84 81 85 84 86 78 87
REMARK SMILES IDX 79 88 82 89 80 90 59 91 60 92 68 93 61 94 62 95 66 96 69 97
REMARK SMILES IDX 63 98 64 99 67 100 65 101
REMARK H PARENT 25 5 11 13 30 35 89 54 57 65
REMARK Flexibility Score: inf
ROOT
ATOM      1  C   UNL     1      -5.065  -3.558  -0.538  1.00  0.00     0.116 C 
ENDROOT
BRANCH   1   2
ATOM      2  N   UNL     1      -5.939  -4.411  -1.333  1.00  0.00    -0.352 N 
ATOM      3  C   UNL     1      -6.071  -4.583  -2.704  1.00  0.00     0.253 C 
ATOM      4  O   UNL     1      -6.811  -5.491  -3.075  1.00  0.00    -0.269 OA
ATOM      5  H   UNL     1      -6.549  -4.969  -0.798  1.00  0.00     0.163 HD
BRANCH   3   6
ATOM      6  C   UNL     1      -5.369  -3.686  -3.676  1.00  0.00     0.065 A 
ATOM      7  C   UNL     1      -3.428  -2.224  -3.999  1.00  0.00     0.035 A 
ATOM      8  C   UNL     1      -4.043  -1.715  -5.137  1.00  0.00     0.028 A 
ATOM      9  C   UNL     1      -4.070  -3.273  -3.351  1.00  0.00     0.041 A 
ATOM     10  C   UNL     1      -5.240  -2.263  -5.607  1.00  0.00     0.029 A 
ATOM     11  C   UNL     1      -5.920  -3.275  -4.905  1.00  0.00     0.050 A 
BRANCH   7  12
ATOM     12  N   UNL     1      -2.216  -1.719  -3.591  1.00  0.00    -0.381 N 
ATOM     13  H   UNL     1      -1.831  -0.989  -4.128  1.00  0.00     0.160 HD
BRANCH  12  14
ATOM     14  C   UNL     1      -1.450  -2.167  -2.437  1.00  0.00     0.152 C 
BRANCH  14  15
ATOM     15  C   UNL     1       0.019  -2.140  -2.777  1.00  0.00     0.014 A 
ATOM     16  C   UNL     1       0.976  -1.674  -1.866  1.00  0.00     0.123 A 
ATOM     17  C   UNL     1       2.332  -1.697  -2.204  1.00  0.00     0.048 A 
ATOM     18  C   UNL     1       2.740  -2.172  -3.455  1.00  0.00     0.019 A 
ATOM     19  C   UNL     1       0.447  -2.652  -4.018  1.00  0.00     0.025 A 
ATOM     20  C   UNL     1       1.795  -2.652  -4.355  1.00  0.00     0.018 A 
ATOM     21  Br  UNL     1       2.336  -3.320  -6.037  1.00  0.00    -0.051 Br
BRANCH  16  22
ATOM     22  O   UNL     1       0.540  -1.297  -0.623  1.00  0.00    -0.496 OA
ATOM     23  C   UNL     1       1.053  -0.038  -0.193  1.00  0.00     0.278 C 
ENDBRANCH  16  22
ENDBRANCH  14  15
ENDBRANCH  12  14
ENDBRANCH   7  12
BRANCH  11  24
ATOM     24  N   UNL     1      -6.988  -3.887  -5.521  1.00  0.00    -0.366 N 
ATOM     25  C   UNL     1      -8.378  -3.744  -5.096  1.00  0.00     0.145 C 
ATOM     26  C   UNL     1      -6.762  -4.605  -6.780  1.00  0.00     0.145 C 
ATOM     27  C   UNL     1      -9.132  -5.083  -5.243  1.00  0.00     0.181 C 
ATOM     28  C   UNL     1      -7.528  -5.932  -6.742  1.00  0.00     0.181 C 
ATOM     29  O   UNL     1      -8.931  -5.697  -6.531  1.00  0.00    -0.378 OA
ENDBRANCH  11  24
ENDBRANCH   3   6
ENDBRANCH   1   2
BRANCH   1  30
ATOM     30  C   UNL     1      -5.717  -2.888   0.663  1.00  0.00     0.023 C 
BRANCH  30  31
ATOM     31  C   UNL     1      -6.377  -3.805   1.681  1.00  0.00     0.023 C 
BRANCH  31  32
ATOM     32  C   UNL     1      -5.541  -4.981   2.164  1.00  0.00     0.116 C 
BRANCH  32  33
ATOM     33  N   UNL     1      -4.275  -4.598   2.770  1.00  0.00    -0.352 N 
ATOM     34  C   UNL     1      -3.727  -4.987   3.972  1.00  0.00     0.251 C 
ATOM     35  H   UNL     1      -3.731  -3.969   2.244  1.00  0.00     0.163 HD
ATOM     36  O   UNL     1      -2.675  -4.498   4.358  1.00  0.00    -0.269 OA
BRANCH  34  37
ATOM     37  C   UNL     1      -4.437  -5.972   4.818  1.00  0.00     0.039 A 
ATOM     38  C   UNL     1      -4.571  -5.712   6.185  1.00  0.00     0.014 A 
ATOM     39  C   UNL     1      -4.984  -7.134   4.269  1.00  0.00     0.014 A 
ATOM     40  C   UNL     1      -5.313  -6.583   6.986  1.00  0.00     0.010 A 
ATOM     41  C   UNL     1      -5.798  -7.949   5.047  1.00  0.00     0.010 A 
ATOM     42  C   UNL     1      -5.962  -7.690   6.417  1.00  0.00    -0.014 A 
BRANCH  42  43
ATOM     43  C   UNL     1      -6.781  -8.614   7.242  1.00  0.00     0.031 A 
ATOM     44  C   UNL     1      -6.365 -10.053   7.386  1.00  0.00     0.074 A 
ATOM     45  C   UNL     1      -7.922  -8.180   7.811  1.00  0.00     0.049 A 
ATOM     46  N   UNL     1      -6.971 -11.035   8.004  1.00  0.00    -0.248 NA
ATOM     47  C   UNL     1      -5.114 -10.448   6.718  1.00  0.00     0.031 C 
ATOM     48  C   UNL     1      -8.460  -6.823   7.703  1.00  0.00     0.029 A 
ATOM     49  N   UNL     1      -8.840  -8.839   8.590  1.00  0.00    -0.354 N 
ATOM     50  C   UNL     1      -6.188 -12.160   7.782  1.00  0.00     0.074 A 
ATOM     51  C   UNL     1      -5.099 -11.756   6.920  1.00  0.00     0.031 C 
ATOM     52  C   UNL     1      -9.598  -6.743   8.412  1.00  0.00     0.029 A 
ATOM     53  C   UNL     1      -9.887  -8.049   8.998  1.00  0.00     0.049 A 
ATOM     54  H   UNL     1      -8.756  -9.789   8.833  1.00  0.00     0.167 HD
ATOM     55  C   UNL     1      -6.343 -13.412   8.276  1.00  0.00     0.037 A 
ATOM     56  C   UNL     1     -10.956  -8.347   9.760  1.00  0.00     0.037 A 
ATOM     57  C   UNL     1      -7.410 -13.804   9.158  1.00  0.00     0.049 A 
ATOM     58  C   UNL     1     -11.097  -9.742  10.310  1.00  0.00     0.074 A 
ATOM     59  C   UNL     1      -7.636 -15.035   9.748  1.00  0.00     0.029 A 
ATOM     60  N   UNL     1      -8.429 -12.963   9.582  1.00  0.00    -0.354 N 
ATOM     61  N   UNL     1     -10.318 -10.783  10.143  1.00  0.00    -0.248 NA
ATOM     62  C   UNL     1     -12.261  -9.998  11.170  1.00  0.00     0.031 C 
ATOM     63  C   UNL     1      -8.812 -14.949  10.501  1.00  0.00     0.029 A 
ATOM     64  C   UNL     1      -9.289 -13.650  10.422  1.00  0.00     0.049 A 
ATOM     65  H   UNL     1      -8.526 -12.018   9.323  1.00  0.00     0.167 HD
ATOM     66  C   UNL     1     -10.870 -11.801  10.908  1.00  0.00     0.074 A 
ATOM     67  C   UNL     1     -12.047 -11.250  11.547  1.00  0.00     0.031 C 
ATOM     68  C   UNL     1     -10.441 -13.077  11.070  1.00  0.00     0.037 A 
BRANCH  55  69
ATOM     69  C   UNL     1      -5.325 -14.442   7.878  1.00  0.00     0.064 A 
ATOM     70  C   UNL     1      -3.997 -14.376   8.330  1.00  0.00     0.173 A 
ATOM     71  C   UNL     1      -5.682 -15.518   7.051  1.00  0.00     0.173 A 
ATOM     72  F   UNL     1      -3.599 -13.360   9.111  1.00  0.00    -0.203 F 
ATOM     73  C   UNL     1      -3.058 -15.327   7.940  1.00  0.00     0.198 A 
ATOM     74  C   UNL     1      -4.748 -16.486   6.691  1.00  0.00     0.198 A 
ATOM     75  F   UNL     1      -6.938 -15.633   6.595  1.00  0.00    -0.203 F 
ATOM     76  F   UNL     1      -1.783 -15.209   8.336  1.00  0.00    -0.200 F 
ATOM     77  C   UNL     1      -3.436 -16.385   7.127  1.00  0.00     0.200 A 
ATOM     78  F   UNL     1      -5.117 -17.515   5.916  1.00  0.00    -0.200 F 
ATOM     79  F   UNL     1      -2.532 -17.302   6.756  1.00  0.00    -0.200 F 
ENDBRANCH  55  69
BRANCH  56  80
ATOM     80  C   UNL     1     -11.955  -7.297  10.091  1.00  0.00     0.064 A 
ATOM     81  C   UNL     1     -12.071  -6.803  11.398  1.00  0.00     0.173 A 
ATOM     82  C   UNL     1     -12.823  -6.778   9.119  1.00  0.00     0.173 A 
ATOM     83  F   UNL     1     -11.276  -7.281  12.367  1.00  0.00    -0.203 F 
ATOM     84  C   UNL     1     -13.034  -5.852  11.727  1.00  0.00     0.198 A 
ATOM     85  C   UNL     1     -13.767  -5.806   9.444  1.00  0.00     0.198 A 
ATOM     86  F   UNL     1     -12.750  -7.212   7.853  1.00  0.00    -0.203 F 
ATOM     87  F   UNL     1     -13.157  -5.438  12.996  1.00  0.00    -0.200 F 
ATOM     88  C   UNL     1     -13.879  -5.351  10.749  1.00  0.00     0.200 A 
ATOM     89  F   UNL     1     -14.573  -5.314   8.493  1.00  0.00    -0.200 F 
ATOM     90  F   UNL     1     -14.807  -4.437  11.066  1.00  0.00    -0.200 F 
ENDBRANCH  56  80
BRANCH  68  91
ATOM     91  C   UNL     1     -11.208 -13.944  12.026  1.00  0.00     0.064 A 
ATOM     92  C   UNL     1     -12.495 -14.416  11.732  1.00  0.00     0.173 A 
ATOM     93  C   UNL     1     -10.628 -14.331  13.244  1.00  0.00     0.173 A 
ATOM     94  F   UNL     1     -13.098 -14.064  10.586  1.00  0.00    -0.203 F 
ATOM     95  C   UNL     1     -13.189 -15.213  12.639  1.00  0.00     0.198 A 
ATOM     96  C   UNL     1     -11.311 -15.155  14.134  1.00  0.00     0.198 A 
ATOM     97  F   UNL     1      -9.395 -13.914  13.569  1.00  0.00    -0.203 F 
ATOM     98  F   UNL     1     -14.440 -15.605  12.363  1.00  0.00    -0.200 F 
ATOM     99  C   UNL     1     -12.594 -15.587  13.835  1.00  0.00     0.200 A 
ATOM    100  F   UNL     1     -10.729 -15.527  15.282  1.00  0.00    -0.200 F 
ATOM    101  F   UNL     1     -13.262 -16.357  14.705  1.00  0.00    -0.200 F 
ENDBRANCH  68  91
ENDBRANCH  42  43
ENDBRANCH  34  37
ENDBRANCH  32  33
ENDBRANCH  31  32
ENDBRANCH  30  31
ENDBRANCH   1  30
TORSDOF 16
