REMARK SMILES O=C(NCCCCNC(=O)[C@H]1[C@H]2CC[C@H](C2)[C@@H]1C(=O)N1CC[NH+](C2CCCCC2)CC1)c1ccc(-c2c3nc(c(-c4c(F)c(F)c(F)c(F)c4F)c4ccc([nH]4)c(-c4c(F)c(F)c(F)c(F)c4F)c4nc(c(-c5c(F)c(F)c(F)c(F)c5F)c5ccc2[nH]5)C=C4)C=C3)cc1
REMARK SMILES IDX 5 1 4 2 3 3 1 4 2 5 32 7 33 8 94 9 34 10 93 11 35 12 36 13
REMARK SMILES IDX 37 14 87 15 38 16 92 17 86 18 88 19 39 20 91 21 85 22 84 23
REMARK SMILES IDX 40 25 72 26 52 27 71 28 53 29 56 30 70 31 89 32 54 33 55 34
REMARK SMILES IDX 69 36 90 37 57 38 41 39 42 40 50 41 43 42 44 43 48 44 51 45
REMARK SMILES IDX 45 46 46 47 49 48 47 49 73 50 74 51 82 52 75 53 76 54 80 55
REMARK SMILES IDX 83 56 77 57 78 58 81 59 79 60 58 61 59 62 67 63 60 64 61 65
REMARK SMILES IDX 65 66 68 67 62 68 63 69 66 70 64 71 6 72 7 73 8 74 9 75
REMARK SMILES IDX 10 77 11 78 12 79 17 80 13 81 16 82 15 83 14 84 18 85 19 86
REMARK SMILES IDX 20 87 21 88 31 89 22 90 30 91 23 92 24 94 25 95 29 96 26 97
REMARK SMILES IDX 28 98 27 99
REMARK H PARENT 3 6 88 24 56 35 8 76 23 93
REMARK Flexibility Score: inf
ROOT
ATOM      1  C   UNL     1       9.451   3.698   9.748  1.00  0.00     0.023 C 
ENDROOT
BRANCH   1   2
ATOM      2  C   UNL     1      10.687   2.824   9.876  1.00  0.00     0.116 C 
BRANCH   2   3
ATOM      3  N   UNL     1      11.901   3.500   9.451  1.00  0.00    -0.352 N 
ATOM      4  O   UNL     1      14.064   4.138   9.630  1.00  0.00    -0.269 OA
ATOM      5  C   UNL     1      13.152   3.418  10.011  1.00  0.00     0.251 C 
ATOM      6  H   UNL     1      11.817   4.088   8.666  1.00  0.00     0.163 HD
BRANCH   5   7
ATOM      7  C   UNL     1      13.371   2.456  11.109  1.00  0.00     0.039 A 
ATOM      8  C   UNL     1      12.954   1.129  10.976  1.00  0.00     0.014 A 
ATOM      9  C   UNL     1      13.987   2.896  12.282  1.00  0.00     0.014 A 
ATOM     10  C   UNL     1      13.064   0.262  12.054  1.00  0.00     0.010 A 
ATOM     11  C   UNL     1      14.165   2.004  13.339  1.00  0.00     0.010 A 
ATOM     12  C   UNL     1      13.697   0.684  13.234  1.00  0.00    -0.014 A 
BRANCH  12  13
ATOM     13  C   UNL     1      13.980  -0.304  14.299  1.00  0.00     0.031 A 
ATOM     14  C   UNL     1      13.325  -0.211  15.643  1.00  0.00     0.074 A 
ATOM     15  C   UNL     1      14.870  -1.278  14.031  1.00  0.00     0.049 A 
ATOM     16  N   UNL     1      13.510  -0.961  16.699  1.00  0.00    -0.248 NA
ATOM     17  C   UNL     1      12.340   0.865  15.835  1.00  0.00     0.031 C 
ATOM     18  C   UNL     1      15.579  -1.441  12.758  1.00  0.00     0.029 A 
ATOM     19  N   UNL     1      15.340  -2.307  14.805  1.00  0.00    -0.354 N 
ATOM     20  C   UNL     1      12.688  -0.438  17.687  1.00  0.00     0.074 A 
ATOM     21  C   UNL     1      12.006   0.702  17.110  1.00  0.00     0.031 C 
ATOM     22  C   UNL     1      16.380  -2.512  12.833  1.00  0.00     0.029 A 
ATOM     23  C   UNL     1      16.292  -3.071  14.176  1.00  0.00     0.049 A 
ATOM     24  H   UNL     1      15.025  -2.481  15.721  1.00  0.00     0.167 HD
ATOM     25  C   UNL     1      12.525  -0.878  18.957  1.00  0.00     0.037 A 
ATOM     26  C   UNL     1      17.043  -4.084  14.643  1.00  0.00     0.037 A 
ATOM     27  C   UNL     1      13.190  -2.033  19.504  1.00  0.00     0.049 A 
ATOM     28  C   UNL     1      16.857  -4.526  16.064  1.00  0.00     0.074 A 
ATOM     29  C   UNL     1      13.018  -2.618  20.746  1.00  0.00     0.029 A 
ATOM     30  N   UNL     1      14.165  -2.769  18.847  1.00  0.00    -0.354 N 
ATOM     31  N   UNL     1      16.025  -4.069  16.967  1.00  0.00    -0.248 NA
ATOM     32  C   UNL     1      17.720  -5.616  16.536  1.00  0.00     0.031 C 
ATOM     33  C   UNL     1      13.928  -3.673  20.862  1.00  0.00     0.029 A 
ATOM     34  C   UNL     1      14.636  -3.775  19.675  1.00  0.00     0.049 A 
ATOM     35  H   UNL     1      14.476  -2.602  17.928  1.00  0.00     0.167 HD
ATOM     36  C   UNL     1      16.259  -4.814  18.111  1.00  0.00     0.074 A 
ATOM     37  C   UNL     1      17.293  -5.774  17.781  1.00  0.00     0.031 C 
ATOM     38  C   UNL     1      15.675  -4.709  19.329  1.00  0.00     0.037 A 
BRANCH  25  39
ATOM     39  C   UNL     1      11.608  -0.111  19.863  1.00  0.00     0.064 A 
ATOM     40  C   UNL     1      10.214  -0.187  19.740  1.00  0.00     0.173 A 
ATOM     41  C   UNL     1      12.135   0.634  20.929  1.00  0.00     0.173 A 
ATOM     42  F   UNL     1       9.661  -0.882  18.735  1.00  0.00    -0.203 F 
ATOM     43  C   UNL     1       9.380   0.460  20.649  1.00  0.00     0.198 A 
ATOM     44  C   UNL     1      11.299   1.262  21.848  1.00  0.00     0.198 A 
ATOM     45  F   UNL     1      13.463   0.733  21.094  1.00  0.00    -0.203 F 
ATOM     46  F   UNL     1       8.049   0.389  20.504  1.00  0.00    -0.200 F 
ATOM     47  C   UNL     1       9.922   1.175  21.707  1.00  0.00     0.200 A 
ATOM     48  F   UNL     1      11.825   1.942  22.876  1.00  0.00    -0.200 F 
ATOM     49  F   UNL     1       9.117   1.781  22.592  1.00  0.00    -0.200 F 
ENDBRANCH  25  39
BRANCH  26  50
ATOM     50  C   UNL     1      18.064  -4.709  13.764  1.00  0.00     0.064 A 
ATOM     51  C   UNL     1      17.918  -6.025  13.308  1.00  0.00     0.173 A 
ATOM     52  C   UNL     1      19.202  -3.996  13.356  1.00  0.00     0.173 A 
ATOM     53  F   UNL     1      16.856  -6.751  13.686  1.00  0.00    -0.203 F 
ATOM     54  C   UNL     1      18.881  -6.610  12.488  1.00  0.00     0.198 A 
ATOM     55  C   UNL     1      20.147  -4.572  12.512  1.00  0.00     0.198 A 
ATOM     56  F   UNL     1      19.384  -2.731  13.762  1.00  0.00    -0.203 F 
ATOM     57  F   UNL     1      18.739  -7.885  12.099  1.00  0.00    -0.200 F 
ATOM     58  C   UNL     1      19.990  -5.882  12.086  1.00  0.00     0.200 A 
ATOM     59  F   UNL     1      21.208  -3.858  12.112  1.00  0.00    -0.200 F 
ATOM     60  F   UNL     1      20.912  -6.444  11.292  1.00  0.00    -0.200 F 
ENDBRANCH  26  50
BRANCH  38  61
ATOM     61  C   UNL     1      16.148  -5.655  20.391  1.00  0.00     0.064 A 
ATOM     62  C   UNL     1      17.394  -5.487  21.011  1.00  0.00     0.173 A 
ATOM     63  C   UNL     1      15.334  -6.714  20.819  1.00  0.00     0.173 A 
ATOM     64  F   UNL     1      18.215  -4.500  20.620  1.00  0.00    -0.203 F 
ATOM     65  C   UNL     1      17.817  -6.357  22.011  1.00  0.00     0.198 A 
ATOM     66  C   UNL     1      15.749  -7.566  21.837  1.00  0.00     0.198 A 
ATOM     67  F   UNL     1      14.132  -6.913  20.257  1.00  0.00    -0.203 F 
ATOM     68  F   UNL     1      19.029  -6.204  22.561  1.00  0.00    -0.200 F 
ATOM     69  C   UNL     1      16.991  -7.391  22.428  1.00  0.00     0.200 A 
ATOM     70  F   UNL     1      14.946  -8.558  22.247  1.00  0.00    -0.200 F 
ATOM     71  F   UNL     1      17.397  -8.223  23.397  1.00  0.00    -0.200 F 
ENDBRANCH  38  61
ENDBRANCH  12  13
ENDBRANCH   5   7
ENDBRANCH   2   3
ENDBRANCH   1   2
BRANCH   1  72
ATOM     72  C   UNL     1       9.156   4.170   8.325  1.00  0.00     0.023 C 
BRANCH  72  73
ATOM     73  C   UNL     1       8.904   3.042   7.324  1.00  0.00     0.116 C 
BRANCH  73  74
ATOM     74  N   UNL     1       7.696   2.313   7.633  1.00  0.00    -0.356 N 
ATOM     75  C   UNL     1       6.433   2.417   7.155  1.00  0.00     0.224 C 
ATOM     76  H   UNL     1       7.812   1.612   8.314  1.00  0.00     0.163 HD
ATOM     77  O   UNL     1       5.624   1.602   7.611  1.00  0.00    -0.275 OA
BRANCH  75  78
ATOM     78  C   UNL     1       6.037   3.371   6.025  1.00  0.00     0.094 C 
ATOM     79  C   UNL     1       4.480   3.507   5.981  1.00  0.00     0.002 C 
ATOM     80  C   UNL     1       6.471   4.856   6.065  1.00  0.00     0.094 C 
ATOM     81  C   UNL     1       3.927   4.146   7.276  1.00  0.00     0.005 C 
ATOM     82  C   UNL     1       4.300   4.661   5.007  1.00  0.00     0.009 C 
ATOM     83  C   UNL     1       5.150   5.624   5.838  1.00  0.00     0.002 C 
ATOM     84  C   UNL     1       4.375   5.610   7.169  1.00  0.00     0.005 C 
BRANCH  80  85
ATOM     85  C   UNL     1       7.609   5.217   5.097  1.00  0.00     0.227 C 
ATOM     86  O   UNL     1       8.658   5.704   5.525  1.00  0.00    -0.275 OA
ATOM     87  N   UNL     1       7.487   4.833   3.778  1.00  0.00    -0.331 N 
ATOM     88  C   UNL     1       8.640   4.195   3.140  1.00  0.00     0.181 C 
ATOM     89  C   UNL     1       6.704   5.647   2.856  1.00  0.00     0.181 C 
ATOM     90  C   UNL     1       8.252   3.446   1.840  1.00  0.00     0.284 C 
ATOM     91  C   UNL     1       6.263   4.809   1.652  1.00  0.00     0.284 C 
ATOM     92  N   UNL     1       7.370   4.183   0.910  1.00  0.00    -0.330 N 
ATOM     93  H   UNL     1       6.925   3.509   0.288  1.00  0.00     0.348 HD
BRANCH  92  94
ATOM     94  C   UNL     1       8.058   4.985  -0.123  1.00  0.00     0.184 C 
ATOM     95  C   UNL     1       7.064   5.765  -1.014  1.00  0.00     0.065 C 
ATOM     96  C   UNL     1       9.203   5.899   0.365  1.00  0.00     0.065 C 
ATOM     97  C   UNL     1       7.752   6.548  -2.128  1.00  0.00     0.006 C 
ATOM     98  C   UNL     1       9.836   6.719  -0.759  1.00  0.00     0.006 C 
ATOM     99  C   UNL     1       8.793   7.495  -1.549  1.00  0.00     0.000 C 
ENDBRANCH  92  94
ENDBRANCH  80  85
ENDBRANCH  75  78
ENDBRANCH  73  74
ENDBRANCH  72  73
ENDBRANCH   1  72
TORSDOF 13
