REMARK SMILES CC(C)(C[S@@](=O)c1ccc(C(C)(C)C)cc1)C(=O)NCCCCNC(=O)c1ccc(-c2c3nc(c(-c4c(F)c(F)c(F)c(F)c4F)c4ccc([nH]4)c(-c4c(F)c(F)c(F)c(F)c4F)c4nc(c(-c5c(F)c(F)c(F)c(F)c5F)c5ccc2[nH]5)C=C4)C=C3)cc1
REMARK SMILES IDX 20 1 19 2 17 3 18 4 2 6 1 7 3 8 4 9 5 10 6 11 7 12 8 13
REMARK SMILES IDX 16 14 9 15 15 16 10 17 11 18 12 19 13 20 14 21 21 22 22 23
REMARK SMILES IDX 23 24 24 25 25 26 26 28 27 29 28 30 89 31 29 32 88 33 30 34
REMARK SMILES IDX 31 35 32 36 82 37 33 38 87 39 81 40 83 41 34 42 86 43 80 44
REMARK SMILES IDX 79 45 35 47 67 48 47 49 66 50 48 51 51 52 65 53 84 54 49 55
REMARK SMILES IDX 50 56 64 58 85 59 52 60 36 61 37 62 45 63 38 64 39 65 43 66
REMARK SMILES IDX 46 67 40 68 41 69 44 70 42 71 68 72 69 73 77 74 70 75 71 76
REMARK SMILES IDX 75 77 78 78 72 79 73 80 76 81 74 82 53 83 54 84 62 85 55 86
REMARK SMILES IDX 56 87 60 88 63 89 57 90 58 91 61 92 59 93
REMARK H PARENT 19 5 24 27 83 46 51 57
REMARK Flexibility Score: inf
ROOT
ATOM      1  C   UNL     1      -0.362   2.888  -3.152  1.00  0.00     0.116 C 
ENDROOT
BRANCH   1   2
ATOM      2  N   UNL     1       0.538   3.001  -2.020  1.00  0.00    -0.356 N 
ATOM      3  C   UNL     1       0.989   2.108  -1.102  1.00  0.00     0.226 C 
ATOM      4  O   UNL     1       1.749   2.565  -0.242  1.00  0.00    -0.274 OA
ATOM      5  H   UNL     1       0.893   3.910  -1.890  1.00  0.00     0.163 HD
BRANCH   3   6
ATOM      6  C   UNL     1       0.591   0.622  -1.105  1.00  0.00     0.055 C 
ATOM      7  C   UNL     1       1.343  -0.097   0.042  1.00  0.00     0.022 C 
ATOM      8  C   UNL     1       1.087  -0.061  -2.399  1.00  0.00     0.022 C 
BRANCH   6   9
ATOM      9  C   UNL     1      -0.927   0.415  -0.951  1.00  0.00     0.126 C 
BRANCH   9  10
ATOM     10  S   UNL     1      -1.731   1.384   0.375  1.00  0.00     0.054 S 
ATOM     11  O   UNL     1      -3.209   1.271   0.139  1.00  0.00    -0.254 OA
BRANCH  10  12
ATOM     12  C   UNL     1      -1.413   0.337   1.805  1.00  0.00     0.039 A 
ATOM     13  C   UNL     1      -1.663  -1.034   1.796  1.00  0.00     0.018 A 
ATOM     14  C   UNL     1      -0.895   0.922   2.962  1.00  0.00     0.018 A 
ATOM     15  C   UNL     1      -1.320  -1.820   2.900  1.00  0.00     0.005 A 
ATOM     16  C   UNL     1      -0.581   0.137   4.078  1.00  0.00     0.005 A 
ATOM     17  C   UNL     1      -0.771  -1.254   4.067  1.00  0.00    -0.043 A 
BRANCH  17  18
ATOM     18  C   UNL     1      -0.398  -2.156   5.256  1.00  0.00    -0.013 C 
ATOM     19  C   UNL     1      -1.613  -3.015   5.671  1.00  0.00     0.016 C 
ATOM     20  C   UNL     1       0.764  -3.083   4.842  1.00  0.00     0.016 C 
ATOM     21  C   UNL     1       0.055  -1.377   6.511  1.00  0.00     0.016 C 
ENDBRANCH  17  18
ENDBRANCH  10  12
ENDBRANCH   9  10
ENDBRANCH   6   9
ENDBRANCH   3   6
ENDBRANCH   1   2
BRANCH   1  22
ATOM     22  C   UNL     1      -1.627   3.721  -2.965  1.00  0.00     0.023 C 
BRANCH  22  23
ATOM     23  C   UNL     1      -1.403   5.233  -2.935  1.00  0.00     0.023 C 
BRANCH  23  24
ATOM     24  C   UNL     1      -0.640   5.801  -4.126  1.00  0.00     0.116 C 
BRANCH  24  25
ATOM     25  N   UNL     1      -1.260   5.493  -5.407  1.00  0.00    -0.352 N 
ATOM     26  C   UNL     1      -1.469   6.316  -6.486  1.00  0.00     0.251 C 
ATOM     27  H   UNL     1      -1.572   4.565  -5.514  1.00  0.00     0.163 HD
ATOM     28  O   UNL     1      -2.110   5.919  -7.455  1.00  0.00    -0.269 OA
BRANCH  26  29
ATOM     29  C   UNL     1      -0.949   7.698  -6.460  1.00  0.00     0.039 A 
ATOM     30  C   UNL     1      -1.803   8.746  -6.814  1.00  0.00     0.014 A 
ATOM     31  C   UNL     1       0.364   7.960  -6.061  1.00  0.00     0.014 A 
ATOM     32  C   UNL     1      -1.359  10.065  -6.701  1.00  0.00     0.010 A 
ATOM     33  C   UNL     1       0.778   9.275  -5.878  1.00  0.00     0.010 A 
ATOM     34  C   UNL     1      -0.078  10.341  -6.197  1.00  0.00    -0.014 A 
BRANCH  34  35
ATOM     35  C   UNL     1       0.389  11.736  -6.002  1.00  0.00     0.031 A 
ATOM     36  C   UNL     1       1.559  12.253  -6.791  1.00  0.00     0.074 A 
ATOM     37  C   UNL     1      -0.194  12.512  -5.069  1.00  0.00     0.049 A 
ATOM     38  N   UNL     1       2.168  13.409  -6.710  1.00  0.00    -0.248 NA
ATOM     39  C   UNL     1       2.142  11.337  -7.785  1.00  0.00     0.031 C 
ATOM     40  C   UNL     1      -1.305  12.109  -4.205  1.00  0.00     0.029 A 
ATOM     41  N   UNL     1       0.077  13.801  -4.680  1.00  0.00    -0.354 N 
ATOM     42  C   UNL     1       3.211  13.351  -7.625  1.00  0.00     0.074 A 
ATOM     43  C   UNL     1       3.187  12.029  -8.211  1.00  0.00     0.031 C 
ATOM     44  C   UNL     1      -1.635  13.135  -3.405  1.00  0.00     0.029 A 
ATOM     45  C   UNL     1      -0.736  14.255  -3.670  1.00  0.00     0.049 A 
ATOM     46  H   UNL     1       0.786  14.349  -5.088  1.00  0.00     0.167 HD
ATOM     47  C   UNL     1       4.091  14.322  -7.965  1.00  0.00     0.037 A 
ATOM     48  C   UNL     1      -0.749  15.438  -3.027  1.00  0.00     0.037 A 
ATOM     49  C   UNL     1       4.093  15.646  -7.401  1.00  0.00     0.049 A 
ATOM     50  C   UNL     1       0.243  16.499  -3.422  1.00  0.00     0.074 A 
ATOM     51  C   UNL     1       4.904  16.720  -7.722  1.00  0.00     0.029 A 
ATOM     52  N   UNL     1       3.238  16.076  -6.396  1.00  0.00    -0.354 N 
ATOM     53  N   UNL     1       1.179  16.457  -4.338  1.00  0.00    -0.248 NA
ATOM     54  C   UNL     1       0.170  17.775  -2.698  1.00  0.00     0.031 C 
ATOM     55  C   UNL     1       4.571  17.787  -6.880  1.00  0.00     0.029 A 
ATOM     56  C   UNL     1       3.517  17.394  -6.071  1.00  0.00     0.049 A 
ATOM     57  H   UNL     1       2.537  15.527  -5.976  1.00  0.00     0.167 HD
ATOM     58  C   UNL     1       1.786  17.706  -4.322  1.00  0.00     0.074 A 
ATOM     59  C   UNL     1       1.101  18.489  -3.314  1.00  0.00     0.031 C 
ATOM     60  C   UNL     1       2.817  18.163  -5.073  1.00  0.00     0.037 A 
BRANCH  47  61
ATOM     61  C   UNL     1       5.125  13.990  -9.002  1.00  0.00     0.064 A 
ATOM     62  C   UNL     1       4.779  13.792 -10.348  1.00  0.00     0.173 A 
ATOM     63  C   UNL     1       6.481  13.902  -8.654  1.00  0.00     0.173 A 
ATOM     64  F   UNL     1       3.495  13.852 -10.731  1.00  0.00    -0.203 F 
ATOM     65  C   UNL     1       5.749  13.489 -11.300  1.00  0.00     0.198 A 
ATOM     66  C   UNL     1       7.452  13.630  -9.614  1.00  0.00     0.198 A 
ATOM     67  F   UNL     1       6.867  14.087  -7.382  1.00  0.00    -0.203 F 
ATOM     68  F   UNL     1       5.388  13.253 -12.569  1.00  0.00    -0.200 F 
ATOM     69  C   UNL     1       7.084  13.415 -10.934  1.00  0.00     0.200 A 
ATOM     70  F   UNL     1       8.743  13.572  -9.262  1.00  0.00    -0.200 F 
ATOM     71  F   UNL     1       8.017  13.131 -11.853  1.00  0.00    -0.200 F 
ENDBRANCH  47  61
BRANCH  48  72
ATOM     72  C   UNL     1      -1.749  15.693  -1.957  1.00  0.00     0.064 A 
ATOM     73  C   UNL     1      -2.787  16.617  -2.150  1.00  0.00     0.173 A 
ATOM     74  C   UNL     1      -1.684  15.034  -0.722  1.00  0.00     0.173 A 
ATOM     75  F   UNL     1      -2.878  17.289  -3.307  1.00  0.00    -0.203 F 
ATOM     76  C   UNL     1      -3.706  16.889  -1.139  1.00  0.00     0.198 A 
ATOM     77  C   UNL     1      -2.622  15.285   0.279  1.00  0.00     0.198 A 
ATOM     78  F   UNL     1      -0.714  14.138  -0.488  1.00  0.00    -0.203 F 
ATOM     79  F   UNL     1      -4.656  17.813  -1.332  1.00  0.00    -0.200 F 
ATOM     80  C   UNL     1      -3.626  16.219   0.073  1.00  0.00     0.200 A 
ATOM     81  F   UNL     1      -2.549  14.626   1.443  1.00  0.00    -0.200 F 
ATOM     82  F   UNL     1      -4.511  16.480   1.045  1.00  0.00    -0.200 F 
ENDBRANCH  48  72
BRANCH  60  83
ATOM     83  C   UNL     1       3.244  19.587  -4.864  1.00  0.00     0.064 A 
ATOM     84  C   UNL     1       3.925  19.990  -3.707  1.00  0.00     0.173 A 
ATOM     85  C   UNL     1       3.005  20.550  -5.856  1.00  0.00     0.173 A 
ATOM     86  F   UNL     1       4.164  19.110  -2.723  1.00  0.00    -0.203 F 
ATOM     87  C   UNL     1       4.329  21.312  -3.539  1.00  0.00     0.198 A 
ATOM     88  C   UNL     1       3.438  21.863  -5.699  1.00  0.00     0.198 A 
ATOM     89  F   UNL     1       2.364  20.214  -6.986  1.00  0.00    -0.203 F 
ATOM     90  F   UNL     1       4.937  21.686  -2.405  1.00  0.00    -0.200 F 
ATOM     91  C   UNL     1       4.093  22.245  -4.538  1.00  0.00     0.200 A 
ATOM     92  F   UNL     1       3.221  22.760  -6.671  1.00  0.00    -0.200 F 
ATOM     93  F   UNL     1       4.491  23.515  -4.378  1.00  0.00    -0.200 F 
ENDBRANCH  60  83
ENDBRANCH  34  35
ENDBRANCH  26  29
ENDBRANCH  24  25
ENDBRANCH  23  24
ENDBRANCH  22  23
ENDBRANCH   1  22
TORSDOF 15
