REMARK SMILES CC(C)(O)CC[C@@H](C(=O)NCCCCNC(=O)c1ccc(-c2c3nc(c(-c4c(F)c(F)c(F)c(F)c4F)c4ccc([nH]4)c(-c4c(F)c(F)c(F)c(F)c4F)c4nc(c(-c5c(F)c(F)c(F)c(F)c5F)c5ccc2[nH]5)C=C4)C=C3)cc1)[C@@H]1CCS(=O)(=O)C1
REMARK SMILES IDX 11 1 10 2 8 3 9 4 7 6 6 7 5 8 2 9 1 10 3 11 4 12 81 14 82 15
REMARK SMILES IDX 87 16 83 17 84 18 85 19 86 20 12 21 13 22 14 23 15 24 16 25
REMARK SMILES IDX 17 27 18 28 19 29 80 30 20 31 79 32 21 33 22 34 23 35 73 36
REMARK SMILES IDX 24 37 78 38 72 39 74 40 25 41 77 42 71 43 70 44 26 46 58 47
REMARK SMILES IDX 38 48 57 49 39 50 42 51 56 52 75 53 40 54 41 55 55 57 76 58
REMARK SMILES IDX 43 59 27 60 28 61 36 62 29 63 30 64 34 65 37 66 31 67 32 68
REMARK SMILES IDX 35 69 33 70 59 71 60 72 68 73 61 74 62 75 66 76 69 77 63 78
REMARK SMILES IDX 64 79 67 80 65 81 44 82 45 83 53 84 46 85 47 86 51 87 54 88
REMARK SMILES IDX 48 89 49 90 52 91 50 92
REMARK H PARENT 10 5 4 13 15 26 74 45 42 56
REMARK Flexibility Score: inf
ROOT
ATOM      1  C   UNL     1       3.317  -1.388   0.357  1.00  0.00     0.116 C 
ENDROOT
BRANCH   1   2
ATOM      2  N   UNL     1       3.575  -2.019  -0.912  1.00  0.00    -0.356 N 
ATOM      3  C   UNL     1       2.673  -2.615  -1.743  1.00  0.00     0.223 C 
ATOM      4  O   UNL     1       3.082  -3.587  -2.377  1.00  0.00    -0.275 OA
ATOM      5  H   UNL     1       4.511  -2.020  -1.215  1.00  0.00     0.163 HD
BRANCH   3   6
ATOM      6  C   UNL     1       1.256  -2.027  -1.920  1.00  0.00     0.082 C 
BRANCH   6   7
ATOM      7  C   UNL     1       0.173  -2.679  -1.010  1.00  0.00     0.017 C 
BRANCH   7   8
ATOM      8  C   UNL     1       0.113  -2.376   0.495  1.00  0.00     0.035 C 
BRANCH   8   9
ATOM      9  C   UNL     1      -0.406  -1.002   1.006  1.00  0.00     0.059 C 
ATOM     10  C   UNL     1      -0.106   0.235   0.160  1.00  0.00     0.042 C 
ATOM     11  C   UNL     1       0.097  -0.773   2.442  1.00  0.00     0.042 C 
BRANCH   9  12
ATOM     12  O   UNL     1      -1.836  -1.106   1.062  1.00  0.00    -0.390 OA
ATOM     13  H   UNL     1      -2.209  -0.268   1.377  1.00  0.00     0.211 HD
ENDBRANCH   9  12
ENDBRANCH   8   9
ENDBRANCH   7   8
ENDBRANCH   6   7
BRANCH   6  14
ATOM     14  C   UNL     1       0.714  -2.129  -3.412  1.00  0.00     0.017 C 
ATOM     15  C   UNL     1       1.605  -2.677  -4.549  1.00  0.00     0.021 C 
ATOM     16  C   UNL     1       0.327  -0.735  -3.940  1.00  0.00     0.141 C 
ATOM     17  C   UNL     1       2.642  -1.621  -4.913  1.00  0.00     0.137 C 
ATOM     18  S   UNL     1       1.834  -0.056  -4.619  1.00  0.00     0.150 S 
ATOM     19  O   UNL     1       2.536   0.635  -3.553  1.00  0.00    -0.229 OA
ATOM     20  O   UNL     1       1.533   0.577  -5.883  1.00  0.00    -0.229 OA
ENDBRANCH   6  14
ENDBRANCH   3   6
ENDBRANCH   1   2
BRANCH   1  21
ATOM     21  C   UNL     1       3.473  -2.420   1.480  1.00  0.00     0.023 C 
BRANCH  21  22
ATOM     22  C   UNL     1       4.880  -2.499   2.047  1.00  0.00     0.023 C 
BRANCH  22  23
ATOM     23  C   UNL     1       5.333  -1.217   2.722  1.00  0.00     0.116 C 
BRANCH  23  24
ATOM     24  N   UNL     1       4.481  -0.797   3.831  1.00  0.00    -0.352 N 
ATOM     25  C   UNL     1       4.878  -0.249   5.029  1.00  0.00     0.251 C 
ATOM     26  H   UNL     1       3.512  -0.920   3.707  1.00  0.00     0.163 HD
ATOM     27  O   UNL     1       4.075  -0.012   5.922  1.00  0.00    -0.269 OA
BRANCH  25  28
ATOM     28  C   UNL     1       6.319  -0.007   5.221  1.00  0.00     0.039 A 
ATOM     29  C   UNL     1       6.973  -0.631   6.282  1.00  0.00     0.014 A 
ATOM     30  C   UNL     1       7.032   0.689   4.242  1.00  0.00     0.014 A 
ATOM     31  C   UNL     1       8.367  -0.628   6.314  1.00  0.00     0.010 A 
ATOM     32  C   UNL     1       8.415   0.592   4.217  1.00  0.00     0.010 A 
ATOM     33  C   UNL     1       9.097  -0.064   5.254  1.00  0.00    -0.014 A 
BRANCH  33  34
ATOM     34  C   UNL     1      10.579  -0.140   5.211  1.00  0.00     0.031 A 
ATOM     35  C   UNL     1      11.387   1.128   5.205  1.00  0.00     0.074 A 
ATOM     36  C   UNL     1      11.190  -1.337   5.117  1.00  0.00     0.049 A 
ATOM     37  N   UNL     1      12.683   1.282   5.118  1.00  0.00    -0.248 NA
ATOM     38  C   UNL     1      10.637   2.393   5.271  1.00  0.00     0.031 C 
ATOM     39  C   UNL     1      10.513  -2.635   5.060  1.00  0.00     0.029 A 
ATOM     40  N   UNL     1      12.523  -1.659   5.051  1.00  0.00    -0.354 N 
ATOM     41  C   UNL     1      12.897   2.654   5.100  1.00  0.00     0.074 A 
ATOM     42  C   UNL     1      11.599   3.289   5.116  1.00  0.00     0.031 C 
ATOM     43  C   UNL     1      11.434  -3.611   5.018  1.00  0.00     0.029 A 
ATOM     44  C   UNL     1      12.764  -3.010   4.996  1.00  0.00     0.049 A 
ATOM     45  H   UNL     1      13.240  -0.984   5.043  1.00  0.00     0.167 HD
ATOM     46  C   UNL     1      14.072   3.324   5.101  1.00  0.00     0.037 A 
ATOM     47  C   UNL     1      13.928  -3.686   4.938  1.00  0.00     0.037 A 
ATOM     48  C   UNL     1      15.361   2.687   5.120  1.00  0.00     0.049 A 
ATOM     49  C   UNL     1      15.220  -2.913   4.928  1.00  0.00     0.074 A 
ATOM     50  C   UNL     1      16.610   3.275   5.193  1.00  0.00     0.029 A 
ATOM     51  N   UNL     1      15.564   1.316   5.062  1.00  0.00    -0.354 N 
ATOM     52  N   UNL     1      15.413  -1.618   4.986  1.00  0.00    -0.248 NA
ATOM     53  C   UNL     1      16.459  -3.700   4.848  1.00  0.00     0.031 C 
ATOM     54  C   UNL     1      17.572   2.264   5.116  1.00  0.00     0.029 A 
ATOM     55  C   UNL     1      16.922   1.041   5.067  1.00  0.00     0.049 A 
ATOM     56  H   UNL     1      14.850   0.639   5.024  1.00  0.00     0.167 HD
ATOM     57  C   UNL     1      16.789  -1.435   4.987  1.00  0.00     0.074 A 
ATOM     58  C   UNL     1      17.384  -2.755   4.936  1.00  0.00     0.031 C 
ATOM     59  C   UNL     1      17.497  -0.280   5.027  1.00  0.00     0.037 A 
BRANCH  46  60
ATOM     60  C   UNL     1      14.019   4.825   5.083  1.00  0.00     0.064 A 
ATOM     61  C   UNL     1      13.550   5.561   6.182  1.00  0.00     0.173 A 
ATOM     62  C   UNL     1      14.483   5.537   3.967  1.00  0.00     0.173 A 
ATOM     63  F   UNL     1      13.080   4.930   7.269  1.00  0.00    -0.203 F 
ATOM     64  C   UNL     1      13.524   6.953   6.154  1.00  0.00     0.198 A 
ATOM     65  C   UNL     1      14.488   6.929   3.956  1.00  0.00     0.198 A 
ATOM     66  F   UNL     1      14.943   4.883   2.890  1.00  0.00    -0.203 F 
ATOM     67  F   UNL     1      13.024   7.633   7.195  1.00  0.00    -0.200 F 
ATOM     68  C   UNL     1      14.003   7.636   5.046  1.00  0.00     0.200 A 
ATOM     69  F   UNL     1      14.964   7.587   2.890  1.00  0.00    -0.200 F 
ATOM     70  F   UNL     1      13.990   8.976   5.026  1.00  0.00    -0.200 F 
ENDBRANCH  46  60
BRANCH  47  71
ATOM     71  C   UNL     1      13.931  -5.173   4.927  1.00  0.00     0.064 A 
ATOM     72  C   UNL     1      14.428  -5.897   6.020  1.00  0.00     0.173 A 
ATOM     73  C   UNL     1      13.451  -5.903   3.829  1.00  0.00     0.173 A 
ATOM     74  F   UNL     1      14.918  -5.246   7.086  1.00  0.00    -0.203 F 
ATOM     75  C   UNL     1      14.466  -7.290   6.008  1.00  0.00     0.198 A 
ATOM     76  C   UNL     1      13.461  -7.296   3.830  1.00  0.00     0.198 A 
ATOM     77  F   UNL     1      12.960  -5.261   2.759  1.00  0.00    -0.203 F 
ATOM     78  F   UNL     1      14.993  -7.953   7.046  1.00  0.00    -0.200 F 
ATOM     79  C   UNL     1      13.977  -7.989   4.915  1.00  0.00     0.200 A 
ATOM     80  F   UNL     1      12.972  -7.968   2.779  1.00  0.00    -0.200 F 
ATOM     81  F   UNL     1      14.009  -9.328   4.905  1.00  0.00    -0.200 F 
ENDBRANCH  47  71
BRANCH  59  82
ATOM     82  C   UNL     1      18.995  -0.385   5.065  1.00  0.00     0.064 A 
ATOM     83  C   UNL     1      19.736  -0.814   3.954  1.00  0.00     0.173 A 
ATOM     84  C   UNL     1      19.701  -0.004   6.217  1.00  0.00     0.173 A 
ATOM     85  F   UNL     1      19.109  -1.200   2.832  1.00  0.00    -0.203 F 
ATOM     86  C   UNL     1      21.125  -0.884   4.005  1.00  0.00     0.198 A 
ATOM     87  C   UNL     1      21.091  -0.040   6.251  1.00  0.00     0.198 A 
ATOM     88  F   UNL     1      19.041   0.423   7.304  1.00  0.00    -0.203 F 
ATOM     89  F   UNL     1      21.809  -1.346   2.949  1.00  0.00    -0.200 F 
ATOM     90  C   UNL     1      21.802  -0.488   5.149  1.00  0.00     0.200 A 
ATOM     91  F   UNL     1      21.743   0.361   7.351  1.00  0.00    -0.200 F 
ATOM     92  F   UNL     1      23.140  -0.546   5.191  1.00  0.00    -0.200 F 
ENDBRANCH  59  82
ENDBRANCH  33  34
ENDBRANCH  25  28
ENDBRANCH  23  24
ENDBRANCH  22  23
ENDBRANCH  21  22
ENDBRANCH   1  21
TORSDOF 16
