REMARK SMILES O=C(NCCCCNC(=O)c1cccc(NC(=O)c2ccc(N3C(=O)CCC3=O)cc2)c1)c1ccc(-c2c3nc(c(-c4c(F)c(F)c(F)c(F)c4F)c4ccc([nH]4)c(-c4c(F)c(F)c(F)c(F)c4F)c4nc(c(-c5c(F)c(F)c(F)c(F)c5F)c5ccc2[nH]5)C=C4)C=C3)cc1
REMARK SMILES IDX 6 1 5 2 4 3 3 4 1 5 2 6 33 8 34 9 95 10 35 11 94 12 36 13
REMARK SMILES IDX 37 14 38 15 88 16 39 17 93 18 87 19 89 20 40 21 92 22 86 23
REMARK SMILES IDX 85 24 41 26 73 27 53 28 72 29 54 30 57 31 71 32 90 33 55 34
REMARK SMILES IDX 56 35 70 37 91 38 58 39 42 40 43 41 51 42 44 43 45 44 49 45
REMARK SMILES IDX 52 46 46 47 47 48 50 49 48 50 74 51 75 52 83 53 76 54 77 55
REMARK SMILES IDX 81 56 84 57 78 58 79 59 82 60 80 61 59 62 60 63 68 64 61 65
REMARK SMILES IDX 62 66 66 67 69 68 63 69 64 70 67 71 65 72 7 73 8 74 9 75
REMARK SMILES IDX 10 77 11 78 12 79 32 80 13 81 15 82 14 83 16 84 17 85 18 87
REMARK SMILES IDX 19 88 20 89 31 90 21 91 30 92 22 93 23 94 24 95 28 96 25 97
REMARK SMILES IDX 26 98 27 99 29 100
REMARK H PARENT 3 7 89 25 57 36 8 76 16 86
REMARK Flexibility Score: inf
ROOT
ATOM      1  C   UNL     1       4.314  -3.318   1.927  1.00  0.00     0.023 C 
ENDROOT
BRANCH   1   2
ATOM      2  C   UNL     1       4.785  -1.870   1.823  1.00  0.00     0.023 C 
BRANCH   2   3
ATOM      3  C   UNL     1       4.470  -1.177   0.505  1.00  0.00     0.116 C 
BRANCH   3   4
ATOM      4  N   UNL     1       3.043  -1.050   0.257  1.00  0.00    -0.352 N 
ATOM      5  O   UNL     1       1.078   0.019  -0.041  1.00  0.00    -0.269 OA
ATOM      6  C   UNL     1       2.299   0.081   0.009  1.00  0.00     0.251 C 
ATOM      7  H   UNL     1       2.536  -1.894   0.269  1.00  0.00     0.163 HD
BRANCH   6   8
ATOM      8  C   UNL     1       2.983   1.381  -0.168  1.00  0.00     0.039 A 
ATOM      9  C   UNL     1       4.113   1.487  -0.980  1.00  0.00     0.014 A 
ATOM     10  C   UNL     1       2.486   2.505   0.498  1.00  0.00     0.014 A 
ATOM     11  C   UNL     1       4.834   2.675  -1.006  1.00  0.00     0.010 A 
ATOM     12  C   UNL     1       3.162   3.724   0.397  1.00  0.00     0.010 A 
ATOM     13  C   UNL     1       4.360   3.811  -0.329  1.00  0.00    -0.014 A 
BRANCH  13  14
ATOM     14  C   UNL     1       5.103   5.090  -0.449  1.00  0.00     0.031 A 
ATOM     15  C   UNL     1       5.753   5.731   0.744  1.00  0.00     0.074 A 
ATOM     16  C   UNL     1       5.207   5.661  -1.665  1.00  0.00     0.049 A 
ATOM     17  N   UNL     1       6.444   6.843   0.809  1.00  0.00    -0.248 NA
ATOM     18  C   UNL     1       5.604   5.044   2.035  1.00  0.00     0.031 C 
ATOM     19  C   UNL     1       4.609   5.134  -2.893  1.00  0.00     0.029 A 
ATOM     20  N   UNL     1       5.862   6.794  -2.074  1.00  0.00    -0.354 N 
ATOM     21  C   UNL     1       6.796   6.997   2.143  1.00  0.00     0.074 A 
ATOM     22  C   UNL     1       6.221   5.878   2.861  1.00  0.00     0.031 C 
ATOM     23  C   UNL     1       4.958   5.916  -3.924  1.00  0.00     0.029 A 
ATOM     24  C   UNL     1       5.749   7.033  -3.421  1.00  0.00     0.049 A 
ATOM     25  H   UNL     1       6.363   7.379  -1.462  1.00  0.00     0.167 HD
ATOM     26  C   UNL     1       7.538   7.978   2.712  1.00  0.00     0.037 A 
ATOM     27  C   UNL     1       6.213   8.051  -4.169  1.00  0.00     0.037 A 
ATOM     28  C   UNL     1       8.119   9.080   1.987  1.00  0.00     0.049 A 
ATOM     29  C   UNL     1       7.009   9.137  -3.506  1.00  0.00     0.074 A 
ATOM     30  C   UNL     1       8.918  10.104   2.466  1.00  0.00     0.029 A 
ATOM     31  N   UNL     1       7.958   9.306   0.627  1.00  0.00    -0.354 N 
ATOM     32  N   UNL     1       7.364   9.252  -2.250  1.00  0.00    -0.248 NA
ATOM     33  C   UNL     1       7.465  10.237  -4.365  1.00  0.00     0.031 C 
ATOM     34  C   UNL     1       9.200  10.974   1.408  1.00  0.00     0.029 A 
ATOM     35  C   UNL     1       8.622  10.466   0.257  1.00  0.00     0.049 A 
ATOM     36  H   UNL     1       7.449   8.727   0.015  1.00  0.00     0.167 HD
ATOM     37  C   UNL     1       8.098  10.426  -2.169  1.00  0.00     0.074 A 
ATOM     38  C   UNL     1       8.156  10.975  -3.508  1.00  0.00     0.031 C 
ATOM     39  C   UNL     1       8.669  10.999  -1.081  1.00  0.00     0.037 A 
BRANCH  26  40
ATOM     40  C   UNL     1       7.754   7.921   4.197  1.00  0.00     0.064 A 
ATOM     41  C   UNL     1       8.595   6.965   4.786  1.00  0.00     0.173 A 
ATOM     42  C   UNL     1       7.155   8.872   5.039  1.00  0.00     0.173 A 
ATOM     43  F   UNL     1       9.186   6.028   4.029  1.00  0.00    -0.203 F 
ATOM     44  C   UNL     1       8.810   6.948   6.162  1.00  0.00     0.198 A 
ATOM     45  C   UNL     1       7.394   8.869   6.411  1.00  0.00     0.198 A 
ATOM     46  F   UNL     1       6.348   9.814   4.528  1.00  0.00    -0.203 F 
ATOM     47  F   UNL     1       9.586   6.000   6.706  1.00  0.00    -0.200 F 
ATOM     48  C   UNL     1       8.216   7.904   6.972  1.00  0.00     0.200 A 
ATOM     49  F   UNL     1       6.829   9.802   7.190  1.00  0.00    -0.200 F 
ATOM     50  F   UNL     1       8.431   7.893   8.295  1.00  0.00    -0.200 F 
ENDBRANCH  26  40
BRANCH  27  51
ATOM     51  C   UNL     1       5.926   8.083  -5.626  1.00  0.00     0.064 A 
ATOM     52  C   UNL     1       6.947   7.902  -6.567  1.00  0.00     0.173 A 
ATOM     53  C   UNL     1       4.621   8.278  -6.104  1.00  0.00     0.173 A 
ATOM     54  F   UNL     1       8.212   7.730  -6.158  1.00  0.00    -0.203 F 
ATOM     55  C   UNL     1       6.676   7.929  -7.934  1.00  0.00     0.198 A 
ATOM     56  C   UNL     1       4.347   8.273  -7.469  1.00  0.00     0.198 A 
ATOM     57  F   UNL     1       3.608   8.450  -5.242  1.00  0.00    -0.203 F 
ATOM     58  F   UNL     1       7.676   7.793  -8.815  1.00  0.00    -0.200 F 
ATOM     59  C   UNL     1       5.376   8.106  -8.383  1.00  0.00     0.200 A 
ATOM     60  F   UNL     1       3.087   8.426  -7.898  1.00  0.00    -0.200 F 
ATOM     61  F   UNL     1       5.115   8.121  -9.697  1.00  0.00    -0.200 F 
ENDBRANCH  27  51
BRANCH  39  62
ATOM     62  C   UNL     1       9.427  12.275  -1.304  1.00  0.00     0.064 A 
ATOM     63  C   UNL     1       8.769  13.481  -1.587  1.00  0.00     0.173 A 
ATOM     64  C   UNL     1      10.827  12.294  -1.210  1.00  0.00     0.173 A 
ATOM     65  F   UNL     1       7.433  13.510  -1.704  1.00  0.00    -0.203 F 
ATOM     66  C   UNL     1       9.488  14.655  -1.795  1.00  0.00     0.198 A 
ATOM     67  C   UNL     1      11.540  13.476  -1.389  1.00  0.00     0.198 A 
ATOM     68  F   UNL     1      11.502  11.168  -0.937  1.00  0.00    -0.203 F 
ATOM     69  F   UNL     1       8.843  15.785  -2.115  1.00  0.00    -0.200 F 
ATOM     70  C   UNL     1      10.871  14.653  -1.690  1.00  0.00     0.200 A 
ATOM     71  F   UNL     1      12.875  13.475  -1.276  1.00  0.00    -0.200 F 
ATOM     72  F   UNL     1      11.561  15.785  -1.888  1.00  0.00    -0.200 F 
ENDBRANCH  39  62
ENDBRANCH  13  14
ENDBRANCH   6   8
ENDBRANCH   3   4
ENDBRANCH   2   3
ENDBRANCH   1   2
BRANCH   1  73
ATOM     73  C   UNL     1       4.729  -4.225   0.771  1.00  0.00     0.116 C 
BRANCH  73  74
ATOM     74  N   UNL     1       6.167  -4.239   0.563  1.00  0.00    -0.352 N 
ATOM     75  C   UNL     1       7.049  -5.288   0.574  1.00  0.00     0.251 C 
ATOM     76  H   UNL     1       6.571  -3.358   0.386  1.00  0.00     0.163 HD
ATOM     77  O   UNL     1       8.257  -5.067   0.551  1.00  0.00    -0.269 OA
BRANCH  75  78
ATOM     78  C   UNL     1       6.562  -6.680   0.624  1.00  0.00     0.041 A 
ATOM     79  C   UNL     1       7.185  -7.570   1.498  1.00  0.00     0.014 A 
ATOM     80  C   UNL     1       5.531  -7.120  -0.217  1.00  0.00     0.040 A 
ATOM     81  C   UNL     1       6.761  -8.893   1.539  1.00  0.00     0.003 A 
ATOM     82  C   UNL     1       5.047  -8.428  -0.127  1.00  0.00     0.042 A 
ATOM     83  C   UNL     1       5.705  -9.319   0.725  1.00  0.00     0.026 A 
BRANCH  82  84
ATOM     84  N   UNL     1       3.926  -8.734  -0.924  1.00  0.00    -0.322 N 
ATOM     85  C   UNL     1       3.056  -9.799  -0.959  1.00  0.00     0.255 C 
ATOM     86  H   UNL     1       3.723  -8.042  -1.594  1.00  0.00     0.170 HD
ATOM     87  O   UNL     1       2.213  -9.877  -1.850  1.00  0.00    -0.269 OA
BRANCH  85  88
ATOM     88  C   UNL     1       3.085 -10.848   0.068  1.00  0.00     0.040 A 
ATOM     89  C   UNL     1       3.435 -12.139  -0.316  1.00  0.00     0.016 A 
ATOM     90  C   UNL     1       2.804 -10.559   1.404  1.00  0.00     0.016 A 
ATOM     91  C   UNL     1       3.612 -13.121   0.661  1.00  0.00     0.027 A 
ATOM     92  C   UNL     1       2.966 -11.556   2.374  1.00  0.00     0.027 A 
ATOM     93  C   UNL     1       3.414 -12.843   2.025  1.00  0.00     0.052 A 
BRANCH  93  94
ATOM     94  N   UNL     1       3.693 -13.828   3.017  1.00  0.00    -0.251 N 
ATOM     95  C   UNL     1       3.140 -13.849   4.277  1.00  0.00     0.234 C 
ATOM     96  C   UNL     1       4.602 -14.850   2.847  1.00  0.00     0.234 C 
ATOM     97  O   UNL     1       2.326 -13.083   4.776  1.00  0.00    -0.274 OA
ATOM     98  C   UNL     1       3.632 -15.063   5.007  1.00  0.00     0.111 C 
ATOM     99  C   UNL     1       4.709 -15.632   4.120  1.00  0.00     0.111 C 
ATOM    100  O   UNL     1       5.317 -15.093   1.883  1.00  0.00    -0.274 OA
ENDBRANCH  93  94
ENDBRANCH  85  88
ENDBRANCH  82  84
ENDBRANCH  75  78
ENDBRANCH  73  74
ENDBRANCH   1  73
TORSDOF 14
