REMARK SMILES CC(=O)Nc1cc(NC(C)=O)cc(C(=O)Nc2ccc(Br)cc2C(=O)NCCCCNC(=O)c2ccc(-c3c4nc(c(-c5c(F)c(F)c(F)c(F)c5F)c5ccc([nH]5)c(-c5c(F)c(F)c(F)c(F)c5F)c5nc(c(-c6c(F)c(F)c(F)c(F)c6F)c6ccc3[nH]6)C=C5)C=C4)cc2)c1
REMARK SMILES IDX 28 1 27 2 26 3 24 4 25 5 23 7 17 8 18 9 19 10 22 11 20 12
REMARK SMILES IDX 21 13 16 14 14 15 15 16 13 18 5 19 6 20 97 21 7 22 12 23
REMARK SMILES IDX 4 24 1 25 2 26 3 27 8 29 9 30 10 32 11 33 29 34 30 35 31 36
REMARK SMILES IDX 32 37 33 39 34 40 35 41 96 42 36 43 95 44 37 45 38 46 39 47
REMARK SMILES IDX 89 48 40 49 94 50 88 51 90 52 41 53 93 54 87 55 86 56 42 58
REMARK SMILES IDX 74 59 54 60 73 61 55 62 58 63 72 64 91 65 56 66 57 67 71 69
REMARK SMILES IDX 92 70 59 71 43 72 44 73 52 74 45 75 46 76 50 77 53 78 47 79
REMARK SMILES IDX 48 80 51 81 49 82 75 83 76 84 84 85 77 86 78 87 82 88 85 89
REMARK SMILES IDX 79 90 80 91 83 92 81 93 60 94 61 95 69 96 62 97 63 98 67 99
REMARK SMILES IDX 70 100 64 101 65 102 68 103 66 104
REMARK H PARENT 26 6 16 17 4 28 8 31 31 38 90 57 58 68
REMARK Flexibility Score: inf
ROOT
ATOM      1  C   UNL     1       7.919   0.429   2.792  1.00  0.00     0.023 C 
ENDROOT
BRANCH   1   2
ATOM      2  C   UNL     1       6.524   0.155   2.254  1.00  0.00     0.116 C 
BRANCH   2   3
ATOM      3  N   UNL     1       5.529   1.148   2.591  1.00  0.00    -0.352 N 
ATOM      4  C   UNL     1       4.363   1.464   1.935  1.00  0.00     0.253 C 
ATOM      5  O   UNL     1       3.643   2.337   2.420  1.00  0.00    -0.269 OA
ATOM      6  H   UNL     1       5.711   1.670   3.405  1.00  0.00     0.163 HD
BRANCH   4   7
ATOM      7  C   UNL     1       3.996   0.866   0.618  1.00  0.00     0.064 A 
ATOM      8  C   UNL     1       4.138  -0.481   0.219  1.00  0.00     0.054 A 
ATOM      9  C   UNL     1       3.975  -0.800  -1.142  1.00  0.00     0.028 A 
ATOM     10  C   UNL     1       3.507   0.145  -2.056  1.00  0.00     0.018 A 
ATOM     11  C   UNL     1       3.482   1.801  -0.307  1.00  0.00     0.031 A 
ATOM     12  C   UNL     1       3.219   1.432  -1.623  1.00  0.00     0.018 A 
ATOM     13  Br  UNL     1       2.456   2.676  -2.822  1.00  0.00    -0.051 Br
BRANCH   8  14
ATOM     14  N   UNL     1       4.356  -1.610   1.048  1.00  0.00    -0.321 N 
ATOM     15  C   UNL     1       3.957  -1.902   2.340  1.00  0.00     0.255 C 
ATOM     16  O   UNL     1       4.489  -2.837   2.937  1.00  0.00    -0.269 OA
ATOM     17  H   UNL     1       4.891  -2.319   0.624  1.00  0.00     0.170 HD
BRANCH  15  18
ATOM     18  C   UNL     1       2.869  -1.152   3.009  1.00  0.00     0.044 A 
ATOM     19  C   UNL     1       0.945   0.285   2.824  1.00  0.00     0.044 A 
ATOM     20  C   UNL     1       1.019   0.512   4.205  1.00  0.00     0.052 A 
ATOM     21  C   UNL     1       1.817  -0.629   2.256  1.00  0.00     0.040 A 
ATOM     22  C   UNL     1       1.948  -0.159   5.011  1.00  0.00     0.044 A 
ATOM     23  C   UNL     1       2.908  -0.965   4.395  1.00  0.00     0.040 A 
BRANCH  19  24
ATOM     24  N   UNL     1       0.079   1.104   2.078  1.00  0.00    -0.326 N 
ATOM     25  C   UNL     1      -0.145  -0.111  -0.095  1.00  0.00     0.114 C 
ATOM     26  C   UNL     1      -0.307   1.107   0.769  1.00  0.00     0.221 C 
ATOM     27  O   UNL     1      -0.837   2.123   0.310  1.00  0.00    -0.275 OA
ATOM     28  H   UNL     1      -0.335   1.822   2.610  1.00  0.00     0.169 HD
ENDBRANCH  19  24
BRANCH  22  29
ATOM     29  N   UNL     1       1.979  -0.057   6.420  1.00  0.00    -0.326 N 
ATOM     30  C   UNL     1       1.054   0.589   7.223  1.00  0.00     0.221 C 
ATOM     31  H   UNL     1       2.736  -0.489   6.878  1.00  0.00     0.169 HD
ATOM     32  C   UNL     1       1.355   0.479   8.697  1.00  0.00     0.114 C 
ATOM     33  O   UNL     1       0.051   1.188   6.848  1.00  0.00    -0.275 OA
ENDBRANCH  22  29
ENDBRANCH  15  18
ENDBRANCH   8  14
ENDBRANCH   4   7
ENDBRANCH   2   3
ENDBRANCH   1   2
BRANCH   1  34
ATOM     34  C   UNL     1       8.064   0.420   4.314  1.00  0.00     0.023 C 
BRANCH  34  35
ATOM     35  C   UNL     1       7.406  -0.735   5.065  1.00  0.00     0.116 C 
BRANCH  35  36
ATOM     36  N   UNL     1       7.872  -2.054   4.662  1.00  0.00    -0.352 N 
ATOM     37  C   UNL     1       8.512  -3.035   5.389  1.00  0.00     0.251 C 
ATOM     38  H   UNL     1       7.703  -2.282   3.719  1.00  0.00     0.163 HD
ATOM     39  O   UNL     1       8.925  -4.043   4.839  1.00  0.00    -0.269 OA
BRANCH  37  40
ATOM     40  C   UNL     1       8.732  -2.849   6.841  1.00  0.00     0.039 A 
ATOM     41  C   UNL     1       9.994  -3.123   7.374  1.00  0.00     0.014 A 
ATOM     42  C   UNL     1       7.706  -2.397   7.673  1.00  0.00     0.014 A 
ATOM     43  C   UNL     1      10.250  -2.855   8.721  1.00  0.00     0.010 A 
ATOM     44  C   UNL     1       7.988  -2.040   8.989  1.00  0.00     0.010 A 
ATOM     45  C   UNL     1       9.263  -2.265   9.529  1.00  0.00    -0.014 A 
BRANCH  45  46
ATOM     46  C   UNL     1       9.553  -1.879  10.936  1.00  0.00     0.031 A 
ATOM     47  C   UNL     1       8.790  -2.506  12.071  1.00  0.00     0.074 A 
ATOM     48  C   UNL     1      10.464  -0.918  11.190  1.00  0.00     0.049 A 
ATOM     49  N   UNL     1       8.882  -2.278  13.357  1.00  0.00    -0.248 NA
ATOM     50  C   UNL     1       7.762  -3.496  11.712  1.00  0.00     0.031 C 
ATOM     51  C   UNL     1      11.220  -0.180  10.178  1.00  0.00     0.029 A 
ATOM     52  N   UNL     1      10.905  -0.392  12.380  1.00  0.00    -0.354 N 
ATOM     53  C   UNL     1       7.919  -3.081  13.954  1.00  0.00     0.074 A 
ATOM     54  C   UNL     1       7.209  -3.752  12.888  1.00  0.00     0.031 C 
ATOM     55  C   UNL     1      12.054   0.677  10.788  1.00  0.00     0.029 A 
ATOM     56  C   UNL     1      11.868   0.576  12.232  1.00  0.00     0.049 A 
ATOM     57  H   UNL     1      10.563  -0.682  13.257  1.00  0.00     0.167 HD
ATOM     58  C   UNL     1       7.669  -3.268  15.273  1.00  0.00     0.037 A 
ATOM     59  C   UNL     1      12.528   1.300  13.156  1.00  0.00     0.037 A 
ATOM     60  C   UNL     1       8.398  -2.622  16.333  1.00  0.00     0.049 A 
ATOM     61  C   UNL     1      12.248   1.060  14.615  1.00  0.00     0.074 A 
ATOM     62  C   UNL     1       8.271  -2.800  17.700  1.00  0.00     0.029 A 
ATOM     63  N   UNL     1       9.388  -1.669  16.145  1.00  0.00    -0.354 N 
ATOM     64  N   UNL     1      11.398   0.230  15.170  1.00  0.00    -0.248 NA
ATOM     65  C   UNL     1      13.030   1.847  15.578  1.00  0.00     0.031 C 
ATOM     66  C   UNL     1       9.146  -1.916  18.339  1.00  0.00     0.029 A 
ATOM     67  C   UNL     1       9.863  -1.231  17.371  1.00  0.00     0.049 A 
ATOM     68  H   UNL     1       9.707  -1.351  15.269  1.00  0.00     0.167 HD
ATOM     69  C   UNL     1      11.562   0.373  16.541  1.00  0.00     0.074 A 
ATOM     70  C   UNL     1      12.608   1.356  16.734  1.00  0.00     0.031 C 
ATOM     71  C   UNL     1      10.907  -0.254  17.549  1.00  0.00     0.037 A 
BRANCH  58  72
ATOM     72  C   UNL     1       6.561  -4.213  15.642  1.00  0.00     0.064 A 
ATOM     73  C   UNL     1       6.660  -5.595  15.412  1.00  0.00     0.173 A 
ATOM     74  C   UNL     1       5.395  -3.736  16.260  1.00  0.00     0.173 A 
ATOM     75  F   UNL     1       7.748  -6.103  14.814  1.00  0.00    -0.203 F 
ATOM     76  C   UNL     1       5.621  -6.456  15.753  1.00  0.00     0.198 A 
ATOM     77  C   UNL     1       4.372  -4.605  16.632  1.00  0.00     0.198 A 
ATOM     78  F   UNL     1       5.248  -2.426  16.509  1.00  0.00    -0.203 F 
ATOM     79  F   UNL     1       5.715  -7.763  15.468  1.00  0.00    -0.200 F 
ATOM     80  C   UNL     1       4.481  -5.962  16.369  1.00  0.00     0.200 A 
ATOM     81  F   UNL     1       3.277  -4.128  17.239  1.00  0.00    -0.200 F 
ATOM     82  F   UNL     1       3.483  -6.793  16.701  1.00  0.00    -0.200 F 
ENDBRANCH  58  72
BRANCH  59  83
ATOM     83  C   UNL     1      13.546   2.298  12.730  1.00  0.00     0.064 A 
ATOM     84  C   UNL     1      14.910   2.091  12.981  1.00  0.00     0.173 A 
ATOM     85  C   UNL     1      13.177   3.479  12.069  1.00  0.00     0.173 A 
ATOM     86  F   UNL     1      15.311   0.987  13.628  1.00  0.00    -0.203 F 
ATOM     87  C   UNL     1      15.863   3.037  12.609  1.00  0.00     0.198 A 
ATOM     88  C   UNL     1      14.135   4.409  11.669  1.00  0.00     0.198 A 
ATOM     89  F   UNL     1      11.887   3.722  11.798  1.00  0.00    -0.203 F 
ATOM     90  F   UNL     1      17.154   2.836  12.905  1.00  0.00    -0.200 F 
ATOM     91  C   UNL     1      15.476   4.192  11.947  1.00  0.00     0.200 A 
ATOM     92  F   UNL     1      13.757   5.516  11.015  1.00  0.00    -0.200 F 
ATOM     93  F   UNL     1      16.393   5.099  11.584  1.00  0.00    -0.200 F 
ENDBRANCH  59  83
BRANCH  71  94
ATOM     94  C   UNL     1      11.326   0.078  18.954  1.00  0.00     0.064 A 
ATOM     95  C   UNL     1      11.059   1.329  19.529  1.00  0.00     0.173 A 
ATOM     96  C   UNL     1      11.979  -0.881  19.743  1.00  0.00     0.173 A 
ATOM     97  F   UNL     1      10.449   2.286  18.814  1.00  0.00    -0.203 F 
ATOM     98  C   UNL     1      11.463   1.619  20.831  1.00  0.00     0.198 A 
ATOM     99  C   UNL     1      12.349  -0.599  21.055  1.00  0.00     0.198 A 
ATOM    100  F   UNL     1      12.251  -2.097  19.245  1.00  0.00    -0.203 F 
ATOM    101  F   UNL     1      11.249   2.841  21.339  1.00  0.00    -0.200 F 
ATOM    102  C   UNL     1      12.100   0.653  21.594  1.00  0.00     0.200 A 
ATOM    103  F   UNL     1      12.951  -1.540  21.797  1.00  0.00    -0.200 F 
ATOM    104  F   UNL     1      12.483   0.933  22.848  1.00  0.00    -0.200 F 
ENDBRANCH  71  94
ENDBRANCH  45  46
ENDBRANCH  37  40
ENDBRANCH  35  36
ENDBRANCH  34  35
ENDBRANCH   1  34
TORSDOF 15
