REMARK SMILES CC(C)c1nc(N2C[C@H](C)OC(C)(C)C2)sc1C(=O)NCCCCNC(=O)c1ccc(-c2c3nc(c(-c4c(F)c(F)c(F)c(F)c4F)c4ccc([nH]4)c(-c4c(F)c(F)c(F)c(F)c4F)c4nc(c(-c5c(F)c(F)c(F)c(F)c5F)c5ccc2[nH]5)C=C4)C=C3)cc1
REMARK SMILES IDX 23 1 22 2 21 3 20 4 18 5 19 6 17 8 4 9 5 10 6 11 16 12 2 13
REMARK SMILES IDX 1 14 3 15 7 16 8 17 15 18 9 19 12 20 11 21 10 22 13 23 14 24
REMARK SMILES IDX 24 25 25 26 26 27 27 29 28 30 29 31 90 32 30 33 89 34 31 35
REMARK SMILES IDX 32 36 33 37 83 38 34 39 88 40 82 41 84 42 35 43 87 44 81 45
REMARK SMILES IDX 80 46 36 48 68 49 48 50 67 51 49 52 52 53 66 54 85 55 50 56
REMARK SMILES IDX 51 57 65 59 86 60 53 61 37 62 38 63 46 64 39 65 40 66 44 67
REMARK SMILES IDX 47 68 41 69 42 70 45 71 43 72 69 73 70 74 78 75 71 76 72 77
REMARK SMILES IDX 76 78 79 79 73 80 74 81 77 82 75 83 54 84 55 85 63 86 56 87
REMARK SMILES IDX 57 88 61 89 64 90 58 91 59 92 62 93 60 94
REMARK H PARENT 20 7 25 28 84 47 52 58
REMARK Flexibility Score: inf
ROOT
ATOM      1  C   UNL     1       2.839   4.308  -0.035  1.00  0.00     0.023 C 
ENDROOT
BRANCH   1   2
ATOM      2  C   UNL     1       1.896   3.140   0.243  1.00  0.00     0.023 C 
BRANCH   2   3
ATOM      3  C   UNL     1       1.046   3.276   1.509  1.00  0.00     0.116 C 
BRANCH   3   4
ATOM      4  N   UNL     1      -0.229   3.860   1.177  1.00  0.00    -0.351 N 
ATOM      5  C   UNL     1      -1.474   3.352   0.916  1.00  0.00     0.263 C 
ATOM      6  O   UNL     1      -2.293   4.241   0.644  1.00  0.00    -0.268 OA
ATOM      7  H   UNL     1      -0.198   4.843   1.126  1.00  0.00     0.163 HD
BRANCH   5   8
ATOM      8  C   UNL     1      -1.855   1.945   0.990  1.00  0.00     0.117 A 
ATOM      9  C   UNL     1      -1.294   0.690   0.736  1.00  0.00     0.069 A 
ATOM     10  N   UNL     1      -2.167  -0.384   0.933  1.00  0.00    -0.224 NA
ATOM     11  C   UNL     1      -3.389   0.016   1.157  1.00  0.00     0.186 A 
ATOM     12  S   UNL     1      -3.539   1.702   1.373  1.00  0.00    -0.091 S 
BRANCH   9  13
ATOM     13  C   UNL     1       0.054   0.303   0.180  1.00  0.00     0.034 C 
ATOM     14  C   UNL     1       0.386  -1.187   0.354  1.00  0.00     0.014 C 
ATOM     15  C   UNL     1       0.165   0.665  -1.302  1.00  0.00     0.014 C 
ENDBRANCH   9  13
BRANCH  11  16
ATOM     16  N   UNL     1      -4.466  -0.801   1.220  1.00  0.00    -0.343 N 
ATOM     17  C   UNL     1      -5.447  -0.776   0.134  1.00  0.00     0.150 C 
ATOM     18  C   UNL     1      -4.408  -2.048   1.980  1.00  0.00     0.153 C 
ATOM     19  C   UNL     1      -5.255  -2.012  -0.766  1.00  0.00     0.135 C 
ATOM     20  C   UNL     1      -4.412  -3.315   1.079  1.00  0.00     0.081 C 
ATOM     21  O   UNL     1      -5.374  -3.222   0.003  1.00  0.00    -0.369 OA
ATOM     22  C   UNL     1      -6.313  -2.063  -1.860  1.00  0.00     0.040 C 
ATOM     23  C   UNL     1      -3.019  -3.634   0.520  1.00  0.00     0.044 C 
ATOM     24  C   UNL     1      -4.872  -4.512   1.927  1.00  0.00     0.044 C 
ENDBRANCH  11  16
ENDBRANCH   5   8
ENDBRANCH   3   4
ENDBRANCH   2   3
ENDBRANCH   1   2
BRANCH   1  25
ATOM     25  C   UNL     1       3.984   4.445   0.956  1.00  0.00     0.116 C 
BRANCH  25  26
ATOM     26  N   UNL     1       4.817   3.255   1.071  1.00  0.00    -0.352 N 
ATOM     27  C   UNL     1       6.173   3.176   1.292  1.00  0.00     0.251 C 
ATOM     28  H   UNL     1       4.349   2.394   0.977  1.00  0.00     0.163 HD
ATOM     29  O   UNL     1       6.745   2.092   1.304  1.00  0.00    -0.269 OA
BRANCH  27  30
ATOM     30  C   UNL     1       6.939   4.427   1.456  1.00  0.00     0.039 A 
ATOM     31  C   UNL     1       8.073   4.630   0.666  1.00  0.00     0.014 A 
ATOM     32  C   UNL     1       6.480   5.429   2.313  1.00  0.00     0.014 A 
ATOM     33  C   UNL     1       8.688   5.882   0.661  1.00  0.00     0.010 A 
ATOM     34  C   UNL     1       7.037   6.698   2.238  1.00  0.00     0.010 A 
ATOM     35  C   UNL     1       8.140   6.940   1.404  1.00  0.00    -0.014 A 
BRANCH  35  36
ATOM     36  C   UNL     1       8.690   8.315   1.321  1.00  0.00     0.031 A 
ATOM     37  C   UNL     1       9.237   8.975   2.554  1.00  0.00     0.074 A 
ATOM     38  C   UNL     1       8.599   9.002   0.166  1.00  0.00     0.049 A 
ATOM     39  N   UNL     1       9.638  10.209   2.724  1.00  0.00    -0.248 NA
ATOM     40  C   UNL     1       9.300   8.149   3.770  1.00  0.00     0.031 C 
ATOM     41  C   UNL     1       8.020   8.497  -1.081  1.00  0.00     0.029 A 
ATOM     42  N   UNL     1       8.981  10.284  -0.142  1.00  0.00    -0.354 N 
ATOM     43  C   UNL     1       9.959  10.316   4.071  1.00  0.00     0.074 A 
ATOM     44  C   UNL     1       9.665   9.038   4.681  1.00  0.00     0.031 C 
ATOM     45  C   UNL     1       8.112   9.447  -2.026  1.00  0.00     0.029 A 
ATOM     46  C   UNL     1       8.724  10.637  -1.444  1.00  0.00     0.049 A 
ATOM     47  H   UNL     1       9.399  10.893   0.508  1.00  0.00     0.167 HD
ATOM     48  C   UNL     1      10.474  11.377   4.733  1.00  0.00     0.037 A 
ATOM     49  C   UNL     1       8.958  11.793  -2.094  1.00  0.00     0.037 A 
ATOM     50  C   UNL     1      10.827  12.624   4.110  1.00  0.00     0.049 A 
ATOM     51  C   UNL     1       9.599  12.933  -1.353  1.00  0.00     0.074 A 
ATOM     52  C   UNL     1      11.434  13.731   4.674  1.00  0.00     0.029 A 
ATOM     53  N   UNL     1      10.613  12.921   2.772  1.00  0.00    -0.354 N 
ATOM     54  N   UNL     1       9.956  13.003  -0.093  1.00  0.00    -0.248 NA
ATOM     55  C   UNL     1       9.876  14.152  -2.124  1.00  0.00     0.031 C 
ATOM     56  C   UNL     1      11.572  14.707   3.680  1.00  0.00     0.029 A 
ATOM     57  C   UNL     1      11.075  14.196   2.492  1.00  0.00     0.049 A 
ATOM     58  H   UNL     1      10.196  12.315   2.118  1.00  0.00     0.167 HD
ATOM     59  C   UNL     1      10.517  14.260   0.074  1.00  0.00     0.074 A 
ATOM     60  C   UNL     1      10.466  14.917  -1.216  1.00  0.00     0.031 C 
ATOM     61  C   UNL     1      11.026  14.823   1.197  1.00  0.00     0.037 A 
BRANCH  48  62
ATOM     62  C   UNL     1      10.702  11.224   6.207  1.00  0.00     0.064 A 
ATOM     63  C   UNL     1      11.723  10.403   6.710  1.00  0.00     0.173 A 
ATOM     64  C   UNL     1       9.896  11.910   7.127  1.00  0.00     0.173 A 
ATOM     65  F   UNL     1      12.508   9.712   5.870  1.00  0.00    -0.203 F 
ATOM     66  C   UNL     1      11.907  10.249   8.081  1.00  0.00     0.198 A 
ATOM     67  C   UNL     1      10.101  11.775   8.498  1.00  0.00     0.198 A 
ATOM     68  F   UNL     1       8.908  12.709   6.697  1.00  0.00    -0.203 F 
ATOM     69  F   UNL     1      12.852   9.416   8.538  1.00  0.00    -0.200 F 
ATOM     70  C   UNL     1      11.100  10.938   8.973  1.00  0.00     0.200 A 
ATOM     71  F   UNL     1       9.326  12.448   9.359  1.00  0.00    -0.200 F 
ATOM     72  F   UNL     1      11.278  10.788  10.293  1.00  0.00    -0.200 F 
ENDBRANCH  48  62
BRANCH  49  73
ATOM     73  C   UNL     1       8.627  11.914  -3.535  1.00  0.00     0.064 A 
ATOM     74  C   UNL     1       9.642  11.920  -4.502  1.00  0.00     0.173 A 
ATOM     75  C   UNL     1       7.301  12.021  -3.978  1.00  0.00     0.173 A 
ATOM     76  F   UNL     1      10.926  11.838  -4.122  1.00  0.00    -0.203 F 
ATOM     77  C   UNL     1       9.346  12.047  -5.856  1.00  0.00     0.198 A 
ATOM     78  C   UNL     1       7.004  12.126  -5.335  1.00  0.00     0.198 A 
ATOM     79  F   UNL     1       6.295  12.013  -3.092  1.00  0.00    -0.203 F 
ATOM     80  F   UNL     1      10.338  12.087  -6.756  1.00  0.00    -0.200 F 
ATOM     81  C   UNL     1       8.027  12.146  -6.273  1.00  0.00     0.200 A 
ATOM     82  F   UNL     1       5.728  12.211  -5.735  1.00  0.00    -0.200 F 
ATOM     83  F   UNL     1       7.741  12.266  -7.576  1.00  0.00    -0.200 F 
ENDBRANCH  49  73
BRANCH  61  84
ATOM     84  C   UNL     1      11.594  16.203   1.073  1.00  0.00     0.064 A 
ATOM     85  C   UNL     1      10.764  17.328   0.975  1.00  0.00     0.173 A 
ATOM     86  C   UNL     1      12.982  16.404   1.101  1.00  0.00     0.173 A 
ATOM     87  F   UNL     1       9.431  17.182   0.929  1.00  0.00    -0.203 F 
ATOM     88  C   UNL     1      11.305  18.608   0.892  1.00  0.00     0.198 A 
ATOM     89  C   UNL     1      13.518  17.686   1.039  1.00  0.00     0.198 A 
ATOM     90  F   UNL     1      13.815  15.357   1.197  1.00  0.00    -0.203 F 
ATOM     91  F   UNL     1      10.496  19.668   0.764  1.00  0.00    -0.200 F 
ATOM     92  C   UNL     1      12.680  18.786   0.931  1.00  0.00     0.200 A 
ATOM     93  F   UNL     1      14.847  17.858   1.086  1.00  0.00    -0.200 F 
ATOM     94  F   UNL     1      13.199  20.020   0.858  1.00  0.00    -0.200 F 
ENDBRANCH  61  84
ENDBRANCH  35  36
ENDBRANCH  27  30
ENDBRANCH  25  26
ENDBRANCH   1  25
TORSDOF 13
