REMARK SMILES NS(=O)(=O)c1ccc(-n2nc(C(=O)NCCCC(=O)NCCCCNC(=O)c3ccc(-c4c5nc(c(-c6c(F)c(F)c(F)c(F)c6F)c6ccc([nH]6)c(-c6c(F)c(F)c(F)c(F)c6F)c6nc(c(-c7c(F)c(F)c(F)c(F)c7F)c7ccc4[nH]7)C=C6)C=C5)cc3)cc2-c2ccccc2)cc1
REMARK SMILES IDX 18 1 19 2 20 3 17 5 16 6 15 7 14 8 12 9 13 10 11 12 9 13
REMARK SMILES IDX 10 14 92 15 91 16 8 17 5 18 6 19 100 20 7 21 99 22 2 23 3 24
REMARK SMILES IDX 4 25 1 26 93 29 94 30 98 31 95 32 97 33 96 34 21 35 22 36
REMARK SMILES IDX 23 37 24 38 25 39 26 40 27 42 28 43 29 44 90 45 30 46 89 47
REMARK SMILES IDX 31 48 32 49 33 50 83 51 34 52 88 53 82 54 84 55 35 56 87 57
REMARK SMILES IDX 81 58 80 59 36 61 68 62 48 63 67 64 49 65 52 66 66 67 85 68
REMARK SMILES IDX 50 69 51 70 65 72 86 73 53 74 37 75 38 76 46 77 39 78 40 79
REMARK SMILES IDX 44 80 47 81 41 82 42 83 45 84 43 85 69 86 70 87 78 88 71 89
REMARK SMILES IDX 72 90 76 91 79 92 73 93 74 94 77 95 75 96 54 97 55 98 63 99
REMARK SMILES IDX 56 100 57 101 61 102 64 103 58 104 59 105 62 106 60 107
REMARK H PARENT 20 4 14 11 1 27 1 28 25 41 84 60 52 71
REMARK Flexibility Score: inf
ROOT
ATOM      1  C   UNL     1       3.112 -11.044   8.865  1.00  0.00     0.220 C 
ATOM      2  O   UNL     1       3.927 -11.966   8.795  1.00  0.00    -0.275 OA
ATOM      3  N   UNL     1       1.936 -11.181   8.193  1.00  0.00    -0.356 N 
ATOM      4  H   UNL     1       1.808 -12.059   7.767  1.00  0.00     0.163 HD
ENDROOT
BRANCH   1   5
ATOM      5  C   UNL     1       3.413  -9.808   9.689  1.00  0.00     0.102 C 
BRANCH   5   6
ATOM      6  C   UNL     1       4.267  -8.764   8.966  1.00  0.00     0.031 C 
BRANCH   6   7
ATOM      7  C   UNL     1       3.509  -7.846   8.013  1.00  0.00     0.116 C 
BRANCH   7   8
ATOM      8  N   UNL     1       2.407  -7.134   8.630  1.00  0.00    -0.351 N 
ATOM      9  C   UNL     1       1.590  -6.142   8.127  1.00  0.00     0.271 C 
ATOM     10  O   UNL     1       0.734  -5.695   8.893  1.00  0.00    -0.267 OA
ATOM     11  H   UNL     1       2.210  -7.401   9.557  1.00  0.00     0.163 HD
BRANCH   9  12
ATOM     12  C   UNL     1       1.759  -5.654   6.744  1.00  0.00     0.151 A 
ATOM     13  N   UNL     1       1.671  -4.291   5.085  1.00  0.00    -0.232 N 
ATOM     14  N   UNL     1       1.475  -4.374   6.422  1.00  0.00    -0.162 NA
ATOM     15  C   UNL     1       2.333  -5.411   4.600  1.00  0.00     0.075 A 
ATOM     16  C   UNL     1       2.230  -6.348   5.603  1.00  0.00     0.065 A 
BRANCH  13  17
ATOM     17  C   UNL     1       1.244  -3.159   4.338  1.00  0.00     0.065 A 
ATOM     18  C   UNL     1       0.617  -0.941   2.776  1.00  0.00     0.082 A 
ATOM     19  C   UNL     1       0.531  -2.217   2.220  1.00  0.00     0.024 A 
ATOM     20  C   UNL     1       0.965  -0.767   4.122  1.00  0.00     0.024 A 
ATOM     21  C   UNL     1       0.851  -3.324   2.999  1.00  0.00     0.030 A 
ATOM     22  C   UNL     1       1.251  -1.885   4.916  1.00  0.00     0.030 A 
BRANCH  18  23
ATOM     23  S   UNL     1       0.342   0.466   1.742  1.00  0.00     0.238 S 
ATOM     24  O   UNL     1       1.100   1.584   2.251  1.00  0.00    -0.207 OA
ATOM     25  O   UNL     1      -1.066   0.542   1.433  1.00  0.00    -0.207 OA
BRANCH  23  26
ATOM     26  N   UNL     1       1.111   0.037   0.306  1.00  0.00    -0.225 NA
ATOM     27  H   UNL     1       1.012   0.793  -0.372  1.00  0.00     0.137 HD
ATOM     28  H   UNL     1       0.687  -0.812  -0.067  1.00  0.00     0.137 HD
ENDBRANCH  23  26
ENDBRANCH  18  23
ENDBRANCH  13  17
BRANCH  15  29
ATOM     29  C   UNL     1       3.091  -5.482   3.353  1.00  0.00     0.000 A 
ATOM     30  C   UNL     1       4.059  -4.504   3.072  1.00  0.00     0.010 A 
ATOM     31  C   UNL     1       2.895  -6.529   2.449  1.00  0.00     0.010 A 
ATOM     32  C   UNL     1       4.795  -4.555   1.890  1.00  0.00     0.001 A 
ATOM     33  C   UNL     1       3.634  -6.578   1.265  1.00  0.00     0.001 A 
ATOM     34  C   UNL     1       4.580  -5.591   0.985  1.00  0.00     0.000 A 
ENDBRANCH  15  29
ENDBRANCH   9  12
ENDBRANCH   7   8
ENDBRANCH   6   7
ENDBRANCH   5   6
ENDBRANCH   1   5
BRANCH   3  35
ATOM     35  C   UNL     1       0.839 -10.249   7.997  1.00  0.00     0.116 C 
BRANCH  35  36
ATOM     36  C   UNL     1       0.749  -9.793   6.536  1.00  0.00     0.023 C 
BRANCH  36  37
ATOM     37  C   UNL     1       0.145 -10.804   5.555  1.00  0.00     0.023 C 
BRANCH  37  38
ATOM     38  C   UNL     1      -1.360 -10.998   5.689  1.00  0.00     0.116 C 
BRANCH  38  39
ATOM     39  N   UNL     1      -2.119  -9.787   5.386  1.00  0.00    -0.352 N 
ATOM     40  C   UNL     1      -3.428  -9.511   5.723  1.00  0.00     0.251 C 
ATOM     41  H   UNL     1      -1.642  -9.088   4.883  1.00  0.00     0.163 HD
ATOM     42  O   UNL     1      -4.086  -8.679   5.113  1.00  0.00    -0.269 OA
BRANCH  40  43
ATOM     43  C   UNL     1      -4.023 -10.263   6.838  1.00  0.00     0.039 A 
ATOM     44  C   UNL     1      -5.225 -10.952   6.668  1.00  0.00     0.014 A 
ATOM     45  C   UNL     1      -3.291 -10.361   8.020  1.00  0.00     0.014 A 
ATOM     46  C   UNL     1      -5.633 -11.838   7.660  1.00  0.00     0.010 A 
ATOM     47  C   UNL     1      -3.642 -11.315   8.949  1.00  0.00     0.010 A 
ATOM     48  C   UNL     1      -4.818 -12.049   8.785  1.00  0.00    -0.014 A 
BRANCH  48  49
ATOM     49  C   UNL     1      -5.117 -13.156   9.698  1.00  0.00     0.031 A 
ATOM     50  C   UNL     1      -5.281 -14.493   9.055  1.00  0.00     0.074 A 
ATOM     51  C   UNL     1      -5.022 -13.064  11.042  1.00  0.00     0.049 A 
ATOM     52  N   UNL     1      -6.326 -15.255   9.061  1.00  0.00    -0.248 NA
ATOM     53  C   UNL     1      -4.175 -15.014   8.235  1.00  0.00     0.031 C 
ATOM     54  C   UNL     1      -4.559 -11.915  11.827  1.00  0.00     0.029 A 
ATOM     55  N   UNL     1      -5.198 -14.030  11.990  1.00  0.00    -0.354 N 
ATOM     56  C   UNL     1      -5.957 -16.430   8.406  1.00  0.00     0.074 A 
ATOM     57  C   UNL     1      -4.686 -16.164   7.789  1.00  0.00     0.031 C 
ATOM     58  C   UNL     1      -4.256 -12.318  13.078  1.00  0.00     0.029 A 
ATOM     59  C   UNL     1      -4.673 -13.699  13.232  1.00  0.00     0.049 A 
ATOM     60  H   UNL     1      -5.654 -14.884  11.810  1.00  0.00     0.167 HD
ATOM     61  C   UNL     1      -6.616 -17.599   8.648  1.00  0.00     0.037 A 
ATOM     62  C   UNL     1      -4.564 -14.500  14.317  1.00  0.00     0.037 A 
ATOM     63  C   UNL     1      -7.878 -17.348   9.300  1.00  0.00     0.049 A 
ATOM     64  C   UNL     1      -5.547 -15.593  14.164  1.00  0.00     0.074 A 
ATOM     65  C   UNL     1      -9.060 -16.714   8.983  1.00  0.00     0.029 A 
ATOM     66  N   UNL     1      -7.886 -17.529  10.657  1.00  0.00    -0.354 N 
ATOM     67  N   UNL     1      -6.839 -15.423  14.204  1.00  0.00    -0.248 NA
ATOM     68  C   UNL     1      -5.104 -16.875  13.636  1.00  0.00     0.031 C 
ATOM     69  C   UNL     1      -9.566 -16.210  10.221  1.00  0.00     0.029 A 
ATOM     70  C   UNL     1      -8.691 -16.591  11.238  1.00  0.00     0.049 A 
ATOM     71  H   UNL     1      -7.389 -18.228  11.140  1.00  0.00     0.167 HD
ATOM     72  C   UNL     1      -7.336 -16.355  13.313  1.00  0.00     0.074 A 
ATOM     73  C   UNL     1      -6.262 -17.327  13.149  1.00  0.00     0.031 C 
ATOM     74  C   UNL     1      -8.442 -16.073  12.565  1.00  0.00     0.037 A 
BRANCH  61  75
ATOM     75  C   UNL     1      -5.954 -18.967   8.762  1.00  0.00     0.064 A 
ATOM     76  C   UNL     1      -6.770 -20.085   9.057  1.00  0.00     0.173 A 
ATOM     77  C   UNL     1      -4.573 -19.164   8.969  1.00  0.00     0.173 A 
ATOM     78  F   UNL     1      -8.100 -20.026   8.887  1.00  0.00    -0.203 F 
ATOM     79  C   UNL     1      -6.258 -21.243   9.651  1.00  0.00     0.198 A 
ATOM     80  C   UNL     1      -4.060 -20.343   9.514  1.00  0.00     0.198 A 
ATOM     81  F   UNL     1      -3.670 -18.200   8.763  1.00  0.00    -0.203 F 
ATOM     82  F   UNL     1      -7.094 -22.205  10.065  1.00  0.00    -0.200 F 
ATOM     83  C   UNL     1      -4.905 -21.363   9.897  1.00  0.00     0.200 A 
ATOM     84  F   UNL     1      -2.744 -20.438   9.752  1.00  0.00    -0.200 F 
ATOM     85  F   UNL     1      -4.420 -22.431  10.543  1.00  0.00    -0.200 F 
ENDBRANCH  61  75
BRANCH  62  86
ATOM     86  C   UNL     1      -3.542 -14.482  15.387  1.00  0.00     0.064 A 
ATOM     87  C   UNL     1      -3.762 -15.135  16.610  1.00  0.00     0.173 A 
ATOM     88  C   UNL     1      -2.224 -14.056  15.130  1.00  0.00     0.173 A 
ATOM     89  F   UNL     1      -4.980 -15.605  16.915  1.00  0.00    -0.203 F 
ATOM     90  C   UNL     1      -2.718 -15.379  17.507  1.00  0.00     0.198 A 
ATOM     91  C   UNL     1      -1.186 -14.290  16.032  1.00  0.00     0.198 A 
ATOM     92  F   UNL     1      -1.901 -13.488  13.960  1.00  0.00    -0.203 F 
ATOM     93  F   UNL     1      -2.953 -16.068  18.633  1.00  0.00    -0.200 F 
ATOM     94  C   UNL     1      -1.429 -14.967  17.212  1.00  0.00     0.200 A 
ATOM     95  F   UNL     1       0.063 -13.915  15.719  1.00  0.00    -0.200 F 
ATOM     96  F   UNL     1      -0.417 -15.259  18.041  1.00  0.00    -0.200 F 
ENDBRANCH  62  86
BRANCH  74  97
ATOM     97  C   UNL     1      -9.353 -14.991  13.062  1.00  0.00     0.064 A 
ATOM     98  C   UNL     1      -8.996 -13.638  13.179  1.00  0.00     0.173 A 
ATOM     99  C   UNL     1     -10.680 -15.338  13.349  1.00  0.00     0.173 A 
ATOM    100  F   UNL     1      -7.775 -13.212  12.833  1.00  0.00    -0.203 F 
ATOM    101  C   UNL     1      -9.916 -12.687  13.616  1.00  0.00     0.198 A 
ATOM    102  C   UNL     1     -11.607 -14.381  13.746  1.00  0.00     0.198 A 
ATOM    103  F   UNL     1     -11.089 -16.609  13.206  1.00  0.00    -0.203 F 
ATOM    104  F   UNL     1      -9.546 -11.405  13.747  1.00  0.00    -0.200 F 
ATOM    105  C   UNL     1     -11.221 -13.059  13.894  1.00  0.00     0.200 A 
ATOM    106  F   UNL     1     -12.879 -14.738  13.968  1.00  0.00    -0.200 F 
ATOM    107  F   UNL     1     -12.115 -12.139  14.284  1.00  0.00    -0.200 F 
ENDBRANCH  74  97
ENDBRANCH  48  49
ENDBRANCH  40  43
ENDBRANCH  38  39
ENDBRANCH  37  38
ENDBRANCH  36  37
ENDBRANCH  35  36
ENDBRANCH   3  35
TORSDOF 19
