REMARK SMILES C[C@H]1CC[C@H]([N@@H+](CC(=O)NCCCCNC(=O)c2ccc(-c3c4nc(c(-c5c(F)c(F)c(F)c(F)c5F)c5ccc([nH]5)c(-c5c(F)c(F)c(F)c(F)c5F)c5nc(c(-c6c(F)c(F)c(F)c(F)c6F)c6ccc3[nH]6)C=C5)C=C4)cc2)C(C)(C)C)C[C@@H]1C
REMARK SMILES IDX 12 1 11 2 10 3 8 4 9 5 7 7 6 8 5 10 1 11 2 12 3 13 86 14
REMARK SMILES IDX 4 15 85 16 87 17 81 18 82 19 83 20 84 21 13 22 14 23 15 24
REMARK SMILES IDX 16 25 17 27 18 28 19 29 80 30 20 31 79 32 21 33 22 34 23 35
REMARK SMILES IDX 73 36 24 37 78 38 72 39 74 40 25 41 77 42 71 43 70 44 26 46
REMARK SMILES IDX 58 47 38 48 57 49 39 50 42 51 56 52 75 53 40 54 41 55 55 57
REMARK SMILES IDX 76 58 43 59 27 60 28 61 36 62 29 63 30 64 34 65 37 66 31 67
REMARK SMILES IDX 32 68 35 69 33 70 59 71 60 72 68 73 61 74 62 75 66 76 69 77
REMARK SMILES IDX 63 78 64 79 67 80 65 81 44 82 45 83 53 84 46 85 47 86 51 87
REMARK SMILES IDX 54 88 48 89 49 90 52 91 50 92
REMARK H PARENT 10 6 6 9 15 26 74 45 42 56
REMARK Flexibility Score: inf
ROOT
ATOM      1  C   UNL     1       0.470   1.137  -4.410  1.00  0.00     0.023 C 
ENDROOT
BRANCH   1   2
ATOM      2  C   UNL     1       1.730   1.853  -4.920  1.00  0.00     0.116 C 
BRANCH   2   3
ATOM      3  N   UNL     1       2.466   2.597  -3.909  1.00  0.00    -0.351 N 
ATOM      4  C   UNL     1       3.683   2.397  -3.317  1.00  0.00     0.275 C 
ATOM      5  O   UNL     1       4.123   3.341  -2.654  1.00  0.00    -0.269 OA
ATOM      6  H   UNL     1       1.997   3.400  -3.587  1.00  0.00     0.163 HD
BRANCH   4   7
ATOM      7  C   UNL     1       4.449   1.068  -3.457  1.00  0.00     0.364 C 
BRANCH   7   8
ATOM      8  N   UNL     1       4.454   0.209  -2.233  1.00  0.00    -0.321 N 
ATOM      9  H   UNL     1       4.761  -0.728  -2.493  1.00  0.00     0.349 HD
BRANCH   8  10
ATOM     10  C   UNL     1       3.083  -0.039  -1.752  1.00  0.00     0.185 C 
ATOM     11  C   UNL     1      -0.922  -0.773  -0.231  1.00  0.00     0.008 C 
ATOM     12  C   UNL     1       0.605  -0.643  -0.205  1.00  0.00    -0.011 C 
ATOM     13  C   UNL     1       1.209  -1.655  -1.209  1.00  0.00     0.010 C 
ATOM     14  C   UNL     1       1.060   0.794  -0.526  1.00  0.00    -0.006 C 
ATOM     15  C   UNL     1       2.724  -1.500  -1.423  1.00  0.00     0.065 C 
ATOM     16  C   UNL     1       2.585   0.876  -0.629  1.00  0.00     0.068 C 
ATOM     17  C   UNL     1       0.551   1.874   0.426  1.00  0.00     0.008 C 
ENDBRANCH   8  10
BRANCH   8  18
ATOM     18  C   UNL     1       5.609   0.322  -1.300  1.00  0.00     0.090 C 
ATOM     19  C   UNL     1       5.692   1.628  -0.483  1.00  0.00     0.078 C 
ATOM     20  C   UNL     1       5.635  -0.855  -0.296  1.00  0.00     0.078 C 
ATOM     21  C   UNL     1       6.948   0.210  -2.081  1.00  0.00     0.078 C 
ENDBRANCH   8  18
ENDBRANCH   7   8
ENDBRANCH   4   7
ENDBRANCH   2   3
ENDBRANCH   1   2
BRANCH   1  22
ATOM     22  C   UNL     1      -0.448   1.976  -3.514  1.00  0.00     0.023 C 
BRANCH  22  23
ATOM     23  C   UNL     1      -1.425   2.872  -4.251  1.00  0.00     0.116 C 
BRANCH  23  24
ATOM     24  N   UNL     1      -2.630   2.141  -4.615  1.00  0.00    -0.352 N 
ATOM     25  C   UNL     1      -3.869   2.088  -4.029  1.00  0.00     0.251 C 
ATOM     26  H   UNL     1      -2.540   1.587  -5.423  1.00  0.00     0.163 HD
ATOM     27  O   UNL     1      -4.620   1.156  -4.343  1.00  0.00    -0.269 OA
BRANCH  25  28
ATOM     28  C   UNL     1      -4.359   3.103  -3.058  1.00  0.00     0.039 A 
ATOM     29  C   UNL     1      -5.375   2.736  -2.163  1.00  0.00     0.014 A 
ATOM     30  C   UNL     1      -3.950   4.438  -3.094  1.00  0.00     0.014 A 
ATOM     31  C   UNL     1      -5.980   3.693  -1.338  1.00  0.00     0.010 A 
ATOM     32  C   UNL     1      -4.474   5.369  -2.196  1.00  0.00     0.010 A 
ATOM     33  C   UNL     1      -5.538   5.024  -1.352  1.00  0.00    -0.014 A 
BRANCH  33  34
ATOM     34  C   UNL     1      -6.256   6.090  -0.601  1.00  0.00     0.031 A 
ATOM     35  C   UNL     1      -6.926   7.211  -1.361  1.00  0.00     0.074 A 
ATOM     36  C   UNL     1      -6.293   6.075   0.745  1.00  0.00     0.049 A 
ATOM     37  N   UNL     1      -7.538   8.278  -0.907  1.00  0.00    -0.248 NA
ATOM     38  C   UNL     1      -6.870   7.143  -2.831  1.00  0.00     0.031 C 
ATOM     39  C   UNL     1      -5.651   5.075   1.598  1.00  0.00     0.029 A 
ATOM     40  N   UNL     1      -6.894   6.933   1.632  1.00  0.00    -0.354 N 
ATOM     41  C   UNL     1      -7.907   9.011  -2.030  1.00  0.00     0.074 A 
ATOM     42  C   UNL     1      -7.401   8.303  -3.184  1.00  0.00     0.031 C 
ATOM     43  C   UNL     1      -5.912   5.362   2.884  1.00  0.00     0.029 A 
ATOM     44  C   UNL     1      -6.716   6.580   2.947  1.00  0.00     0.049 A 
ATOM     45  H   UNL     1      -7.404   7.727   1.352  1.00  0.00     0.167 HD
ATOM     46  C   UNL     1      -8.633  10.153  -2.099  1.00  0.00     0.037 A 
ATOM     47  C   UNL     1      -7.155   7.172   4.074  1.00  0.00     0.037 A 
ATOM     48  C   UNL     1      -9.188  10.825  -0.956  1.00  0.00     0.049 A 
ATOM     49  C   UNL     1      -8.002   8.413   3.967  1.00  0.00     0.074 A 
ATOM     50  C   UNL     1      -9.975  11.962  -0.917  1.00  0.00     0.029 A 
ATOM     51  N   UNL     1      -9.027  10.405   0.356  1.00  0.00    -0.354 N 
ATOM     52  N   UNL     1      -8.375   9.072   2.897  1.00  0.00    -0.248 NA
ATOM     53  C   UNL     1      -8.501   8.984   5.226  1.00  0.00     0.031 C 
ATOM     54  C   UNL     1     -10.273  12.242   0.421  1.00  0.00     0.029 A 
ATOM     55  C   UNL     1      -9.701  11.259   1.211  1.00  0.00     0.049 A 
ATOM     56  H   UNL     1      -8.509   9.615   0.637  1.00  0.00     0.167 HD
ATOM     57  C   UNL     1      -9.165  10.120   3.349  1.00  0.00     0.074 A 
ATOM     58  C   UNL     1      -9.242   9.993   4.790  1.00  0.00     0.031 C 
ATOM     59  C   UNL     1      -9.768  11.106   2.641  1.00  0.00     0.037 A 
BRANCH  46  60
ATOM     60  C   UNL     1      -8.892  10.733  -3.460  1.00  0.00     0.064 A 
ATOM     61  C   UNL     1      -9.763  10.111  -4.369  1.00  0.00     0.173 A 
ATOM     62  C   UNL     1      -8.299  11.945  -3.847  1.00  0.00     0.173 A 
ATOM     63  F   UNL     1     -10.345   8.944  -4.054  1.00  0.00    -0.203 F 
ATOM     64  C   UNL     1     -10.009  10.666  -5.622  1.00  0.00     0.198 A 
ATOM     65  C   UNL     1      -8.571  12.512  -5.090  1.00  0.00     0.198 A 
ATOM     66  F   UNL     1      -7.463  12.584  -3.016  1.00  0.00    -0.203 F 
ATOM     67  F   UNL     1     -10.807  10.028  -6.489  1.00  0.00    -0.200 F 
ATOM     68  C   UNL     1      -9.420  11.869  -5.979  1.00  0.00     0.200 A 
ATOM     69  F   UNL     1      -8.009  13.681  -5.429  1.00  0.00    -0.200 F 
ATOM     70  F   UNL     1      -9.665  12.406  -7.182  1.00  0.00    -0.200 F 
ENDBRANCH  46  60
BRANCH  47  71
ATOM     71  C   UNL     1      -6.835   6.584   5.402  1.00  0.00     0.064 A 
ATOM     72  C   UNL     1      -7.834   5.992   6.187  1.00  0.00     0.173 A 
ATOM     73  C   UNL     1      -5.533   6.617   5.920  1.00  0.00     0.173 A 
ATOM     74  F   UNL     1      -9.100   5.956   5.744  1.00  0.00    -0.203 F 
ATOM     75  C   UNL     1      -7.549   5.480   7.452  1.00  0.00     0.198 A 
ATOM     76  C   UNL     1      -5.243   6.079   7.173  1.00  0.00     0.198 A 
ATOM     77  F   UNL     1      -4.539   7.168   5.208  1.00  0.00    -0.203 F 
ATOM     78  F   UNL     1      -8.534   4.968   8.202  1.00  0.00    -0.200 F 
ATOM     79  C   UNL     1      -6.253   5.519   7.941  1.00  0.00     0.200 A 
ATOM     80  F   UNL     1      -3.986   6.107   7.638  1.00  0.00    -0.200 F 
ATOM     81  F   UNL     1      -5.978   5.027   9.157  1.00  0.00    -0.200 F 
ENDBRANCH  47  71
BRANCH  59  82
ATOM     82  C   UNL     1     -10.577  12.104   3.414  1.00  0.00     0.064 A 
ATOM     83  C   UNL     1      -9.964  13.075   4.219  1.00  0.00     0.173 A 
ATOM     84  C   UNL     1     -11.977  12.101   3.333  1.00  0.00     0.173 A 
ATOM     85  F   UNL     1      -8.628  13.109   4.337  1.00  0.00    -0.203 F 
ATOM     86  C   UNL     1     -10.726  13.988   4.941  1.00  0.00     0.198 A 
ATOM     87  C   UNL     1     -12.735  13.033   4.036  1.00  0.00     0.198 A 
ATOM     88  F   UNL     1     -12.609  11.197   2.570  1.00  0.00    -0.203 F 
ATOM     89  F   UNL     1     -10.123  14.874   5.745  1.00  0.00    -0.200 F 
ATOM     90  C   UNL     1     -12.110  13.969   4.846  1.00  0.00     0.200 A 
ATOM     91  F   UNL     1     -14.071  13.021   3.934  1.00  0.00    -0.200 F 
ATOM     92  F   UNL     1     -12.842  14.848   5.543  1.00  0.00    -0.200 F 
ENDBRANCH  59  82
ENDBRANCH  33  34
ENDBRANCH  25  28
ENDBRANCH  23  24
ENDBRANCH  22  23
ENDBRANCH   1  22
TORSDOF 14
