REMARK SMILES Cc1ccccc1[C@H](C(=O)NC[C@H]1CC[C@@H](C(=O)NCCCCNC(=O)c2ccc(-c3c4nc(c(-c5c(F)c(F)c(F)c(F)c5F)c5ccc([nH]5)c(-c5c(F)c(F)c(F)c(F)c5F)c5nc(c(-c6c(F)c(F)c(F)c(F)c6F)c6ccc3[nH]6)C=C5)C=C4)cc2)CC1)[NH+](C)C
REMARK SMILES IDX 20 1 19 2 17 3 18 4 16 6 13 7 14 8 91 9 15 10 90 11 12 12
REMARK SMILES IDX 11 13 9 14 10 15 8 17 7 18 1 19 2 20 3 21 4 22 6 23 5 24
REMARK SMILES IDX 92 25 93 26 94 27 21 29 22 30 23 31 24 32 25 33 26 35 27 36
REMARK SMILES IDX 28 37 89 38 29 39 88 40 30 41 31 42 32 43 82 44 33 45 87 46
REMARK SMILES IDX 81 47 83 48 34 49 86 50 80 51 79 52 35 54 67 55 47 56 66 57
REMARK SMILES IDX 48 58 51 59 65 60 84 61 49 62 50 63 64 65 85 66 52 67 36 68
REMARK SMILES IDX 37 69 45 70 38 71 39 72 43 73 46 74 40 75 41 76 44 77 42 78
REMARK SMILES IDX 68 79 69 80 77 81 70 82 71 83 75 84 78 85 72 86 73 87 76 88
REMARK SMILES IDX 74 89 53 90 54 91 62 92 55 93 56 94 60 95 63 96 57 97 58 98
REMARK SMILES IDX 61 99 59 100
REMARK H PARENT 19 5 11 16 92 28 24 34 83 53 51 64
REMARK Flexibility Score: inf
ROOT
ATOM      1  C   UNL     1       3.127   0.968  -4.461  1.00  0.00     0.116 C 
ENDROOT
BRANCH   1   2
ATOM      2  N   UNL     1       1.801   0.913  -5.111  1.00  0.00    -0.356 N 
ATOM      3  C   UNL     1       1.224   2.050  -5.645  1.00  0.00     0.223 C 
ATOM      4  O   UNL     1       1.923   3.044  -5.861  1.00  0.00    -0.275 OA
ATOM      5  H   UNL     1       1.321   0.055  -5.163  1.00  0.00     0.163 HD
BRANCH   3   6
ATOM      6  C   UNL     1      -0.296   2.067  -5.990  1.00  0.00     0.078 C 
ATOM      7  C   UNL     1      -2.387   2.565  -3.733  1.00  0.00     0.008 C 
ATOM      8  C   UNL     1      -1.748   3.737  -4.508  1.00  0.00     0.006 C 
ATOM      9  C   UNL     1      -1.738   1.214  -4.026  1.00  0.00     0.006 C 
ATOM     10  C   UNL     1      -0.920   3.466  -5.778  1.00  0.00     0.014 C 
ATOM     11  C   UNL     1      -1.232   0.989  -5.449  1.00  0.00     0.014 C 
BRANCH   7  12
ATOM     12  C   UNL     1      -2.507   2.938  -2.201  1.00  0.00     0.119 C 
BRANCH  12  13
ATOM     13  N   UNL     1      -2.617   1.839  -1.238  1.00  0.00    -0.350 N 
ATOM     14  C   UNL     1      -2.026   1.539  -0.032  1.00  0.00     0.283 C 
ATOM     15  O   UNL     1      -2.613   0.640   0.596  1.00  0.00    -0.268 OA
ATOM     16  H   UNL     1      -3.266   1.155  -1.519  1.00  0.00     0.163 HD
BRANCH  14  17
ATOM     17  C   UNL     1      -0.668   2.127   0.550  1.00  0.00     0.305 C 
BRANCH  17  18
ATOM     18  C   UNL     1       0.103   3.044  -0.383  1.00  0.00     0.022 A 
ATOM     19  C   UNL     1       0.754   0.974  -1.694  1.00  0.00     0.045 C 
ATOM     20  C   UNL     1       0.689   2.467  -1.521  1.00  0.00    -0.041 A 
ATOM     21  C   UNL     1       1.189   3.310  -2.515  1.00  0.00     0.004 A 
ATOM     22  C   UNL     1       1.207   4.689  -2.389  1.00  0.00     0.000 A 
ATOM     23  C   UNL     1       0.160   4.444  -0.239  1.00  0.00     0.011 A 
ATOM     24  C   UNL     1       0.712   5.255  -1.234  1.00  0.00     0.001 A 
ENDBRANCH  17  18
BRANCH  17  25
ATOM     25  N   UNL     1      -0.752   2.493   1.985  1.00  0.00    -0.326 N 
ATOM     26  C   UNL     1       0.503   2.895   2.602  1.00  0.00     0.333 C 
ATOM     27  C   UNL     1      -1.901   3.274   2.376  1.00  0.00     0.333 C 
ATOM     28  H   UNL     1      -0.947   1.589   2.416  1.00  0.00     0.348 HD
ENDBRANCH  17  25
ENDBRANCH  14  17
ENDBRANCH  12  13
ENDBRANCH   7  12
ENDBRANCH   3   6
ENDBRANCH   1   2
BRANCH   1  29
ATOM     29  C   UNL     1       3.395  -0.213  -3.508  1.00  0.00     0.023 C 
BRANCH  29  30
ATOM     30  C   UNL     1       4.488  -0.019  -2.432  1.00  0.00     0.023 C 
BRANCH  30  31
ATOM     31  C   UNL     1       4.388   1.187  -1.488  1.00  0.00     0.116 C 
BRANCH  31  32
ATOM     32  N   UNL     1       3.948   0.897  -0.128  1.00  0.00    -0.352 N 
ATOM     33  C   UNL     1       4.035   1.642   1.034  1.00  0.00     0.251 C 
ATOM     34  H   UNL     1       3.514   0.020  -0.018  1.00  0.00     0.163 HD
ATOM     35  O   UNL     1       3.856   1.057   2.109  1.00  0.00    -0.269 OA
BRANCH  33  36
ATOM     36  C   UNL     1       4.238   3.122   1.062  1.00  0.00     0.039 A 
ATOM     37  C   UNL     1       4.026   3.831   2.272  1.00  0.00     0.014 A 
ATOM     38  C   UNL     1       4.524   3.854  -0.078  1.00  0.00     0.014 A 
ATOM     39  C   UNL     1       4.028   5.237   2.311  1.00  0.00     0.010 A 
ATOM     40  C   UNL     1       4.477   5.226  -0.059  1.00  0.00     0.010 A 
ATOM     41  C   UNL     1       4.233   5.927   1.125  1.00  0.00    -0.014 A 
BRANCH  41  42
ATOM     42  C   UNL     1       4.323   7.369   0.921  1.00  0.00     0.031 A 
ATOM     43  C   UNL     1       5.661   7.984   0.693  1.00  0.00     0.074 A 
ATOM     44  C   UNL     1       3.241   7.931   0.338  1.00  0.00     0.049 A 
ATOM     45  N   UNL     1       5.860   9.241   0.471  1.00  0.00    -0.248 NA
ATOM     46  C   UNL     1       6.894   7.194   0.663  1.00  0.00     0.031 C 
ATOM     47  C   UNL     1       3.253   8.923  -0.737  1.00  0.00     0.029 A 
ATOM     48  N   UNL     1       1.887   7.724   0.555  1.00  0.00    -0.354 N 
ATOM     49  C   UNL     1       7.137   9.368  -0.031  1.00  0.00     0.074 A 
ATOM     50  C   UNL     1       7.766   8.084   0.180  1.00  0.00     0.031 C 
ATOM     51  C   UNL     1       2.007   9.393  -0.909  1.00  0.00     0.029 A 
ATOM     52  C   UNL     1       1.222   8.904   0.210  1.00  0.00     0.049 A 
ATOM     53  H   UNL     1       1.471   6.897   0.892  1.00  0.00     0.167 HD
ATOM     54  C   UNL     1       7.500  10.487  -0.722  1.00  0.00     0.037 A 
ATOM     55  C   UNL     1       0.573   9.715   1.099  1.00  0.00     0.037 A 
ATOM     56  C   UNL     1       6.380  11.404  -0.896  1.00  0.00     0.049 A 
ATOM     57  C   UNL     1       1.093  11.138   1.127  1.00  0.00     0.074 A 
ATOM     58  C   UNL     1       5.516  11.619  -1.957  1.00  0.00     0.029 A 
ATOM     59  N   UNL     1       5.814  12.033   0.206  1.00  0.00    -0.354 N 
ATOM     60  N   UNL     1       2.229  11.504   0.609  1.00  0.00    -0.248 NA
ATOM     61  C   UNL     1       0.436  12.223   1.853  1.00  0.00     0.031 C 
ATOM     62  C   UNL     1       4.413  12.367  -1.484  1.00  0.00     0.029 A 
ATOM     63  C   UNL     1       4.601  12.605  -0.134  1.00  0.00     0.049 A 
ATOM     64  H   UNL     1       6.219  12.068   1.102  1.00  0.00     0.167 HD
ATOM     65  C   UNL     1       2.539  12.761   1.044  1.00  0.00     0.074 A 
ATOM     66  C   UNL     1       1.354  13.199   1.754  1.00  0.00     0.031 C 
ATOM     67  C   UNL     1       3.784  13.287   0.859  1.00  0.00     0.037 A 
BRANCH  54  68
ATOM     68  C   UNL     1       8.803  10.609  -1.476  1.00  0.00     0.064 A 
ATOM     69  C   UNL     1       8.888  11.302  -2.703  1.00  0.00     0.173 A 
ATOM     70  C   UNL     1      10.014  10.055  -1.021  1.00  0.00     0.173 A 
ATOM     71  F   UNL     1       7.836  11.945  -3.223  1.00  0.00    -0.203 F 
ATOM     72  C   UNL     1      10.065  11.356  -3.454  1.00  0.00     0.198 A 
ATOM     73  C   UNL     1      11.179  10.066  -1.796  1.00  0.00     0.198 A 
ATOM     74  F   UNL     1      10.107   9.514   0.203  1.00  0.00    -0.203 F 
ATOM     75  F   UNL     1      10.083  12.029  -4.614  1.00  0.00    -0.200 F 
ATOM     76  C   UNL     1      11.203  10.712  -3.016  1.00  0.00     0.200 A 
ATOM     77  F   UNL     1      12.281   9.444  -1.350  1.00  0.00    -0.200 F 
ATOM     78  F   UNL     1      12.319  10.728  -3.756  1.00  0.00    -0.200 F 
ENDBRANCH  54  68
BRANCH  55  79
ATOM     79  C   UNL     1       0.157   9.014   2.339  1.00  0.00     0.064 A 
ATOM     80  C   UNL     1      -0.897   8.092   2.276  1.00  0.00     0.173 A 
ATOM     81  C   UNL     1       1.043   8.934   3.424  1.00  0.00     0.173 A 
ATOM     82  F   UNL     1      -1.762   8.125   1.250  1.00  0.00    -0.203 F 
ATOM     83  C   UNL     1      -0.982   7.051   3.194  1.00  0.00     0.198 A 
ATOM     84  C   UNL     1       0.969   7.874   4.323  1.00  0.00     0.198 A 
ATOM     85  F   UNL     1       2.060   9.801   3.534  1.00  0.00    -0.203 F 
ATOM     86  F   UNL     1      -1.944   6.130   3.062  1.00  0.00    -0.200 F 
ATOM     87  C   UNL     1      -0.022   6.915   4.186  1.00  0.00     0.200 A 
ATOM     88  F   UNL     1       1.912   7.730   5.264  1.00  0.00    -0.200 F 
ATOM     89  F   UNL     1      -0.022   5.831   4.973  1.00  0.00    -0.200 F 
ENDBRANCH  55  79
BRANCH  67  90
ATOM     90  C   UNL     1       4.311  14.510   1.559  1.00  0.00     0.064 A 
ATOM     91  C   UNL     1       3.900  14.908   2.842  1.00  0.00     0.173 A 
ATOM     92  C   UNL     1       5.366  15.261   0.993  1.00  0.00     0.173 A 
ATOM     93  F   UNL     1       3.014  14.190   3.546  1.00  0.00    -0.203 F 
ATOM     94  C   UNL     1       4.431  16.035   3.471  1.00  0.00     0.198 A 
ATOM     95  C   UNL     1       5.938  16.349   1.651  1.00  0.00     0.198 A 
ATOM     96  F   UNL     1       5.885  14.944  -0.203  1.00  0.00    -0.203 F 
ATOM     97  F   UNL     1       3.961  16.408   4.670  1.00  0.00    -0.200 F 
ATOM     98  C   UNL     1       5.454  16.751   2.879  1.00  0.00     0.200 A 
ATOM     99  F   UNL     1       6.973  16.994   1.094  1.00  0.00    -0.200 F 
ATOM    100  F   UNL     1       5.985  17.812   3.501  1.00  0.00    -0.200 F 
ENDBRANCH  67  90
ENDBRANCH  41  42
ENDBRANCH  33  36
ENDBRANCH  31  32
ENDBRANCH  30  31
ENDBRANCH  29  30
ENDBRANCH   1  29
TORSDOF 16
