REMARK SMILES CCOC(=O)c1c(NC(=O)[C@@H]2[C@@H]3CC[C@@H](C3)[C@@H]2C(=O)NCCCCNC(=O)c2ccc(-c3c4nc(c(-c5c(F)c(F)c(F)c(F)c5F)c5ccc([nH]5)c(-c5c(F)c(F)c(F)c(F)c5F)c5nc(c(-c6c(F)c(F)c(F)c(F)c6F)c6ccc3[nH]6)C=C5)C=C4)cc2)sc2c1CCCC2
REMARK SMILES IDX 21 1 20 2 18 3 19 4 17 6 11 7 12 8 13 9 16 10 15 11 14 12
REMARK SMILES IDX 9 13 8 14 10 16 7 17 6 18 93 19 91 20 92 21 94 22 97 23
REMARK SMILES IDX 95 24 96 25 4 26 5 27 3 28 2 29 1 30 22 31 23 32 24 33 25 34
REMARK SMILES IDX 26 35 27 37 28 38 29 39 90 40 30 41 89 42 31 43 32 44 33 45
REMARK SMILES IDX 83 46 34 47 88 48 82 49 84 50 35 51 87 52 81 53 80 54 36 56
REMARK SMILES IDX 68 57 48 58 67 59 49 60 52 61 66 62 85 63 50 64 51 65 65 67
REMARK SMILES IDX 86 68 53 69 37 70 38 71 46 72 39 73 40 74 44 75 47 76 41 77
REMARK SMILES IDX 42 78 45 79 43 80 69 81 70 82 78 83 71 84 72 85 76 86 79 87
REMARK SMILES IDX 73 88 74 89 77 90 75 91 54 92 55 93 63 94 56 95 57 96 61 97
REMARK SMILES IDX 64 98 58 99 59 100 62 101 60 102
REMARK H PARENT 20 5 8 15 25 36 84 55 52 66
REMARK Flexibility Score: inf
ROOT
ATOM      1  C   UNL     1       3.862   0.651   4.749  1.00  0.00     0.116 C 
ENDROOT
BRANCH   1   2
ATOM      2  N   UNL     1       2.767   0.213   3.909  1.00  0.00    -0.356 N 
ATOM      3  C   UNL     1       2.927  -0.896   3.127  1.00  0.00     0.224 C 
ATOM      4  O   UNL     1       3.071  -2.004   3.641  1.00  0.00    -0.275 OA
ATOM      5  H   UNL     1       1.916   0.708   3.902  1.00  0.00     0.163 HD
BRANCH   3   6
ATOM      6  C   UNL     1       2.732  -0.732   1.623  1.00  0.00     0.094 C 
ATOM      7  C   UNL     1       2.833   0.645   0.932  1.00  0.00     0.094 C 
ATOM      8  C   UNL     1       1.384   0.888   0.451  1.00  0.00     0.002 C 
ATOM      9  C   UNL     1       0.358   0.909   1.603  1.00  0.00     0.005 C 
ATOM     10  C   UNL     1       1.118  -0.486  -0.173  1.00  0.00     0.009 C 
ATOM     11  C   UNL     1       1.329  -1.227   1.155  1.00  0.00     0.002 C 
ATOM     12  C   UNL     1       0.214  -0.573   1.980  1.00  0.00     0.005 C 
BRANCH   7  13
ATOM     13  C   UNL     1       3.533   1.816   1.578  1.00  0.00     0.229 C 
ATOM     14  N   UNL     1       4.887   1.828   1.750  1.00  0.00    -0.317 N 
ATOM     15  H   UNL     1       5.214   2.616   2.243  1.00  0.00     0.170 HD
ATOM     16  O   UNL     1       2.897   2.789   1.996  1.00  0.00    -0.274 OA
BRANCH  14  17
ATOM     17  C   UNL     1       5.889   0.962   1.374  1.00  0.00     0.110 A 
ATOM     18  C   UNL     1       6.168   0.067   0.351  1.00  0.00     0.098 A 
ATOM     19  C   UNL     1       7.405  -0.648   0.621  1.00  0.00    -0.017 A 
ATOM     20  S   UNL     1       7.176   1.064   2.505  1.00  0.00    -0.122 S 
ATOM     21  C   UNL     1       7.986  -0.244   1.805  1.00  0.00     0.011 A 
ATOM     22  C   UNL     1       8.088  -1.640  -0.285  1.00  0.00     0.038 C 
ATOM     23  C   UNL     1       9.225  -0.831   2.404  1.00  0.00     0.047 C 
ATOM     24  C   UNL     1       9.223  -2.402   0.416  1.00  0.00     0.005 C 
ATOM     25  C   UNL     1      10.074  -1.494   1.313  1.00  0.00     0.006 C 
BRANCH  18  26
ATOM     26  C   UNL     1       5.429  -0.076  -0.894  1.00  0.00     0.341 C 
ATOM     27  O   UNL     1       5.134   0.874  -1.616  1.00  0.00    -0.246 OA
BRANCH  26  28
ATOM     28  O   UNL     1       5.099  -1.374  -1.145  1.00  0.00    -0.462 OA
BRANCH  28  29
ATOM     29  C   UNL     1       4.402  -1.623  -2.373  1.00  0.00     0.230 C 
ATOM     30  C   UNL     1       3.578  -2.888  -2.210  1.00  0.00     0.049 C 
ENDBRANCH  28  29
ENDBRANCH  26  28
ENDBRANCH  18  26
ENDBRANCH  14  17
ENDBRANCH   7  13
ENDBRANCH   3   6
ENDBRANCH   1   2
BRANCH   1  31
ATOM     31  C   UNL     1       3.686   2.110   5.172  1.00  0.00     0.023 C 
BRANCH  31  32
ATOM     32  C   UNL     1       4.237   2.392   6.566  1.00  0.00     0.023 C 
BRANCH  32  33
ATOM     33  C   UNL     1       5.732   2.147   6.719  1.00  0.00     0.116 C 
BRANCH  33  34
ATOM     34  N   UNL     1       6.553   3.181   6.107  1.00  0.00    -0.352 N 
ATOM     35  C   UNL     1       7.691   3.763   6.624  1.00  0.00     0.251 C 
ATOM     36  H   UNL     1       6.262   3.502   5.223  1.00  0.00     0.163 HD
ATOM     37  O   UNL     1       8.267   4.674   6.044  1.00  0.00    -0.269 OA
BRANCH  35  38
ATOM     38  C   UNL     1       8.174   3.292   7.938  1.00  0.00     0.039 A 
ATOM     39  C   UNL     1       8.175   4.183   9.013  1.00  0.00     0.014 A 
ATOM     40  C   UNL     1       8.482   1.942   8.124  1.00  0.00     0.014 A 
ATOM     41  C   UNL     1       8.394   3.698  10.303  1.00  0.00     0.010 A 
ATOM     42  C   UNL     1       8.648   1.453   9.417  1.00  0.00     0.010 A 
ATOM     43  C   UNL     1       8.580   2.322  10.518  1.00  0.00    -0.014 A 
BRANCH  43  44
ATOM     44  C   UNL     1       8.650   1.764  11.892  1.00  0.00     0.031 A 
ATOM     45  C   UNL     1       9.921   1.142  12.390  1.00  0.00     0.074 A 
ATOM     46  C   UNL     1       7.538   1.732  12.652  1.00  0.00     0.049 A 
ATOM     47  N   UNL     1      10.152   0.528  13.522  1.00  0.00    -0.248 NA
ATOM     48  C   UNL     1      11.078   1.188  11.482  1.00  0.00     0.031 C 
ATOM     49  C   UNL     1       6.223   2.237  12.253  1.00  0.00     0.029 A 
ATOM     50  N   UNL     1       7.332   1.234  13.915  1.00  0.00    -0.354 N 
ATOM     51  C   UNL     1      11.465   0.086  13.449  1.00  0.00     0.074 A 
ATOM     52  C   UNL     1      11.975   0.479  12.153  1.00  0.00     0.031 C 
ATOM     53  C   UNL     1       5.350   2.033  13.255  1.00  0.00     0.029 A 
ATOM     54  C   UNL     1       6.038   1.366  14.356  1.00  0.00     0.049 A 
ATOM     55  H   UNL     1       8.044   0.820  14.454  1.00  0.00     0.167 HD
ATOM     56  C   UNL     1      12.184  -0.578  14.385  1.00  0.00     0.037 A 
ATOM     57  C   UNL     1       5.471   0.991  15.518  1.00  0.00     0.037 A 
ATOM     58  C   UNL     1      11.697  -0.917  15.695  1.00  0.00     0.049 A 
ATOM     59  C   UNL     1       6.316   0.325  16.570  1.00  0.00     0.074 A 
ATOM     60  C   UNL     1      12.384  -1.498  16.747  1.00  0.00     0.029 A 
ATOM     61  N   UNL     1      10.401  -0.697  16.134  1.00  0.00    -0.354 N 
ATOM     62  N   UNL     1       7.582  -0.007  16.523  1.00  0.00    -0.248 NA
ATOM     63  C   UNL     1       5.654  -0.010  17.839  1.00  0.00     0.031 C 
ATOM     64  C   UNL     1      11.496  -1.650  17.818  1.00  0.00     0.029 A 
ATOM     65  C   UNL     1      10.264  -1.141  17.439  1.00  0.00     0.049 A 
ATOM     66  H   UNL     1       9.684  -0.287  15.598  1.00  0.00     0.167 HD
ATOM     67  C   UNL     1       7.876  -0.561  17.760  1.00  0.00     0.074 A 
ATOM     68  C   UNL     1       6.658  -0.516  18.542  1.00  0.00     0.031 C 
ATOM     69  C   UNL     1       9.051  -1.065  18.208  1.00  0.00     0.037 A 
BRANCH  56  70
ATOM     70  C   UNL     1      13.583  -0.975  14.029  1.00  0.00     0.064 A 
ATOM     71  C   UNL     1      14.621  -0.034  13.978  1.00  0.00     0.173 A 
ATOM     72  C   UNL     1      13.896  -2.318  13.775  1.00  0.00     0.173 A 
ATOM     73  F   UNL     1      14.366   1.264  14.202  1.00  0.00    -0.203 F 
ATOM     74  C   UNL     1      15.921  -0.421  13.664  1.00  0.00     0.198 A 
ATOM     75  C   UNL     1      15.201  -2.704  13.482  1.00  0.00     0.198 A 
ATOM     76  F   UNL     1      12.937  -3.255  13.815  1.00  0.00    -0.203 F 
ATOM     77  F   UNL     1      16.891   0.500  13.585  1.00  0.00    -0.200 F 
ATOM     78  C   UNL     1      16.210  -1.755  13.422  1.00  0.00     0.200 A 
ATOM     79  F   UNL     1      15.481  -3.995  13.255  1.00  0.00    -0.200 F 
ATOM     80  F   UNL     1      17.463  -2.127  13.125  1.00  0.00    -0.200 F 
ENDBRANCH  56  70
BRANCH  57  81
ATOM     81  C   UNL     1       4.035   1.268  15.772  1.00  0.00     0.064 A 
ATOM     82  C   UNL     1       3.648   2.272  16.670  1.00  0.00     0.173 A 
ATOM     83  C   UNL     1       3.026   0.525  15.145  1.00  0.00     0.173 A 
ATOM     84  F   UNL     1       4.581   2.993  17.309  1.00  0.00    -0.203 F 
ATOM     85  C   UNL     1       2.304   2.507  16.950  1.00  0.00     0.198 A 
ATOM     86  C   UNL     1       1.681   0.775  15.409  1.00  0.00     0.198 A 
ATOM     87  F   UNL     1       3.347  -0.444  14.275  1.00  0.00    -0.203 F 
ATOM     88  F   UNL     1       1.962   3.442  17.846  1.00  0.00    -0.200 F 
ATOM     89  C   UNL     1       1.321   1.760  16.318  1.00  0.00     0.200 A 
ATOM     90  F   UNL     1       0.733   0.057  14.792  1.00  0.00    -0.200 F 
ATOM     91  F   UNL     1       0.029   1.982  16.591  1.00  0.00    -0.200 F 
ENDBRANCH  57  81
BRANCH  69  92
ATOM     92  C   UNL     1       9.088  -1.571  19.617  1.00  0.00     0.064 A 
ATOM     93  C   UNL     1       8.532  -2.810  19.964  1.00  0.00     0.173 A 
ATOM     94  C   UNL     1       9.727  -0.828  20.620  1.00  0.00     0.173 A 
ATOM     95  F   UNL     1       7.896  -3.546  19.040  1.00  0.00    -0.203 F 
ATOM     96  C   UNL     1       8.604  -3.282  21.271  1.00  0.00     0.198 A 
ATOM     97  C   UNL     1       9.814  -1.312  21.921  1.00  0.00     0.198 A 
ATOM     98  F   UNL     1      10.275   0.363  20.334  1.00  0.00    -0.203 F 
ATOM     99  F   UNL     1       8.040  -4.456  21.589  1.00  0.00    -0.200 F 
ATOM    100  C   UNL     1       9.250  -2.537  22.246  1.00  0.00     0.200 A 
ATOM    101  F   UNL     1      10.444  -0.595  22.862  1.00  0.00    -0.200 F 
ATOM    102  F   UNL     1       9.324  -2.997  23.503  1.00  0.00    -0.200 F 
ENDBRANCH  69  92
ENDBRANCH  43  44
ENDBRANCH  35  38
ENDBRANCH  33  34
ENDBRANCH  32  33
ENDBRANCH  31  32
ENDBRANCH   1  31
TORSDOF 16
