REMARK SMILES COc1ccc2c(c1)c(Cc1nc(-c3ccc(C(=O)NCCCCNC(=O)c4ccc(-c5c6nc(c(-c7c(F)c(F)c(F)c(F)c7F)c7ccc([nH]7)c(-c7c(F)c(F)c(F)c(F)c7F)c7nc(c(-c8c(F)c(F)c(F)c(F)c8F)c8ccc5[nH]8)C=C7)C=C6)cc4)cc3)cs1)c(C)n2C(=O)c1ccc(Cl)cc1
REMARK SMILES IDX 21 1 20 2 18 3 19 4 17 6 14 7 15 8 92 9 16 10 91 11 13 12
REMARK SMILES IDX 11 13 12 14 94 15 93 16 10 17 9 18 3 19 4 20 8 21 5 22 7 23
REMARK SMILES IDX 6 24 97 25 95 26 96 27 2 28 1 29 98 30 99 31 100 32 101 33
REMARK SMILES IDX 106 34 102 35 105 36 103 37 104 38 22 39 23 40 24 41 25 42
REMARK SMILES IDX 26 43 27 45 28 46 29 47 90 48 30 49 89 50 31 51 32 52 33 53
REMARK SMILES IDX 83 54 34 55 88 56 82 57 84 58 35 59 87 60 81 61 80 62 36 64
REMARK SMILES IDX 68 65 48 66 67 67 49 68 52 69 66 70 85 71 50 72 51 73 65 75
REMARK SMILES IDX 86 76 53 77 37 78 38 79 46 80 39 81 40 82 44 83 47 84 41 85
REMARK SMILES IDX 42 86 45 87 43 88 69 89 70 90 78 91 71 92 72 93 76 94 79 95
REMARK SMILES IDX 73 96 74 97 77 98 75 99 54 100 55 101 63 102 56 103 57 104
REMARK SMILES IDX 61 105 64 106 58 107 59 108 62 109 60 110
REMARK H PARENT 20 5 25 44 84 63 52 74
REMARK Flexibility Score: inf
ROOT
ATOM      1  C   UNL     1      -4.171  -2.152  -5.841  1.00  0.00     0.116 C 
ENDROOT
BRANCH   1   2
ATOM      2  N   UNL     1      -3.103  -2.164  -6.823  1.00  0.00    -0.352 N 
ATOM      3  C   UNL     1      -2.091  -1.260  -7.065  1.00  0.00     0.251 C 
ATOM      4  O   UNL     1      -1.291  -1.500  -7.958  1.00  0.00    -0.269 OA
ATOM      5  H   UNL     1      -3.101  -2.950  -7.416  1.00  0.00     0.163 HD
BRANCH   3   6
ATOM      6  C   UNL     1      -2.002   0.029  -6.327  1.00  0.00     0.039 A 
ATOM      7  C   UNL     1      -2.083   2.583  -5.146  1.00  0.00     0.001 A 
ATOM      8  C   UNL     1      -1.646   2.428  -6.466  1.00  0.00     0.011 A 
ATOM      9  C   UNL     1      -2.358   1.434  -4.390  1.00  0.00     0.011 A 
ATOM     10  C   UNL     1      -1.611   1.160  -7.055  1.00  0.00     0.014 A 
ATOM     11  C   UNL     1      -2.289   0.163  -4.968  1.00  0.00     0.014 A 
BRANCH   7  12
ATOM     12  C   UNL     1      -2.236   3.896  -4.535  1.00  0.00     0.081 A 
ATOM     13  C   UNL     1      -2.212   5.314  -2.834  1.00  0.00     0.098 A 
ATOM     14  N   UNL     1      -2.183   4.041  -3.165  1.00  0.00    -0.241 NA
ATOM     15  S   UNL     1      -2.517   6.395  -4.134  1.00  0.00    -0.126 S 
ATOM     16  C   UNL     1      -2.481   5.068  -5.223  1.00  0.00     0.095 A 
BRANCH  13  17
ATOM     17  C   UNL     1      -1.966   5.817  -1.442  1.00  0.00     0.105 C 
BRANCH  17  18
ATOM     18  C   UNL     1      -0.504   5.726  -1.077  1.00  0.00    -0.012 A 
ATOM     19  C   UNL     1       0.744   2.145  -0.583  1.00  0.00     0.119 A 
ATOM     20  C   UNL     1       2.023   2.487  -0.183  1.00  0.00     0.048 A 
ATOM     21  C   UNL     1      -0.162   3.155  -0.898  1.00  0.00     0.057 A 
ATOM     22  C   UNL     1       2.414   3.831  -0.102  1.00  0.00     0.031 A 
ATOM     23  C   UNL     1       0.212   4.519  -0.845  1.00  0.00     0.008 A 
ATOM     24  C   UNL     1       1.519   4.855  -0.487  1.00  0.00     0.057 A 
ATOM     25  N   UNL     1       1.656   6.253  -0.601  1.00  0.00    -0.280 N 
ATOM     26  C   UNL     1       0.388   6.778  -0.908  1.00  0.00     0.028 A 
ATOM     27  C   UNL     1       0.051   8.229  -1.067  1.00  0.00     0.065 C 
BRANCH  19  28
ATOM     28  O   UNL     1       0.270   0.871  -0.730  1.00  0.00    -0.497 OA
ATOM     29  C   UNL     1       0.870  -0.109   0.108  1.00  0.00     0.278 C 
ENDBRANCH  19  28
BRANCH  25  30
ATOM     30  C   UNL     1       2.864   6.992  -0.426  1.00  0.00     0.262 C 
ATOM     31  O   UNL     1       2.823   8.221  -0.390  1.00  0.00    -0.268 OA
BRANCH  30  32
ATOM     32  C   UNL     1       4.204   6.408  -0.242  1.00  0.00     0.040 A 
ATOM     33  C   UNL     1       4.813   5.661  -1.256  1.00  0.00     0.015 A 
ATOM     34  C   UNL     1       4.845   6.604   0.988  1.00  0.00     0.015 A 
ATOM     35  C   UNL     1       6.038   5.038  -1.003  1.00  0.00     0.021 A 
ATOM     36  C   UNL     1       6.070   5.984   1.232  1.00  0.00     0.021 A 
ATOM     37  C   UNL     1       6.653   5.191   0.242  1.00  0.00     0.041 A 
ATOM     38  Cl  UNL     1       8.132   4.376   0.570  1.00  0.00    -0.084 Cl
ENDBRANCH  30  32
ENDBRANCH  25  30
ENDBRANCH  17  18
ENDBRANCH  13  17
ENDBRANCH   7  12
ENDBRANCH   3   6
ENDBRANCH   1   2
BRANCH   1  39
ATOM     39  C   UNL     1      -5.524  -2.591  -6.381  1.00  0.00     0.023 C 
BRANCH  39  40
ATOM     40  C   UNL     1      -5.605  -3.982  -7.002  1.00  0.00     0.023 C 
BRANCH  40  41
ATOM     41  C   UNL     1      -5.009  -5.138  -6.193  1.00  0.00     0.116 C 
BRANCH  41  42
ATOM     42  N   UNL     1      -5.383  -5.193  -4.793  1.00  0.00    -0.352 N 
ATOM     43  C   UNL     1      -6.398  -5.773  -4.081  1.00  0.00     0.251 C 
ATOM     44  H   UNL     1      -4.758  -4.695  -4.218  1.00  0.00     0.163 HD
ATOM     45  O   UNL     1      -6.249  -5.809  -2.856  1.00  0.00    -0.269 OA
BRANCH  43  46
ATOM     46  C   UNL     1      -7.671  -6.287  -4.655  1.00  0.00     0.039 A 
ATOM     47  C   UNL     1      -7.993  -6.293  -6.008  1.00  0.00     0.014 A 
ATOM     48  C   UNL     1      -8.649  -6.721  -3.737  1.00  0.00     0.014 A 
ATOM     49  C   UNL     1      -9.286  -6.588  -6.425  1.00  0.00     0.010 A 
ATOM     50  C   UNL     1      -9.936  -7.060  -4.153  1.00  0.00     0.010 A 
ATOM     51  C   UNL     1     -10.272  -6.938  -5.497  1.00  0.00    -0.014 A 
BRANCH  51  52
ATOM     52  C   UNL     1     -11.611  -7.205  -6.024  1.00  0.00     0.031 A 
ATOM     53  C   UNL     1     -11.699  -8.267  -7.068  1.00  0.00     0.074 A 
ATOM     54  C   UNL     1     -12.737  -6.595  -5.607  1.00  0.00     0.049 A 
ATOM     55  N   UNL     1     -12.085  -8.152  -8.300  1.00  0.00    -0.248 NA
ATOM     56  C   UNL     1     -11.239  -9.614  -6.704  1.00  0.00     0.031 C 
ATOM     57  C   UNL     1     -12.929  -5.746  -4.431  1.00  0.00     0.029 A 
ATOM     58  N   UNL     1     -13.993  -6.679  -6.143  1.00  0.00    -0.354 N 
ATOM     59  C   UNL     1     -12.052  -9.438  -8.835  1.00  0.00     0.074 A 
ATOM     60  C   UNL     1     -11.443 -10.283  -7.839  1.00  0.00     0.031 C 
ATOM     61  C   UNL     1     -14.253  -5.560  -4.228  1.00  0.00     0.029 A 
ATOM     62  C   UNL     1     -14.986  -6.147  -5.337  1.00  0.00     0.049 A 
ATOM     63  H   UNL     1     -14.175  -7.082  -7.022  1.00  0.00     0.167 HD
ATOM     64  C   UNL     1     -12.684  -9.757  -9.997  1.00  0.00     0.037 A 
ATOM     65  C   UNL     1     -16.320  -6.226  -5.546  1.00  0.00     0.037 A 
ATOM     66  C   UNL     1     -13.004  -8.595 -10.777  1.00  0.00     0.049 A 
ATOM     67  C   UNL     1     -16.550  -6.473  -6.987  1.00  0.00     0.074 A 
ATOM     68  C   UNL     1     -12.295  -7.656 -11.494  1.00  0.00     0.029 A 
ATOM     69  N   UNL     1     -14.281  -8.117 -10.667  1.00  0.00    -0.354 N 
ATOM     70  N   UNL     1     -16.329  -5.601  -7.930  1.00  0.00    -0.248 NA
ATOM     71  C   UNL     1     -16.808  -7.832  -7.442  1.00  0.00     0.031 C 
ATOM     72  C   UNL     1     -13.090  -6.471 -11.468  1.00  0.00     0.029 A 
ATOM     73  C   UNL     1     -14.242  -6.749 -10.734  1.00  0.00     0.049 A 
ATOM     74  H   UNL     1     -15.092  -8.664 -10.558  1.00  0.00     0.167 HD
ATOM     75  C   UNL     1     -16.015  -6.363  -9.040  1.00  0.00     0.074 A 
ATOM     76  C   UNL     1     -16.500  -7.699  -8.734  1.00  0.00     0.031 C 
ATOM     77  C   UNL     1     -15.131  -5.904  -9.970  1.00  0.00     0.037 A 
BRANCH  64  78
ATOM     78  C   UNL     1     -13.330 -11.092 -10.277  1.00  0.00     0.064 A 
ATOM     79  C   UNL     1     -13.777 -11.394 -11.581  1.00  0.00     0.173 A 
ATOM     80  C   UNL     1     -13.802 -11.946  -9.258  1.00  0.00     0.173 A 
ATOM     81  F   UNL     1     -13.419 -10.626 -12.621  1.00  0.00    -0.203 F 
ATOM     82  C   UNL     1     -14.672 -12.438 -11.832  1.00  0.00     0.198 A 
ATOM     83  C   UNL     1     -14.654 -13.019  -9.520  1.00  0.00     0.198 A 
ATOM     84  F   UNL     1     -13.549 -11.707  -7.965  1.00  0.00    -0.203 F 
ATOM     85  F   UNL     1     -15.159 -12.616 -13.068  1.00  0.00    -0.200 F 
ATOM     86  C   UNL     1     -15.111 -13.249 -10.801  1.00  0.00     0.200 A 
ATOM     87  F   UNL     1     -15.089 -13.778  -8.505  1.00  0.00    -0.200 F 
ATOM     88  F   UNL     1     -16.010 -14.215 -11.030  1.00  0.00    -0.200 F 
ENDBRANCH  64  78
BRANCH  65  89
ATOM     89  C   UNL     1     -17.412  -6.347  -4.553  1.00  0.00     0.064 A 
ATOM     90  C   UNL     1     -18.749  -6.135  -4.928  1.00  0.00     0.173 A 
ATOM     91  C   UNL     1     -17.199  -6.969  -3.308  1.00  0.00     0.173 A 
ATOM     92  F   UNL     1     -19.038  -5.574  -6.112  1.00  0.00    -0.203 F 
ATOM     93  C   UNL     1     -19.811  -6.573  -4.133  1.00  0.00     0.198 A 
ATOM     94  C   UNL     1     -18.261  -7.395  -2.510  1.00  0.00     0.198 A 
ATOM     95  F   UNL     1     -15.962  -7.270  -2.890  1.00  0.00    -0.203 F 
ATOM     96  F   UNL     1     -21.071  -6.430  -4.566  1.00  0.00    -0.200 F 
ATOM     97  C   UNL     1     -19.565  -7.217  -2.933  1.00  0.00     0.200 A 
ATOM     98  F   UNL     1     -18.011  -8.044  -1.364  1.00  0.00    -0.200 F 
ATOM     99  F   UNL     1     -20.580  -7.705  -2.207  1.00  0.00    -0.200 F 
ENDBRANCH  65  89
BRANCH  77 100
ATOM    100  C   UNL     1     -14.886  -4.426 -10.008  1.00  0.00     0.064 A 
ATOM    101  C   UNL     1     -14.276  -3.704  -8.969  1.00  0.00     0.173 A 
ATOM    102  C   UNL     1     -15.203  -3.732 -11.183  1.00  0.00     0.173 A 
ATOM    103  F   UNL     1     -13.859  -4.320  -7.854  1.00  0.00    -0.203 F 
ATOM    104  C   UNL     1     -14.047  -2.335  -9.085  1.00  0.00     0.198 A 
ATOM    105  C   UNL     1     -14.938  -2.373 -11.311  1.00  0.00     0.198 A 
ATOM    106  F   UNL     1     -15.738  -4.386 -12.227  1.00  0.00    -0.203 F 
ATOM    107  F   UNL     1     -13.485  -1.659  -8.072  1.00  0.00    -0.200 F 
ATOM    108  C   UNL     1     -14.373  -1.672 -10.258  1.00  0.00     0.200 A 
ATOM    109  F   UNL     1     -15.210  -1.746 -12.464  1.00  0.00    -0.200 F 
ATOM    110  F   UNL     1     -14.119  -0.362 -10.383  1.00  0.00    -0.200 F 
ENDBRANCH  77 100
ENDBRANCH  51  52
ENDBRANCH  43  46
ENDBRANCH  41  42
ENDBRANCH  40  41
ENDBRANCH  39  40
ENDBRANCH   1  39
TORSDOF 17
