REMARK SMILES CC(C)CCc1cc2c(cc1Cl)C=C(C(=O)NCCCCNC(=O)c1ccc(-c3c4nc(c(-c5c(F)c(F)c(F)c(F)c5F)c5ccc([nH]5)c(-c5c(F)c(F)c(F)c(F)c5F)c5nc(c(-c6c(F)c(F)c(F)c(F)c6F)c6ccc3[nH]6)C=C5)C=C4)cc1)[C@H](C(F)(F)F)O2
REMARK SMILES IDX 19 1 18 2 17 3 15 4 16 5 14 7 6 8 7 9 11 10 8 11 10 12 12 13
REMARK SMILES IDX 9 14 93 15 13 16 88 17 5 18 4 19 2 20 1 21 3 22 89 23 90 24
REMARK SMILES IDX 91 25 92 26 20 27 21 28 22 29 23 30 24 32 25 33 26 34 87 35
REMARK SMILES IDX 27 36 86 37 28 38 29 39 30 40 80 41 31 42 85 43 79 44 81 45
REMARK SMILES IDX 32 46 84 47 78 48 77 49 33 51 65 52 45 53 64 54 46 55 49 56
REMARK SMILES IDX 63 57 82 58 47 59 48 60 62 62 83 63 50 64 34 65 35 66 43 67
REMARK SMILES IDX 36 68 37 69 41 70 44 71 38 72 39 73 42 74 40 75 66 76 67 77
REMARK SMILES IDX 75 78 68 79 69 80 73 81 76 82 70 83 71 84 74 85 72 86 51 87
REMARK SMILES IDX 52 88 60 89 53 90 54 91 58 92 61 93 55 94 56 95 59 96 57 97
REMARK H PARENT 17 6 22 31 81 50 49 61
REMARK Flexibility Score: inf
ROOT
ATOM      1  C   UNL     1      -3.123  10.640   1.342  1.00  0.00     0.023 C 
ENDROOT
BRANCH   1   2
ATOM      2  C   UNL     1      -1.679  10.386   0.911  1.00  0.00     0.116 C 
BRANCH   2   3
ATOM      3  N   UNL     1      -0.856   9.931   2.016  1.00  0.00    -0.352 N 
ATOM      4  C   UNL     1      -0.411   8.742   2.488  1.00  0.00     0.251 C 
ATOM      5  O   UNL     1       0.371   8.825   3.441  1.00  0.00    -0.270 OA
ATOM      6  H   UNL     1      -0.537  10.682   2.566  1.00  0.00     0.163 HD
BRANCH   4   7
ATOM      7  C   UNL     1      -0.790   7.397   1.963  1.00  0.00     0.067 C 
ATOM      8  C   UNL     1      -1.101   2.412   1.181  1.00  0.00    -0.026 A 
ATOM      9  C   UNL     1      -1.615   3.549   0.533  1.00  0.00     0.052 A 
ATOM     10  C   UNL     1      -0.258   2.605   2.289  1.00  0.00     0.045 A 
ATOM     11  C   UNL     1      -1.288   4.829   0.973  1.00  0.00     0.128 A 
ATOM     12  C   UNL     1       0.086   3.897   2.711  1.00  0.00     0.032 A 
ATOM     13  Cl  UNL     1       0.401   1.289   3.193  1.00  0.00    -0.084 Cl
ATOM     14  C   UNL     1      -0.425   5.013   2.049  1.00  0.00     0.019 A 
ATOM     15  O   UNL     1      -1.823   5.880   0.282  1.00  0.00    -0.475 OA
ATOM     16  C   UNL     1      -0.064   6.369   2.444  1.00  0.00     0.025 C 
ATOM     17  C   UNL     1      -1.954   7.113   1.049  1.00  0.00     0.314 C 
BRANCH   8  18
ATOM     18  C   UNL     1      -1.482   1.049   0.641  1.00  0.00     0.037 C 
BRANCH  18  19
ATOM     19  C   UNL     1      -0.994   0.797  -0.796  1.00  0.00     0.008 C 
BRANCH  19  20
ATOM     20  C   UNL     1       0.537   0.808  -0.974  1.00  0.00    -0.017 C 
ATOM     21  C   UNL     1       1.199  -0.397  -0.305  1.00  0.00     0.007 C 
ATOM     22  C   UNL     1       0.888   0.824  -2.464  1.00  0.00     0.007 C 
ENDBRANCH  19  20
ENDBRANCH  18  19
ENDBRANCH   8  18
BRANCH  17  23
ATOM     23  C   UNL     1      -3.320   7.154   1.757  1.00  0.00     0.429 C 
ATOM     24  F   UNL     1      -3.802   5.927   2.053  1.00  0.00    -0.167 F 
ATOM     25  F   UNL     1      -3.284   7.849   2.917  1.00  0.00    -0.167 F 
ATOM     26  F   UNL     1      -4.238   7.762   0.962  1.00  0.00    -0.167 F 
ENDBRANCH  17  23
ENDBRANCH   4   7
ENDBRANCH   2   3
ENDBRANCH   1   2
BRANCH   1  27
ATOM     27  C   UNL     1      -3.384  12.019   1.953  1.00  0.00     0.023 C 
BRANCH  27  28
ATOM     28  C   UNL     1      -3.130  13.197   1.020  1.00  0.00     0.116 C 
BRANCH  28  29
ATOM     29  N   UNL     1      -3.877  13.147  -0.229  1.00  0.00    -0.352 N 
ATOM     30  C   UNL     1      -4.168  14.195  -1.076  1.00  0.00     0.251 C 
ATOM     31  H   UNL     1      -4.214  12.262  -0.500  1.00  0.00     0.163 HD
ATOM     32  O   UNL     1      -4.871  14.032  -2.067  1.00  0.00    -0.269 OA
BRANCH  30  33
ATOM     33  C   UNL     1      -3.675  15.540  -0.721  1.00  0.00     0.039 A 
ATOM     34  C   UNL     1      -2.330  15.729  -0.403  1.00  0.00     0.014 A 
ATOM     35  C   UNL     1      -4.594  16.582  -0.574  1.00  0.00     0.014 A 
ATOM     36  C   UNL     1      -1.947  16.887   0.260  1.00  0.00     0.010 A 
ATOM     37  C   UNL     1      -4.185  17.782   0.014  1.00  0.00     0.010 A 
ATOM     38  C   UNL     1      -2.877  17.912   0.506  1.00  0.00    -0.014 A 
BRANCH  38  39
ATOM     39  C   UNL     1      -2.465  19.065   1.346  1.00  0.00     0.031 A 
ATOM     40  C   UNL     1      -3.064  19.267   2.714  1.00  0.00     0.074 A 
ATOM     41  C   UNL     1      -1.464  19.861   0.925  1.00  0.00     0.049 A 
ATOM     42  N   UNL     1      -2.760  20.159   3.624  1.00  0.00    -0.248 NA
ATOM     43  C   UNL     1      -4.145  18.352   3.117  1.00  0.00     0.031 C 
ATOM     44  C   UNL     1      -0.792  19.749  -0.370  1.00  0.00     0.029 A 
ATOM     45  N   UNL     1      -0.804  20.883   1.558  1.00  0.00    -0.354 N 
ATOM     46  C   UNL     1      -3.622  19.929   4.688  1.00  0.00     0.074 A 
ATOM     47  C   UNL     1      -4.478  18.827   4.310  1.00  0.00     0.031 C 
ATOM     48  C   UNL     1       0.238  20.608  -0.403  1.00  0.00     0.029 A 
ATOM     49  C   UNL     1       0.263  21.369   0.843  1.00  0.00     0.049 A 
ATOM     50  H   UNL     1      -1.070  21.234   2.439  1.00  0.00     0.167 HD
ATOM     51  C   UNL     1      -3.682  20.568   5.880  1.00  0.00     0.037 A 
ATOM     52  C   UNL     1       1.165  22.316   1.159  1.00  0.00     0.037 A 
ATOM     53  C   UNL     1      -2.798  21.628   6.281  1.00  0.00     0.049 A 
ATOM     54  C   UNL     1       1.054  23.029   2.474  1.00  0.00     0.074 A 
ATOM     55  C   UNL     1      -2.752  22.303   7.489  1.00  0.00     0.029 A 
ATOM     56  N   UNL     1      -1.797  22.162   5.485  1.00  0.00    -0.354 N 
ATOM     57  N   UNL     1       0.230  22.804   3.467  1.00  0.00    -0.248 NA
ATOM     58  C   UNL     1       1.981  24.147   2.701  1.00  0.00     0.031 C 
ATOM     59  C   UNL     1      -1.742  23.267   7.413  1.00  0.00     0.029 A 
ATOM     60  C   UNL     1      -1.144  23.175   6.167  1.00  0.00     0.049 A 
ATOM     61  H   UNL     1      -1.583  21.866   4.571  1.00  0.00     0.167 HD
ATOM     62  C   UNL     1       0.529  23.754   4.432  1.00  0.00     0.074 A 
ATOM     63  C   UNL     1       1.631  24.542   3.918  1.00  0.00     0.031 C 
ATOM     64  C   UNL     1      -0.065  23.961   5.631  1.00  0.00     0.037 A 
BRANCH  51  65
ATOM     65  C   UNL     1      -4.742  20.142   6.850  1.00  0.00     0.064 A 
ATOM     66  C   UNL     1      -4.615  18.968   7.606  1.00  0.00     0.173 A 
ATOM     67  C   UNL     1      -5.863  20.955   7.077  1.00  0.00     0.173 A 
ATOM     68  F   UNL     1      -3.567  18.153   7.415  1.00  0.00    -0.203 F 
ATOM     69  C   UNL     1      -5.577  18.619   8.550  1.00  0.00     0.198 A 
ATOM     70  C   UNL     1      -6.813  20.612   8.035  1.00  0.00     0.198 A 
ATOM     71  F   UNL     1      -6.026  22.090   6.381  1.00  0.00    -0.203 F 
ATOM     72  F   UNL     1      -5.448  17.482   9.247  1.00  0.00    -0.200 F 
ATOM     73  C   UNL     1      -6.671  19.445   8.769  1.00  0.00     0.200 A 
ATOM     74  F   UNL     1      -7.865  21.414   8.251  1.00  0.00    -0.200 F 
ATOM     75  F   UNL     1      -7.589  19.113   9.687  1.00  0.00    -0.200 F 
ENDBRANCH  51  65
BRANCH  52  76
ATOM     76  C   UNL     1       2.257  22.632   0.206  1.00  0.00     0.064 A 
ATOM     77  C   UNL     1       3.575  22.240   0.475  1.00  0.00     0.173 A 
ATOM     78  C   UNL     1       2.001  23.294  -1.003  1.00  0.00     0.173 A 
ATOM     79  F   UNL     1       3.867  21.620   1.627  1.00  0.00    -0.203 F 
ATOM     80  C   UNL     1       4.598  22.498  -0.434  1.00  0.00     0.198 A 
ATOM     81  C   UNL     1       3.021  23.532  -1.920  1.00  0.00     0.198 A 
ATOM     82  F   UNL     1       0.754  23.686  -1.302  1.00  0.00    -0.203 F 
ATOM     83  F   UNL     1       5.854  22.130  -0.148  1.00  0.00    -0.200 F 
ATOM     84  C   UNL     1       4.319  23.136  -1.634  1.00  0.00     0.200 A 
ATOM     85  F   UNL     1       2.745  24.137  -3.083  1.00  0.00    -0.200 F 
ATOM     86  F   UNL     1       5.302  23.371  -2.514  1.00  0.00    -0.200 F 
ENDBRANCH  52  76
BRANCH  64  87
ATOM     87  C   UNL     1       0.439  25.100   6.460  1.00  0.00     0.064 A 
ATOM     88  C   UNL     1       0.062  26.419   6.172  1.00  0.00     0.173 A 
ATOM     89  C   UNL     1       1.240  24.870   7.588  1.00  0.00     0.173 A 
ATOM     90  F   UNL     1      -0.692  26.685   5.095  1.00  0.00    -0.203 F 
ATOM     91  C   UNL     1       0.474  27.471   6.984  1.00  0.00     0.198 A 
ATOM     92  C   UNL     1       1.635  25.923   8.407  1.00  0.00     0.198 A 
ATOM     93  F   UNL     1       1.620  23.623   7.903  1.00  0.00    -0.203 F 
ATOM     94  F   UNL     1       0.119  28.728   6.681  1.00  0.00    -0.200 F 
ATOM     95  C   UNL     1       1.253  27.222   8.104  1.00  0.00     0.200 A 
ATOM     96  F   UNL     1       2.381  25.681   9.494  1.00  0.00    -0.200 F 
ATOM     97  F   UNL     1       1.638  28.235   8.892  1.00  0.00    -0.200 F 
ENDBRANCH  64  87
ENDBRANCH  38  39
ENDBRANCH  30  33
ENDBRANCH  28  29
ENDBRANCH  27  28
ENDBRANCH   1  27
TORSDOF 15
