REMARK SMILES CCCN1C(=O)c2ccc(C(=O)Nc3ccc(OCC(=O)NCCCCNC(=O)c4ccc(-c5c6nc(c(-c7c(F)c(F)c(F)c(F)c7F)c7ccc([nH]7)c(-c7c(F)c(F)c(F)c(F)c7F)c7nc(c(-c8c(F)c(F)c(F)c(F)c8F)c8ccc5[nH]8)C=C7)C=C6)cc4)cc3C)cc2C1=O
REMARK SMILES IDX 20 1 21 2 22 3 19 5 18 6 17 7 14 8 15 9 94 10 16 11 93 12
REMARK SMILES IDX 95 13 13 14 11 15 12 16 10 18 4 19 5 20 98 21 6 22 7 23
REMARK SMILES IDX 97 24 99 25 8 26 96 27 9 28 3 29 2 30 1 31 23 32 24 33 25 34
REMARK SMILES IDX 26 35 27 36 28 37 29 39 30 40 31 41 92 42 32 43 91 44 33 45
REMARK SMILES IDX 34 46 35 47 85 48 36 49 90 50 84 51 86 52 37 53 89 54 83 55
REMARK SMILES IDX 82 56 38 58 70 59 50 60 69 61 51 62 54 63 68 64 87 65 52 66
REMARK SMILES IDX 53 67 67 69 88 70 55 71 39 72 40 73 48 74 41 75 42 76 46 77
REMARK SMILES IDX 49 78 43 79 44 80 47 81 45 82 71 83 72 84 80 85 73 86 74 87
REMARK SMILES IDX 78 88 81 89 75 90 76 91 79 92 77 93 56 94 57 95 65 96 58 97
REMARK SMILES IDX 59 98 63 99 66 100 60 101 61 102 64 103 62 104
REMARK H PARENT 22 4 13 17 27 38 86 57 54 68
REMARK Flexibility Score: inf
ROOT
ATOM      1  C   UNL     1      -0.663   1.968  -9.985  1.00  0.00     0.257 C 
ATOM      2  O   UNL     1       0.247   2.293  -9.221  1.00  0.00    -0.271 OA
ATOM      3  N   UNL     1      -1.937   2.369  -9.693  1.00  0.00    -0.353 N 
ATOM      4  H   UNL     1      -2.040   2.898  -8.870  1.00  0.00     0.163 HD
ENDROOT
BRANCH   1   5
ATOM      5  C   UNL     1      -0.390   1.165 -11.264  1.00  0.00     0.329 C 
BRANCH   5   6
ATOM      6  O   UNL     1      -1.061  -0.081 -11.381  1.00  0.00    -0.484 OA
BRANCH   6   7
ATOM      7  C   UNL     1      -0.739  -1.058 -10.481  1.00  0.00     0.120 A 
ATOM      8  C   UNL     1      -0.429  -3.081  -8.567  1.00  0.00     0.044 A 
ATOM      9  C   UNL     1      -1.453  -3.157  -9.517  1.00  0.00     0.030 A 
ATOM     10  C   UNL     1       0.545  -2.072  -8.668  1.00  0.00    -0.024 A 
ATOM     11  C   UNL     1      -1.613  -2.142 -10.459  1.00  0.00     0.048 A 
ATOM     12  C   UNL     1       0.360  -1.054  -9.622  1.00  0.00     0.052 A 
ATOM     13  C   UNL     1       1.836  -2.083  -7.892  1.00  0.00     0.047 C 
BRANCH   8  14
ATOM     14  N   UNL     1      -0.496  -4.021  -7.529  1.00  0.00    -0.322 N 
ATOM     15  C   UNL     1      -0.428  -3.836  -6.164  1.00  0.00     0.255 C 
ATOM     16  O   UNL     1      -0.404  -4.817  -5.422  1.00  0.00    -0.269 OA
ATOM     17  H   UNL     1      -0.610  -4.955  -7.818  1.00  0.00     0.170 HD
BRANCH  15  18
ATOM     18  C   UNL     1      -0.470  -2.482  -5.543  1.00  0.00     0.041 A 
ATOM     19  N   UNL     1       0.683   0.798  -2.544  1.00  0.00    -0.274 N 
ATOM     20  C   UNL     1      -0.124   1.208  -3.569  1.00  0.00     0.261 C 
ATOM     21  C   UNL     1       1.041  -0.517  -2.682  1.00  0.00     0.261 C 
ATOM     22  O   UNL     1      -0.569   2.317  -3.815  1.00  0.00    -0.269 OA
ATOM     23  C   UNL     1      -0.381   0.031  -4.394  1.00  0.00     0.053 A 
ATOM     24  C   UNL     1       0.313  -1.026  -3.837  1.00  0.00     0.054 A 
ATOM     25  O   UNL     1       1.825  -1.182  -2.036  1.00  0.00    -0.269 OA
ATOM     26  C   UNL     1      -1.156  -0.124  -5.525  1.00  0.00     0.015 A 
ATOM     27  C   UNL     1       0.282  -2.297  -4.373  1.00  0.00     0.028 A 
ATOM     28  C   UNL     1      -1.220  -1.407  -6.083  1.00  0.00     0.015 A 
BRANCH  19  29
ATOM     29  C   UNL     1       1.178   1.669  -1.494  1.00  0.00     0.129 C 
BRANCH  29  30
ATOM     30  C   UNL     1       0.478   1.457  -0.147  1.00  0.00     0.019 C 
ATOM     31  C   UNL     1       0.838   0.146   0.538  1.00  0.00     0.006 C 
ENDBRANCH  29  30
ENDBRANCH  19  29
ENDBRANCH  15  18
ENDBRANCH   8  14
ENDBRANCH   6   7
ENDBRANCH   5   6
ENDBRANCH   1   5
BRANCH   3  32
ATOM     32  C   UNL     1      -3.157   2.117 -10.438  1.00  0.00     0.116 C 
BRANCH  32  33
ATOM     33  C   UNL     1      -4.031   1.030  -9.806  1.00  0.00     0.023 C 
BRANCH  33  34
ATOM     34  C   UNL     1      -4.440   1.272  -8.355  1.00  0.00     0.023 C 
BRANCH  34  35
ATOM     35  C   UNL     1      -5.285   2.513  -8.119  1.00  0.00     0.116 C 
BRANCH  35  36
ATOM     36  N   UNL     1      -6.707   2.343  -8.385  1.00  0.00    -0.352 N 
ATOM     37  C   UNL     1      -7.770   3.191  -8.114  1.00  0.00     0.251 C 
ATOM     38  H   UNL     1      -6.950   1.497  -8.824  1.00  0.00     0.163 HD
ATOM     39  O   UNL     1      -8.920   2.785  -8.253  1.00  0.00    -0.269 OA
BRANCH  37  40
ATOM     40  C   UNL     1      -7.529   4.635  -7.860  1.00  0.00     0.039 A 
ATOM     41  C   UNL     1      -8.353   5.539  -8.550  1.00  0.00     0.014 A 
ATOM     42  C   UNL     1      -6.333   5.067  -7.310  1.00  0.00     0.014 A 
ATOM     43  C   UNL     1      -7.821   6.747  -8.979  1.00  0.00     0.010 A 
ATOM     44  C   UNL     1      -5.741   6.167  -7.867  1.00  0.00     0.010 A 
ATOM     45  C   UNL     1      -6.470   6.962  -8.754  1.00  0.00    -0.014 A 
BRANCH  45  46
ATOM     46  C   UNL     1      -5.684   7.993  -9.389  1.00  0.00     0.031 A 
ATOM     47  C   UNL     1      -5.401   9.204  -8.611  1.00  0.00     0.074 A 
ATOM     48  C   UNL     1      -5.069   7.687 -10.552  1.00  0.00     0.049 A 
ATOM     49  N   UNL     1      -5.049  10.324  -9.126  1.00  0.00    -0.248 NA
ATOM     50  C   UNL     1      -5.530   9.256  -7.157  1.00  0.00     0.031 C 
ATOM     51  C   UNL     1      -3.960   8.376 -11.200  1.00  0.00     0.029 A 
ATOM     52  N   UNL     1      -5.459   6.714 -11.488  1.00  0.00    -0.354 N 
ATOM     53  C   UNL     1      -4.586  11.117  -8.098  1.00  0.00     0.074 A 
ATOM     54  C   UNL     1      -5.013  10.459  -6.890  1.00  0.00     0.031 C 
ATOM     55  C   UNL     1      -3.947   8.049 -12.505  1.00  0.00     0.029 A 
ATOM     56  C   UNL     1      -5.141   7.258 -12.754  1.00  0.00     0.049 A 
ATOM     57  H   UNL     1      -5.868   5.838 -11.301  1.00  0.00     0.167 HD
ATOM     58  C   UNL     1      -3.743  12.140  -8.415  1.00  0.00     0.037 A 
ATOM     59  C   UNL     1      -6.138   7.600 -13.625  1.00  0.00     0.037 A 
ATOM     60  C   UNL     1      -3.574  12.204  -9.866  1.00  0.00     0.049 A 
ATOM     61  C   UNL     1      -6.168   9.084 -13.908  1.00  0.00     0.074 A 
ATOM     62  C   UNL     1      -2.596  11.698 -10.707  1.00  0.00     0.029 A 
ATOM     63  N   UNL     1      -4.673  12.494 -10.666  1.00  0.00    -0.354 N 
ATOM     64  N   UNL     1      -5.715   9.989 -13.084  1.00  0.00    -0.248 NA
ATOM     65  C   UNL     1      -6.680   9.660 -15.147  1.00  0.00     0.031 C 
ATOM     66  C   UNL     1      -3.131  11.650 -12.018  1.00  0.00     0.029 A 
ATOM     67  C   UNL     1      -4.426  12.138 -11.976  1.00  0.00     0.049 A 
ATOM     68  H   UNL     1      -5.511  12.896 -10.342  1.00  0.00     0.167 HD
ATOM     69  C   UNL     1      -5.841  11.232 -13.653  1.00  0.00     0.074 A 
ATOM     70  C   UNL     1      -6.450  10.969 -14.943  1.00  0.00     0.031 C 
ATOM     71  C   UNL     1      -5.420  12.367 -13.015  1.00  0.00     0.037 A 
BRANCH  58  72
ATOM     72  C   UNL     1      -2.838  12.868  -7.445  1.00  0.00     0.064 A 
ATOM     73  C   UNL     1      -1.647  13.475  -7.906  1.00  0.00     0.173 A 
ATOM     74  C   UNL     1      -3.050  12.981  -6.059  1.00  0.00     0.173 A 
ATOM     75  F   UNL     1      -1.344  13.528  -9.210  1.00  0.00    -0.203 F 
ATOM     76  C   UNL     1      -0.712  14.057  -7.048  1.00  0.00     0.198 A 
ATOM     77  C   UNL     1      -2.097  13.532  -5.193  1.00  0.00     0.198 A 
ATOM     78  F   UNL     1      -4.206  12.619  -5.493  1.00  0.00    -0.203 F 
ATOM     79  F   UNL     1       0.402  14.604  -7.554  1.00  0.00    -0.200 F 
ATOM     80  C   UNL     1      -0.925  14.064  -5.687  1.00  0.00     0.200 A 
ATOM     81  F   UNL     1      -2.332  13.550  -3.873  1.00  0.00    -0.200 F 
ATOM     82  F   UNL     1      -0.019  14.603  -4.860  1.00  0.00    -0.200 F 
ENDBRANCH  58  72
BRANCH  59  83
ATOM     83  C   UNL     1      -7.329   6.710 -13.482  1.00  0.00     0.064 A 
ATOM     84  C   UNL     1      -7.133   5.329 -13.701  1.00  0.00     0.173 A 
ATOM     85  C   UNL     1      -8.441   7.089 -12.720  1.00  0.00     0.173 A 
ATOM     86  F   UNL     1      -6.089   4.910 -14.436  1.00  0.00    -0.203 F 
ATOM     87  C   UNL     1      -7.898   4.373 -13.037  1.00  0.00     0.198 A 
ATOM     88  C   UNL     1      -9.230   6.124 -12.086  1.00  0.00     0.198 A 
ATOM     89  F   UNL     1      -8.691   8.383 -12.479  1.00  0.00    -0.203 F 
ATOM     90  F   UNL     1      -7.573   3.075 -13.130  1.00  0.00    -0.200 F 
ATOM     91  C   UNL     1      -8.926   4.774 -12.203  1.00  0.00     0.200 A 
ATOM     92  F   UNL     1     -10.222   6.508 -11.269  1.00  0.00    -0.200 F 
ATOM     93  F   UNL     1      -9.592   3.866 -11.476  1.00  0.00    -0.200 F 
ENDBRANCH  59  83
BRANCH  71  94
ATOM     94  C   UNL     1      -5.789  13.798 -13.355  1.00  0.00     0.064 A 
ATOM     95  C   UNL     1      -6.887  14.164 -14.150  1.00  0.00     0.173 A 
ATOM     96  C   UNL     1      -5.107  14.886 -12.746  1.00  0.00     0.173 A 
ATOM     97  F   UNL     1      -7.711  13.250 -14.675  1.00  0.00    -0.203 F 
ATOM     98  C   UNL     1      -7.222  15.501 -14.386  1.00  0.00     0.198 A 
ATOM     99  C   UNL     1      -5.495  16.214 -12.918  1.00  0.00     0.198 A 
ATOM    100  F   UNL     1      -4.056  14.705 -11.934  1.00  0.00    -0.203 F 
ATOM    101  F   UNL     1      -8.242  15.790 -15.206  1.00  0.00    -0.200 F 
ATOM    102  C   UNL     1      -6.537  16.524 -13.760  1.00  0.00     0.200 A 
ATOM    103  F   UNL     1      -4.861  17.183 -12.242  1.00  0.00    -0.200 F 
ATOM    104  F   UNL     1      -6.895  17.800 -13.950  1.00  0.00    -0.200 F 
ENDBRANCH  71  94
ENDBRANCH  45  46
ENDBRANCH  37  40
ENDBRANCH  35  36
ENDBRANCH  34  35
ENDBRANCH  33  34
ENDBRANCH  32  33
ENDBRANCH   3  32
TORSDOF 17
