REMARK SMILES CN(Cc1ccc(C(=O)NCCCNC(=O)c2ccc(-c3c4nc(c(-c5c(F)c(F)c(F)c(F)c5F)c5ccc([nH]5)c(-c5c(F)c(F)c(F)c(F)c5F)c5nc(c(-c6c(F)c(F)c(F)c(F)c6F)c6ccc3[nH]6)C=C5)C=C4)cc2)cc1)c1ccccc1N
REMARK SMILES IDX 11 1 10 2 8 3 9 4 7 6 4 7 5 8 81 9 6 10 80 11 3 12 2 13 1 14
REMARK SMILES IDX 82 15 83 16 87 17 84 18 86 19 85 20 88 21 12 24 13 25 14 26
REMARK SMILES IDX 15 27 16 29 17 30 18 31 79 32 19 33 78 34 20 35 21 36 22 37
REMARK SMILES IDX 72 38 23 39 77 40 71 41 73 42 24 43 76 44 70 45 69 46 25 48
REMARK SMILES IDX 57 49 37 50 56 51 38 52 41 53 55 54 74 55 39 56 40 57 54 59
REMARK SMILES IDX 75 60 42 61 26 62 27 63 35 64 28 65 29 66 33 67 36 68 30 69
REMARK SMILES IDX 31 70 34 71 32 72 58 73 59 74 67 75 60 76 61 77 65 78 68 79
REMARK SMILES IDX 62 80 63 81 66 82 64 83 43 84 44 85 52 86 45 87 46 88 50 89
REMARK SMILES IDX 53 90 47 91 48 92 51 93 49 94
REMARK H PARENT 10 5 88 22 88 23 14 28 73 47 41 58
REMARK Flexibility Score: inf
ROOT
ATOM      1  C   UNL     1      -6.597   1.400   0.992  1.00  0.00     0.118 C 
ENDROOT
BRANCH   1   2
ATOM      2  N   UNL     1      -6.334   2.778   1.359  1.00  0.00    -0.352 N 
ATOM      3  C   UNL     1      -5.267   3.597   1.093  1.00  0.00     0.251 C 
ATOM      4  O   UNL     1      -5.351   4.779   1.424  1.00  0.00    -0.269 OA
ATOM      5  H   UNL     1      -7.045   3.199   1.894  1.00  0.00     0.163 HD
BRANCH   3   6
ATOM      6  C   UNL     1      -4.032   3.119   0.415  1.00  0.00     0.039 A 
ATOM      7  C   UNL     1      -1.525   2.427  -0.677  1.00  0.00    -0.029 A 
ATOM      8  C   UNL     1      -2.064   3.704  -0.890  1.00  0.00     0.006 A 
ATOM      9  C   UNL     1      -2.290   1.481   0.016  1.00  0.00     0.006 A 
ATOM     10  C   UNL     1      -3.305   4.047  -0.342  1.00  0.00     0.014 A 
ATOM     11  C   UNL     1      -3.508   1.837   0.592  1.00  0.00     0.014 A 
BRANCH   7  12
ATOM     12  C   UNL     1      -0.087   2.126  -1.056  1.00  0.00     0.151 C 
BRANCH  12  13
ATOM     13  N   UNL     1       0.677   1.547   0.062  1.00  0.00    -0.369 N 
ATOM     14  C   UNL     1       0.981   0.127   0.015  1.00  0.00     0.144 C 
BRANCH  13  15
ATOM     15  C   UNL     1       1.194   2.377   1.062  1.00  0.00     0.060 A 
ATOM     16  C   UNL     1       0.337   3.287   1.721  1.00  0.00     0.028 A 
ATOM     17  C   UNL     1       2.547   2.371   1.485  1.00  0.00     0.055 A 
ATOM     18  C   UNL     1       0.776   4.188   2.693  1.00  0.00     0.002 A 
ATOM     19  C   UNL     1       2.983   3.296   2.458  1.00  0.00     0.027 A 
ATOM     20  C   UNL     1       2.109   4.201   3.055  1.00  0.00     0.002 A 
BRANCH  17  21
ATOM     21  N   UNL     1       3.531   1.590   0.881  1.00  0.00    -0.397 N 
ATOM     22  H   UNL     1       3.282   0.928   0.195  1.00  0.00     0.156 HD
ATOM     23  H   UNL     1       4.475   1.700   1.139  1.00  0.00     0.156 HD
ENDBRANCH  17  21
ENDBRANCH  13  15
ENDBRANCH  12  13
ENDBRANCH   7  12
ENDBRANCH   3   6
ENDBRANCH   1   2
BRANCH   1  24
ATOM     24  C   UNL     1      -6.431   0.460   2.186  1.00  0.00     0.042 C 
BRANCH  24  25
ATOM     25  C   UNL     1      -7.588   0.527   3.177  1.00  0.00     0.118 C 
BRANCH  25  26
ATOM     26  N   UNL     1      -8.816  -0.009   2.610  1.00  0.00    -0.352 N 
ATOM     27  C   UNL     1      -9.657  -0.983   3.079  1.00  0.00     0.251 C 
ATOM     28  H   UNL     1      -9.085   0.392   1.752  1.00  0.00     0.163 HD
ATOM     29  O   UNL     1     -10.518  -1.443   2.336  1.00  0.00    -0.269 OA
BRANCH  27  30
ATOM     30  C   UNL     1      -9.541  -1.489   4.465  1.00  0.00     0.039 A 
ATOM     31  C   UNL     1      -9.775  -2.848   4.697  1.00  0.00     0.014 A 
ATOM     32  C   UNL     1      -9.285  -0.632   5.539  1.00  0.00     0.014 A 
ATOM     33  C   UNL     1      -9.724  -3.353   5.998  1.00  0.00     0.010 A 
ATOM     34  C   UNL     1      -9.169  -1.147   6.829  1.00  0.00     0.010 A 
ATOM     35  C   UNL     1      -9.405  -2.509   7.072  1.00  0.00    -0.014 A 
BRANCH  35  36
ATOM     36  C   UNL     1      -9.341  -3.032   8.459  1.00  0.00     0.031 A 
ATOM     37  C   UNL     1     -10.343  -2.578   9.484  1.00  0.00     0.074 A 
ATOM     38  C   UNL     1      -8.354  -3.880   8.804  1.00  0.00     0.049 A 
ATOM     39  N   UNL     1     -10.422  -2.880  10.756  1.00  0.00    -0.248 NA
ATOM     40  C   UNL     1     -11.380  -1.641   9.024  1.00  0.00     0.031 C 
ATOM     41  C   UNL     1      -7.303  -4.360   7.908  1.00  0.00     0.029 A 
ATOM     42  N   UNL     1      -8.071  -4.482  10.004  1.00  0.00    -0.354 N 
ATOM     43  C   UNL     1     -11.502  -2.159  11.248  1.00  0.00     0.074 A 
ATOM     44  C   UNL     1     -12.020  -1.369  10.152  1.00  0.00     0.031 C 
ATOM     45  C   UNL     1      -6.500  -5.199   8.582  1.00  0.00     0.029 A 
ATOM     46  C   UNL     1      -6.962  -5.290   9.964  1.00  0.00     0.049 A 
ATOM     47  H   UNL     1      -8.611  -4.347  10.816  1.00  0.00     0.167 HD
ATOM     48  C   UNL     1     -12.028  -2.173  12.496  1.00  0.00     0.037 A 
ATOM     49  C   UNL     1      -6.381  -6.019  10.936  1.00  0.00     0.037 A 
ATOM     50  C   UNL     1     -11.527  -2.983  13.576  1.00  0.00     0.049 A 
ATOM     51  C   UNL     1      -6.988  -6.021  12.313  1.00  0.00     0.074 A 
ATOM     52  C   UNL     1     -12.022  -3.111  14.862  1.00  0.00     0.029 A 
ATOM     53  N   UNL     1     -10.413  -3.805  13.492  1.00  0.00    -0.354 N 
ATOM     54  N   UNL     1      -8.046  -5.383  12.751  1.00  0.00    -0.248 NA
ATOM     55  C   UNL     1      -6.324  -6.850  13.327  1.00  0.00     0.031 C 
ATOM     56  C   UNL     1     -11.185  -3.982  15.568  1.00  0.00     0.029 A 
ATOM     57  C   UNL     1     -10.195  -4.431  14.709  1.00  0.00     0.049 A 
ATOM     58  H   UNL     1      -9.859  -3.926  12.687  1.00  0.00     0.167 HD
ATOM     59  C   UNL     1      -8.191  -5.755  14.081  1.00  0.00     0.074 A 
ATOM     60  C   UNL     1      -7.120  -6.684  14.374  1.00  0.00     0.031 C 
ATOM     61  C   UNL     1      -9.128  -5.361  14.978  1.00  0.00     0.037 A 
BRANCH  48  62
ATOM     62  C   UNL     1     -13.211  -1.288  12.761  1.00  0.00     0.064 A 
ATOM     63  C   UNL     1     -14.473  -1.562  12.210  1.00  0.00     0.173 A 
ATOM     64  C   UNL     1     -13.092  -0.169  13.599  1.00  0.00     0.173 A 
ATOM     65  F   UNL     1     -14.638  -2.613  11.393  1.00  0.00    -0.203 F 
ATOM     66  C   UNL     1     -15.562  -0.734  12.466  1.00  0.00     0.198 A 
ATOM     67  C   UNL     1     -14.190   0.641  13.876  1.00  0.00     0.198 A 
ATOM     68  F   UNL     1     -11.910   0.136  14.156  1.00  0.00    -0.203 F 
ATOM     69  F   UNL     1     -16.745  -0.989  11.889  1.00  0.00    -0.200 F 
ATOM     70  C   UNL     1     -15.422   0.363  13.303  1.00  0.00     0.200 A 
ATOM     71  F   UNL     1     -14.056   1.693  14.695  1.00  0.00    -0.200 F 
ATOM     72  F   UNL     1     -16.473   1.156  13.551  1.00  0.00    -0.200 F 
ENDBRANCH  48  62
BRANCH  49  73
ATOM     73  C   UNL     1      -5.178  -6.833  10.631  1.00  0.00     0.064 A 
ATOM     74  C   UNL     1      -5.250  -8.233  10.591  1.00  0.00     0.173 A 
ATOM     75  C   UNL     1      -3.938  -6.235  10.367  1.00  0.00     0.173 A 
ATOM     76  F   UNL     1      -6.411  -8.850  10.856  1.00  0.00    -0.203 F 
ATOM     77  C   UNL     1      -4.123  -9.004  10.316  1.00  0.00     0.198 A 
ATOM     78  C   UNL     1      -2.817  -7.007  10.066  1.00  0.00     0.198 A 
ATOM     79  F   UNL     1      -3.818  -4.900  10.387  1.00  0.00    -0.203 F 
ATOM     80  F   UNL     1      -4.211 -10.341  10.324  1.00  0.00    -0.200 F 
ATOM     81  C   UNL     1      -2.909  -8.390  10.048  1.00  0.00     0.200 A 
ATOM     82  F   UNL     1      -1.649  -6.410   9.794  1.00  0.00    -0.200 F 
ATOM     83  F   UNL     1      -1.827  -9.132   9.778  1.00  0.00    -0.200 F 
ENDBRANCH  49  73
BRANCH  61  84
ATOM     84  C   UNL     1      -9.057  -5.962  16.351  1.00  0.00     0.064 A 
ATOM     85  C   UNL     1      -8.064  -5.587  17.267  1.00  0.00     0.173 A 
ATOM     86  C   UNL     1     -10.018  -6.896  16.766  1.00  0.00     0.173 A 
ATOM     87  F   UNL     1      -7.114  -4.709  16.911  1.00  0.00    -0.203 F 
ATOM     88  C   UNL     1      -8.023  -6.142  18.543  1.00  0.00     0.198 A 
ATOM     89  C   UNL     1      -9.990  -7.428  18.051  1.00  0.00     0.198 A 
ATOM     90  F   UNL     1     -10.992  -7.283  15.928  1.00  0.00    -0.203 F 
ATOM     91  F   UNL     1      -7.040  -5.803  19.388  1.00  0.00    -0.200 F 
ATOM     92  C   UNL     1      -8.989  -7.057  18.936  1.00  0.00     0.200 A 
ATOM     93  F   UNL     1     -10.931  -8.303  18.434  1.00  0.00    -0.200 F 
ATOM     94  F   UNL     1      -8.951  -7.585  20.167  1.00  0.00    -0.200 F 
ENDBRANCH  61  84
ENDBRANCH  35  36
ENDBRANCH  27  30
ENDBRANCH  25  26
ENDBRANCH  24  25
ENDBRANCH   1  24
TORSDOF 14
