REMARK SMILES COc1cc([C@H]2[NH2+][C@@H](C(=O)NCCCNC(=O)c3ccc(-c4c5nc(c(-c6c(F)c(F)c(F)c(F)c6F)c6ccc([nH]6)c(-c6c(F)c(F)c(F)c(F)c6F)c6nc(c(-c7c(F)c(F)c(F)c(F)c7F)c7ccc4[nH]7)C=C6)C=C5)cc3)CS2)cc([N+](=O)[O-])c1OC
REMARK SMILES IDX 13 1 12 2 11 3 9 4 10 5 8 7 6 8 7 9 82 10 81 13 5 14 3 15
REMARK SMILES IDX 4 16 88 17 84 18 83 19 2 20 1 21 89 22 90 23 85 24 86 25
REMARK SMILES IDX 87 26 14 27 15 28 16 29 17 31 18 32 19 33 80 34 20 35 79 36
REMARK SMILES IDX 21 37 22 38 23 39 73 40 24 41 78 42 72 43 74 44 25 45 77 46
REMARK SMILES IDX 71 47 70 48 26 50 58 51 38 52 57 53 39 54 42 55 56 56 75 57
REMARK SMILES IDX 40 58 41 59 55 61 76 62 43 63 27 64 28 65 36 66 29 67 30 68
REMARK SMILES IDX 34 69 37 70 31 71 32 72 35 73 33 74 59 75 60 76 68 77 61 78
REMARK SMILES IDX 62 79 66 80 69 81 63 82 64 83 67 84 65 85 44 86 45 87 53 88
REMARK SMILES IDX 46 89 47 90 51 91 54 92 48 93 49 94 52 95 50 96
REMARK H PARENT 11 6 7 11 7 12 15 30 74 49 42 60
REMARK Flexibility Score: inf
ROOT
ATOM      1  C   UNL     1      -2.378  -4.612   8.404  1.00  0.00     0.042 C 
ENDROOT
BRANCH   1   2
ATOM      2  C   UNL     1      -1.364  -3.510   8.144  1.00  0.00     0.118 C 
BRANCH   2   3
ATOM      3  N   UNL     1      -0.023  -3.849   8.582  1.00  0.00    -0.351 N 
ATOM      4  C   UNL     1       1.169  -3.989   7.949  1.00  0.00     0.279 C 
ATOM      5  O   UNL     1       2.119  -4.321   8.671  1.00  0.00    -0.268 OA
ATOM      6  H   UNL     1       0.034  -4.013   9.552  1.00  0.00     0.163 HD
BRANCH   4   7
ATOM      7  C   UNL     1       1.392  -3.861   6.432  1.00  0.00     0.283 C 
ATOM      8  C   UNL     1      -0.181  -3.327   4.668  1.00  0.00     0.274 C 
ATOM      9  N   UNL     1       0.631  -2.776   5.757  1.00  0.00    -0.321 N 
ATOM     10  S   UNL     1      -0.344  -5.113   4.933  1.00  0.00    -0.088 SA
ATOM     11  H   UNL     1       0.021  -2.321   6.436  1.00  0.00     0.348 HD
ATOM     12  H   UNL     1       1.290  -2.100   5.371  1.00  0.00     0.348 HD
ATOM     13  C   UNL     1       1.234  -5.223   5.767  1.00  0.00     0.151 C 
BRANCH   8  14
ATOM     14  C   UNL     1      -1.486  -2.570   4.405  1.00  0.00     0.031 A 
ATOM     15  C   UNL     1      -2.612  -0.499   3.692  1.00  0.00     0.168 A 
ATOM     16  C   UNL     1      -1.461  -1.191   4.133  1.00  0.00     0.061 A 
ATOM     17  C   UNL     1      -3.838  -1.162   3.499  1.00  0.00     0.239 A 
ATOM     18  C   UNL     1      -3.884  -2.532   3.820  1.00  0.00     0.315 A 
ATOM     19  C   UNL     1      -2.729  -3.213   4.271  1.00  0.00     0.101 A 
BRANCH  15  20
ATOM     20  O   UNL     1      -2.423   0.796   3.280  1.00  0.00    -0.493 OA
ATOM     21  C   UNL     1      -2.452   1.729   4.360  1.00  0.00     0.278 C 
ENDBRANCH  15  20
BRANCH  17  22
ATOM     22  O   UNL     1      -4.975  -0.619   2.980  1.00  0.00    -0.488 OA
ATOM     23  C   UNL     1      -5.118   0.771   2.760  1.00  0.00     0.279 C 
ENDBRANCH  17  22
BRANCH  18  24
ATOM     24  N   UNL     1      -5.117  -3.343   3.666  1.00  0.00     0.066 N 
ATOM     25  O   UNL     1      -5.081  -4.508   4.094  1.00  0.00    -0.258 OA
ATOM     26  O   UNL     1      -6.120  -2.852   3.135  1.00  0.00    -0.258 OA
ENDBRANCH  18  24
ENDBRANCH   8  14
ENDBRANCH   4   7
ENDBRANCH   2   3
ENDBRANCH   1   2
BRANCH   1  27
ATOM     27  C   UNL     1      -2.610  -4.915   9.877  1.00  0.00     0.118 C 
BRANCH  27  28
ATOM     28  N   UNL     1      -3.122  -3.769  10.620  1.00  0.00    -0.352 N 
ATOM     29  C   UNL     1      -4.353  -3.540  11.181  1.00  0.00     0.251 C 
ATOM     30  H   UNL     1      -2.475  -3.036  10.738  1.00  0.00     0.163 HD
ATOM     31  O   UNL     1      -4.628  -2.412  11.591  1.00  0.00    -0.269 OA
BRANCH  29  32
ATOM     32  C   UNL     1      -5.360  -4.618  11.274  1.00  0.00     0.039 A 
ATOM     33  C   UNL     1      -6.700  -4.315  11.017  1.00  0.00     0.014 A 
ATOM     34  C   UNL     1      -4.997  -5.920  11.625  1.00  0.00     0.014 A 
ATOM     35  C   UNL     1      -7.655  -5.334  11.016  1.00  0.00     0.010 A 
ATOM     36  C   UNL     1      -5.930  -6.949  11.531  1.00  0.00     0.010 A 
ATOM     37  C   UNL     1      -7.267  -6.669  11.216  1.00  0.00    -0.014 A 
BRANCH  37  38
ATOM     38  C   UNL     1      -8.234  -7.786  11.059  1.00  0.00     0.031 A 
ATOM     39  C   UNL     1      -8.547  -8.695  12.214  1.00  0.00     0.074 A 
ATOM     40  C   UNL     1      -8.768  -8.028   9.845  1.00  0.00     0.049 A 
ATOM     41  N   UNL     1      -9.300  -9.767  12.243  1.00  0.00    -0.248 NA
ATOM     42  C   UNL     1      -7.911  -8.375  13.501  1.00  0.00     0.031 C 
ATOM     43  C   UNL     1      -8.501  -7.250   8.634  1.00  0.00     0.029 A 
ATOM     44  N   UNL     1      -9.637  -9.005   9.425  1.00  0.00    -0.354 N 
ATOM     45  C   UNL     1      -9.218 -10.252  13.542  1.00  0.00     0.074 A 
ATOM     46  C   UNL     1      -8.300  -9.392  14.256  1.00  0.00     0.031 C 
ATOM     47  C   UNL     1      -9.208  -7.762   7.616  1.00  0.00     0.029 A 
ATOM     48  C   UNL     1      -9.941  -8.932   8.087  1.00  0.00     0.049 A 
ATOM     49  H   UNL     1     -10.007  -9.691  10.026  1.00  0.00     0.167 HD
ATOM     50  C   UNL     1      -9.867 -11.306  14.092  1.00  0.00     0.037 A 
ATOM     51  C   UNL     1     -10.710  -9.729   7.322  1.00  0.00     0.037 A 
ATOM     52  C   UNL     1     -10.790 -12.151  13.379  1.00  0.00     0.049 A 
ATOM     53  C   UNL     1     -11.398 -10.909   7.953  1.00  0.00     0.074 A 
ATOM     54  C   UNL     1     -11.546 -13.205  13.863  1.00  0.00     0.029 A 
ATOM     55  N   UNL     1     -11.076 -12.045  12.025  1.00  0.00    -0.354 N 
ATOM     56  N   UNL     1     -11.374 -11.312   9.200  1.00  0.00    -0.248 NA
ATOM     57  C   UNL     1     -12.224 -11.743   7.070  1.00  0.00     0.031 C 
ATOM     58  C   UNL     1     -12.242 -13.773  12.792  1.00  0.00     0.029 A 
ATOM     59  C   UNL     1     -11.970 -13.036  11.651  1.00  0.00     0.049 A 
ATOM     60  H   UNL     1     -10.699 -11.366  11.420  1.00  0.00     0.167 HD
ATOM     61  C   UNL     1     -12.195 -12.429   9.257  1.00  0.00     0.074 A 
ATOM     62  C   UNL     1     -12.722 -12.627   7.922  1.00  0.00     0.031 C 
ATOM     63  C   UNL     1     -12.485 -13.223  10.317  1.00  0.00     0.037 A 
BRANCH  50  64
ATOM     64  C   UNL     1      -9.602 -11.609  15.540  1.00  0.00     0.064 A 
ATOM     65  C   UNL     1     -10.039 -10.754  16.564  1.00  0.00     0.173 A 
ATOM     66  C   UNL     1      -8.942 -12.790  15.912  1.00  0.00     0.173 A 
ATOM     67  F   UNL     1     -10.667  -9.607  16.265  1.00  0.00    -0.203 F 
ATOM     68  C   UNL     1      -9.798 -11.056  17.903  1.00  0.00     0.198 A 
ATOM     69  C   UNL     1      -8.733 -13.105  17.252  1.00  0.00     0.198 A 
ATOM     70  F   UNL     1      -8.508 -13.647  14.975  1.00  0.00    -0.203 F 
ATOM     71  F   UNL     1     -10.180 -10.199  18.860  1.00  0.00    -0.200 F 
ATOM     72  C   UNL     1      -9.153 -12.234  18.246  1.00  0.00     0.200 A 
ATOM     73  F   UNL     1      -8.123 -14.252  17.582  1.00  0.00    -0.200 F 
ATOM     74  F   UNL     1      -8.931 -12.528  19.534  1.00  0.00    -0.200 F 
ENDBRANCH  50  64
BRANCH  51  75
ATOM     75  C   UNL     1     -10.877  -9.433   5.874  1.00  0.00     0.064 A 
ATOM     76  C   UNL     1     -12.114  -9.014   5.364  1.00  0.00     0.173 A 
ATOM     77  C   UNL     1      -9.812  -9.569   4.971  1.00  0.00     0.173 A 
ATOM     78  F   UNL     1     -13.169  -8.893   6.183  1.00  0.00    -0.203 F 
ATOM     79  C   UNL     1     -12.285  -8.765   4.004  1.00  0.00     0.198 A 
ATOM     80  C   UNL     1      -9.976  -9.289   3.616  1.00  0.00     0.198 A 
ATOM     81  F   UNL     1      -8.608  -9.966   5.409  1.00  0.00    -0.203 F 
ATOM     82  F   UNL     1     -13.492  -8.420   3.535  1.00  0.00    -0.200 F 
ATOM     83  C   UNL     1     -11.214  -8.897   3.132  1.00  0.00     0.200 A 
ATOM     84  F   UNL     1      -8.937  -9.408   2.780  1.00  0.00    -0.200 F 
ATOM     85  F   UNL     1     -11.380  -8.658   1.824  1.00  0.00    -0.200 F 
ENDBRANCH  51  75
BRANCH  63  86
ATOM     86  C   UNL     1     -13.434 -14.364  10.084  1.00  0.00     0.064 A 
ATOM     87  C   UNL     1     -13.066 -15.484   9.324  1.00  0.00     0.173 A 
ATOM     88  C   UNL     1     -14.716 -14.351  10.654  1.00  0.00     0.173 A 
ATOM     89  F   UNL     1     -11.857 -15.539   8.744  1.00  0.00    -0.203 F 
ATOM     90  C   UNL     1     -13.956 -16.535   9.119  1.00  0.00     0.198 A 
ATOM     91  C   UNL     1     -15.591 -15.419  10.477  1.00  0.00     0.198 A 
ATOM     92  F   UNL     1     -15.116 -13.307  11.396  1.00  0.00    -0.203 F 
ATOM     93  F   UNL     1     -13.602 -17.570   8.345  1.00  0.00    -0.200 F 
ATOM     94  C   UNL     1     -15.214 -16.505   9.703  1.00  0.00     0.200 A 
ATOM     95  F   UNL     1     -16.800 -15.396  11.055  1.00  0.00    -0.200 F 
ATOM     96  F   UNL     1     -16.067 -17.521   9.511  1.00  0.00    -0.200 F 
ENDBRANCH  63  86
ENDBRANCH  37  38
ENDBRANCH  29  32
ENDBRANCH  27  28
ENDBRANCH   1  27
TORSDOF 14
