REMARK SMILES C[C@@H](C(=O)NCCCNC(=O)c1ccc(-c2c3nc(c(-c4c(F)c(F)c(F)c(F)c4F)c4ccc([nH]4)c(-c4c(F)c(F)c(F)c(F)c4F)c4nc(c(-c5c(F)c(F)c(F)c(F)c5F)c5ccc2[nH]5)C=C4)C=C3)cc1)c1ccc(-c2ccccc2)cc1
REMARK SMILES IDX 7 1 6 2 5 3 3 4 4 5 2 7 1 8 75 9 76 10 86 11 77 12 85 13
REMARK SMILES IDX 78 14 79 15 80 16 84 17 81 18 83 19 82 20 8 21 9 22 10 23
REMARK SMILES IDX 11 25 12 26 13 27 74 28 14 29 73 30 15 31 16 32 17 33 67 34
REMARK SMILES IDX 18 35 72 36 66 37 68 38 19 39 71 40 65 41 64 42 20 44 52 45
REMARK SMILES IDX 32 46 51 47 33 48 36 49 50 50 69 51 34 52 35 53 49 55 70 56
REMARK SMILES IDX 37 57 21 58 22 59 30 60 23 61 24 62 28 63 31 64 25 65 26 66
REMARK SMILES IDX 29 67 27 68 53 69 54 70 62 71 55 72 56 73 60 74 63 75 57 76
REMARK SMILES IDX 58 77 61 78 59 79 38 80 39 81 47 82 40 83 41 84 45 85 48 86
REMARK SMILES IDX 42 87 43 88 46 89 44 90
REMARK H PARENT 5 6 9 24 68 43 36 54
REMARK Flexibility Score: inf
ROOT
ATOM      1  C   UNL     1       4.442   1.160  -0.672  1.00  0.00     0.042 C 
ENDROOT
BRANCH   1   2
ATOM      2  C   UNL     1       3.513   1.984   0.223  1.00  0.00     0.117 C 
BRANCH   2   3
ATOM      3  N   UNL     1       2.416   2.555  -0.537  1.00  0.00    -0.356 N 
ATOM      4  C   UNL     1       1.110   2.167  -0.647  1.00  0.00     0.227 C 
ATOM      5  O   UNL     1       0.448   2.728  -1.523  1.00  0.00    -0.274 OA
ATOM      6  H   UNL     1       2.651   3.355  -1.059  1.00  0.00     0.163 HD
BRANCH   4   7
ATOM      7  C   UNL     1       0.533   1.100   0.306  1.00  0.00     0.105 C 
ATOM      8  C   UNL     1       1.047  -0.281  -0.121  1.00  0.00     0.023 C 
BRANCH   7   9
ATOM      9  C   UNL     1      -0.997   1.157   0.435  1.00  0.00    -0.036 A 
ATOM     10  C   UNL     1      -1.655   2.390   0.585  1.00  0.00     0.005 A 
ATOM     11  C   UNL     1      -1.791  -0.000   0.453  1.00  0.00     0.005 A 
ATOM     12  C   UNL     1      -3.051   2.463   0.677  1.00  0.00     0.009 A 
ATOM     13  C   UNL     1      -3.184   0.073   0.561  1.00  0.00     0.009 A 
ATOM     14  C   UNL     1      -3.838   1.305   0.658  1.00  0.00    -0.018 A 
BRANCH  14  15
ATOM     15  C   UNL     1      -5.304   1.367   0.722  1.00  0.00    -0.018 A 
ATOM     16  C   UNL     1      -6.039   2.063  -0.252  1.00  0.00     0.009 A 
ATOM     17  C   UNL     1      -6.011   0.704   1.738  1.00  0.00     0.009 A 
ATOM     18  C   UNL     1      -7.435   2.093  -0.212  1.00  0.00     0.001 A 
ATOM     19  C   UNL     1      -7.407   0.735   1.780  1.00  0.00     0.001 A 
ATOM     20  C   UNL     1      -8.118   1.429   0.804  1.00  0.00     0.000 A 
ENDBRANCH  14  15
ENDBRANCH   7   9
ENDBRANCH   4   7
ENDBRANCH   2   3
ENDBRANCH   1   2
BRANCH   1  21
ATOM     21  C   UNL     1       5.157   1.968  -1.751  1.00  0.00     0.118 C 
BRANCH  21  22
ATOM     22  N   UNL     1       6.134   2.896  -1.201  1.00  0.00    -0.352 N 
ATOM     23  C   UNL     1       7.498   2.934  -1.349  1.00  0.00     0.251 C 
ATOM     24  H   UNL     1       5.758   3.608  -0.635  1.00  0.00     0.163 HD
ATOM     25  O   UNL     1       8.166   3.687  -0.643  1.00  0.00    -0.269 OA
BRANCH  23  26
ATOM     26  C   UNL     1       8.177   2.055  -2.326  1.00  0.00     0.039 A 
ATOM     27  C   UNL     1       9.336   1.382  -1.931  1.00  0.00     0.014 A 
ATOM     28  C   UNL     1       7.688   1.896  -3.626  1.00  0.00     0.014 A 
ATOM     29  C   UNL     1       9.949   0.479  -2.803  1.00  0.00     0.010 A 
ATOM     30  C   UNL     1       8.260   0.947  -4.472  1.00  0.00     0.010 A 
ATOM     31  C   UNL     1       9.383   0.212  -4.061  1.00  0.00    -0.014 A 
BRANCH  31  32
ATOM     32  C   UNL     1       9.904  -0.880  -4.924  1.00  0.00     0.031 A 
ATOM     33  C   UNL     1      10.492  -0.579  -6.274  1.00  0.00     0.074 A 
ATOM     34  C   UNL     1       9.756  -2.159  -4.521  1.00  0.00     0.049 A 
ATOM     35  N   UNL     1      10.892  -1.410  -7.203  1.00  0.00    -0.248 NA
ATOM     36  C   UNL     1      10.634   0.840  -6.637  1.00  0.00     0.031 C 
ATOM     37  C   UNL     1       9.161  -2.581  -3.251  1.00  0.00     0.029 A 
ATOM     38  N   UNL     1      10.069  -3.342  -5.146  1.00  0.00    -0.354 N 
ATOM     39  C   UNL     1      11.314  -0.620  -8.264  1.00  0.00     0.074 A 
ATOM     40  C   UNL     1      11.097   0.758  -7.877  1.00  0.00     0.031 C 
ATOM     41  C   UNL     1       9.155  -3.921  -3.188  1.00  0.00     0.029 A 
ATOM     42  C   UNL     1       9.696  -4.457  -4.433  1.00  0.00     0.049 A 
ATOM     43  H   UNL     1      10.518  -3.387  -6.021  1.00  0.00     0.167 HD
ATOM     44  C   UNL     1      11.843  -1.013  -9.446  1.00  0.00     0.037 A 
ATOM     45  C   UNL     1       9.752  -5.764  -4.757  1.00  0.00     0.037 A 
ATOM     46  C   UNL     1      12.087  -2.385  -9.812  1.00  0.00     0.049 A 
ATOM     47  C   UNL     1      10.318  -6.163  -6.095  1.00  0.00     0.074 A 
ATOM     48  C   UNL     1      12.714  -2.873 -10.945  1.00  0.00     0.029 A 
ATOM     49  N   UNL     1      11.701  -3.485  -9.062  1.00  0.00    -0.354 N 
ATOM     50  N   UNL     1      10.809  -5.406  -7.045  1.00  0.00    -0.248 NA
ATOM     51  C   UNL     1      10.332  -7.600  -6.408  1.00  0.00     0.031 C 
ATOM     52  C   UNL     1      12.647  -4.269 -10.915  1.00  0.00     0.029 A 
ATOM     53  C   UNL     1      12.032  -4.651  -9.735  1.00  0.00     0.049 A 
ATOM     54  H   UNL     1      11.259  -3.444  -8.184  1.00  0.00     0.167 HD
ATOM     55  C   UNL     1      11.208  -6.272  -8.054  1.00  0.00     0.074 A 
ATOM     56  C   UNL     1      10.928  -7.614  -7.591  1.00  0.00     0.031 C 
ATOM     57  C   UNL     1      11.750  -5.981  -9.261  1.00  0.00     0.037 A 
BRANCH  44  58
ATOM     58  C   UNL     1      12.203   0.040 -10.453  1.00  0.00     0.064 A 
ATOM     59  C   UNL     1      13.318   0.873 -10.283  1.00  0.00     0.173 A 
ATOM     60  C   UNL     1      11.485   0.139 -11.655  1.00  0.00     0.173 A 
ATOM     61  F   UNL     1      14.034   0.820  -9.150  1.00  0.00    -0.203 F 
ATOM     62  C   UNL     1      13.699   1.770 -11.278  1.00  0.00     0.198 A 
ATOM     63  C   UNL     1      11.884   1.018 -12.658  1.00  0.00     0.198 A 
ATOM     64  F   UNL     1      10.415  -0.641 -11.871  1.00  0.00    -0.203 F 
ATOM     65  F   UNL     1      14.757   2.570 -11.087  1.00  0.00    -0.200 F 
ATOM     66  C   UNL     1      12.989   1.833 -12.469  1.00  0.00     0.200 A 
ATOM     67  F   UNL     1      11.208   1.065 -13.815  1.00  0.00    -0.200 F 
ATOM     68  F   UNL     1      13.374   2.679 -13.435  1.00  0.00    -0.200 F 
ENDBRANCH  44  58
BRANCH  45  69
ATOM     69  C   UNL     1       9.230  -6.797  -3.821  1.00  0.00     0.064 A 
ATOM     70  C   UNL     1      10.085  -7.744  -3.239  1.00  0.00     0.173 A 
ATOM     71  C   UNL     1       7.861  -6.891  -3.529  1.00  0.00     0.173 A 
ATOM     72  F   UNL     1      11.399  -7.711  -3.503  1.00  0.00    -0.203 F 
ATOM     73  C   UNL     1       9.586  -8.766  -2.433  1.00  0.00     0.198 A 
ATOM     74  C   UNL     1       7.368  -7.891  -2.694  1.00  0.00     0.198 A 
ATOM     75  F   UNL     1       6.998  -6.009  -4.055  1.00  0.00    -0.203 F 
ATOM     76  F   UNL     1      10.417  -9.698  -1.948  1.00  0.00    -0.200 F 
ATOM     77  C   UNL     1       8.229  -8.837  -2.159  1.00  0.00     0.200 A 
ATOM     78  F   UNL     1       6.058  -7.945  -2.418  1.00  0.00    -0.200 F 
ATOM     79  F   UNL     1       7.749  -9.824  -1.390  1.00  0.00    -0.200 F 
ENDBRANCH  45  69
BRANCH  57  80
ATOM     80  C   UNL     1      12.089  -7.132 -10.163  1.00  0.00     0.064 A 
ATOM     81  C   UNL     1      11.090  -7.883 -10.798  1.00  0.00     0.173 A 
ATOM     82  C   UNL     1      13.428  -7.454 -10.437  1.00  0.00     0.173 A 
ATOM     83  F   UNL     1       9.795  -7.627 -10.555  1.00  0.00    -0.203 F 
ATOM     84  C   UNL     1      11.417  -8.925 -11.661  1.00  0.00     0.198 A 
ATOM     85  C   UNL     1      13.751  -8.475 -11.325  1.00  0.00     0.198 A 
ATOM     86  F   UNL     1      14.422  -6.763  -9.859  1.00  0.00    -0.203 F 
ATOM     87  F   UNL     1      10.445  -9.657 -12.223  1.00  0.00    -0.200 F 
ATOM     88  C   UNL     1      12.747  -9.214 -11.931  1.00  0.00     0.200 A 
ATOM     89  F   UNL     1      15.036  -8.742 -11.597  1.00  0.00    -0.200 F 
ATOM     90  F   UNL     1      13.060 -10.208 -12.773  1.00  0.00    -0.200 F 
ENDBRANCH  57  80
ENDBRANCH  31  32
ENDBRANCH  23  26
ENDBRANCH  21  22
ENDBRANCH   1  21
TORSDOF 12
