REMARK SMILES N#Cc1ccc(Sc2csc(C(=O)NCCCNC(=O)c3ccc(-c4c5nc(c(-c6c(F)c(F)c(F)c(F)c6F)c6ccc([nH]6)c(-c6c(F)c(F)c(F)c(F)c6F)c6nc(c(-c7c(F)c(F)c(F)c(F)c7F)c7ccc4[nH]7)C=C6)C=C5)cc3)c2)c(F)c1
REMARK SMILES IDX 15 1 14 2 12 3 13 4 11 6 8 7 9 8 84 9 10 10 7 11 6 12 3 13
REMARK SMILES IDX 4 14 87 15 5 16 85 17 86 18 2 19 1 20 16 21 17 22 18 23
REMARK SMILES IDX 19 24 20 26 21 27 22 28 83 29 23 30 82 31 24 32 25 33 26 34
REMARK SMILES IDX 76 35 27 36 81 37 75 38 77 39 28 40 80 41 74 42 73 43 29 45
REMARK SMILES IDX 61 46 41 47 60 48 42 49 45 50 59 51 78 52 43 53 44 54 58 56
REMARK SMILES IDX 79 57 46 58 30 59 31 60 39 61 32 62 33 63 37 64 40 65 34 66
REMARK SMILES IDX 35 67 38 68 36 69 62 70 63 71 71 72 64 73 65 74 69 75 72 76
REMARK SMILES IDX 66 77 67 78 70 79 68 80 47 81 48 82 56 83 49 84 50 85 54 86
REMARK SMILES IDX 57 87 51 88 52 89 55 90 53 91
REMARK H PARENT 14 5 18 25 77 44 45 55
REMARK Flexibility Score: inf
ROOT
ATOM      1  C   UNL     1       5.816   4.914  -2.908  1.00  0.00     0.118 C 
ENDROOT
BRANCH   1   2
ATOM      2  N   UNL     1       5.286   6.126  -2.316  1.00  0.00    -0.351 N 
ATOM      3  C   UNL     1       4.460   6.353  -1.242  1.00  0.00     0.261 C 
ATOM      4  O   UNL     1       4.234   7.544  -1.009  1.00  0.00    -0.268 OA
ATOM      5  H   UNL     1       5.574   6.948  -2.774  1.00  0.00     0.163 HD
BRANCH   3   6
ATOM      6  C   UNL     1       3.931   5.263  -0.432  1.00  0.00     0.093 A 
ATOM      7  C   UNL     1       3.363   3.192   0.490  1.00  0.00     0.024 A 
ATOM      8  C   UNL     1       3.071   4.021   1.544  1.00  0.00     0.081 A 
ATOM      9  C   UNL     1       3.776   3.909  -0.667  1.00  0.00     0.041 A 
ATOM     10  S   UNL     1       3.341   5.658   1.145  1.00  0.00    -0.137 S 
BRANCH   7  11
ATOM     11  S   UNL     1       3.325   1.445   0.538  1.00  0.00    -0.086 SA
BRANCH  11  12
ATOM     12  C   UNL     1       1.631   0.978   0.239  1.00  0.00     0.048 A 
ATOM     13  C   UNL     1      -1.017   0.063  -0.083  1.00  0.00     0.055 A 
ATOM     14  C   UNL     1      -0.745   1.433  -0.013  1.00  0.00     0.021 A 
ATOM     15  C   UNL     1       0.034  -0.851  -0.030  1.00  0.00     0.060 A 
ATOM     16  C   UNL     1       0.571   1.887   0.143  1.00  0.00     0.020 A 
ATOM     17  C   UNL     1       1.339  -0.389   0.129  1.00  0.00     0.138 A 
ATOM     18  F   UNL     1       2.321  -1.303   0.187  1.00  0.00    -0.206 F 
BRANCH  13  19
ATOM     19  C   UNL     1      -2.369  -0.399  -0.182  1.00  0.00     0.099 C 
ATOM     20  N   UNL     1      -3.466  -0.773  -0.246  1.00  0.00    -0.192 NA
ENDBRANCH  13  19
ENDBRANCH  11  12
ENDBRANCH   7  11
ENDBRANCH   3   6
ENDBRANCH   1   2
BRANCH   1  21
ATOM     21  C   UNL     1       5.052   4.548  -4.177  1.00  0.00     0.042 C 
BRANCH  21  22
ATOM     22  C   UNL     1       5.433   5.429  -5.367  1.00  0.00     0.118 C 
BRANCH  22  23
ATOM     23  N   UNL     1       6.825   5.239  -5.758  1.00  0.00    -0.352 N 
ATOM     24  C   UNL     1       7.365   4.775  -6.929  1.00  0.00     0.251 C 
ATOM     25  H   UNL     1       7.484   5.485  -5.069  1.00  0.00     0.163 HD
ATOM     26  O   UNL     1       8.547   4.445  -6.963  1.00  0.00    -0.269 OA
BRANCH  24  27
ATOM     27  C   UNL     1       6.537   4.668  -8.146  1.00  0.00     0.039 A 
ATOM     28  C   UNL     1       6.724   3.574  -8.995  1.00  0.00     0.014 A 
ATOM     29  C   UNL     1       5.608   5.659  -8.473  1.00  0.00     0.014 A 
ATOM     30  C   UNL     1       5.938   3.447 -10.141  1.00  0.00     0.010 A 
ATOM     31  C   UNL     1       4.766   5.486  -9.566  1.00  0.00     0.010 A 
ATOM     32  C   UNL     1       4.926   4.381 -10.415  1.00  0.00    -0.014 A 
BRANCH  32  33
ATOM     33  C   UNL     1       4.023   4.212 -11.582  1.00  0.00     0.031 A 
ATOM     34  C   UNL     1       3.992   5.246 -12.673  1.00  0.00     0.074 A 
ATOM     35  C   UNL     1       3.187   3.156 -11.622  1.00  0.00     0.049 A 
ATOM     36  N   UNL     1       3.227   5.305 -13.734  1.00  0.00    -0.248 NA
ATOM     37  C   UNL     1       4.923   6.379 -12.546  1.00  0.00     0.031 C 
ATOM     38  C   UNL     1       3.092   2.113 -10.598  1.00  0.00     0.029 A 
ATOM     39  N   UNL     1       2.247   2.789 -12.553  1.00  0.00    -0.354 N 
ATOM     40  C   UNL     1       3.571   6.483 -14.384  1.00  0.00     0.074 A 
ATOM     41  C   UNL     1       4.579   7.134 -13.578  1.00  0.00     0.031 C 
ATOM     42  C   UNL     1       2.165   1.216 -10.966  1.00  0.00     0.029 A 
ATOM     43  C   UNL     1       1.561   1.645 -12.223  1.00  0.00     0.049 A 
ATOM     44  H   UNL     1       2.081   3.297 -13.380  1.00  0.00     0.167 HD
ATOM     45  C   UNL     1       3.096   6.966 -15.557  1.00  0.00     0.037 A 
ATOM     46  C   UNL     1       0.544   1.024 -12.850  1.00  0.00     0.037 A 
ATOM     47  C   UNL     1       2.111   6.297 -16.365  1.00  0.00     0.049 A 
ATOM     48  C   UNL     1       0.031   1.596 -14.147  1.00  0.00     0.074 A 
ATOM     49  C   UNL     1       1.626   6.664 -17.608  1.00  0.00     0.029 A 
ATOM     50  N   UNL     1       1.449   5.133 -16.006  1.00  0.00    -0.354 N 
ATOM     51  N   UNL     1       0.429   2.662 -14.798  1.00  0.00    -0.248 NA
ATOM     52  C   UNL     1      -1.069   0.873 -14.800  1.00  0.00     0.031 C 
ATOM     53  C   UNL     1       0.613   5.770 -17.963  1.00  0.00     0.029 A 
ATOM     54  C   UNL     1       0.527   4.794 -16.983  1.00  0.00     0.049 A 
ATOM     55  H   UNL     1       1.610   4.623 -15.179  1.00  0.00     0.167 HD
ATOM     56  C   UNL     1      -0.345   2.717 -15.950  1.00  0.00     0.074 A 
ATOM     57  C   UNL     1      -1.221   1.566 -15.918  1.00  0.00     0.031 C 
ATOM     58  C   UNL     1      -0.332   3.639 -16.944  1.00  0.00     0.037 A 
BRANCH  45  59
ATOM     59  C   UNL     1       3.618   8.289 -16.041  1.00  0.00     0.064 A 
ATOM     60  C   UNL     1       4.937   8.451 -16.489  1.00  0.00     0.173 A 
ATOM     61  C   UNL     1       2.756   9.395 -16.130  1.00  0.00     0.173 A 
ATOM     62  F   UNL     1       5.805   7.431 -16.418  1.00  0.00    -0.203 F 
ATOM     63  C   UNL     1       5.379   9.674 -16.990  1.00  0.00     0.198 A 
ATOM     64  C   UNL     1       3.192  10.604 -16.663  1.00  0.00     0.198 A 
ATOM     65  F   UNL     1       1.482   9.295 -15.720  1.00  0.00    -0.203 F 
ATOM     66  F   UNL     1       6.655   9.816 -17.374  1.00  0.00    -0.200 F 
ATOM     67  C   UNL     1       4.503  10.745 -17.088  1.00  0.00     0.200 A 
ATOM     68  F   UNL     1       2.338  11.632 -16.774  1.00  0.00    -0.200 F 
ATOM     69  F   UNL     1       4.925  11.913 -17.590  1.00  0.00    -0.200 F 
ENDBRANCH  45  59
BRANCH  46  70
ATOM     70  C   UNL     1      -0.072  -0.197 -12.262  1.00  0.00     0.064 A 
ATOM     71  C   UNL     1      -0.001  -1.435 -12.916  1.00  0.00     0.173 A 
ATOM     72  C   UNL     1      -0.782  -0.142 -11.053  1.00  0.00     0.173 A 
ATOM     73  F   UNL     1       0.653  -1.540 -14.083  1.00  0.00    -0.203 F 
ATOM     74  C   UNL     1      -0.653  -2.558 -12.409  1.00  0.00     0.198 A 
ATOM     75  C   UNL     1      -1.399  -1.275 -10.526  1.00  0.00     0.198 A 
ATOM     76  F   UNL     1      -0.875   1.013 -10.378  1.00  0.00    -0.203 F 
ATOM     77  F   UNL     1      -0.632  -3.708 -13.095  1.00  0.00    -0.200 F 
ATOM     78  C   UNL     1      -1.349  -2.478 -11.213  1.00  0.00     0.200 A 
ATOM     79  F   UNL     1      -2.050  -1.197  -9.357  1.00  0.00    -0.200 F 
ATOM     80  F   UNL     1      -1.980  -3.555 -10.728  1.00  0.00    -0.200 F 
ENDBRANCH  46  70
BRANCH  58  81
ATOM     81  C   UNL     1      -1.257   3.416 -18.108  1.00  0.00     0.064 A 
ATOM     82  C   UNL     1      -2.650   3.522 -17.982  1.00  0.00     0.173 A 
ATOM     83  C   UNL     1      -0.734   3.131 -19.380  1.00  0.00     0.173 A 
ATOM     84  F   UNL     1      -3.203   3.780 -16.787  1.00  0.00    -0.203 F 
ATOM     85  C   UNL     1      -3.486   3.317 -19.077  1.00  0.00     0.198 A 
ATOM     86  C   UNL     1      -1.570   2.969 -20.480  1.00  0.00     0.198 A 
ATOM     87  F   UNL     1       0.591   3.028 -19.560  1.00  0.00    -0.203 F 
ATOM     88  F   UNL     1      -4.816   3.363 -18.919  1.00  0.00    -0.200 F 
ATOM     89  C   UNL     1      -2.945   3.050 -20.326  1.00  0.00     0.200 A 
ATOM     90  F   UNL     1      -1.044   2.733 -21.690  1.00  0.00    -0.200 F 
ATOM     91  F   UNL     1      -3.751   2.866 -21.381  1.00  0.00    -0.200 F 
ENDBRANCH  58  81
ENDBRANCH  32  33
ENDBRANCH  24  27
ENDBRANCH  22  23
ENDBRANCH  21  22
ENDBRANCH   1  21
TORSDOF 13
