REMARK SMILES CC[C@@H](C(=O)NCCCNC(=O)c1ccc(-c2c3nc(c(-c4c(F)c(F)c(F)c(F)c4F)c4ccc([nH]4)c(-c4c(F)c(F)c(F)c(F)c4F)c4nc(c(-c5c(F)c(F)c(F)c(F)c5F)c5ccc2[nH]5)C=C4)C=C3)cc1)N1C(=O)/C(=C/C(C)=C/c2ccccc2)SC1=S
REMARK SMILES IDX 7 1 6 2 4 3 5 4 3 6 2 7 1 8 76 9 77 10 91 11 78 12 79 13
REMARK SMILES IDX 90 14 92 15 80 16 81 17 82 18 83 19 84 20 85 21 89 22 86 23
REMARK SMILES IDX 88 24 87 25 8 26 9 27 10 28 11 29 12 31 13 32 14 33 75 34
REMARK SMILES IDX 15 35 74 36 16 37 17 38 18 39 68 40 19 41 73 42 67 43 69 44
REMARK SMILES IDX 20 45 72 46 66 47 65 48 21 50 53 51 33 52 52 53 34 54 37 55
REMARK SMILES IDX 51 56 70 57 35 58 36 59 50 61 71 62 38 63 22 64 23 65 31 66
REMARK SMILES IDX 24 67 25 68 29 69 32 70 26 71 27 72 30 73 28 74 54 75 55 76
REMARK SMILES IDX 63 77 56 78 57 79 61 80 64 81 58 82 59 83 62 84 60 85 39 86
REMARK SMILES IDX 40 87 48 88 41 89 42 90 46 91 49 92 43 93 44 94 47 95 45 96
REMARK H PARENT 6 5 10 30 69 49 37 60
REMARK Flexibility Score: inf
ROOT
ATOM      1  C   UNL     1       1.821  -2.273  -0.474  1.00  0.00     0.117 C 
ENDROOT
BRANCH   1   2
ATOM      2  N   UNL     1       0.639  -2.308  -1.324  1.00  0.00    -0.354 N 
ATOM      3  C   UNL     1       0.011  -1.334  -2.047  1.00  0.00     0.243 C 
ATOM      4  O   UNL     1      -1.109  -1.601  -2.496  1.00  0.00    -0.273 OA
ATOM      5  H   UNL     1       0.216  -3.195  -1.389  1.00  0.00     0.163 HD
BRANCH   3   6
ATOM      6  C   UNL     1       0.635   0.072  -2.210  1.00  0.00     0.181 C 
BRANCH   6   7
ATOM      7  C   UNL     1      -0.161   0.979  -1.218  1.00  0.00     0.032 C 
ATOM      8  C   UNL     1       0.422   1.050   0.183  1.00  0.00     0.006 C 
ENDBRANCH   6   7
BRANCH   6   9
ATOM      9  N   UNL     1       0.503   0.635  -3.586  1.00  0.00    -0.280 N 
ATOM     10  C   UNL     1       0.297  -0.145  -4.712  1.00  0.00     0.266 C 
ATOM     11  C   UNL     1       0.903   1.914  -3.910  1.00  0.00     0.149 C 
ATOM     12  O   UNL     1       0.485  -1.357  -4.805  1.00  0.00    -0.268 OA
ATOM     13  C   UNL     1      -0.040   0.719  -5.894  1.00  0.00     0.080 C 
ATOM     14  S   UNL     1       0.197   2.358  -5.442  1.00  0.00    -0.054 SA
ATOM     15  S   UNL     1       1.935   2.939  -3.086  1.00  0.00    -0.052 S 
ATOM     16  C   UNL     1      -0.442   0.214  -7.074  1.00  0.00     0.024 C 
BRANCH  16  17
ATOM     17  C   UNL     1      -0.876   0.869  -8.325  1.00  0.00    -0.049 C 
ATOM     18  C   UNL     1      -1.585  -0.060  -9.287  1.00  0.00     0.044 C 
ATOM     19  C   UNL     1      -0.618   2.159  -8.629  1.00  0.00     0.011 C 
BRANCH  19  20
ATOM     20  C   UNL     1      -1.062   3.010  -9.751  1.00  0.00    -0.025 A 
ATOM     21  C   UNL     1      -0.222   4.067 -10.137  1.00  0.00     0.008 A 
ATOM     22  C   UNL     1      -2.336   2.932 -10.324  1.00  0.00     0.008 A 
ATOM     23  C   UNL     1      -0.633   5.006 -11.085  1.00  0.00     0.001 A 
ATOM     24  C   UNL     1      -2.744   3.864 -11.285  1.00  0.00     0.001 A 
ATOM     25  C   UNL     1      -1.894   4.902 -11.662  1.00  0.00     0.000 A 
ENDBRANCH  19  20
ENDBRANCH  16  17
ENDBRANCH   6   9
ENDBRANCH   3   6
ENDBRANCH   1   2
BRANCH   1  26
ATOM     26  C   UNL     1       1.453  -2.293   1.011  1.00  0.00     0.042 C 
BRANCH  26  27
ATOM     27  C   UNL     1       0.804  -3.588   1.492  1.00  0.00     0.118 C 
BRANCH  27  28
ATOM     28  N   UNL     1       1.784  -4.583   1.892  1.00  0.00    -0.352 N 
ATOM     29  C   UNL     1       2.018  -5.151   3.122  1.00  0.00     0.251 C 
ATOM     30  H   UNL     1       2.372  -4.901   1.169  1.00  0.00     0.163 HD
ATOM     31  O   UNL     1       3.027  -5.832   3.283  1.00  0.00    -0.269 OA
BRANCH  29  32
ATOM     32  C   UNL     1       1.092  -4.945   4.265  1.00  0.00     0.039 A 
ATOM     33  C   UNL     1       1.637  -4.793   5.545  1.00  0.00     0.014 A 
ATOM     34  C   UNL     1      -0.297  -4.969   4.111  1.00  0.00     0.014 A 
ATOM     35  C   UNL     1       0.799  -4.620   6.653  1.00  0.00     0.010 A 
ATOM     36  C   UNL     1      -1.131  -4.726   5.205  1.00  0.00     0.010 A 
ATOM     37  C   UNL     1      -0.594  -4.562   6.491  1.00  0.00    -0.014 A 
BRANCH  37  38
ATOM     38  C   UNL     1      -1.497  -4.361   7.657  1.00  0.00     0.031 A 
ATOM     39  C   UNL     1      -2.461  -5.442   8.068  1.00  0.00     0.074 A 
ATOM     40  C   UNL     1      -1.489  -3.188   8.321  1.00  0.00     0.049 A 
ATOM     41  N   UNL     1      -3.367  -5.431   9.014  1.00  0.00    -0.248 NA
ATOM     42  C   UNL     1      -2.417  -6.694   7.298  1.00  0.00     0.031 C 
ATOM     43  C   UNL     1      -0.637  -2.042   8.003  1.00  0.00     0.029 A 
ATOM     44  N   UNL     1      -2.229  -2.764   9.398  1.00  0.00    -0.354 N 
ATOM     45  C   UNL     1      -4.013  -6.658   8.937  1.00  0.00     0.074 A 
ATOM     46  C   UNL     1      -3.425  -7.374   7.825  1.00  0.00     0.031 C 
ATOM     47  C   UNL     1      -0.889  -1.052   8.875  1.00  0.00     0.029 A 
ATOM     48  C   UNL     1      -1.941  -1.480   9.793  1.00  0.00     0.049 A 
ATOM     49  H   UNL     1      -2.902  -3.326   9.844  1.00  0.00     0.167 HD
ATOM     50  C   UNL     1      -4.992  -7.153   9.732  1.00  0.00     0.037 A 
ATOM     51  C   UNL     1      -2.467  -0.730  10.781  1.00  0.00     0.037 A 
ATOM     52  C   UNL     1      -5.551  -6.462  10.864  1.00  0.00     0.049 A 
ATOM     53  C   UNL     1      -3.541  -1.310  11.661  1.00  0.00     0.074 A 
ATOM     54  C   UNL     1      -6.496  -6.912  11.770  1.00  0.00     0.029 A 
ATOM     55  N   UNL     1      -5.212  -5.174  11.248  1.00  0.00    -0.354 N 
ATOM     56  N   UNL     1      -4.097  -2.496  11.615  1.00  0.00    -0.248 NA
ATOM     57  C   UNL     1      -4.054  -0.449  12.736  1.00  0.00     0.031 C 
ATOM     58  C   UNL     1      -6.755  -5.883  12.681  1.00  0.00     0.029 A 
ATOM     59  C   UNL     1      -5.942  -4.807  12.367  1.00  0.00     0.049 A 
ATOM     60  H   UNL     1      -4.550  -4.604  10.792  1.00  0.00     0.167 HD
ATOM     61  C   UNL     1      -5.004  -2.532  12.665  1.00  0.00     0.074 A 
ATOM     62  C   UNL     1      -4.915  -1.255  13.341  1.00  0.00     0.031 C 
ATOM     63  C   UNL     1      -5.837  -3.535  13.035  1.00  0.00     0.037 A 
BRANCH  50  64
ATOM     64  C   UNL     1      -5.523  -8.519   9.408  1.00  0.00     0.064 A 
ATOM     65  C   UNL     1      -4.762  -9.676   9.636  1.00  0.00     0.173 A 
ATOM     66  C   UNL     1      -6.822  -8.677   8.903  1.00  0.00     0.173 A 
ATOM     67  F   UNL     1      -3.510  -9.578  10.108  1.00  0.00    -0.203 F 
ATOM     68  C   UNL     1      -5.273 -10.938   9.344  1.00  0.00     0.198 A 
ATOM     69  C   UNL     1      -7.340  -9.942   8.638  1.00  0.00     0.198 A 
ATOM     70  F   UNL     1      -7.594  -7.604   8.675  1.00  0.00    -0.203 F 
ATOM     71  F   UNL     1      -4.511 -12.026   9.527  1.00  0.00    -0.200 F 
ATOM     72  C   UNL     1      -6.562 -11.071   8.851  1.00  0.00     0.200 A 
ATOM     73  F   UNL     1      -8.590 -10.070   8.174  1.00  0.00    -0.200 F 
ATOM     74  F   UNL     1      -7.054 -12.287   8.576  1.00  0.00    -0.200 F 
ENDBRANCH  50  64
BRANCH  51  75
ATOM     75  C   UNL     1      -1.967   0.650  11.008  1.00  0.00     0.064 A 
ATOM     76  C   UNL     1      -1.188   0.955  12.133  1.00  0.00     0.173 A 
ATOM     77  C   UNL     1      -2.257   1.688  10.112  1.00  0.00     0.173 A 
ATOM     78  F   UNL     1      -0.904  -0.001  13.030  1.00  0.00    -0.203 F 
ATOM     79  C   UNL     1      -0.733   2.252  12.362  1.00  0.00     0.198 A 
ATOM     80  C   UNL     1      -1.780   2.979  10.329  1.00  0.00     0.198 A 
ATOM     81  F   UNL     1      -2.996   1.446   9.019  1.00  0.00    -0.203 F 
ATOM     82  F   UNL     1      -0.025   2.526  13.466  1.00  0.00    -0.200 F 
ATOM     83  C   UNL     1      -1.024   3.261  11.457  1.00  0.00     0.200 A 
ATOM     84  F   UNL     1      -2.053   3.950   9.446  1.00  0.00    -0.200 F 
ATOM     85  F   UNL     1      -0.583   4.507  11.675  1.00  0.00    -0.200 F 
ENDBRANCH  51  75
BRANCH  63  86
ATOM     86  C   UNL     1      -6.697  -3.306  14.242  1.00  0.00     0.064 A 
ATOM     87  C   UNL     1      -7.810  -2.454  14.198  1.00  0.00     0.173 A 
ATOM     88  C   UNL     1      -6.428  -3.977  15.444  1.00  0.00     0.173 A 
ATOM     89  F   UNL     1      -8.099  -1.778  13.076  1.00  0.00    -0.203 F 
ATOM     90  C   UNL     1      -8.611  -2.266  15.322  1.00  0.00     0.198 A 
ATOM     91  C   UNL     1      -7.245  -3.806  16.558  1.00  0.00     0.198 A 
ATOM     92  F   UNL     1      -5.378  -4.807  15.535  1.00  0.00    -0.203 F 
ATOM     93  F   UNL     1      -9.645  -1.415  15.271  1.00  0.00    -0.200 F 
ATOM     94  C   UNL     1      -8.331  -2.946  16.498  1.00  0.00     0.200 A 
ATOM     95  F   UNL     1      -6.980  -4.472  17.691  1.00  0.00    -0.200 F 
ATOM     96  F   UNL     1      -9.106  -2.768  17.577  1.00  0.00    -0.200 F 
ENDBRANCH  63  86
ENDBRANCH  37  38
ENDBRANCH  29  32
ENDBRANCH  27  28
ENDBRANCH  26  27
ENDBRANCH   1  26
TORSDOF 14
