REMARK SMILES CC[C@](O)(C(=O)NCCCNC(=O)c1ccc(-c2c3nc(c(-c4c(F)c(F)c(F)c(F)c4F)c4ccc([nH]4)c(-c4c(F)c(F)c(F)c(F)c4F)c4nc(c(-c5c(F)c(F)c(F)c(F)c5F)c5ccc2[nH]5)C=C4)C=C3)cc1)[C@@H](C)c1ccc2c(c1)OCCO2
REMARK SMILES IDX 9 1 8 2 7 3 5 4 6 5 3 7 2 8 1 9 77 10 78 11 79 12 80 13
REMARK SMILES IDX 84 14 81 15 83 16 82 17 85 18 88 19 86 20 87 21 4 22 10 24
REMARK SMILES IDX 11 25 12 26 13 28 14 29 15 30 76 31 16 32 75 33 17 34 18 35
REMARK SMILES IDX 19 36 69 37 20 38 74 39 68 40 70 41 21 42 73 43 67 44 66 45
REMARK SMILES IDX 22 47 54 48 34 49 53 50 35 51 38 52 52 53 71 54 36 55 37 56
REMARK SMILES IDX 51 58 72 59 39 60 23 61 24 62 32 63 25 64 26 65 30 66 33 67
REMARK SMILES IDX 27 68 28 69 31 70 29 71 55 72 56 73 64 74 57 75 58 76 62 77
REMARK SMILES IDX 65 78 59 79 60 80 63 81 61 82 40 83 41 84 49 85 42 86 43 87
REMARK SMILES IDX 47 88 50 89 44 90 45 91 48 92 46 93
REMARK H PARENT 7 6 4 23 11 27 70 46 38 57
REMARK Flexibility Score: inf
ROOT
ATOM      1  C   UNL     1      -2.868   2.282   1.735  1.00  0.00     0.042 C 
ENDROOT
BRANCH   1   2
ATOM      2  C   UNL     1      -2.041   3.005   0.690  1.00  0.00     0.117 C 
BRANCH   2   3
ATOM      3  N   UNL     1      -0.991   3.812   1.293  1.00  0.00    -0.354 N 
ATOM      4  C   UNL     1       0.369   3.691   1.218  1.00  0.00     0.252 C 
ATOM      5  O   UNL     1       1.038   4.553   1.792  1.00  0.00    -0.272 OA
ATOM      6  H   UNL     1      -1.310   4.565   1.841  1.00  0.00     0.163 HD
BRANCH   4   7
ATOM      7  C   UNL     1       1.010   2.557   0.354  1.00  0.00     0.149 C 
BRANCH   7   8
ATOM      8  C   UNL     1       0.737   3.060  -1.107  1.00  0.00     0.043 C 
ATOM      9  C   UNL     1       1.280   2.309  -2.306  1.00  0.00     0.007 C 
ENDBRANCH   7   8
BRANCH   7  10
ATOM     10  C   UNL     1       2.534   2.396   0.743  1.00  0.00     0.058 C 
ATOM     11  C   UNL     1       2.804   2.067   2.219  1.00  0.00     0.016 C 
BRANCH  10  12
ATOM     12  C   UNL     1       3.324   1.397  -0.105  1.00  0.00    -0.038 A 
ATOM     13  C   UNL     1       2.804   0.164  -0.538  1.00  0.00     0.008 A 
ATOM     14  C   UNL     1       4.548   1.837  -0.625  1.00  0.00     0.054 A 
ATOM     15  C   UNL     1       3.323  -0.449  -1.681  1.00  0.00     0.051 A 
ATOM     16  C   UNL     1       5.028   1.266  -1.790  1.00  0.00     0.161 A 
ATOM     17  C   UNL     1       4.355   0.183  -2.361  1.00  0.00     0.161 A 
ATOM     18  O   UNL     1       6.036   1.947  -2.417  1.00  0.00    -0.486 OA
ATOM     19  O   UNL     1       4.555  -0.152  -3.680  1.00  0.00    -0.486 OA
ATOM     20  C   UNL     1       6.075   1.714  -3.831  1.00  0.00     0.271 C 
ATOM     21  C   UNL     1       4.798   1.084  -4.374  1.00  0.00     0.271 C 
ENDBRANCH  10  12
ENDBRANCH   7  10
BRANCH   7  22
ATOM     22  O   UNL     1       0.317   1.329   0.609  1.00  0.00    -0.379 OA
ATOM     23  H   UNL     1       0.499   1.037   1.516  1.00  0.00     0.212 HD
ENDBRANCH   7  22
ENDBRANCH   4   7
ENDBRANCH   2   3
ENDBRANCH   1   2
BRANCH   1  24
ATOM     24  C   UNL     1      -3.610   3.225   2.667  1.00  0.00     0.118 C 
BRANCH  24  25
ATOM     25  N   UNL     1      -4.536   4.100   1.959  1.00  0.00    -0.352 N 
ATOM     26  C   UNL     1      -5.892   4.231   2.080  1.00  0.00     0.251 C 
ATOM     27  H   UNL     1      -4.120   4.690   1.289  1.00  0.00     0.163 HD
ATOM     28  O   UNL     1      -6.518   4.889   1.246  1.00  0.00    -0.269 OA
BRANCH  26  29
ATOM     29  C   UNL     1      -6.611   3.583   3.193  1.00  0.00     0.039 A 
ATOM     30  C   UNL     1      -7.878   3.044   2.958  1.00  0.00     0.014 A 
ATOM     31  C   UNL     1      -6.054   3.527   4.473  1.00  0.00     0.014 A 
ATOM     32  C   UNL     1      -8.565   2.417   3.998  1.00  0.00     0.010 A 
ATOM     33  C   UNL     1      -6.685   2.801   5.474  1.00  0.00     0.010 A 
ATOM     34  C   UNL     1      -7.963   2.269   5.259  1.00  0.00    -0.014 A 
BRANCH  34  35
ATOM     35  C   UNL     1      -8.681   1.618   6.381  1.00  0.00     0.031 A 
ATOM     36  C   UNL     1      -8.992   2.404   7.627  1.00  0.00     0.074 A 
ATOM     37  C   UNL     1      -9.013   0.317   6.298  1.00  0.00     0.049 A 
ATOM     38  N   UNL     1      -9.576   2.012   8.731  1.00  0.00    -0.248 NA
ATOM     39  C   UNL     1      -8.558   3.811   7.650  1.00  0.00     0.031 C 
ATOM     40  C   UNL     1      -8.710  -0.564   5.169  1.00  0.00     0.029 A 
ATOM     41  N   UNL     1      -9.676  -0.494   7.184  1.00  0.00    -0.354 N 
ATOM     42  C   UNL     1      -9.567   3.115   9.574  1.00  0.00     0.074 A 
ATOM     43  C   UNL     1      -8.849   4.167   8.890  1.00  0.00     0.031 C 
ATOM     44  C   UNL     1      -9.212  -1.784   5.417  1.00  0.00     0.029 A 
ATOM     45  C   UNL     1      -9.840  -1.780   6.735  1.00  0.00     0.049 A 
ATOM     46  H   UNL     1     -10.003  -0.182   8.059  1.00  0.00     0.167 HD
ATOM     47  C   UNL     1     -10.138   3.254  10.794  1.00  0.00     0.037 A 
ATOM     48  C   UNL     1     -10.432  -2.837   7.322  1.00  0.00     0.037 A 
ATOM     49  C   UNL     1     -10.870   2.210  11.461  1.00  0.00     0.049 A 
ATOM     50  C   UNL     1     -11.068  -2.658   8.675  1.00  0.00     0.074 A 
ATOM     51  C   UNL     1     -11.525   2.255  12.678  1.00  0.00     0.029 A 
ATOM     52  N   UNL     1     -11.043   0.927  10.960  1.00  0.00    -0.354 N 
ATOM     53  N   UNL     1     -11.113  -1.590   9.435  1.00  0.00    -0.248 NA
ATOM     54  C   UNL     1     -11.751  -3.827   9.243  1.00  0.00     0.031 C 
ATOM     55  C   UNL     1     -12.054   0.986  12.936  1.00  0.00     0.029 A 
ATOM     56  C   UNL     1     -11.783   0.167  11.851  1.00  0.00     0.049 A 
ATOM     57  H   UNL     1     -10.693   0.605  10.098  1.00  0.00     0.167 HD
ATOM     58  C   UNL     1     -11.854  -1.948  10.553  1.00  0.00     0.074 A 
ATOM     59  C   UNL     1     -12.252  -3.327  10.363  1.00  0.00     0.031 C 
ATOM     60  C   UNL     1     -12.176  -1.203  11.640  1.00  0.00     0.037 A 
BRANCH  47  61
ATOM     61  C   UNL     1      -9.996   4.586  11.476  1.00  0.00     0.064 A 
ATOM     62  C   UNL     1     -10.619   5.740  10.975  1.00  0.00     0.173 A 
ATOM     63  C   UNL     1      -9.241   4.710  12.652  1.00  0.00     0.173 A 
ATOM     64  F   UNL     1     -11.342   5.682   9.846  1.00  0.00    -0.203 F 
ATOM     65  C   UNL     1     -10.458   6.974  11.601  1.00  0.00     0.198 A 
ATOM     66  C   UNL     1      -9.113   5.939  13.296  1.00  0.00     0.198 A 
ATOM     67  F   UNL     1      -8.627   3.640  13.179  1.00  0.00    -0.203 F 
ATOM     68  F   UNL     1     -11.009   8.072  11.065  1.00  0.00    -0.200 F 
ATOM     69  C   UNL     1      -9.712   7.071  12.765  1.00  0.00     0.200 A 
ATOM     70  F   UNL     1      -8.402   6.028  14.429  1.00  0.00    -0.200 F 
ATOM     71  F   UNL     1      -9.561   8.257  13.369  1.00  0.00    -0.200 F 
ENDBRANCH  47  61
BRANCH  48  72
ATOM     72  C   UNL     1     -10.480  -4.145   6.618  1.00  0.00     0.064 A 
ATOM     73  C   UNL     1     -11.691  -4.663   6.136  1.00  0.00     0.173 A 
ATOM     74  C   UNL     1      -9.318  -4.902   6.409  1.00  0.00     0.173 A 
ATOM     75  F   UNL     1     -12.832  -3.985   6.325  1.00  0.00    -0.203 F 
ATOM     76  C   UNL     1     -11.740  -5.900   5.495  1.00  0.00     0.198 A 
ATOM     77  C   UNL     1      -9.364  -6.123   5.740  1.00  0.00     0.198 A 
ATOM     78  F   UNL     1      -8.133  -4.447   6.841  1.00  0.00    -0.203 F 
ATOM     79  F   UNL     1     -12.918  -6.394   5.089  1.00  0.00    -0.200 F 
ATOM     80  C   UNL     1     -10.577  -6.626   5.292  1.00  0.00     0.200 A 
ATOM     81  F   UNL     1      -8.235  -6.813   5.530  1.00  0.00    -0.200 F 
ATOM     82  F   UNL     1     -10.624  -7.812   4.671  1.00  0.00    -0.200 F 
ENDBRANCH  48  72
BRANCH  60  83
ATOM     83  C   UNL     1     -13.040  -1.850  12.685  1.00  0.00     0.064 A 
ATOM     84  C   UNL     1     -12.563  -2.883  13.506  1.00  0.00     0.173 A 
ATOM     85  C   UNL     1     -14.358  -1.410  12.883  1.00  0.00     0.173 A 
ATOM     86  F   UNL     1     -11.315  -3.349  13.349  1.00  0.00    -0.203 F 
ATOM     87  C   UNL     1     -13.385  -3.475  14.461  1.00  0.00     0.198 A 
ATOM     88  C   UNL     1     -15.165  -1.980  13.863  1.00  0.00     0.198 A 
ATOM     89  F   UNL     1     -14.861  -0.419  12.132  1.00  0.00    -0.203 F 
ATOM     90  F   UNL     1     -12.927  -4.501  15.192  1.00  0.00    -0.200 F 
ATOM     91  C   UNL     1     -14.682  -3.019  14.643  1.00  0.00     0.200 A 
ATOM     92  F   UNL     1     -16.412  -1.526  14.050  1.00  0.00    -0.200 F 
ATOM     93  F   UNL     1     -15.470  -3.588  15.566  1.00  0.00    -0.200 F 
ENDBRANCH  60  83
ENDBRANCH  34  35
ENDBRANCH  26  29
ENDBRANCH  24  25
ENDBRANCH   1  24
TORSDOF 14
