REMARK SMILES O=C(NCCCNC(=O)c1ccc(NC(=O)c2ccc([N+](=O)[O-])cc2Cl)cc1Cl)c1ccc(-c2c3nc(c(-c4c(F)c(F)c(F)c(F)c4F)c4ccc([nH]4)c(-c4c(F)c(F)c(F)c(F)c4F)c4nc(c(-c5c(F)c(F)c(F)c(F)c5F)c5ccc2[nH]5)C=C4)C=C3)cc1
REMARK SMILES IDX 5 1 4 2 3 3 1 4 2 5 30 7 31 8 92 9 32 10 91 11 33 12 34 13
REMARK SMILES IDX 35 14 85 15 36 16 90 17 84 18 86 19 37 20 89 21 83 22 82 23
REMARK SMILES IDX 38 25 70 26 50 27 69 28 51 29 54 30 68 31 87 32 52 33 53 34
REMARK SMILES IDX 67 36 88 37 55 38 39 39 40 40 48 41 41 42 42 43 46 44 49 45
REMARK SMILES IDX 43 46 44 47 47 48 45 49 71 50 72 51 80 52 73 53 74 54 78 55
REMARK SMILES IDX 81 56 75 57 76 58 79 59 77 60 56 61 57 62 65 63 58 64 59 65
REMARK SMILES IDX 63 66 66 67 60 68 61 69 64 70 62 71 6 72 7 73 8 74 9 76
REMARK SMILES IDX 10 77 11 78 28 79 12 80 27 81 29 82 13 83 14 84 15 85 16 87
REMARK SMILES IDX 17 88 18 89 25 90 19 91 24 92 26 93 20 94 21 95 22 96 23 97
REMARK H PARENT 3 6 86 24 54 35 7 75 14 86
REMARK Flexibility Score: inf
ROOT
ATOM      1  C   UNL     1       4.964   1.026   2.165  1.00  0.00     0.042 C 
ENDROOT
BRANCH   1   2
ATOM      2  C   UNL     1       4.523  -0.143   1.298  1.00  0.00     0.118 C 
BRANCH   2   3
ATOM      3  N   UNL     1       3.084  -0.189   1.074  1.00  0.00    -0.352 N 
ATOM      4  O   UNL     1       1.124   0.047  -0.009  1.00  0.00    -0.269 OA
ATOM      5  C   UNL     1       2.350  -0.015  -0.073  1.00  0.00     0.251 C 
ATOM      6  H   UNL     1       2.550  -0.376   1.879  1.00  0.00     0.163 HD
BRANCH   5   7
ATOM      7  C   UNL     1       3.020   0.128  -1.383  1.00  0.00     0.039 A 
ATOM      8  C   UNL     1       4.112  -0.671  -1.723  1.00  0.00     0.014 A 
ATOM      9  C   UNL     1       2.531   1.064  -2.301  1.00  0.00     0.014 A 
ATOM     10  C   UNL     1       4.820  -0.416  -2.890  1.00  0.00     0.010 A 
ATOM     11  C   UNL     1       3.180   1.244  -3.526  1.00  0.00     0.010 A 
ATOM     12  C   UNL     1       4.352   0.530  -3.815  1.00  0.00    -0.014 A 
BRANCH  12  13
ATOM     13  C   UNL     1       5.072   0.697  -5.103  1.00  0.00     0.031 A 
ATOM     14  C   UNL     1       5.731   1.997  -5.467  1.00  0.00     0.074 A 
ATOM     15  C   UNL     1       5.148  -0.359  -5.937  1.00  0.00     0.049 A 
ATOM     16  N   UNL     1       6.410   2.302  -6.545  1.00  0.00    -0.248 NA
ATOM     17  C   UNL     1       5.605   3.102  -4.506  1.00  0.00     0.031 C 
ATOM     18  C   UNL     1       4.529  -1.665  -5.696  1.00  0.00     0.029 A 
ATOM     19  N   UNL     1       5.787  -0.512  -7.140  1.00  0.00    -0.354 N 
ATOM     20  C   UNL     1       6.772   3.635  -6.403  1.00  0.00     0.074 A 
ATOM     21  C   UNL     1       6.218   4.090  -5.145  1.00  0.00     0.031 C 
ATOM     22  C   UNL     1       4.856  -2.497  -6.693  1.00  0.00     0.029 A 
ATOM     23  C   UNL     1       5.648  -1.768  -7.676  1.00  0.00     0.049 A 
ATOM     24  H   UNL     1       6.295   0.209  -7.577  1.00  0.00     0.167 HD
ATOM     25  C   UNL     1       7.506   4.404  -7.245  1.00  0.00     0.037 A 
ATOM     26  C   UNL     1       6.090  -2.275  -8.841  1.00  0.00     0.037 A 
ATOM     27  C   UNL     1       8.071   3.936  -8.485  1.00  0.00     0.049 A 
ATOM     28  C   UNL     1       6.892  -1.398  -9.757  1.00  0.00     0.074 A 
ATOM     29  C   UNL     1       8.870   4.622  -9.383  1.00  0.00     0.029 A 
ATOM     30  N   UNL     1       7.890   2.662  -9.006  1.00  0.00    -0.354 N 
ATOM     31  N   UNL     1       7.261  -0.151  -9.591  1.00  0.00    -0.248 NA
ATOM     32  C   UNL     1       7.336  -1.996 -11.022  1.00  0.00     0.031 C 
ATOM     33  C   UNL     1       9.132   3.780 -10.470  1.00  0.00     0.029 A 
ATOM     34  C   UNL     1       8.540   2.552 -10.226  1.00  0.00     0.049 A 
ATOM     35  H   UNL     1       7.376   1.942  -8.573  1.00  0.00     0.167 HD
ATOM     36  C   UNL     1       7.987   0.184 -10.724  1.00  0.00     0.074 A 
ATOM     37  C   UNL     1       8.028  -1.001 -11.558  1.00  0.00     0.031 C 
ATOM     38  C   UNL     1       8.563   1.367 -11.046  1.00  0.00     0.037 A 
BRANCH  25  39
ATOM     39  C   UNL     1       7.725   5.840  -6.866  1.00  0.00     0.064 A 
ATOM     40  C   UNL     1       8.576   6.207  -5.813  1.00  0.00     0.173 A 
ATOM     41  C   UNL     1       7.110   6.868  -7.598  1.00  0.00     0.173 A 
ATOM     42  F   UNL     1       9.182   5.264  -5.074  1.00  0.00    -0.203 F 
ATOM     43  C   UNL     1       8.783   7.547  -5.491  1.00  0.00     0.198 A 
ATOM     44  C   UNL     1       7.340   8.207  -7.291  1.00  0.00     0.198 A 
ATOM     45  F   UNL     1       6.292   6.574  -8.620  1.00  0.00    -0.203 F 
ATOM     46  F   UNL     1       9.567   7.871  -4.453  1.00  0.00    -0.200 F 
ATOM     47  C   UNL     1       8.171   8.545  -6.234  1.00  0.00     0.200 A 
ATOM     48  F   UNL     1       6.757   9.170  -8.018  1.00  0.00    -0.200 F 
ATOM     49  F   UNL     1       8.377   9.833  -5.927  1.00  0.00    -0.200 F 
ENDBRANCH  25  39
BRANCH  26  50
ATOM     50  C   UNL     1       5.765  -3.679  -9.197  1.00  0.00     0.064 A 
ATOM     51  C   UNL     1       6.757  -4.667  -9.226  1.00  0.00     0.173 A 
ATOM     52  C   UNL     1       4.447  -4.066  -9.483  1.00  0.00     0.173 A 
ATOM     53  F   UNL     1       8.034  -4.341  -8.976  1.00  0.00    -0.203 F 
ATOM     54  C   UNL     1       6.444  -5.989  -9.535  1.00  0.00     0.198 A 
ATOM     55  C   UNL     1       4.131  -5.393  -9.762  1.00  0.00     0.198 A 
ATOM     56  F   UNL     1       3.460  -3.158  -9.460  1.00  0.00    -0.203 F 
ATOM     57  F   UNL     1       7.416  -6.910  -9.589  1.00  0.00    -0.200 F 
ATOM     58  C   UNL     1       5.130  -6.352  -9.794  1.00  0.00     0.200 A 
ATOM     59  F   UNL     1       2.858  -5.742  -9.992  1.00  0.00    -0.200 F 
ATOM     60  F   UNL     1       4.829  -7.627 -10.078  1.00  0.00    -0.200 F 
ENDBRANCH  26  50
BRANCH  38  61
ATOM     61  C   UNL     1       9.300   1.430 -12.351  1.00  0.00     0.064 A 
ATOM     62  C   UNL     1       8.618   1.446 -13.577  1.00  0.00     0.173 A 
ATOM     63  C   UNL     1      10.701   1.500 -12.374  1.00  0.00     0.173 A 
ATOM     64  F   UNL     1       7.280   1.361 -13.606  1.00  0.00    -0.203 F 
ATOM     65  C   UNL     1       9.315   1.504 -14.781  1.00  0.00     0.198 A 
ATOM     66  C   UNL     1      11.392   1.587 -13.579  1.00  0.00     0.198 A 
ATOM     67  F   UNL     1      11.398   1.492 -11.228  1.00  0.00    -0.203 F 
ATOM     68  F   UNL     1       8.647   1.468 -15.942  1.00  0.00    -0.200 F 
ATOM     69  C   UNL     1      10.700   1.581 -14.781  1.00  0.00     0.200 A 
ATOM     70  F   UNL     1      12.730   1.672 -13.577  1.00  0.00    -0.200 F 
ATOM     71  F   UNL     1      11.369   1.640 -15.940  1.00  0.00    -0.200 F 
ENDBRANCH  38  61
ENDBRANCH  12  13
ENDBRANCH   5   7
ENDBRANCH   2   3
ENDBRANCH   1   2
BRANCH   1  72
ATOM     72  C   UNL     1       4.374   1.037   3.566  1.00  0.00     0.118 C 
BRANCH  72  73
ATOM     73  N   UNL     1       4.640  -0.178   4.320  1.00  0.00    -0.352 N 
ATOM     74  C   UNL     1       5.109  -0.336   5.599  1.00  0.00     0.252 C 
ATOM     75  H   UNL     1       4.455  -1.016   3.838  1.00  0.00     0.163 HD
ATOM     76  O   UNL     1       5.297  -1.464   6.046  1.00  0.00    -0.269 OA
BRANCH  74  77
ATOM     77  C   UNL     1       5.503   0.834   6.405  1.00  0.00     0.058 A 
ATOM     78  C   UNL     1       6.813   0.832   6.889  1.00  0.00     0.017 A 
ATOM     79  C   UNL     1       4.664   1.903   6.718  1.00  0.00     0.055 A 
ATOM     80  C   UNL     1       7.311   1.943   7.572  1.00  0.00     0.027 A 
ATOM     81  C   UNL     1       5.197   3.043   7.337  1.00  0.00     0.047 A 
ATOM     82  Cl  UNL     1       2.965   1.881   6.412  1.00  0.00    -0.083 Cl
ATOM     83  C   UNL     1       6.544   3.098   7.716  1.00  0.00     0.043 A 
BRANCH  83  84
ATOM     84  N   UNL     1       7.014   4.333   8.209  1.00  0.00    -0.322 N 
ATOM     85  C   UNL     1       8.269   4.821   8.502  1.00  0.00     0.257 C 
ATOM     86  H   UNL     1       6.295   4.982   8.379  1.00  0.00     0.170 HD
ATOM     87  O   UNL     1       8.402   5.951   8.967  1.00  0.00    -0.269 OA
BRANCH  85  88
ATOM     88  C   UNL     1       9.478   4.012   8.315  1.00  0.00     0.059 A 
ATOM     89  C   UNL     1      10.082   3.508   9.477  1.00  0.00     0.022 A 
ATOM     90  C   UNL     1       9.983   3.688   7.049  1.00  0.00     0.060 A 
ATOM     91  C   UNL     1      11.128   2.592   9.373  1.00  0.00     0.086 A 
ATOM     92  C   UNL     1      11.024   2.761   6.940  1.00  0.00     0.107 A 
ATOM     93  Cl  UNL     1       9.315   4.335   5.595  1.00  0.00    -0.083 Cl
ATOM     94  C   UNL     1      11.571   2.197   8.103  1.00  0.00     0.270 A 
BRANCH  94  95
ATOM     95  N   UNL     1      12.581   1.138   7.988  1.00  0.00     0.062 N 
ATOM     96  O   UNL     1      13.186   0.808   9.017  1.00  0.00    -0.258 OA
ATOM     97  O   UNL     1      12.742   0.623   6.874  1.00  0.00    -0.258 OA
ENDBRANCH  94  95
ENDBRANCH  85  88
ENDBRANCH  83  84
ENDBRANCH  74  77
ENDBRANCH  72  73
ENDBRANCH   1  72
TORSDOF 13
