REMARK SMILES COc1cccc(-c2cc(OCC(=O)NCCCNC(=O)c3ccc(-c4c5nc(c(-c6c(F)c(F)c(F)c(F)c6F)c6ccc([nH]6)c(-c6c(F)c(F)c(F)c(F)c6F)c6nc(c(-c7c(F)c(F)c(F)c(F)c7F)c7ccc4[nH]7)C=C6)C=C5)cc3)nc(Nc3ccccc3Br)n2)c1
REMARK SMILES IDX 16 1 15 2 13 3 14 4 12 6 11 7 10 8 8 9 9 10 95 11 86 12
REMARK SMILES IDX 85 13 7 14 3 15 4 16 96 17 5 18 6 19 2 20 1 21 87 22 88 24
REMARK SMILES IDX 89 25 93 26 90 27 92 28 94 29 91 30 17 31 18 32 19 33 20 34
REMARK SMILES IDX 21 36 22 37 23 38 84 39 24 40 83 41 25 42 26 43 27 44 77 45
REMARK SMILES IDX 28 46 82 47 76 48 78 49 29 50 81 51 75 52 74 53 30 55 62 56
REMARK SMILES IDX 42 57 61 58 43 59 46 60 60 61 79 62 44 63 45 64 59 66 80 67
REMARK SMILES IDX 47 68 31 69 32 70 40 71 33 72 34 73 38 74 41 75 35 76 36 77
REMARK SMILES IDX 39 78 37 79 63 80 64 81 72 82 65 83 66 84 70 85 73 86 67 87
REMARK SMILES IDX 68 88 71 89 69 90 48 91 49 92 57 93 50 94 51 95 55 96 58 97
REMARK SMILES IDX 52 98 53 99 56 100 54 101
REMARK H PARENT 15 5 87 23 19 35 78 54 46 65
REMARK Flexibility Score: inf
ROOT
ATOM      1  C   UNL     1       8.441  -0.495   1.150  1.00  0.00     0.117 C 
ENDROOT
BRANCH   1   2
ATOM      2  N   UNL     1       7.136  -0.008   1.552  1.00  0.00    -0.353 N 
ATOM      3  C   UNL     1       6.387  -0.388   2.624  1.00  0.00     0.258 C 
ATOM      4  O   UNL     1       5.293   0.151   2.798  1.00  0.00    -0.271 OA
ATOM      5  H   UNL     1       6.741   0.685   0.976  1.00  0.00     0.163 HD
BRANCH   3   6
ATOM      6  C   UNL     1       6.917  -1.459   3.587  1.00  0.00     0.331 C 
BRANCH   6   7
ATOM      7  O   UNL     1       7.147  -2.745   3.033  1.00  0.00    -0.467 OA
BRANCH   7   8
ATOM      8  C   UNL     1       6.062  -3.458   2.600  1.00  0.00     0.219 A 
ATOM      9  C   UNL     1       3.809  -3.859   2.143  1.00  0.00     0.080 A 
ATOM     10  C   UNL     1       4.759  -3.054   2.726  1.00  0.00     0.097 A 
ATOM     11  N   UNL     1       4.122  -5.011   1.536  1.00  0.00    -0.212 NA
ATOM     12  C   UNL     1       5.417  -5.348   1.469  1.00  0.00     0.231 A 
ATOM     13  N   UNL     1       6.404  -4.609   1.995  1.00  0.00    -0.177 NA
BRANCH   9  14
ATOM     14  C   UNL     1       2.397  -3.470   2.125  1.00  0.00     0.004 A 
ATOM     15  C   UNL     1       0.677  -1.829   1.578  1.00  0.00     0.119 A 
ATOM     16  C   UNL     1      -0.268  -2.615   2.235  1.00  0.00     0.046 A 
ATOM     17  C   UNL     1       2.005  -2.253   1.533  1.00  0.00     0.056 A 
ATOM     18  C   UNL     1       0.095  -3.839   2.799  1.00  0.00     0.005 A 
ATOM     19  C   UNL     1       1.420  -4.269   2.733  1.00  0.00     0.010 A 
BRANCH  15  20
ATOM     20  O   UNL     1       0.211  -0.649   1.068  1.00  0.00    -0.497 OA
ATOM     21  C   UNL     1       0.924  -0.130  -0.049  1.00  0.00     0.278 C 
ENDBRANCH  15  20
ENDBRANCH   9  14
BRANCH  12  22
ATOM     22  N   UNL     1       5.779  -6.544   0.853  1.00  0.00    -0.323 N 
ATOM     23  H   UNL     1       6.727  -6.800   0.922  1.00  0.00     0.170 HD
BRANCH  22  24
ATOM     24  C   UNL     1       4.948  -7.424   0.146  1.00  0.00     0.055 A 
ATOM     25  C   UNL     1       4.815  -8.739   0.622  1.00  0.00     0.027 A 
ATOM     26  C   UNL     1       4.157  -7.037  -0.954  1.00  0.00     0.041 A 
ATOM     27  C   UNL     1       3.901  -9.627   0.046  1.00  0.00     0.002 A 
ATOM     28  C   UNL     1       3.243  -7.927  -1.529  1.00  0.00     0.018 A 
ATOM     29  Br  UNL     1       4.359  -5.345  -1.810  1.00  0.00    -0.049 Br
ATOM     30  C   UNL     1       3.108  -9.217  -1.022  1.00  0.00     0.001 A 
ENDBRANCH  22  24
ENDBRANCH  12  22
ENDBRANCH   7   8
ENDBRANCH   6   7
ENDBRANCH   3   6
ENDBRANCH   1   2
BRANCH   1  31
ATOM     31  C   UNL     1       8.373  -1.389  -0.082  1.00  0.00     0.042 C 
BRANCH  31  32
ATOM     32  C   UNL     1       7.825  -0.701  -1.328  1.00  0.00     0.118 C 
BRANCH  32  33
ATOM     33  N   UNL     1       8.633   0.434  -1.760  1.00  0.00    -0.352 N 
ATOM     34  C   UNL     1       9.282   0.656  -2.950  1.00  0.00     0.251 C 
ATOM     35  H   UNL     1       8.729   1.153  -1.094  1.00  0.00     0.163 HD
ATOM     36  O   UNL     1      10.050   1.609  -3.062  1.00  0.00    -0.269 OA
BRANCH  34  37
ATOM     37  C   UNL     1       9.079  -0.260  -4.090  1.00  0.00     0.039 A 
ATOM     38  C   UNL     1      10.189  -0.694  -4.821  1.00  0.00     0.014 A 
ATOM     39  C   UNL     1       7.797  -0.691  -4.439  1.00  0.00     0.014 A 
ATOM     40  C   UNL     1      10.022  -1.629  -5.846  1.00  0.00     0.010 A 
ATOM     41  C   UNL     1       7.642  -1.678  -5.406  1.00  0.00     0.010 A 
ATOM     42  C   UNL     1       8.752  -2.164  -6.115  1.00  0.00    -0.014 A 
BRANCH  42  43
ATOM     43  C   UNL     1       8.543  -3.230  -7.128  1.00  0.00     0.031 A 
ATOM     44  C   UNL     1       7.669  -2.962  -8.321  1.00  0.00     0.074 A 
ATOM     45  C   UNL     1       9.058  -4.459  -6.927  1.00  0.00     0.049 A 
ATOM     46  N   UNL     1       7.215  -3.796  -9.222  1.00  0.00    -0.248 NA
ATOM     47  C   UNL     1       7.226  -1.571  -8.511  1.00  0.00     0.031 C 
ATOM     48  C   UNL     1       9.911  -4.849  -5.804  1.00  0.00     0.029 A 
ATOM     49  N   UNL     1       8.917  -5.618  -7.652  1.00  0.00    -0.354 N 
ATOM     50  C   UNL     1       6.426  -3.035 -10.074  1.00  0.00     0.074 A 
ATOM     51  C   UNL     1       6.418  -1.685  -9.556  1.00  0.00     0.031 C 
ATOM     52  C   UNL     1      10.224  -6.150  -5.919  1.00  0.00     0.029 A 
ATOM     53  C   UNL     1       9.549  -6.701  -7.090  1.00  0.00     0.049 A 
ATOM     54  H   UNL     1       8.411  -5.667  -8.495  1.00  0.00     0.167 HD
ATOM     55  C   UNL     1       5.785  -3.425 -11.202  1.00  0.00     0.037 A 
ATOM     56  C   UNL     1       9.559  -7.996  -7.462  1.00  0.00     0.037 A 
ATOM     57  C   UNL     1       5.805  -4.767 -11.719  1.00  0.00     0.049 A 
ATOM     58  C   UNL     1       8.781  -8.414  -8.684  1.00  0.00     0.074 A 
ATOM     59  C   UNL     1       5.198  -5.260 -12.861  1.00  0.00     0.029 A 
ATOM     60  N   UNL     1       6.469  -5.831 -11.127  1.00  0.00    -0.354 N 
ATOM     61  N   UNL     1       8.067  -7.680  -9.503  1.00  0.00    -0.248 NA
ATOM     62  C   UNL     1       8.810  -9.842  -9.035  1.00  0.00     0.031 C 
ATOM     63  C   UNL     1       5.457  -6.631 -12.937  1.00  0.00     0.029 A 
ATOM     64  C   UNL     1       6.277  -6.980 -11.876  1.00  0.00     0.049 A 
ATOM     65  H   UNL     1       6.997  -5.777 -10.298  1.00  0.00     0.167 HD
ATOM     66  C   UNL     1       7.610  -8.544 -10.490  1.00  0.00     0.074 A 
ATOM     67  C   UNL     1       8.123  -9.858 -10.168  1.00  0.00     0.031 C 
ATOM     68  C   UNL     1       6.837  -8.270 -11.568  1.00  0.00     0.037 A 
BRANCH  55  69
ATOM     69  C   UNL     1       5.014  -2.385 -11.962  1.00  0.00     0.064 A 
ATOM     70  C   UNL     1       5.666  -1.355 -12.657  1.00  0.00     0.173 A 
ATOM     71  C   UNL     1       3.616  -2.451 -12.049  1.00  0.00     0.173 A 
ATOM     72  F   UNL     1       7.002  -1.241 -12.599  1.00  0.00    -0.203 F 
ATOM     73  C   UNL     1       4.945  -0.417 -13.391  1.00  0.00     0.198 A 
ATOM     74  C   UNL     1       2.900  -1.531 -12.810  1.00  0.00     0.198 A 
ATOM     75  F   UNL     1       2.943  -3.420 -11.410  1.00  0.00    -0.203 F 
ATOM     76  F   UNL     1       5.587   0.583 -14.011  1.00  0.00    -0.200 F 
ATOM     77  C   UNL     1       3.565  -0.512 -13.475  1.00  0.00     0.200 A 
ATOM     78  F   UNL     1       1.567  -1.634 -12.905  1.00  0.00    -0.200 F 
ATOM     79  F   UNL     1       2.873   0.383 -14.195  1.00  0.00    -0.200 F 
ENDBRANCH  55  69
BRANCH  56  80
ATOM     80  C   UNL     1      10.330  -9.001  -6.681  1.00  0.00     0.064 A 
ATOM     81  C   UNL     1      11.435  -9.654  -7.246  1.00  0.00     0.173 A 
ATOM     82  C   UNL     1       9.957  -9.365  -5.379  1.00  0.00     0.173 A 
ATOM     83  F   UNL     1      11.820  -9.358  -8.496  1.00  0.00    -0.203 F 
ATOM     84  C   UNL     1      12.113 -10.656  -6.555  1.00  0.00     0.198 A 
ATOM     85  C   UNL     1      10.658 -10.343  -4.674  1.00  0.00     0.198 A 
ATOM     86  F   UNL     1       8.911  -8.770  -4.787  1.00  0.00    -0.203 F 
ATOM     87  F   UNL     1      13.122 -11.310  -7.146  1.00  0.00    -0.200 F 
ATOM     88  C   UNL     1      11.726 -10.998  -5.268  1.00  0.00     0.200 A 
ATOM     89  F   UNL     1      10.290 -10.659  -3.425  1.00  0.00    -0.200 F 
ATOM     90  F   UNL     1      12.372 -11.967  -4.606  1.00  0.00    -0.200 F 
ENDBRANCH  56  80
BRANCH  68  91
ATOM     91  C   UNL     1       6.567  -9.383 -12.539  1.00  0.00     0.064 A 
ATOM     92  C   UNL     1       5.688 -10.433 -12.241  1.00  0.00     0.173 A 
ATOM     93  C   UNL     1       7.135  -9.344 -13.822  1.00  0.00     0.173 A 
ATOM     94  F   UNL     1       5.130 -10.523 -11.024  1.00  0.00    -0.203 F 
ATOM     95  C   UNL     1       5.394 -11.409 -13.190  1.00  0.00     0.198 A 
ATOM     96  C   UNL     1       6.816 -10.304 -14.777  1.00  0.00     0.198 A 
ATOM     97  F   UNL     1       7.978  -8.356 -14.159  1.00  0.00    -0.203 F 
ATOM     98  F   UNL     1       4.576 -12.422 -12.874  1.00  0.00    -0.200 F 
ATOM     99  C   UNL     1       5.948 -11.337 -14.460  1.00  0.00     0.200 A 
ATOM    100  F   UNL     1       7.338 -10.221 -16.009  1.00  0.00    -0.200 F 
ATOM    101  F   UNL     1       5.646 -12.265 -15.378  1.00  0.00    -0.200 F 
ENDBRANCH  68  91
ENDBRANCH  42  43
ENDBRANCH  34  37
ENDBRANCH  32  33
ENDBRANCH  31  32
ENDBRANCH   1  31
TORSDOF 16
