REMARK SMILES CCn1cc(/C=C/c2cc(C(=O)NCCCNC(=O)c3ccc(-c4c5nc(c(-c6c(F)c(F)c(F)c(F)c6F)c6ccc([nH]6)c(-c6c(F)c(F)c(F)c(F)c6F)c6nc(c(-c7c(F)c(F)c(F)c(F)c7F)c7ccc4[nH]7)C=C6)C=C5)cc3)ncn2)cn1
REMARK SMILES IDX 14 1 13 2 11 3 12 4 10 6 8 7 9 8 85 9 84 10 83 11 7 12 6 13
REMARK SMILES IDX 5 14 3 15 4 16 87 17 86 18 2 19 1 20 15 21 16 22 17 23 18 24
REMARK SMILES IDX 19 26 20 27 21 28 82 29 22 30 81 31 23 32 24 33 25 34 75 35
REMARK SMILES IDX 26 36 80 37 74 38 76 39 27 40 79 41 73 42 72 43 28 45 60 46
REMARK SMILES IDX 40 47 59 48 41 49 44 50 58 51 77 52 42 53 43 54 57 56 78 57
REMARK SMILES IDX 45 58 29 59 30 60 38 61 31 62 32 63 36 64 39 65 33 66 34 67
REMARK SMILES IDX 37 68 35 69 61 70 62 71 70 72 63 73 64 74 68 75 71 76 65 77
REMARK SMILES IDX 66 78 69 79 67 80 46 81 47 82 55 83 48 84 49 85 53 86 56 87
REMARK SMILES IDX 50 88 51 89 54 90 52 91
REMARK H PARENT 13 5 17 25 76 44 44 55
REMARK Flexibility Score: inf
ROOT
ATOM      1  C   UNL     1      -1.433   8.098   3.820  1.00  0.00     0.118 C 
ENDROOT
BRANCH   1   2
ATOM      2  N   UNL     1      -1.209   9.538   3.806  1.00  0.00    -0.351 N 
ATOM      3  C   UNL     1      -0.445  10.359   2.996  1.00  0.00     0.270 C 
ATOM      4  O   UNL     1      -0.530  11.571   3.199  1.00  0.00    -0.268 OA
ATOM      5  H   UNL     1      -1.696  10.021   4.512  1.00  0.00     0.163 HD
BRANCH   3   6
ATOM      6  C   UNL     1       0.429   9.840   1.888  1.00  0.00     0.132 A 
ATOM      7  C   UNL     1       1.550   8.141   0.737  1.00  0.00     0.067 A 
ATOM      8  C   UNL     1       0.936   8.568   1.891  1.00  0.00     0.062 A 
ATOM      9  N   UNL     1       1.826   8.960  -0.285  1.00  0.00    -0.237 NA
ATOM     10  C   UNL     1       1.387  10.220  -0.150  1.00  0.00     0.223 A 
ATOM     11  N   UNL     1       0.670  10.699   0.874  1.00  0.00    -0.231 NA
BRANCH   7  12
ATOM     12  C   UNL     1       1.913   6.729   0.592  1.00  0.00     0.029 C 
ATOM     13  C   UNL     1       1.032   5.748   0.867  1.00  0.00     0.013 C 
BRANCH  13  14
ATOM     14  C   UNL     1       1.303   4.353   0.855  1.00  0.00     0.013 A 
ATOM     15  N   UNL     1       1.050   2.179   0.975  1.00  0.00    -0.272 N 
ATOM     16  C   UNL     1       0.363   3.361   1.025  1.00  0.00     0.116 A 
ATOM     17  N   UNL     1       2.379   2.345   0.829  1.00  0.00    -0.181 NA
ATOM     18  C   UNL     1       2.526   3.668   0.729  1.00  0.00     0.143 A 
BRANCH  15  19
ATOM     19  C   UNL     1       0.500   0.843   1.105  1.00  0.00     0.141 C 
ATOM     20  C   UNL     1       0.880  -0.068  -0.051  1.00  0.00     0.029 C 
ENDBRANCH  15  19
ENDBRANCH  13  14
ENDBRANCH   7  12
ENDBRANCH   3   6
ENDBRANCH   1   2
BRANCH   1  21
ATOM     21  C   UNL     1      -0.485   7.378   4.792  1.00  0.00     0.042 C 
BRANCH  21  22
ATOM     22  C   UNL     1      -1.043   7.314   6.202  1.00  0.00     0.118 C 
BRANCH  22  23
ATOM     23  N   UNL     1      -2.168   6.383   6.306  1.00  0.00    -0.352 N 
ATOM     24  C   UNL     1      -2.976   6.120   7.397  1.00  0.00     0.251 C 
ATOM     25  H   UNL     1      -2.377   5.875   5.489  1.00  0.00     0.163 HD
ATOM     26  O   UNL     1      -3.636   5.100   7.458  1.00  0.00    -0.269 OA
BRANCH  24  27
ATOM     27  C   UNL     1      -3.015   7.104   8.492  1.00  0.00     0.039 A 
ATOM     28  C   UNL     1      -3.017   6.701   9.832  1.00  0.00     0.014 A 
ATOM     29  C   UNL     1      -3.002   8.450   8.150  1.00  0.00     0.014 A 
ATOM     30  C   UNL     1      -2.915   7.670  10.827  1.00  0.00     0.010 A 
ATOM     31  C   UNL     1      -2.720   9.380   9.111  1.00  0.00     0.010 A 
ATOM     32  C   UNL     1      -2.743   9.009  10.454  1.00  0.00    -0.014 A 
BRANCH  32  33
ATOM     33  C   UNL     1      -2.458  10.050  11.437  1.00  0.00     0.031 A 
ATOM     34  C   UNL     1      -1.232   9.829  12.259  1.00  0.00     0.074 A 
ATOM     35  C   UNL     1      -3.094  11.242  11.366  1.00  0.00     0.049 A 
ATOM     36  N   UNL     1      -1.129   9.847  13.547  1.00  0.00    -0.248 NA
ATOM     37  C   UNL     1       0.016   9.436  11.576  1.00  0.00     0.031 C 
ATOM     38  C   UNL     1      -4.126  11.655  10.404  1.00  0.00     0.029 A 
ATOM     39  N   UNL     1      -2.839  12.401  12.029  1.00  0.00    -0.354 N 
ATOM     40  C   UNL     1       0.221   9.653  13.835  1.00  0.00     0.074 A 
ATOM     41  C   UNL     1       0.843   9.242  12.605  1.00  0.00     0.031 C 
ATOM     42  C   UNL     1      -4.199  13.001  10.367  1.00  0.00     0.029 A 
ATOM     43  C   UNL     1      -3.344  13.539  11.406  1.00  0.00     0.049 A 
ATOM     44  H   UNL     1      -2.341  12.432  12.877  1.00  0.00     0.167 HD
ATOM     45  C   UNL     1       0.757  10.079  15.014  1.00  0.00     0.037 A 
ATOM     46  C   UNL     1      -3.032  14.828  11.693  1.00  0.00     0.037 A 
ATOM     47  C   UNL     1      -0.273  10.330  15.989  1.00  0.00     0.049 A 
ATOM     48  C   UNL     1      -2.443  14.835  13.057  1.00  0.00     0.074 A 
ATOM     49  C   UNL     1      -1.260   9.554  16.567  1.00  0.00     0.029 A 
ATOM     50  N   UNL     1      -0.639  11.633  16.223  1.00  0.00    -0.354 N 
ATOM     51  N   UNL     1      -3.124  14.557  14.135  1.00  0.00    -0.248 NA
ATOM     52  C   UNL     1      -1.000  14.668  13.171  1.00  0.00     0.031 C 
ATOM     53  C   UNL     1      -2.395  10.413  16.653  1.00  0.00     0.029 A 
ATOM     54  C   UNL     1      -2.010  11.678  16.207  1.00  0.00     0.049 A 
ATOM     55  H   UNL     1      -0.032  12.393  16.375  1.00  0.00     0.167 HD
ATOM     56  C   UNL     1      -2.272  13.770  14.895  1.00  0.00     0.074 A 
ATOM     57  C   UNL     1      -0.952  13.943  14.292  1.00  0.00     0.031 C 
ATOM     58  C   UNL     1      -2.764  12.815  15.739  1.00  0.00     0.037 A 
BRANCH  45  59
ATOM     59  C   UNL     1       2.157  10.623  15.177  1.00  0.00     0.064 A 
ATOM     60  C   UNL     1       2.628  10.924  16.473  1.00  0.00     0.173 A 
ATOM     61  C   UNL     1       2.924  11.153  14.117  1.00  0.00     0.173 A 
ATOM     62  F   UNL     1       1.974  10.481  17.557  1.00  0.00    -0.203 F 
ATOM     63  C   UNL     1       3.720  11.769  16.685  1.00  0.00     0.198 A 
ATOM     64  C   UNL     1       4.046  11.951  14.333  1.00  0.00     0.198 A 
ATOM     65  F   UNL     1       2.560  11.020  12.836  1.00  0.00    -0.203 F 
ATOM     66  F   UNL     1       4.044  12.137  17.932  1.00  0.00    -0.200 F 
ATOM     67  C   UNL     1       4.423  12.290  15.615  1.00  0.00     0.200 A 
ATOM     68  F   UNL     1       4.704  12.458  13.281  1.00  0.00    -0.200 F 
ATOM     69  F   UNL     1       5.426  13.154  15.813  1.00  0.00    -0.200 F 
ENDBRANCH  45  59
BRANCH  46  70
ATOM     70  C   UNL     1      -2.942  15.985  10.764  1.00  0.00     0.064 A 
ATOM     71  C   UNL     1      -2.835  17.298  11.252  1.00  0.00     0.173 A 
ATOM     72  C   UNL     1      -2.701  15.817   9.385  1.00  0.00     0.173 A 
ATOM     73  F   UNL     1      -3.007  17.548  12.559  1.00  0.00    -0.203 F 
ATOM     74  C   UNL     1      -2.481  18.368  10.421  1.00  0.00     0.198 A 
ATOM     75  C   UNL     1      -2.360  16.886   8.554  1.00  0.00     0.198 A 
ATOM     76  F   UNL     1      -2.699  14.599   8.826  1.00  0.00    -0.203 F 
ATOM     77  F   UNL     1      -2.325  19.594  10.939  1.00  0.00    -0.200 F 
ATOM     78  C   UNL     1      -2.235  18.159   9.074  1.00  0.00     0.200 A 
ATOM     79  F   UNL     1      -2.095  16.662   7.259  1.00  0.00    -0.200 F 
ATOM     80  F   UNL     1      -1.837  19.171   8.290  1.00  0.00    -0.200 F 
ENDBRANCH  46  70
BRANCH  58  81
ATOM     81  C   UNL     1      -4.244  12.796  16.006  1.00  0.00     0.064 A 
ATOM     82  C   UNL     1      -5.221  12.570  15.020  1.00  0.00     0.173 A 
ATOM     83  C   UNL     1      -4.680  12.840  17.337  1.00  0.00     0.173 A 
ATOM     84  F   UNL     1      -4.882  12.403  13.738  1.00  0.00    -0.203 F 
ATOM     85  C   UNL     1      -6.569  12.440  15.345  1.00  0.00     0.198 A 
ATOM     86  C   UNL     1      -6.022  12.671  17.665  1.00  0.00     0.198 A 
ATOM     87  F   UNL     1      -3.789  12.991  18.329  1.00  0.00    -0.203 F 
ATOM     88  F   UNL     1      -7.477  12.233  14.380  1.00  0.00    -0.200 F 
ATOM     89  C   UNL     1      -6.968  12.483  16.669  1.00  0.00     0.200 A 
ATOM     90  F   UNL     1      -6.396  12.658  18.951  1.00  0.00    -0.200 F 
ATOM     91  F   UNL     1      -8.258  12.312  16.989  1.00  0.00    -0.200 F 
ENDBRANCH  58  81
ENDBRANCH  32  33
ENDBRANCH  24  27
ENDBRANCH  22  23
ENDBRANCH  21  22
ENDBRANCH   1  21
TORSDOF 13
