REMARK SMILES O=C(NCCCNC(=O)[C@@H]1CN(c2nc(-c3ccccc3)no2)CC[NH2+]1)c1ccc(-c2c3nc(c(-c4c(F)c(F)c(F)c(F)c4F)c4ccc([nH]4)c(-c4c(F)c(F)c(F)c(F)c4F)c4nc(c(-c5c(F)c(F)c(F)c(F)c5F)c5ccc2[nH]5)C=C4)C=C3)cc1
REMARK SMILES IDX 5 1 4 2 3 3 1 4 2 5 27 7 28 8 89 9 29 10 88 11 30 12 31 13
REMARK SMILES IDX 32 14 82 15 33 16 87 17 81 18 83 19 34 20 86 21 80 22 79 23
REMARK SMILES IDX 35 25 67 26 47 27 66 28 48 29 51 30 65 31 84 32 49 33 50 34
REMARK SMILES IDX 64 36 85 37 52 38 36 39 37 40 45 41 38 42 39 43 43 44 46 45
REMARK SMILES IDX 40 46 41 47 44 48 42 49 68 50 69 51 77 52 70 53 71 54 75 55
REMARK SMILES IDX 78 56 72 57 73 58 76 59 74 60 53 61 54 62 62 63 55 64 56 65
REMARK SMILES IDX 60 66 63 67 57 68 58 69 61 70 59 71 6 72 7 73 8 74 9 76
REMARK SMILES IDX 10 77 11 78 26 79 12 80 25 81 24 84 13 85 14 86 23 87 15 88
REMARK SMILES IDX 22 89 16 90 17 91 21 92 18 93 20 94 19 95
REMARK H PARENT 3 6 83 24 51 35 7 75 26 82 26 83
REMARK Flexibility Score: inf
ROOT
ATOM      1  C   UNL     1       4.647  -0.381   2.465  1.00  0.00     0.042 C 
ENDROOT
BRANCH   1   2
ATOM      2  C   UNL     1       4.471  -0.988   1.077  1.00  0.00     0.118 C 
BRANCH   2   3
ATOM      3  N   UNL     1       3.063  -1.054   0.703  1.00  0.00    -0.352 N 
ATOM      4  O   UNL     1       1.124  -0.292  -0.135  1.00  0.00    -0.269 OA
ATOM      5  C   UNL     1       2.349  -0.301  -0.192  1.00  0.00     0.251 C 
ATOM      6  H   UNL     1       2.544  -1.750   1.167  1.00  0.00     0.163 HD
BRANCH   5   7
ATOM      7  C   UNL     1       3.042   0.484  -1.233  1.00  0.00     0.039 A 
ATOM      8  C   UNL     1       4.156  -0.036  -1.897  1.00  0.00     0.014 A 
ATOM      9  C   UNL     1       2.510   1.720  -1.617  1.00  0.00     0.014 A 
ATOM     10  C   UNL     1       4.803   0.720  -2.867  1.00  0.00     0.010 A 
ATOM     11  C   UNL     1       3.111   2.442  -2.649  1.00  0.00     0.010 A 
ATOM     12  C   UNL     1       4.268   1.951  -3.272  1.00  0.00    -0.014 A 
BRANCH  12  13
ATOM     13  C   UNL     1       4.879   2.676  -4.410  1.00  0.00     0.031 A 
ATOM     14  C   UNL     1       5.520   4.015  -4.211  1.00  0.00     0.074 A 
ATOM     15  C   UNL     1       4.821   2.120  -5.635  1.00  0.00     0.049 A 
ATOM     16  N   UNL     1       6.040   4.822  -5.101  1.00  0.00    -0.248 NA
ATOM     17  C   UNL     1       5.574   4.522  -2.832  1.00  0.00     0.031 C 
ATOM     18  C   UNL     1       4.205   0.827  -5.941  1.00  0.00     0.029 A 
ATOM     19  N   UNL     1       5.274   2.569  -6.848  1.00  0.00    -0.354 N 
ATOM     20  C   UNL     1       6.459   5.941  -4.396  1.00  0.00     0.074 A 
ATOM     21  C   UNL     1       6.115   5.720  -3.007  1.00  0.00     0.031 C 
ATOM     22  C   UNL     1       4.329   0.581  -7.252  1.00  0.00     0.029 A 
ATOM     23  C   UNL     1       4.975   1.724  -7.887  1.00  0.00     0.049 A 
ATOM     24  H   UNL     1       5.766   3.414  -6.962  1.00  0.00     0.167 HD
ATOM     25  C   UNL     1       7.077   7.049  -4.872  1.00  0.00     0.037 A 
ATOM     26  C   UNL     1       5.165   1.868  -9.211  1.00  0.00     0.037 A 
ATOM     27  C   UNL     1       7.423   7.246  -6.256  1.00  0.00     0.049 A 
ATOM     28  C   UNL     1       5.834   3.111  -9.717  1.00  0.00     0.074 A 
ATOM     29  C   UNL     1       8.100   8.306  -6.834  1.00  0.00     0.029 A 
ATOM     30  N   UNL     1       7.107   6.366  -7.283  1.00  0.00    -0.354 N 
ATOM     31  N   UNL     1       6.269   4.145  -9.039  1.00  0.00    -0.248 NA
ATOM     32  C   UNL     1       6.038   3.213 -11.168  1.00  0.00     0.031 C 
ATOM     33  C   UNL     1       8.148   8.091  -8.216  1.00  0.00     0.029 A 
ATOM     34  C   UNL     1       7.548   6.873  -8.495  1.00  0.00     0.049 A 
ATOM     35  H   UNL     1       6.638   5.508  -7.166  1.00  0.00     0.167 HD
ATOM     36  C   UNL     1       6.812   5.014  -9.973  1.00  0.00     0.074 A 
ATOM     37  C   UNL     1       6.661   4.380 -11.268  1.00  0.00     0.031 C 
ATOM     38  C   UNL     1       7.387   6.225  -9.773  1.00  0.00     0.037 A 
BRANCH  25  39
ATOM     39  C   UNL     1       7.387   8.143  -3.893  1.00  0.00     0.064 A 
ATOM     40  C   UNL     1       8.376   8.000  -2.908  1.00  0.00     0.173 A 
ATOM     41  C   UNL     1       6.691   9.361  -3.949  1.00  0.00     0.173 A 
ATOM     42  F   UNL     1       9.063   6.853  -2.803  1.00  0.00    -0.203 F 
ATOM     43  C   UNL     1       8.632   9.021  -1.996  1.00  0.00     0.198 A 
ATOM     44  C   UNL     1       6.969  10.390  -3.054  1.00  0.00     0.198 A 
ATOM     45  F   UNL     1       5.739   9.553  -4.874  1.00  0.00    -0.203 F 
ATOM     46  F   UNL     1       9.543   8.840  -1.029  1.00  0.00    -0.200 F 
ATOM     47  C   UNL     1       7.932  10.216  -2.071  1.00  0.00     0.200 A 
ATOM     48  F   UNL     1       6.299  11.548  -3.135  1.00  0.00    -0.200 F 
ATOM     49  F   UNL     1       8.178  11.196  -1.191  1.00  0.00    -0.200 F 
ENDBRANCH  25  39
BRANCH  26  50
ATOM     50  C   UNL     1       4.692   0.801 -10.128  1.00  0.00     0.064 A 
ATOM     51  C   UNL     1       5.595  -0.055 -10.769  1.00  0.00     0.173 A 
ATOM     52  C   UNL     1       3.321   0.572 -10.321  1.00  0.00     0.173 A 
ATOM     53  F   UNL     1       6.915   0.134 -10.624  1.00  0.00    -0.203 F 
ATOM     54  C   UNL     1       5.145  -1.104 -11.569  1.00  0.00     0.198 A 
ATOM     55  C   UNL     1       2.872  -0.492 -11.099  1.00  0.00     0.198 A 
ATOM     56  F   UNL     1       2.417   1.359  -9.719  1.00  0.00    -0.203 F 
ATOM     57  F   UNL     1       6.029  -1.900 -12.185  1.00  0.00    -0.200 F 
ATOM     58  C   UNL     1       3.785  -1.328 -11.724  1.00  0.00     0.200 A 
ATOM     59  F   UNL     1       1.558  -0.717 -11.229  1.00  0.00    -0.200 F 
ATOM     60  F   UNL     1       3.353  -2.351 -12.474  1.00  0.00    -0.200 F 
ENDBRANCH  26  50
BRANCH  38  61
ATOM     61  C   UNL     1       7.919   6.939 -10.979  1.00  0.00     0.064 A 
ATOM     62  C   UNL     1       7.065   7.567 -11.895  1.00  0.00     0.173 A 
ATOM     63  C   UNL     1       9.303   7.050 -11.181  1.00  0.00     0.173 A 
ATOM     64  F   UNL     1       5.734   7.473 -11.753  1.00  0.00    -0.203 F 
ATOM     65  C   UNL     1       7.578   8.277 -12.978  1.00  0.00     0.198 A 
ATOM     66  C   UNL     1       9.812   7.781 -12.250  1.00  0.00     0.198 A 
ATOM     67  F   UNL     1      10.159   6.468 -10.329  1.00  0.00    -0.203 F 
ATOM     68  F   UNL     1       6.745   8.846 -13.859  1.00  0.00    -0.200 F 
ATOM     69  C   UNL     1       8.950   8.391 -13.148  1.00  0.00     0.200 A 
ATOM     70  F   UNL     1      11.138   7.900 -12.407  1.00  0.00    -0.200 F 
ATOM     71  F   UNL     1       9.442   9.087 -14.182  1.00  0.00    -0.200 F 
ENDBRANCH  38  61
ENDBRANCH  12  13
ENDBRANCH   5   7
ENDBRANCH   2   3
ENDBRANCH   1   2
BRANCH   1  72
ATOM     72  C   UNL     1       4.100  -1.291   3.560  1.00  0.00     0.118 C 
BRANCH  72  73
ATOM     73  N   UNL     1       5.039  -2.353   3.894  1.00  0.00    -0.351 N 
ATOM     74  C   UNL     1       5.970  -2.573   4.858  1.00  0.00     0.280 C 
ATOM     75  H   UNL     1       4.985  -3.103   3.259  1.00  0.00     0.163 HD
ATOM     76  O   UNL     1       6.585  -3.642   4.723  1.00  0.00    -0.268 OA
BRANCH  74  77
ATOM     77  C   UNL     1       6.290  -1.639   6.060  1.00  0.00     0.292 C 
ATOM     78  C   UNL     1       5.540  -0.310   6.080  1.00  0.00     0.197 C 
ATOM     79  N   UNL     1       7.774  -1.441   6.148  1.00  0.00    -0.333 N 
ATOM     80  N   UNL     1       5.974   0.582   7.146  1.00  0.00    -0.312 N 
ATOM     81  C   UNL     1       8.102  -0.602   7.320  1.00  0.00     0.283 C 
ATOM     82  H   UNL     1       8.105  -0.981   5.300  1.00  0.00     0.347 HD
ATOM     83  H   UNL     1       8.229  -2.348   6.248  1.00  0.00     0.347 HD
ATOM     84  C   UNL     1       7.398   0.779   7.329  1.00  0.00     0.183 C 
BRANCH  80  85
ATOM     85  C   UNL     1       5.027   1.246   7.830  1.00  0.00     0.324 A 
ATOM     86  N   UNL     1       3.841   0.803   8.158  1.00  0.00    -0.171 NA
ATOM     87  O   UNL     1       5.218   2.558   8.162  1.00  0.00    -0.315 OA
ATOM     88  C   UNL     1       3.264   1.889   8.755  1.00  0.00     0.204 A 
ATOM     89  N   UNL     1       4.019   2.997   8.748  1.00  0.00    -0.055 NA
BRANCH  88  90
ATOM     90  C   UNL     1       1.978   1.766   9.407  1.00  0.00     0.023 A 
ATOM     91  C   UNL     1       0.836   2.388   8.893  1.00  0.00     0.012 A 
ATOM     92  C   UNL     1       1.875   0.957  10.547  1.00  0.00     0.012 A 
ATOM     93  C   UNL     1      -0.398   2.204   9.523  1.00  0.00     0.001 A 
ATOM     94  C   UNL     1       0.645   0.787  11.181  1.00  0.00     0.001 A 
ATOM     95  C   UNL     1      -0.490   1.410  10.668  1.00  0.00     0.000 A 
ENDBRANCH  88  90
ENDBRANCH  80  85
ENDBRANCH  74  77
ENDBRANCH  72  73
ENDBRANCH   1  72
TORSDOF 12
