REMARK SMILES CCc1cc2ccccc2c(=O)n1CC(=O)NCCCNC(=O)c1ccc(-c2c3nc(c(-c4c(F)c(F)c(F)c(F)c4F)c4ccc([nH]4)c(-c4c(F)c(F)c(F)c(F)c4F)c4nc(c(-c5c(F)c(F)c(F)c(F)c5F)c5ccc2[nH]5)C=C4)C=C3)cc1
REMARK SMILES IDX 19 1 18 2 17 3 15 4 16 5 14 7 13 8 3 9 4 10 5 11 11 12 6 13
REMARK SMILES IDX 10 14 12 15 7 16 9 17 8 18 2 19 1 20 20 21 21 22 22 23 23 25
REMARK SMILES IDX 24 26 25 27 86 28 26 29 85 30 27 31 28 32 29 33 79 34 30 35
REMARK SMILES IDX 84 36 78 37 80 38 31 39 83 40 77 41 76 42 32 44 64 45 44 46
REMARK SMILES IDX 63 47 45 48 48 49 62 50 81 51 46 52 47 53 61 55 82 56 49 57
REMARK SMILES IDX 33 58 34 59 42 60 35 61 36 62 40 63 43 64 37 65 38 66 41 67
REMARK SMILES IDX 39 68 65 69 66 70 74 71 67 72 68 73 72 74 75 75 69 76 70 77
REMARK SMILES IDX 73 78 71 79 50 80 51 81 59 82 52 83 53 84 57 85 60 86 54 87
REMARK SMILES IDX 55 88 58 89 56 90
REMARK H PARENT 17 6 21 24 80 43 48 54
REMARK Flexibility Score: inf
ROOT
ATOM      1  C   UNL     1       3.228  -3.481  -2.152  1.00  0.00     0.042 C 
ENDROOT
BRANCH   1   2
ATOM      2  C   UNL     1       1.936  -3.127  -2.871  1.00  0.00     0.117 C 
BRANCH   2   3
ATOM      3  N   UNL     1       1.033  -4.246  -3.017  1.00  0.00    -0.354 N 
ATOM      4  C   UNL     1      -0.162  -4.485  -2.401  1.00  0.00     0.240 C 
ATOM      5  O   UNL     1      -0.910  -5.301  -2.950  1.00  0.00    -0.273 OA
ATOM      6  H   UNL     1       1.322  -4.938  -3.655  1.00  0.00     0.163 HD
BRANCH   4   7
ATOM      7  C   UNL     1      -0.653  -3.639  -1.208  1.00  0.00     0.225 C 
BRANCH   7   8
ATOM      8  N   UNL     1       0.304  -3.482  -0.105  1.00  0.00    -0.303 N 
ATOM      9  C   UNL     1       0.738  -2.232   0.374  1.00  0.00     0.022 A 
ATOM     10  C   UNL     1       1.617  -2.182   1.395  1.00  0.00     0.030 A 
ATOM     11  C   UNL     1       2.101  -3.393   2.051  1.00  0.00    -0.011 A 
ATOM     12  C   UNL     1       0.632  -4.691   0.543  1.00  0.00     0.259 A 
ATOM     13  C   UNL     1       3.039  -3.333   3.089  1.00  0.00     0.009 A 
ATOM     14  C   UNL     1       1.593  -4.631   1.665  1.00  0.00     0.047 A 
ATOM     15  O   UNL     1       0.182  -5.785   0.209  1.00  0.00    -0.269 OA
ATOM     16  C   UNL     1       3.453  -4.502   3.733  1.00  0.00     0.001 A 
ATOM     17  C   UNL     1       1.999  -5.804   2.315  1.00  0.00     0.014 A 
ATOM     18  C   UNL     1       2.930  -5.736   3.351  1.00  0.00     0.001 A 
BRANCH   9  19
ATOM     19  C   UNL     1       0.171  -0.957  -0.246  1.00  0.00     0.051 C 
ATOM     20  C   UNL     1       0.788   0.372   0.185  1.00  0.00     0.010 C 
ENDBRANCH   9  19
ENDBRANCH   7   8
ENDBRANCH   4   7
ENDBRANCH   2   3
ENDBRANCH   1   2
BRANCH   1  21
ATOM     21  C   UNL     1       4.144  -4.400  -2.951  1.00  0.00     0.118 C 
BRANCH  21  22
ATOM     22  N   UNL     1       4.660  -3.781  -4.168  1.00  0.00    -0.352 N 
ATOM     23  C   UNL     1       5.952  -3.556  -4.582  1.00  0.00     0.251 C 
ATOM     24  H   UNL     1       3.969  -3.473  -4.797  1.00  0.00     0.163 HD
ATOM     25  O   UNL     1       6.159  -2.878  -5.585  1.00  0.00    -0.269 OA
BRANCH  23  26
ATOM     26  C   UNL     1       7.096  -4.093  -3.813  1.00  0.00     0.039 A 
ATOM     27  C   UNL     1       7.058  -5.375  -3.267  1.00  0.00     0.014 A 
ATOM     28  C   UNL     1       8.233  -3.297  -3.639  1.00  0.00     0.014 A 
ATOM     29  C   UNL     1       8.058  -5.783  -2.392  1.00  0.00     0.010 A 
ATOM     30  C   UNL     1       9.287  -3.749  -2.837  1.00  0.00     0.010 A 
ATOM     31  C   UNL     1       9.182  -4.974  -2.160  1.00  0.00    -0.014 A 
BRANCH  31  32
ATOM     32  C   UNL     1      10.219  -5.430  -1.197  1.00  0.00     0.031 A 
ATOM     33  C   UNL     1      10.476  -4.665   0.075  1.00  0.00     0.074 A 
ATOM     34  C   UNL     1      10.879  -6.580  -1.437  1.00  0.00     0.049 A 
ATOM     35  N   UNL     1      11.310  -4.941   1.048  1.00  0.00    -0.248 NA
ATOM     36  C   UNL     1       9.703  -3.430   0.287  1.00  0.00     0.031 C 
ATOM     37  C   UNL     1      10.714  -7.410  -2.631  1.00  0.00     0.029 A 
ATOM     38  N   UNL     1      11.795  -7.267  -0.680  1.00  0.00    -0.354 N 
ATOM     39  C   UNL     1      11.174  -3.911   1.970  1.00  0.00     0.074 A 
ATOM     40  C   UNL     1      10.200  -2.987   1.435  1.00  0.00     0.031 C 
ATOM     41  C   UNL     1      11.456  -8.520  -2.502  1.00  0.00     0.029 A 
ATOM     42  C   UNL     1      12.196  -8.453  -1.246  1.00  0.00     0.049 A 
ATOM     43  H   UNL     1      12.133  -6.941   0.185  1.00  0.00     0.167 HD
ATOM     44  C   UNL     1      11.795  -3.762   3.164  1.00  0.00     0.037 A 
ATOM     45  C   UNL     1      13.070  -9.380  -0.809  1.00  0.00     0.037 A 
ATOM     46  C   UNL     1      12.735  -4.703   3.716  1.00  0.00     0.049 A 
ATOM     47  C   UNL     1      13.761  -9.172   0.509  1.00  0.00     0.074 A 
ATOM     48  C   UNL     1      13.388  -4.651   4.935  1.00  0.00     0.029 A 
ATOM     49  N   UNL     1      13.148  -5.868   3.089  1.00  0.00    -0.354 N 
ATOM     50  N   UNL     1      13.608  -8.203   1.377  1.00  0.00    -0.248 NA
ATOM     51  C   UNL     1      14.753 -10.181   0.905  1.00  0.00     0.031 C 
ATOM     52  C   UNL     1      14.227  -5.764   5.030  1.00  0.00     0.029 A 
ATOM     53  C   UNL     1      14.063  -6.532   3.889  1.00  0.00     0.049 A 
ATOM     54  H   UNL     1      12.837  -6.178   2.208  1.00  0.00     0.167 HD
ATOM     55  C   UNL     1      14.472  -8.489   2.424  1.00  0.00     0.074 A 
ATOM     56  C   UNL     1      15.131  -9.735   2.095  1.00  0.00     0.031 C 
ATOM     57  C   UNL     1      14.703  -7.777   3.552  1.00  0.00     0.037 A 
BRANCH  44  58
ATOM     58  C   UNL     1      11.485  -2.543   3.980  1.00  0.00     0.064 A 
ATOM     59  C   UNL     1      10.280  -2.422   4.686  1.00  0.00     0.173 A 
ATOM     60  C   UNL     1      12.450  -1.538   4.150  1.00  0.00     0.173 A 
ATOM     61  F   UNL     1       9.321  -3.351   4.550  1.00  0.00    -0.203 F 
ATOM     62  C   UNL     1      10.052  -1.341   5.533  1.00  0.00     0.198 A 
ATOM     63  C   UNL     1      12.229  -0.470   5.015  1.00  0.00     0.198 A 
ATOM     64  F   UNL     1      13.623  -1.611   3.502  1.00  0.00    -0.203 F 
ATOM     65  F   UNL     1       8.886  -1.238   6.187  1.00  0.00    -0.200 F 
ATOM     66  C   UNL     1      11.031  -0.373   5.706  1.00  0.00     0.200 A 
ATOM     67  F   UNL     1      13.181   0.457   5.192  1.00  0.00    -0.200 F 
ATOM     68  F   UNL     1      10.819   0.653   6.543  1.00  0.00    -0.200 F 
ENDBRANCH  44  58
BRANCH  45  69
ATOM     69  C   UNL     1      13.339 -10.586  -1.633  1.00  0.00     0.064 A 
ATOM     70  C   UNL     1      12.932 -11.858  -1.207  1.00  0.00     0.173 A 
ATOM     71  C   UNL     1      14.001 -10.492  -2.866  1.00  0.00     0.173 A 
ATOM     72  F   UNL     1      12.315 -12.002  -0.025  1.00  0.00    -0.203 F 
ATOM     73  C   UNL     1      13.188 -12.990  -1.978  1.00  0.00     0.198 A 
ATOM     74  C   UNL     1      14.229 -11.620  -3.650  1.00  0.00     0.198 A 
ATOM     75  F   UNL     1      14.409  -9.297  -3.320  1.00  0.00    -0.203 F 
ATOM     76  F   UNL     1      12.824 -14.199  -1.529  1.00  0.00    -0.200 F 
ATOM     77  C   UNL     1      13.829 -12.870  -3.202  1.00  0.00     0.200 A 
ATOM     78  F   UNL     1      14.835 -11.496  -4.839  1.00  0.00    -0.200 F 
ATOM     79  F   UNL     1      14.066 -13.958  -3.947  1.00  0.00    -0.200 F 
ENDBRANCH  45  69
BRANCH  57  80
ATOM     80  C   UNL     1      15.699  -8.326   4.528  1.00  0.00     0.064 A 
ATOM     81  C   UNL     1      17.076  -8.259   4.277  1.00  0.00     0.173 A 
ATOM     82  C   UNL     1      15.276  -8.845   5.761  1.00  0.00     0.173 A 
ATOM     83  F   UNL     1      17.527  -7.782   3.107  1.00  0.00    -0.203 F 
ATOM     84  C   UNL     1      17.996  -8.701   5.223  1.00  0.00     0.198 A 
ATOM     85  C   UNL     1      16.199  -9.262   6.715  1.00  0.00     0.198 A 
ATOM     86  F   UNL     1      13.968  -8.920   6.050  1.00  0.00    -0.203 F 
ATOM     87  F   UNL     1      19.308  -8.653   4.953  1.00  0.00    -0.200 F 
ATOM     88  C   UNL     1      17.558  -9.192   6.444  1.00  0.00     0.200 A 
ATOM     89  F   UNL     1      15.775  -9.722   7.900  1.00  0.00    -0.200 F 
ATOM     90  F   UNL     1      18.446  -9.599   7.362  1.00  0.00    -0.200 F 
ENDBRANCH  57  80
ENDBRANCH  31  32
ENDBRANCH  23  26
ENDBRANCH  21  22
ENDBRANCH   1  21
TORSDOF 12
