REMARK SMILES O=C(NCCCNC(=O)c1ccc(N2C(=O)/C(=C/C3=c4ccccc4=NC3)SC2=S)cc1O)c1ccc(-c2c3nc(c(-c4c(F)c(F)c(F)c(F)c4F)c4ccc([nH]4)c(-c4c(F)c(F)c(F)c(F)c4F)c4nc(c(-c5c(F)c(F)c(F)c(F)c5F)c5ccc2[nH]5)C=C4)C=C3)cc1
REMARK SMILES IDX 5 1 4 2 3 3 1 4 2 5 34 7 35 8 96 9 36 10 95 11 37 12 38 13
REMARK SMILES IDX 39 14 89 15 40 16 94 17 88 18 90 19 41 20 93 21 87 22 86 23
REMARK SMILES IDX 42 25 74 26 54 27 73 28 55 29 58 30 72 31 91 32 56 33 57 34
REMARK SMILES IDX 71 36 92 37 59 38 43 39 44 40 52 41 45 42 46 43 50 44 53 45
REMARK SMILES IDX 47 46 48 47 51 48 49 49 75 50 76 51 84 52 77 53 78 54 82 55
REMARK SMILES IDX 85 56 79 57 80 58 83 59 81 60 60 61 61 62 69 63 62 64 63 65
REMARK SMILES IDX 67 66 70 67 64 68 65 69 68 70 66 71 6 72 7 73 8 74 9 76
REMARK SMILES IDX 10 77 11 78 32 79 12 80 31 81 13 82 33 83 14 85 15 86 29 87
REMARK SMILES IDX 16 88 17 89 28 90 30 91 18 92 19 93 20 94 27 95 21 96 25 97
REMARK SMILES IDX 26 98 22 99 24 100 23 101
REMARK H PARENT 3 6 90 24 58 35 7 75 33 84
REMARK Flexibility Score: inf
ROOT
ATOM      1  C   UNL     1       4.900  -0.338  -2.450  1.00  0.00     0.042 C 
ENDROOT
BRANCH   1   2
ATOM      2  C   UNL     1       4.518   0.546  -1.277  1.00  0.00     0.118 C 
BRANCH   2   3
ATOM      3  N   UNL     1       3.079   0.583  -1.050  1.00  0.00    -0.352 N 
ATOM      4  O   UNL     1       1.106   0.076  -0.102  1.00  0.00    -0.269 OA
ATOM      5  C   UNL     1       2.329   0.123   0.001  1.00  0.00     0.251 C 
ATOM      6  H   UNL     1       2.560   1.010  -1.770  1.00  0.00     0.163 HD
BRANCH   5   7
ATOM      7  C   UNL     1       2.976  -0.328   1.253  1.00  0.00     0.039 A 
ATOM      8  C   UNL     1       2.413  -1.396   1.958  1.00  0.00     0.014 A 
ATOM      9  C   UNL     1       4.100   0.322   1.765  1.00  0.00     0.014 A 
ATOM     10  C   UNL     1       2.995  -1.824   3.152  1.00  0.00     0.010 A 
ATOM     11  C   UNL     1       4.750  -0.181   2.885  1.00  0.00     0.010 A 
ATOM     12  C   UNL     1       4.180  -1.232   3.617  1.00  0.00    -0.014 A 
BRANCH  12  13
ATOM     13  C   UNL     1       4.788  -1.626   4.913  1.00  0.00     0.031 A 
ATOM     14  C   UNL     1       4.909  -0.604   6.015  1.00  0.00     0.074 A 
ATOM     15  C   UNL     1       5.253  -2.877   5.093  1.00  0.00     0.049 A 
ATOM     16  N   UNL     1       5.468  -0.720   7.193  1.00  0.00    -0.248 NA
ATOM     17  C   UNL     1       4.358   0.737   5.749  1.00  0.00     0.031 C 
ATOM     18  C   UNL     1       5.224  -3.944   4.091  1.00  0.00     0.029 A 
ATOM     19  N   UNL     1       5.843  -3.464   6.185  1.00  0.00    -0.354 N 
ATOM     20  C   UNL     1       5.350   0.529   7.790  1.00  0.00     0.074 A 
ATOM     21  C   UNL     1       4.731   1.408   6.827  1.00  0.00     0.031 C 
ATOM     22  C   UNL     1       5.737  -5.063   4.626  1.00  0.00     0.029 A 
ATOM     23  C   UNL     1       6.172  -4.784   5.992  1.00  0.00     0.049 A 
ATOM     24  H   UNL     1       6.013  -2.985   7.028  1.00  0.00     0.167 HD
ATOM     25  C   UNL     1       5.692   0.899   9.044  1.00  0.00     0.037 A 
ATOM     26  C   UNL     1       6.763  -5.665   6.823  1.00  0.00     0.037 A 
ATOM     27  C   UNL     1       6.251   0.006  10.021  1.00  0.00     0.049 A 
ATOM     28  C   UNL     1       7.143  -5.222   8.212  1.00  0.00     0.074 A 
ATOM     29  C   UNL     1       6.569   0.270  11.341  1.00  0.00     0.029 A 
ATOM     30  N   UNL     1       6.566  -1.323   9.787  1.00  0.00    -0.354 N 
ATOM     31  N   UNL     1       6.970  -4.055   8.783  1.00  0.00    -0.248 NA
ATOM     32  C   UNL     1       7.798  -6.218   9.073  1.00  0.00     0.031 C 
ATOM     33  C   UNL     1       7.123  -0.886  11.893  1.00  0.00     0.029 A 
ATOM     34  C   UNL     1       7.099  -1.886  10.933  1.00  0.00     0.049 A 
ATOM     35  H   UNL     1       6.430  -1.795   8.933  1.00  0.00     0.167 HD
ATOM     36  C   UNL     1       7.469  -4.182  10.072  1.00  0.00     0.074 A 
ATOM     37  C   UNL     1       7.935  -5.546  10.208  1.00  0.00     0.031 C 
ATOM     38  C   UNL     1       7.539  -3.251  11.054  1.00  0.00     0.037 A 
BRANCH  25  39
ATOM     39  C   UNL     1       5.442   2.319   9.459  1.00  0.00     0.064 A 
ATOM     40  C   UNL     1       4.143   2.800   9.681  1.00  0.00     0.173 A 
ATOM     41  C   UNL     1       6.517   3.178   9.734  1.00  0.00     0.173 A 
ATOM     42  F   UNL     1       3.082   2.022   9.419  1.00  0.00    -0.203 F 
ATOM     43  C   UNL     1       3.929   4.089  10.158  1.00  0.00     0.198 A 
ATOM     44  C   UNL     1       6.300   4.457  10.241  1.00  0.00     0.198 A 
ATOM     45  F   UNL     1       7.779   2.766   9.543  1.00  0.00    -0.203 F 
ATOM     46  F   UNL     1       2.678   4.535  10.339  1.00  0.00    -0.200 F 
ATOM     47  C   UNL     1       5.007   4.911  10.451  1.00  0.00     0.200 A 
ATOM     48  F   UNL     1       7.343   5.244  10.539  1.00  0.00    -0.200 F 
ATOM     49  F   UNL     1       4.799   6.142  10.940  1.00  0.00    -0.200 F 
ENDBRANCH  25  39
BRANCH  26  50
ATOM     50  C   UNL     1       7.011  -7.061   6.372  1.00  0.00     0.064 A 
ATOM     51  C   UNL     1       6.319  -8.137   6.947  1.00  0.00     0.173 A 
ATOM     52  C   UNL     1       7.940  -7.351   5.362  1.00  0.00     0.173 A 
ATOM     53  F   UNL     1       5.434  -7.916   7.930  1.00  0.00    -0.203 F 
ATOM     54  C   UNL     1       6.561  -9.449   6.542  1.00  0.00     0.198 A 
ATOM     55  C   UNL     1       8.158  -8.660   4.936  1.00  0.00     0.198 A 
ATOM     56  F   UNL     1       8.627  -6.360   4.776  1.00  0.00    -0.203 F 
ATOM     57  F   UNL     1       5.919 -10.461   7.141  1.00  0.00    -0.200 F 
ATOM     58  C   UNL     1       7.474  -9.709   5.532  1.00  0.00     0.200 A 
ATOM     59  F   UNL     1       9.030  -8.905   3.948  1.00  0.00    -0.200 F 
ATOM     60  F   UNL     1       7.701 -10.969   5.139  1.00  0.00    -0.200 F 
ENDBRANCH  26  50
BRANCH  38  61
ATOM     61  C   UNL     1       8.119  -3.664  12.375  1.00  0.00     0.064 A 
ATOM     62  C   UNL     1       9.495  -3.875  12.534  1.00  0.00     0.173 A 
ATOM     63  C   UNL     1       7.304  -3.736  13.516  1.00  0.00     0.173 A 
ATOM     64  F   UNL     1      10.313  -3.825  11.472  1.00  0.00    -0.203 F 
ATOM     65  C   UNL     1      10.035  -4.149  13.787  1.00  0.00     0.198 A 
ATOM     66  C   UNL     1       7.851  -3.979  14.772  1.00  0.00     0.198 A 
ATOM     67  F   UNL     1       5.982  -3.529  13.417  1.00  0.00    -0.203 F 
ATOM     68  F   UNL     1      11.351  -4.372  13.913  1.00  0.00    -0.200 F 
ATOM     69  C   UNL     1       9.216  -4.188  14.906  1.00  0.00     0.200 A 
ATOM     70  F   UNL     1       7.061  -3.994  15.854  1.00  0.00    -0.200 F 
ATOM     71  F   UNL     1       9.742  -4.423  16.116  1.00  0.00    -0.200 F 
ENDBRANCH  38  61
ENDBRANCH  12  13
ENDBRANCH   5   7
ENDBRANCH   2   3
ENDBRANCH   1   2
BRANCH   1  72
ATOM     72  C   UNL     1       4.342   0.145  -3.777  1.00  0.00     0.118 C 
BRANCH  72  73
ATOM     73  N   UNL     1       4.863   1.450  -4.149  1.00  0.00    -0.352 N 
ATOM     74  C   UNL     1       5.697   1.775  -5.188  1.00  0.00     0.255 C 
ATOM     75  H   UNL     1       4.580   2.201  -3.578  1.00  0.00     0.163 HD
ATOM     76  O   UNL     1       6.156   2.909  -5.287  1.00  0.00    -0.269 OA
BRANCH  74  77
ATOM     77  C   UNL     1       6.106   0.731  -6.146  1.00  0.00     0.081 A 
ATOM     78  C   UNL     1       7.474   0.487  -6.291  1.00  0.00     0.020 A 
ATOM     79  C   UNL     1       5.183  -0.018  -6.880  1.00  0.00     0.130 A 
ATOM     80  C   UNL     1       7.910  -0.540  -7.132  1.00  0.00     0.028 A 
ATOM     81  C   UNL     1       5.620  -1.052  -7.705  1.00  0.00     0.073 A 
ATOM     82  C   UNL     1       6.990  -1.316  -7.855  1.00  0.00     0.054 A 
BRANCH  79  83
ATOM     83  O   UNL     1       3.842   0.232  -6.770  1.00  0.00    -0.507 OA
ATOM     84  H   UNL     1       3.538   0.925  -6.218  1.00  0.00     0.293 HD
ENDBRANCH  79  83
BRANCH  82  85
ATOM     85  N   UNL     1       7.444  -2.360  -8.720  1.00  0.00    -0.261 N 
ATOM     86  C   UNL     1       8.460  -3.217  -8.293  1.00  0.00     0.270 C 
ATOM     87  C   UNL     1       6.948  -2.585 -10.000  1.00  0.00     0.152 C 
ATOM     88  O   UNL     1       9.015  -3.238  -7.205  1.00  0.00    -0.268 OA
ATOM     89  C   UNL     1       8.788  -4.194  -9.368  1.00  0.00     0.081 C 
ATOM     90  S   UNL     1       7.730  -3.995 -10.700  1.00  0.00    -0.054 SA
ATOM     91  S   UNL     1       5.870  -1.692 -10.919  1.00  0.00    -0.051 S 
ATOM     92  C   UNL     1       9.776  -5.090  -9.243  1.00  0.00     0.027 C 
BRANCH  92  93
ATOM     93  C   UNL     1      10.228  -6.006 -10.263  1.00  0.00    -0.016 C 
ATOM     94  C   UNL     1      10.277  -7.333 -10.188  1.00  0.00     0.005 A 
ATOM     95  C   UNL     1      10.782  -5.531 -11.579  1.00  0.00     0.179 C 
ATOM     96  C   UNL     1       9.918  -8.317  -9.217  1.00  0.00     0.011 A 
ATOM     97  C   UNL     1      10.861  -7.708 -11.489  1.00  0.00     0.065 A 
ATOM     98  N   UNL     1      11.178  -6.757 -12.313  1.00  0.00    -0.280 NA
ATOM     99  C   UNL     1      10.111  -9.614  -9.512  1.00  0.00     0.001 A 
ATOM    100  C   UNL     1      11.039  -9.153 -11.740  1.00  0.00     0.028 A 
ATOM    101  C   UNL     1      10.674 -10.027 -10.787  1.00  0.00     0.002 A 
ENDBRANCH  92  93
ENDBRANCH  82  85
ENDBRANCH  74  77
ENDBRANCH  72  73
ENDBRANCH   1  72
TORSDOF 13
