REMARK SMILES O=C(NCCCNC(=O)c1ccc(OC[C@H]2C[C@H]3CC[C@@H]2C3)c(Cl)c1)c1ccc(-c2c3nc(c(-c4c(F)c(F)c(F)c(F)c4F)c4ccc([nH]4)c(-c4c(F)c(F)c(F)c(F)c4F)c4nc(c(-c5c(F)c(F)c(F)c(F)c5F)c5ccc2[nH]5)C=C4)C=C3)cc1
REMARK SMILES IDX 5 1 4 2 3 3 1 4 2 5 26 7 27 8 88 9 28 10 87 11 29 12 30 13
REMARK SMILES IDX 31 14 81 15 32 16 86 17 80 18 82 19 33 20 85 21 79 22 78 23
REMARK SMILES IDX 34 25 66 26 46 27 65 28 47 29 50 30 64 31 83 32 48 33 49 34
REMARK SMILES IDX 63 36 84 37 51 38 35 39 36 40 44 41 37 42 38 43 42 44 45 45
REMARK SMILES IDX 39 46 40 47 43 48 41 49 67 50 68 51 76 52 69 53 70 54 74 55
REMARK SMILES IDX 77 56 71 57 72 58 75 59 73 60 52 61 53 62 61 63 54 64 55 65
REMARK SMILES IDX 59 66 62 67 56 68 57 69 60 70 58 71 6 72 7 73 8 74 9 76
REMARK SMILES IDX 10 77 11 78 25 79 12 80 23 81 13 82 24 83 14 84 15 85 16 86
REMARK SMILES IDX 17 87 21 88 18 89 20 90 22 91 19 92
REMARK H PARENT 3 6 82 24 50 35 7 75
REMARK Flexibility Score: inf
ROOT
ATOM      1  C   UNL     1       6.284   1.397  -1.668  1.00  0.00     0.042 C 
ENDROOT
BRANCH   1   2
ATOM      2  C   UNL     1       5.118   1.162  -0.715  1.00  0.00     0.118 C 
BRANCH   2   3
ATOM      3  N   UNL     1       5.107  -0.181  -0.148  1.00  0.00    -0.352 N 
ATOM      4  O   UNL     1       5.350  -1.801   1.395  1.00  0.00    -0.269 OA
ATOM      5  C   UNL     1       5.216  -0.604   1.154  1.00  0.00     0.251 C 
ATOM      6  H   UNL     1       5.005  -0.905  -0.808  1.00  0.00     0.163 HD
BRANCH   5   7
ATOM      7  C   UNL     1       5.192   0.368   2.268  1.00  0.00     0.039 A 
ATOM      8  C   UNL     1       4.312   1.450   2.254  1.00  0.00     0.014 A 
ATOM      9  C   UNL     1       6.038   0.175   3.366  1.00  0.00     0.014 A 
ATOM     10  C   UNL     1       4.394   2.420   3.244  1.00  0.00     0.010 A 
ATOM     11  C   UNL     1       6.046   1.099   4.417  1.00  0.00     0.010 A 
ATOM     12  C   UNL     1       5.246   2.248   4.348  1.00  0.00    -0.014 A 
BRANCH  12  13
ATOM     13  C   UNL     1       5.208   3.260   5.435  1.00  0.00     0.031 A 
ATOM     14  C   UNL     1       6.399   4.120   5.752  1.00  0.00     0.074 A 
ATOM     15  C   UNL     1       4.045   3.447   6.090  1.00  0.00     0.049 A 
ATOM     16  N   UNL     1       6.494   5.110   6.604  1.00  0.00    -0.248 NA
ATOM     17  C   UNL     1       7.647   3.832   5.030  1.00  0.00     0.031 C 
ATOM     18  C   UNL     1       2.832   2.650   5.887  1.00  0.00     0.029 A 
ATOM     19  N   UNL     1       3.674   4.382   7.021  1.00  0.00    -0.354 N 
ATOM     20  C   UNL     1       7.808   5.555   6.529  1.00  0.00     0.074 A 
ATOM     21  C   UNL     1       8.484   4.709   5.569  1.00  0.00     0.031 C 
ATOM     22  C   UNL     1       1.835   3.172   6.614  1.00  0.00     0.029 A 
ATOM     23  C   UNL     1       2.351   4.302   7.379  1.00  0.00     0.049 A 
ATOM     24  H   UNL     1       4.296   5.047   7.396  1.00  0.00     0.167 HD
ATOM     25  C   UNL     1       8.389   6.583   7.195  1.00  0.00     0.037 A 
ATOM     26  C   UNL     1       1.629   5.052   8.231  1.00  0.00     0.037 A 
ATOM     27  C   UNL     1       7.707   7.430   8.140  1.00  0.00     0.049 A 
ATOM     28  C   UNL     1       2.298   6.194   8.937  1.00  0.00     0.074 A 
ATOM     29  C   UNL     1       8.209   8.502   8.860  1.00  0.00     0.029 A 
ATOM     30  N   UNL     1       6.372   7.305   8.494  1.00  0.00    -0.354 N 
ATOM     31  N   UNL     1       3.536   6.613   8.841  1.00  0.00    -0.248 NA
ATOM     32  C   UNL     1       1.470   6.968   9.871  1.00  0.00     0.031 C 
ATOM     33  C   UNL     1       7.186   9.004   9.672  1.00  0.00     0.029 A 
ATOM     34  C   UNL     1       6.036   8.272   9.429  1.00  0.00     0.049 A 
ATOM     35  H   UNL     1       5.753   6.629   8.134  1.00  0.00     0.167 HD
ATOM     36  C   UNL     1       3.639   7.694   9.703  1.00  0.00     0.074 A 
ATOM     37  C   UNL     1       2.326   7.893  10.282  1.00  0.00     0.031 C 
ATOM     38  C   UNL     1       4.726   8.445  10.002  1.00  0.00     0.037 A 
BRANCH  25  39
ATOM     39  C   UNL     1       9.841   6.854   6.931  1.00  0.00     0.064 A 
ATOM     40  C   UNL     1      10.269   7.450   5.735  1.00  0.00     0.173 A 
ATOM     41  C   UNL     1      10.808   6.580   7.910  1.00  0.00     0.173 A 
ATOM     42  F   UNL     1       9.386   7.722   4.763  1.00  0.00    -0.203 F 
ATOM     43  C   UNL     1      11.613   7.752   5.526  1.00  0.00     0.198 A 
ATOM     44  C   UNL     1      12.147   6.904   7.707  1.00  0.00     0.198 A 
ATOM     45  F   UNL     1      10.450   6.016   9.073  1.00  0.00    -0.203 F 
ATOM     46  F   UNL     1      12.004   8.296   4.365  1.00  0.00    -0.200 F 
ATOM     47  C   UNL     1      12.549   7.486   6.515  1.00  0.00     0.200 A 
ATOM     48  F   UNL     1      13.049   6.657   8.668  1.00  0.00    -0.200 F 
ATOM     49  F   UNL     1      13.840   7.790   6.317  1.00  0.00    -0.200 F 
ENDBRANCH  25  39
BRANCH  26  50
ATOM     50  C   UNL     1       0.196   4.737   8.460  1.00  0.00     0.064 A 
ATOM     51  C   UNL     1      -0.816   5.600   8.021  1.00  0.00     0.173 A 
ATOM     52  C   UNL     1      -0.189   3.557   9.114  1.00  0.00     0.173 A 
ATOM     53  F   UNL     1      -0.497   6.748   7.406  1.00  0.00    -0.203 F 
ATOM     54  C   UNL     1      -2.159   5.303   8.242  1.00  0.00     0.198 A 
ATOM     55  C   UNL     1      -1.532   3.246   9.307  1.00  0.00     0.198 A 
ATOM     56  F   UNL     1       0.743   2.695   9.548  1.00  0.00    -0.203 F 
ATOM     57  F   UNL     1      -3.107   6.166   7.851  1.00  0.00    -0.200 F 
ATOM     58  C   UNL     1      -2.516   4.123   8.879  1.00  0.00     0.200 A 
ATOM     59  F   UNL     1      -1.872   2.096   9.906  1.00  0.00    -0.200 F 
ATOM     60  F   UNL     1      -3.808   3.835   9.084  1.00  0.00    -0.200 F 
ENDBRANCH  26  50
BRANCH  38  61
ATOM     61  C   UNL     1       4.530   9.544  11.002  1.00  0.00     0.064 A 
ATOM     62  C   UNL     1       4.352   9.266  12.365  1.00  0.00     0.173 A 
ATOM     63  C   UNL     1       4.519  10.886  10.595  1.00  0.00     0.173 A 
ATOM     64  F   UNL     1       4.337   7.996  12.798  1.00  0.00    -0.203 F 
ATOM     65  C   UNL     1       4.136  10.291  13.281  1.00  0.00     0.198 A 
ATOM     66  C   UNL     1       4.330  11.910  11.518  1.00  0.00     0.198 A 
ATOM     67  F   UNL     1       4.689  11.203   9.303  1.00  0.00    -0.203 F 
ATOM     68  F   UNL     1       3.913   9.999  14.570  1.00  0.00    -0.200 F 
ATOM     69  C   UNL     1       4.129  11.611  12.858  1.00  0.00     0.200 A 
ATOM     70  F   UNL     1       4.331  13.187  11.111  1.00  0.00    -0.200 F 
ATOM     71  F   UNL     1       3.916  12.597  13.741  1.00  0.00    -0.200 F 
ENDBRANCH  38  61
ENDBRANCH  12  13
ENDBRANCH   5   7
ENDBRANCH   2   3
ENDBRANCH   1   2
BRANCH   1  72
ATOM     72  C   UNL     1       6.247   0.519  -2.912  1.00  0.00     0.118 C 
BRANCH  72  73
ATOM     73  N   UNL     1       5.063   0.773  -3.716  1.00  0.00    -0.352 N 
ATOM     74  C   UNL     1       4.938   1.567  -4.830  1.00  0.00     0.251 C 
ATOM     75  H   UNL     1       4.242   0.315  -3.424  1.00  0.00     0.163 HD
ATOM     76  O   UNL     1       3.849   1.822  -5.313  1.00  0.00    -0.269 OA
BRANCH  74  77
ATOM     77  C   UNL     1       6.161   2.110  -5.440  1.00  0.00     0.041 A 
ATOM     78  C   UNL     1       6.998   1.262  -6.162  1.00  0.00     0.018 A 
ATOM     79  C   UNL     1       6.487   3.452  -5.246  1.00  0.00     0.038 A 
ATOM     80  C   UNL     1       8.175   1.773  -6.702  1.00  0.00     0.049 A 
ATOM     81  C   UNL     1       7.691   3.949  -5.756  1.00  0.00     0.083 A 
ATOM     82  C   UNL     1       8.518   3.122  -6.529  1.00  0.00     0.137 A 
ATOM     83  Cl  UNL     1       8.146   5.535  -5.251  1.00  0.00    -0.080 Cl
BRANCH  82  84
ATOM     84  O   UNL     1       9.728   3.442  -7.069  1.00  0.00    -0.492 OA
BRANCH  84  85
ATOM     85  C   UNL     1       9.841   4.590  -7.919  1.00  0.00     0.233 C 
BRANCH  85  86
ATOM     86  C   UNL     1       8.814   4.692  -9.061  1.00  0.00     0.030 C 
ATOM     87  C   UNL     1       7.726   5.770  -8.824  1.00  0.00     0.011 C 
ATOM     88  C   UNL     1       9.416   5.154 -10.420  1.00  0.00    -0.004 C 
ATOM     89  C   UNL     1       7.845   6.683 -10.057  1.00  0.00    -0.010 C 
ATOM     90  C   UNL     1      10.229   6.451 -10.268  1.00  0.00     0.004 C 
ATOM     91  C   UNL     1       8.177   5.676 -11.153  1.00  0.00     0.007 C 
ATOM     92  C   UNL     1       9.150   7.493  -9.946  1.00  0.00     0.004 C 
ENDBRANCH  85  86
ENDBRANCH  84  85
ENDBRANCH  82  84
ENDBRANCH  74  77
ENDBRANCH  72  73
ENDBRANCH   1  72
TORSDOF 13
