REMARK SMILES C[C@]12C(=O)N(c3ccc(C(=O)NCCCNC(=O)c4ccc(-c5c6nc(c(-c7c(F)c(F)c(F)c(F)c7F)c7ccc([nH]7)c(-c7c(F)c(F)c(F)c(F)c7F)c7nc(c(-c8c(F)c(F)c(F)c(F)c8F)c8ccc5[nH]8)C=C7)C=C6)cc4)cc3)C(=O)[C@H]1[C@H]1c3ccccc3[C@@H]2c2ccccc21
REMARK SMILES IDX 14 1 13 2 12 3 10 4 11 5 9 7 6 8 7 9 83 10 8 11 82 12 5 13
REMARK SMILES IDX 1 14 2 15 3 16 86 17 94 18 4 19 84 20 87 21 93 22 95 23
REMARK SMILES IDX 85 24 88 25 100 26 92 27 96 28 89 29 99 30 91 31 97 32 90 33
REMARK SMILES IDX 98 34 15 35 16 36 17 37 18 39 19 40 20 41 81 42 21 43 80 44
REMARK SMILES IDX 22 45 23 46 24 47 74 48 25 49 79 50 73 51 75 52 26 53 78 54
REMARK SMILES IDX 72 55 71 56 27 58 59 59 39 60 58 61 40 62 43 63 57 64 76 65
REMARK SMILES IDX 41 66 42 67 56 69 77 70 44 71 28 72 29 73 37 74 30 75 31 76
REMARK SMILES IDX 35 77 38 78 32 79 33 80 36 81 34 82 60 83 61 84 69 85 62 86
REMARK SMILES IDX 63 87 67 88 70 89 64 90 65 91 68 92 66 93 45 94 46 95 54 96
REMARK SMILES IDX 47 97 48 98 52 99 55 100 49 101 50 102 53 103 51 104
REMARK H PARENT 12 6 16 38 75 57 43 68
REMARK Flexibility Score: inf
ROOT
ATOM      1  C   UNL     1      -2.006   9.193  -5.009  1.00  0.00     0.042 C 
ENDROOT
BRANCH   1   2
ATOM      2  C   UNL     1      -2.089   7.908  -5.820  1.00  0.00     0.118 C 
BRANCH   2   3
ATOM      3  N   UNL     1      -0.813   7.542  -6.414  1.00  0.00    -0.352 N 
ATOM      4  C   UNL     1       0.186   6.695  -6.012  1.00  0.00     0.251 C 
ATOM      5  O   UNL     1       1.252   6.730  -6.626  1.00  0.00    -0.269 OA
ATOM      6  H   UNL     1      -0.632   7.989  -7.272  1.00  0.00     0.163 HD
BRANCH   4   7
ATOM      7  C   UNL     1       0.041   5.750  -4.877  1.00  0.00     0.039 A 
ATOM      8  C   UNL     1      -0.044   3.740  -2.857  1.00  0.00     0.052 A 
ATOM      9  C   UNL     1       1.147   4.417  -3.171  1.00  0.00     0.027 A 
ATOM     10  C   UNL     1      -1.196   4.127  -3.557  1.00  0.00     0.027 A 
ATOM     11  C   UNL     1       1.190   5.407  -4.163  1.00  0.00     0.016 A 
ATOM     12  C   UNL     1      -1.143   5.080  -4.583  1.00  0.00     0.016 A 
BRANCH   8  13
ATOM     13  N   UNL     1      -0.044   2.562  -2.047  1.00  0.00    -0.250 N 
ATOM     14  C   UNL     1       1.403  -0.007  -0.095  1.00  0.00     0.024 C 
ATOM     15  C   UNL     1       0.858   0.491  -1.440  1.00  0.00     0.071 C 
ATOM     16  C   UNL     1       1.100   1.976  -1.553  1.00  0.00     0.241 C 
ATOM     17  C   UNL     1      -0.689   0.355  -1.514  1.00  0.00     0.107 C 
ATOM     18  C   UNL     1       1.512  -0.209  -2.686  1.00  0.00     0.066 C 
ATOM     19  O   UNL     1       2.166   2.489  -1.260  1.00  0.00    -0.273 OA
ATOM     20  C   UNL     1      -1.148   1.771  -1.790  1.00  0.00     0.238 C 
ATOM     21  C   UNL     1      -1.098  -0.594  -2.689  1.00  0.00     0.063 C 
ATOM     22  C   UNL     1       0.814   0.305  -3.958  1.00  0.00    -0.036 A 
ATOM     23  C   UNL     1       1.119  -1.677  -2.558  1.00  0.00    -0.036 A 
ATOM     24  O   UNL     1      -2.334   2.081  -1.781  1.00  0.00    -0.274 OA
ATOM     25  C   UNL     1      -0.588   0.071  -3.970  1.00  0.00    -0.036 A 
ATOM     26  C   UNL     1      -0.288  -1.884  -2.527  1.00  0.00    -0.036 A 
ATOM     27  C   UNL     1       1.412   1.002  -4.998  1.00  0.00     0.005 A 
ATOM     28  C   UNL     1       2.006  -2.741  -2.488  1.00  0.00     0.005 A 
ATOM     29  C   UNL     1      -1.383   0.515  -5.018  1.00  0.00     0.004 A 
ATOM     30  C   UNL     1      -0.799  -3.168  -2.429  1.00  0.00     0.004 A 
ATOM     31  C   UNL     1       0.607   1.460  -6.047  1.00  0.00     0.000 A 
ATOM     32  C   UNL     1       1.484  -4.029  -2.385  1.00  0.00     0.000 A 
ATOM     33  C   UNL     1      -0.775   1.214  -6.060  1.00  0.00     0.000 A 
ATOM     34  C   UNL     1       0.096  -4.240  -2.356  1.00  0.00     0.000 A 
ENDBRANCH   8  13
ENDBRANCH   4   7
ENDBRANCH   2   3
ENDBRANCH   1   2
BRANCH   1  35
ATOM     35  C   UNL     1      -1.748  10.428  -5.863  1.00  0.00     0.118 C 
BRANCH  35  36
ATOM     36  N   UNL     1      -2.857  10.735  -6.761  1.00  0.00    -0.352 N 
ATOM     37  C   UNL     1      -3.933  11.581  -6.633  1.00  0.00     0.251 C 
ATOM     38  H   UNL     1      -2.830  10.246  -7.616  1.00  0.00     0.163 HD
ATOM     39  O   UNL     1      -4.859  11.501  -7.436  1.00  0.00    -0.269 OA
BRANCH  37  40
ATOM     40  C   UNL     1      -4.011  12.563  -5.528  1.00  0.00     0.039 A 
ATOM     41  C   UNL     1      -2.886  13.262  -5.100  1.00  0.00     0.014 A 
ATOM     42  C   UNL     1      -5.251  12.822  -4.930  1.00  0.00     0.014 A 
ATOM     43  C   UNL     1      -2.951  14.047  -3.954  1.00  0.00     0.010 A 
ATOM     44  C   UNL     1      -5.337  13.701  -3.844  1.00  0.00     0.010 A 
ATOM     45  C   UNL     1      -4.175  14.273  -3.307  1.00  0.00    -0.014 A 
BRANCH  45  46
ATOM     46  C   UNL     1      -4.197  15.091  -2.064  1.00  0.00     0.031 A 
ATOM     47  C   UNL     1      -4.606  14.480  -0.750  1.00  0.00     0.074 A 
ATOM     48  C   UNL     1      -3.760  16.366  -2.103  1.00  0.00     0.049 A 
ATOM     49  N   UNL     1      -4.625  15.023   0.442  1.00  0.00    -0.248 NA
ATOM     50  C   UNL     1      -5.055  13.079  -0.773  1.00  0.00     0.031 C 
ATOM     51  C   UNL     1      -3.328  17.069  -3.312  1.00  0.00     0.029 A 
ATOM     52  N   UNL     1      -3.564  17.281  -1.100  1.00  0.00    -0.354 N 
ATOM     53  C   UNL     1      -5.104  14.041   1.300  1.00  0.00     0.074 A 
ATOM     54  C   UNL     1      -5.394  12.878   0.492  1.00  0.00     0.031 C 
ATOM     55  C   UNL     1      -2.847  18.273  -2.972  1.00  0.00     0.029 A 
ATOM     56  C   UNL     1      -2.995  18.454  -1.532  1.00  0.00     0.049 A 
ATOM     57  H   UNL     1      -3.807  17.112  -0.161  1.00  0.00     0.167 HD
ATOM     58  C   UNL     1      -5.268  14.098   2.644  1.00  0.00     0.037 A 
ATOM     59  C   UNL     1      -2.635  19.556  -0.847  1.00  0.00     0.037 A 
ATOM     60  C   UNL     1      -4.944  15.242   3.455  1.00  0.00     0.049 A 
ATOM     61  C   UNL     1      -2.860  19.605   0.637  1.00  0.00     0.074 A 
ATOM     62  C   UNL     1      -5.052  15.383   4.827  1.00  0.00     0.029 A 
ATOM     63  N   UNL     1      -4.442  16.439   2.967  1.00  0.00    -0.354 N 
ATOM     64  N   UNL     1      -3.315  18.670   1.433  1.00  0.00    -0.248 NA
ATOM     65  C   UNL     1      -2.538  20.869   1.315  1.00  0.00     0.031 C 
ATOM     66  C   UNL     1      -4.651  16.679   5.167  1.00  0.00     0.029 A 
ATOM     67  C   UNL     1      -4.255  17.332   4.011  1.00  0.00     0.049 A 
ATOM     68  H   UNL     1      -4.247  16.627   2.021  1.00  0.00     0.167 HD
ATOM     69  C   UNL     1      -3.335  19.228   2.703  1.00  0.00     0.074 A 
ATOM     70  C   UNL     1      -2.820  20.576   2.577  1.00  0.00     0.031 C 
ATOM     71  C   UNL     1      -3.751  18.673   3.867  1.00  0.00     0.037 A 
BRANCH  58  72
ATOM     72  C   UNL     1      -5.826  12.887   3.332  1.00  0.00     0.064 A 
ATOM     73  C   UNL     1      -5.055  11.731   3.523  1.00  0.00     0.173 A 
ATOM     74  C   UNL     1      -7.125  12.906   3.861  1.00  0.00     0.173 A 
ATOM     75  F   UNL     1      -3.812  11.659   3.025  1.00  0.00    -0.203 F 
ATOM     76  C   UNL     1      -5.571  10.632   4.205  1.00  0.00     0.198 A 
ATOM     77  C   UNL     1      -7.629  11.815   4.564  1.00  0.00     0.198 A 
ATOM     78  F   UNL     1      -7.901  13.991   3.711  1.00  0.00    -0.203 F 
ATOM     79  F   UNL     1      -4.828   9.526   4.348  1.00  0.00    -0.200 F 
ATOM     80  C   UNL     1      -6.853  10.678   4.732  1.00  0.00     0.200 A 
ATOM     81  F   UNL     1      -8.863  11.865   5.083  1.00  0.00    -0.200 F 
ATOM     82  F   UNL     1      -7.342   9.624   5.400  1.00  0.00    -0.200 F 
ENDBRANCH  58  72
BRANCH  59  83
ATOM     83  C   UNL     1      -2.016  20.697  -1.569  1.00  0.00     0.064 A 
ATOM     84  C   UNL     1      -0.660  21.006  -1.397  1.00  0.00     0.173 A 
ATOM     85  C   UNL     1      -2.755  21.475  -2.472  1.00  0.00     0.173 A 
ATOM     86  F   UNL     1       0.082  20.303  -0.528  1.00  0.00    -0.203 F 
ATOM     87  C   UNL     1      -0.066  22.050  -2.103  1.00  0.00     0.198 A 
ATOM     88  C   UNL     1      -2.154  22.501  -3.197  1.00  0.00     0.198 A 
ATOM     89  F   UNL     1      -4.056  21.218  -2.672  1.00  0.00    -0.203 F 
ATOM     90  F   UNL     1       1.227  22.340  -1.904  1.00  0.00    -0.200 F 
ATOM     91  C   UNL     1      -0.810  22.790  -3.010  1.00  0.00     0.200 A 
ATOM     92  F   UNL     1      -2.873  23.203  -4.083  1.00  0.00    -0.200 F 
ATOM     93  F   UNL     1      -0.234  23.782  -3.701  1.00  0.00    -0.200 F 
ENDBRANCH  59  83
BRANCH  71  94
ATOM     94  C   UNL     1      -3.677  19.521   5.100  1.00  0.00     0.064 A 
ATOM     95  C   UNL     1      -4.604  20.547   5.331  1.00  0.00     0.173 A 
ATOM     96  C   UNL     1      -2.720  19.259   6.091  1.00  0.00     0.173 A 
ATOM     97  F   UNL     1      -5.529  20.842   4.406  1.00  0.00    -0.203 F 
ATOM     98  C   UNL     1      -4.568  21.289   6.508  1.00  0.00     0.198 A 
ATOM     99  C   UNL     1      -2.702  19.988   7.277  1.00  0.00     0.198 A 
ATOM    100  F   UNL     1      -1.817  18.283   5.918  1.00  0.00    -0.203 F 
ATOM    101  F   UNL     1      -5.446  22.285   6.698  1.00  0.00    -0.200 F 
ATOM    102  C   UNL     1      -3.624  21.003   7.484  1.00  0.00     0.200 A 
ATOM    103  F   UNL     1      -1.797  19.703   8.224  1.00  0.00    -0.200 F 
ATOM    104  F   UNL     1      -3.601  21.709   8.623  1.00  0.00    -0.200 F 
ENDBRANCH  71  94
ENDBRANCH  45  46
ENDBRANCH  37  40
ENDBRANCH  35  36
ENDBRANCH   1  35
TORSDOF 11
