REMARK SMILES CO[C@@H]1C[C@H](C(=O)NCCCNC(=O)c2ccc(-c3c4nc(c(-c5c(F)c(F)c(F)c(F)c5F)c5ccc([nH]5)c(-c5c(F)c(F)c(F)c(F)c5F)c5nc(c(-c6c(F)c(F)c(F)c(F)c6F)c6ccc3[nH]6)C=C5)C=C4)cc2)N(C(=O)c2ncc(Cl)c(Cl)c2Cl)C1
REMARK SMILES IDX 10 1 9 2 8 3 6 4 7 5 5 7 3 8 4 9 90 10 78 11 2 12 1 13 79 14
REMARK SMILES IDX 80 15 81 16 82 17 88 18 83 19 86 20 89 21 84 22 87 23 85 24
REMARK SMILES IDX 11 25 12 26 13 27 14 29 15 30 16 31 77 32 17 33 76 34 18 35
REMARK SMILES IDX 19 36 20 37 70 38 21 39 75 40 69 41 71 42 22 43 74 44 68 45
REMARK SMILES IDX 67 46 23 48 55 49 35 50 54 51 36 52 39 53 53 54 72 55 37 56
REMARK SMILES IDX 38 57 52 59 73 60 40 61 24 62 25 63 33 64 26 65 27 66 31 67
REMARK SMILES IDX 34 68 28 69 29 70 32 71 30 72 56 73 57 74 65 75 58 76 59 77
REMARK SMILES IDX 63 78 66 79 60 80 61 81 64 82 62 83 41 84 42 85 50 86 43 87
REMARK SMILES IDX 44 88 48 89 51 90 45 91 46 92 49 93 47 94
REMARK H PARENT 8 6 12 28 71 47 39 58
REMARK Flexibility Score: inf
ROOT
ATOM      1  C   UNL     1      -0.648  -0.398  -0.004  1.00  0.00     0.042 C 
ENDROOT
BRANCH   1   2
ATOM      2  C   UNL     1       0.516  -1.437  -0.037  1.00  0.00     0.117 C 
BRANCH   2   3
ATOM      3  N   UNL     1       1.887  -1.072  -0.466  1.00  0.00    -0.354 N 
ATOM      4  C   UNL     1       3.117  -0.758   0.051  1.00  0.00     0.242 C 
ATOM      5  O   UNL     1       4.014  -0.684  -0.808  1.00  0.00    -0.273 OA
ATOM      6  H   UNL     1       1.929  -1.048  -1.449  1.00  0.00     0.163 HD
BRANCH   4   7
ATOM      7  C   UNL     1       3.525  -0.341   1.509  1.00  0.00     0.177 C 
ATOM      8  C   UNL     1       1.896   1.216   2.136  1.00  0.00     0.139 C 
ATOM      9  C   UNL     1       3.394   1.093   2.027  1.00  0.00     0.069 C 
ATOM     10  C   UNL     1       1.577  -0.183   2.828  1.00  0.00     0.152 C 
ATOM     11  N   UNL     1       2.717  -1.046   2.461  1.00  0.00    -0.323 N 
BRANCH   8  12
ATOM     12  O   UNL     1       1.291   1.389   0.850  1.00  0.00    -0.380 OA
ATOM     13  C   UNL     1       1.986   2.022  -0.227  1.00  0.00     0.195 C 
ENDBRANCH   8  12
BRANCH  11  14
ATOM     14  C   UNL     1       3.140  -2.206   3.101  1.00  0.00     0.274 C 
ATOM     15  O   UNL     1       2.426  -2.877   3.837  1.00  0.00    -0.267 OA
BRANCH  14  16
ATOM     16  C   UNL     1       4.607  -2.559   2.953  1.00  0.00     0.148 A 
ATOM     17  N   UNL     1       4.941  -3.260   1.833  1.00  0.00    -0.248 NA
ATOM     18  C   UNL     1       5.552  -1.960   3.794  1.00  0.00     0.092 A 
ATOM     19  C   UNL     1       6.267  -3.384   1.557  1.00  0.00     0.134 A 
ATOM     20  C   UNL     1       6.912  -2.089   3.456  1.00  0.00     0.082 A 
ATOM     21  Cl  UNL     1       5.053  -1.000   5.149  1.00  0.00    -0.080 Cl
ATOM     22  C   UNL     1       7.279  -2.817   2.319  1.00  0.00     0.079 A 
ATOM     23  Cl  UNL     1       8.138  -1.301   4.407  1.00  0.00    -0.081 Cl
ATOM     24  Cl  UNL     1       8.915  -3.016   1.804  1.00  0.00    -0.081 Cl
ENDBRANCH  14  16
ENDBRANCH  11  14
ENDBRANCH   4   7
ENDBRANCH   2   3
ENDBRANCH   1   2
BRANCH   1  25
ATOM     25  C   UNL     1      -0.935   0.490  -1.225  1.00  0.00     0.118 C 
BRANCH  25  26
ATOM     26  N   UNL     1      -1.446  -0.252  -2.361  1.00  0.00    -0.352 N 
ATOM     27  C   UNL     1      -2.447   0.076  -3.236  1.00  0.00     0.251 C 
ATOM     28  H   UNL     1      -1.009  -1.119  -2.527  1.00  0.00     0.163 HD
ATOM     29  O   UNL     1      -2.849  -0.766  -4.044  1.00  0.00    -0.269 OA
BRANCH  27  30
ATOM     30  C   UNL     1      -3.071   1.418  -3.236  1.00  0.00     0.039 A 
ATOM     31  C   UNL     1      -4.466   1.507  -3.193  1.00  0.00     0.014 A 
ATOM     32  C   UNL     1      -2.306   2.579  -3.391  1.00  0.00     0.014 A 
ATOM     33  C   UNL     1      -5.095   2.754  -3.275  1.00  0.00     0.010 A 
ATOM     34  C   UNL     1      -2.937   3.830  -3.442  1.00  0.00     0.010 A 
ATOM     35  C   UNL     1      -4.338   3.932  -3.386  1.00  0.00    -0.014 A 
BRANCH  35  36
ATOM     36  C   UNL     1      -5.012   5.261  -3.427  1.00  0.00     0.031 A 
ATOM     37  C   UNL     1      -4.984   6.106  -4.673  1.00  0.00     0.074 A 
ATOM     38  C   UNL     1      -5.639   5.720  -2.325  1.00  0.00     0.049 A 
ATOM     39  N   UNL     1      -5.510   7.288  -4.887  1.00  0.00    -0.248 NA
ATOM     40  C   UNL     1      -4.256   5.558  -5.827  1.00  0.00     0.031 C 
ATOM     41  C   UNL     1      -5.711   5.013  -1.046  1.00  0.00     0.029 A 
ATOM     42  N   UNL     1      -6.331   6.885  -2.099  1.00  0.00    -0.354 N 
ATOM     43  C   UNL     1      -5.172   7.626  -6.192  1.00  0.00     0.074 A 
ATOM     44  C   UNL     1      -4.355   6.546  -6.705  1.00  0.00     0.031 C 
ATOM     45  C   UNL     1      -6.424   5.747  -0.177  1.00  0.00     0.029 A 
ATOM     46  C   UNL     1      -6.829   6.992  -0.823  1.00  0.00     0.049 A 
ATOM     47  H   UNL     1      -6.457   7.578  -2.787  1.00  0.00     0.167 HD
ATOM     48  C   UNL     1      -5.527   8.725  -6.903  1.00  0.00     0.037 A 
ATOM     49  C   UNL     1      -7.528   7.984  -0.235  1.00  0.00     0.037 A 
ATOM     50  C   UNL     1      -6.350   9.792  -6.391  1.00  0.00     0.049 A 
ATOM     51  C   UNL     1      -7.889   9.204  -1.041  1.00  0.00     0.074 A 
ATOM     52  C   UNL     1      -6.804  10.924  -7.047  1.00  0.00     0.029 A 
ATOM     53  N   UNL     1      -6.836   9.864  -5.093  1.00  0.00    -0.354 N 
ATOM     54  N   UNL     1      -7.623   9.477  -2.295  1.00  0.00    -0.248 NA
ATOM     55  C   UNL     1      -8.658  10.250  -0.352  1.00  0.00     0.031 C 
ATOM     56  C   UNL     1      -7.514  11.707  -6.132  1.00  0.00     0.029 A 
ATOM     57  C   UNL     1      -7.560  11.034  -4.922  1.00  0.00     0.049 A 
ATOM     58  H   UNL     1      -6.688   9.184  -4.397  1.00  0.00     0.167 HD
ATOM     59  C   UNL     1      -8.216  10.706  -2.554  1.00  0.00     0.074 A 
ATOM     60  C   UNL     1      -8.871  11.118  -1.330  1.00  0.00     0.031 C 
ATOM     61  C   UNL     1      -8.217  11.427  -3.701  1.00  0.00     0.037 A 
BRANCH  48  62
ATOM     62  C   UNL     1      -5.025   8.837  -8.317  1.00  0.00     0.064 A 
ATOM     63  C   UNL     1      -5.489   7.989  -9.334  1.00  0.00     0.173 A 
ATOM     64  C   UNL     1      -4.107   9.838  -8.671  1.00  0.00     0.173 A 
ATOM     65  F   UNL     1      -6.364   7.012  -9.052  1.00  0.00    -0.203 F 
ATOM     66  C   UNL     1      -5.027   8.116 -10.643  1.00  0.00     0.198 A 
ATOM     67  C   UNL     1      -3.673   9.984  -9.986  1.00  0.00     0.198 A 
ATOM     68  F   UNL     1      -3.639  10.687  -7.743  1.00  0.00    -0.203 F 
ATOM     69  F   UNL     1      -5.446   7.261 -11.585  1.00  0.00    -0.200 F 
ATOM     70  C   UNL     1      -4.126   9.118 -10.969  1.00  0.00     0.200 A 
ATOM     71  F   UNL     1      -2.816  10.965 -10.303  1.00  0.00    -0.200 F 
ATOM     72  F   UNL     1      -3.690   9.245 -12.230  1.00  0.00    -0.200 F 
ENDBRANCH  48  62
BRANCH  49  73
ATOM     73  C   UNL     1      -7.946   7.861   1.188  1.00  0.00     0.064 A 
ATOM     74  C   UNL     1      -9.300   7.748   1.538  1.00  0.00     0.173 A 
ATOM     75  C   UNL     1      -7.005   7.873   2.228  1.00  0.00     0.173 A 
ATOM     76  F   UNL     1     -10.241   7.753   0.583  1.00  0.00    -0.203 F 
ATOM     77  C   UNL     1      -9.697   7.679   2.872  1.00  0.00     0.198 A 
ATOM     78  C   UNL     1      -7.401   7.770   3.561  1.00  0.00     0.198 A 
ATOM     79  F   UNL     1      -5.697   7.975   1.951  1.00  0.00    -0.203 F 
ATOM     80  F   UNL     1     -11.000   7.629   3.179  1.00  0.00    -0.200 F 
ATOM     81  C   UNL     1      -8.747   7.684   3.882  1.00  0.00     0.200 A 
ATOM     82  F   UNL     1      -6.478   7.758   4.532  1.00  0.00    -0.200 F 
ATOM     83  F   UNL     1      -9.128   7.616   5.165  1.00  0.00    -0.200 F 
ENDBRANCH  49  73
BRANCH  61  84
ATOM     84  C   UNL     1      -8.987  12.718  -3.705  1.00  0.00     0.064 A 
ATOM     85  C   UNL     1      -8.554  13.842  -2.985  1.00  0.00     0.173 A 
ATOM     86  C   UNL     1     -10.155  12.843  -4.474  1.00  0.00     0.173 A 
ATOM     87  F   UNL     1      -7.452  13.771  -2.223  1.00  0.00    -0.203 F 
ATOM     88  C   UNL     1      -9.277  15.032  -3.013  1.00  0.00     0.198 A 
ATOM     89  C   UNL     1     -10.855  14.045  -4.527  1.00  0.00     0.198 A 
ATOM     90  F   UNL     1     -10.610  11.802  -5.188  1.00  0.00    -0.203 F 
ATOM     91  F   UNL     1      -8.872  16.075  -2.275  1.00  0.00    -0.200 F 
ATOM     92  C   UNL     1     -10.421  15.136  -3.790  1.00  0.00     0.200 A 
ATOM     93  F   UNL     1     -11.951  14.148  -5.292  1.00  0.00    -0.200 F 
ATOM     94  F   UNL     1     -11.108  16.285  -3.822  1.00  0.00    -0.200 F 
ENDBRANCH  61  84
ENDBRANCH  35  36
ENDBRANCH  27  30
ENDBRANCH  25  26
ENDBRANCH   1  25
TORSDOF 13
