REMARK SMILES O=C(NCCCNC(=O)[C@H]1[C@H](C(=O)NC2CC[NH+](Cc3ccccc3)CC2)[C@H]2C=C[C@@H]1C2)c1ccc(-c2c3nc(c(-c4c(F)c(F)c(F)c(F)c4F)c4ccc([nH]4)c(-c4c(F)c(F)c(F)c(F)c4F)c4nc(c(-c5c(F)c(F)c(F)c(F)c5F)c5ccc2[nH]5)C=C4)C=C3)cc1
REMARK SMILES IDX 6 1 5 2 4 3 3 4 1 5 2 6 33 8 34 9 95 10 35 11 94 12 36 13
REMARK SMILES IDX 37 14 38 15 88 16 39 17 93 18 87 19 89 20 40 21 92 22 86 23
REMARK SMILES IDX 85 24 41 26 73 27 53 28 72 29 54 30 57 31 71 32 90 33 55 34
REMARK SMILES IDX 56 35 70 37 91 38 58 39 42 40 43 41 51 42 44 43 45 44 49 45
REMARK SMILES IDX 52 46 46 47 47 48 50 49 48 50 74 51 75 52 83 53 76 54 77 55
REMARK SMILES IDX 81 56 84 57 78 58 79 59 82 60 80 61 59 62 60 63 68 64 61 65
REMARK SMILES IDX 62 66 66 67 69 68 63 69 64 70 67 71 65 72 7 73 8 74 9 76
REMARK SMILES IDX 10 77 11 78 31 79 28 80 30 81 32 82 29 83 12 84 13 85 14 86
REMARK SMILES IDX 15 88 16 89 27 90 17 91 26 92 18 93 19 95 20 96 21 97 25 98
REMARK SMILES IDX 22 99 24 100 23 101
REMARK H PARENT 3 7 89 25 57 36 7 75 14 87 18 94
REMARK Flexibility Score: inf
ROOT
ATOM      1  C   UNL     1       8.081   7.864  -0.863  1.00  0.00     0.117 C 
ENDROOT
BRANCH   1   2
ATOM      2  C   UNL     1       8.843   6.600  -1.217  1.00  0.00     0.042 C 
BRANCH   2   3
ATOM      3  C   UNL     1       8.496   6.045  -2.587  1.00  0.00     0.118 C 
BRANCH   3   4
ATOM      4  N   UNL     1       8.409   7.074  -3.614  1.00  0.00    -0.352 N 
ATOM      5  O   UNL     1       9.114   8.223  -5.428  1.00  0.00    -0.269 OA
ATOM      6  C   UNL     1       9.136   7.193  -4.762  1.00  0.00     0.251 C 
ATOM      7  H   UNL     1       7.738   7.777  -3.459  1.00  0.00     0.163 HD
BRANCH   6   8
ATOM      8  C   UNL     1       9.924   6.035  -5.196  1.00  0.00     0.039 A 
ATOM      9  C   UNL     1       9.307   4.779  -5.242  1.00  0.00     0.014 A 
ATOM     10  C   UNL     1      11.257   6.205  -5.563  1.00  0.00     0.014 A 
ATOM     11  C   UNL     1      10.049   3.668  -5.596  1.00  0.00     0.010 A 
ATOM     12  C   UNL     1      11.976   5.101  -6.009  1.00  0.00     0.010 A 
ATOM     13  C   UNL     1      11.365   3.837  -6.048  1.00  0.00    -0.014 A 
BRANCH  13  14
ATOM     14  C   UNL     1      12.015   2.721  -6.763  1.00  0.00     0.031 A 
ATOM     15  C   UNL     1      13.240   2.061  -6.223  1.00  0.00     0.074 A 
ATOM     16  C   UNL     1      11.477   2.362  -7.946  1.00  0.00     0.049 A 
ATOM     17  N   UNL     1      13.982   1.140  -6.780  1.00  0.00    -0.248 NA
ATOM     18  C   UNL     1      13.708   2.495  -4.898  1.00  0.00     0.031 C 
ATOM     19  C   UNL     1      10.290   2.978  -8.552  1.00  0.00     0.029 A 
ATOM     20  N   UNL     1      11.852   1.409  -8.854  1.00  0.00    -0.354 N 
ATOM     21  C   UNL     1      15.017   0.900  -5.889  1.00  0.00     0.074 A 
ATOM     22  C   UNL     1      14.815   1.776  -4.755  1.00  0.00     0.031 C 
ATOM     23  C   UNL     1      10.023   2.374  -9.716  1.00  0.00     0.029 A 
ATOM     24  C   UNL     1      11.064   1.393  -9.979  1.00  0.00     0.049 A 
ATOM     25  H   UNL     1      12.610   0.797  -8.715  1.00  0.00     0.167 HD
ATOM     26  C   UNL     1      16.039   0.024  -6.027  1.00  0.00     0.037 A 
ATOM     27  C   UNL     1      11.198   0.700 -11.122  1.00  0.00     0.037 A 
ATOM     28  C   UNL     1      16.200  -0.847  -7.165  1.00  0.00     0.049 A 
ATOM     29  C   UNL     1      12.362  -0.237 -11.247  1.00  0.00     0.074 A 
ATOM     30  C   UNL     1      17.157  -1.824  -7.372  1.00  0.00     0.029 A 
ATOM     31  N   UNL     1      15.389  -0.834  -8.292  1.00  0.00    -0.354 N 
ATOM     32  N   UNL     1      13.301  -0.506 -10.372  1.00  0.00    -0.248 NA
ATOM     33  C   UNL     1      12.494  -0.959 -12.517  1.00  0.00     0.031 C 
ATOM     34  C   UNL     1      16.965  -2.358  -8.649  1.00  0.00     0.029 A 
ATOM     35  C   UNL     1      15.852  -1.756  -9.217  1.00  0.00     0.049 A 
ATOM     36  H   UNL     1      14.602  -0.256  -8.416  1.00  0.00     0.167 HD
ATOM     37  C   UNL     1      14.131  -1.433 -10.981  1.00  0.00     0.074 A 
ATOM     38  C   UNL     1      13.562  -1.707 -12.286  1.00  0.00     0.031 C 
ATOM     39  C   UNL     1      15.268  -2.001 -10.511  1.00  0.00     0.037 A 
BRANCH  26  40
ATOM     40  C   UNL     1      17.080  -0.034  -4.950  1.00  0.00     0.064 A 
ATOM     41  C   UNL     1      16.822  -0.614  -3.700  1.00  0.00     0.173 A 
ATOM     42  C   UNL     1      18.386   0.409  -5.211  1.00  0.00     0.173 A 
ATOM     43  F   UNL     1      15.588  -1.045  -3.397  1.00  0.00    -0.203 F 
ATOM     44  C   UNL     1      17.833  -0.748  -2.751  1.00  0.00     0.198 A 
ATOM     45  C   UNL     1      19.400   0.252  -4.269  1.00  0.00     0.198 A 
ATOM     46  F   UNL     1      18.687   0.970  -6.392  1.00  0.00    -0.203 F 
ATOM     47  F   UNL     1      17.560  -1.290  -1.556  1.00  0.00    -0.200 F 
ATOM     48  C   UNL     1      19.122  -0.326  -3.040  1.00  0.00     0.200 A 
ATOM     49  F   UNL     1      20.648   0.647  -4.557  1.00  0.00    -0.200 F 
ATOM     50  F   UNL     1      20.099  -0.479  -2.135  1.00  0.00    -0.200 F 
ENDBRANCH  26  40
BRANCH  27  51
ATOM     51  C   UNL     1      10.243   0.910 -12.240  1.00  0.00     0.064 A 
ATOM     52  C   UNL     1       9.392  -0.117 -12.668  1.00  0.00     0.173 A 
ATOM     53  C   UNL     1      10.168   2.141 -12.913  1.00  0.00     0.173 A 
ATOM     54  F   UNL     1       9.434  -1.315 -12.067  1.00  0.00    -0.203 F 
ATOM     55  C   UNL     1       8.529   0.067 -13.746  1.00  0.00     0.198 A 
ATOM     56  C   UNL     1       9.277   2.336 -13.964  1.00  0.00     0.198 A 
ATOM     57  F   UNL     1      10.953   3.162 -12.537  1.00  0.00    -0.203 F 
ATOM     58  F   UNL     1       7.771  -0.952 -14.174  1.00  0.00    -0.200 F 
ATOM     59  C   UNL     1       8.468   1.294 -14.390  1.00  0.00     0.200 A 
ATOM     60  F   UNL     1       9.207   3.530 -14.568  1.00  0.00    -0.200 F 
ATOM     61  F   UNL     1       7.638   1.469 -15.427  1.00  0.00    -0.200 F 
ENDBRANCH  27  51
BRANCH  39  62
ATOM     62  C   UNL     1      15.956  -2.977 -11.416  1.00  0.00     0.064 A 
ATOM     63  C   UNL     1      16.630  -2.551 -12.571  1.00  0.00     0.173 A 
ATOM     64  C   UNL     1      15.962  -4.346 -11.114  1.00  0.00     0.173 A 
ATOM     65  F   UNL     1      16.632  -1.254 -12.912  1.00  0.00    -0.203 F 
ATOM     66  C   UNL     1      17.263  -3.467 -13.405  1.00  0.00     0.198 A 
ATOM     67  C   UNL     1      16.626  -5.254 -11.932  1.00  0.00     0.198 A 
ATOM     68  F   UNL     1      15.334  -4.800 -10.019  1.00  0.00    -0.203 F 
ATOM     69  F   UNL     1      17.854  -3.046 -14.532  1.00  0.00    -0.200 F 
ATOM     70  C   UNL     1      17.268  -4.816 -13.080  1.00  0.00     0.200 A 
ATOM     71  F   UNL     1      16.643  -6.555 -11.610  1.00  0.00    -0.200 F 
ATOM     72  F   UNL     1      17.886  -5.695 -13.880  1.00  0.00    -0.200 F 
ENDBRANCH  39  62
ENDBRANCH  13  14
ENDBRANCH   6   8
ENDBRANCH   3   4
ENDBRANCH   2   3
ENDBRANCH   1   2
BRANCH   1  73
ATOM     73  N   UNL     1       6.671   7.615  -0.700  1.00  0.00    -0.356 N 
ATOM     74  C   UNL     1       5.908   7.418   0.388  1.00  0.00     0.224 C 
ATOM     75  H   UNL     1       6.172   7.583  -1.548  1.00  0.00     0.163 HD
ATOM     76  O   UNL     1       4.688   7.371   0.166  1.00  0.00    -0.275 OA
BRANCH  74  77
ATOM     77  C   UNL     1       6.376   7.340   1.836  1.00  0.00     0.098 C 
ATOM     78  C   UNL     1       7.815   6.955   2.336  1.00  0.00     0.098 C 
ATOM     79  C   UNL     1       6.150   8.745   2.472  1.00  0.00     0.025 C 
ATOM     80  C   UNL     1       8.156   8.141   3.275  1.00  0.00     0.025 C 
ATOM     81  C   UNL     1       7.142   9.726   1.913  1.00  0.00    -0.027 C 
ATOM     82  C   UNL     1       6.797   8.561   3.835  1.00  0.00     0.017 C 
ATOM     83  C   UNL     1       8.348   9.373   2.390  1.00  0.00    -0.027 C 
BRANCH  78  84
ATOM     84  C   UNL     1       8.310   5.537   2.761  1.00  0.00     0.224 C 
ATOM     85  O   UNL     1       9.066   4.978   1.935  1.00  0.00    -0.275 OA
ATOM     86  N   UNL     1       8.157   4.755   3.847  1.00  0.00    -0.353 N 
ATOM     87  H   UNL     1       8.722   3.960   3.710  1.00  0.00     0.163 HD
BRANCH  86  88
ATOM     88  C   UNL     1       7.489   4.590   5.172  1.00  0.00     0.093 C 
ATOM     89  C   UNL     1       7.010   3.135   5.380  1.00  0.00     0.086 C 
ATOM     90  C   UNL     1       6.241   5.396   5.412  1.00  0.00     0.086 C 
ATOM     91  C   UNL     1       5.984   2.749   4.309  1.00  0.00     0.264 C 
ATOM     92  C   UNL     1       5.278   5.109   4.270  1.00  0.00     0.264 C 
ATOM     93  N   UNL     1       4.908   3.712   4.052  1.00  0.00    -0.331 N 
ATOM     94  H   UNL     1       4.222   3.478   4.769  1.00  0.00     0.348 HD
BRANCH  93  95
ATOM     95  C   UNL     1       4.236   3.538   2.721  1.00  0.00     0.299 C 
BRANCH  95  96
ATOM     96  C   UNL     1       5.064   3.165   1.487  1.00  0.00     0.006 A 
ATOM     97  C   UNL     1       5.202   4.042   0.404  1.00  0.00     0.009 A 
ATOM     98  C   UNL     1       5.637   1.889   1.347  1.00  0.00     0.009 A 
ATOM     99  C   UNL     1       5.953   3.694  -0.728  1.00  0.00     0.001 A 
ATOM    100  C   UNL     1       6.426   1.553   0.241  1.00  0.00     0.001 A 
ATOM    101  C   UNL     1       6.594   2.462  -0.796  1.00  0.00     0.000 A 
ENDBRANCH  95  96
ENDBRANCH  93  95
ENDBRANCH  86  88
ENDBRANCH  78  84
ENDBRANCH  74  77
ENDBRANCH   1  73
TORSDOF 14
