REMARK SMILES Cc1cc(N(C)C[C@H]2C[C@@H]2C)cc(C(=O)NCCCNC(=O)c2ccc(-c3c4nc(c(-c5c(F)c(F)c(F)c(F)c5F)c5ccc([nH]5)c(-c5c(F)c(F)c(F)c(F)c5F)c5nc(c(-c6c(F)c(F)c(F)c(F)c6F)c6ccc3[nH]6)C=C5)C=C4)cc2)c1N
REMARK SMILES IDX 17 1 16 2 14 3 15 4 13 6 1 7 2 8 3 9 86 10 4 11 12 12 87 13
REMARK SMILES IDX 5 16 6 17 7 18 8 19 9 20 10 21 11 22 18 23 19 24 20 25 21 26
REMARK SMILES IDX 22 28 23 29 24 30 85 31 25 32 84 33 26 34 27 35 28 36 78 37
REMARK SMILES IDX 29 38 83 39 77 40 79 41 30 42 82 43 76 44 75 45 31 47 63 48
REMARK SMILES IDX 43 49 62 50 44 51 47 52 61 53 80 54 45 55 46 56 60 58 81 59
REMARK SMILES IDX 48 60 32 61 33 62 41 63 34 64 35 65 39 66 42 67 36 68 37 69
REMARK SMILES IDX 40 70 38 71 64 72 65 73 73 74 66 75 67 76 71 77 74 78 68 79
REMARK SMILES IDX 69 80 72 81 70 82 49 83 50 84 58 85 51 86 52 87 56 88 59 89
REMARK SMILES IDX 53 90 54 91 57 92 55 93
REMARK H PARENT 16 5 87 14 87 15 20 27 79 46 47 57
REMARK Flexibility Score: inf
ROOT
ATOM      1  C   UNL     1      -2.816  -3.273   1.017  1.00  0.00     0.118 C 
ENDROOT
BRANCH   1   2
ATOM      2  N   UNL     1      -3.483  -3.404  -0.264  1.00  0.00    -0.352 N 
ATOM      3  C   UNL     1      -4.082  -2.519  -1.125  1.00  0.00     0.253 C 
ATOM      4  O   UNL     1      -4.584  -3.033  -2.131  1.00  0.00    -0.269 OA
ATOM      5  H   UNL     1      -3.514  -4.333  -0.586  1.00  0.00     0.163 HD
BRANCH   3   6
ATOM      6  C   UNL     1      -4.133  -1.027  -0.942  1.00  0.00     0.065 A 
ATOM      7  C   UNL     1      -4.633   2.114  -3.071  1.00  0.00     0.046 C 
ATOM      8  C   UNL     1      -4.430   1.178  -1.909  1.00  0.00    -0.025 A 
ATOM      9  C   UNL     1      -4.288   1.731  -0.625  1.00  0.00     0.031 A 
ATOM     10  C   UNL     1      -4.347  -0.212  -2.082  1.00  0.00     0.047 A 
ATOM     11  C   UNL     1      -3.965   0.976   0.507  1.00  0.00     0.038 A 
ATOM     12  C   UNL     1      -4.016  -0.414   0.322  1.00  0.00     0.042 A 
BRANCH  10  13
ATOM     13  N   UNL     1      -4.324  -0.739  -3.378  1.00  0.00    -0.398 N 
ATOM     14  H   UNL     1      -4.476  -0.150  -4.152  1.00  0.00     0.156 HD
ATOM     15  H   UNL     1      -4.157  -1.700  -3.517  1.00  0.00     0.156 HD
ENDBRANCH  10  13
BRANCH  11  16
ATOM     16  N   UNL     1      -3.574   1.567   1.704  1.00  0.00    -0.374 N 
ATOM     17  C   UNL     1      -3.174   0.789   2.876  1.00  0.00     0.143 C 
BRANCH  16  18
ATOM     18  C   UNL     1      -3.479   3.029   1.876  1.00  0.00     0.120 C 
BRANCH  18  19
ATOM     19  C   UNL     1      -2.382   3.640   1.042  1.00  0.00     0.011 C 
ATOM     20  C   UNL     1      -1.518   4.756   1.582  1.00  0.00     0.009 C 
ATOM     21  C   UNL     1      -0.919   3.397   1.321  1.00  0.00    -0.009 C 
ATOM     22  C   UNL     1       0.002   3.179   0.167  1.00  0.00     0.008 C 
ENDBRANCH  18  19
ENDBRANCH  16  18
ENDBRANCH  11  16
ENDBRANCH   3   6
ENDBRANCH   1   2
BRANCH   1  23
ATOM     23  C   UNL     1      -3.788  -3.554   2.165  1.00  0.00     0.042 C 
BRANCH  23  24
ATOM     24  C   UNL     1      -4.135  -5.035   2.311  1.00  0.00     0.118 C 
BRANCH  24  25
ATOM     25  N   UNL     1      -3.003  -5.812   2.798  1.00  0.00    -0.352 N 
ATOM     26  C   UNL     1      -2.878  -6.580   3.927  1.00  0.00     0.251 C 
ATOM     27  H   UNL     1      -2.202  -5.780   2.226  1.00  0.00     0.163 HD
ATOM     28  O   UNL     1      -1.766  -6.961   4.281  1.00  0.00    -0.269 OA
BRANCH  26  29
ATOM     29  C   UNL     1      -4.066  -6.951   4.726  1.00  0.00     0.039 A 
ATOM     30  C   UNL     1      -3.966  -6.949   6.120  1.00  0.00     0.014 A 
ATOM     31  C   UNL     1      -5.255  -7.354   4.112  1.00  0.00     0.014 A 
ATOM     32  C   UNL     1      -5.070  -7.301   6.899  1.00  0.00     0.010 A 
ATOM     33  C   UNL     1      -6.375  -7.642   4.888  1.00  0.00     0.010 A 
ATOM     34  C   UNL     1      -6.293  -7.623   6.289  1.00  0.00    -0.014 A 
BRANCH  34  35
ATOM     35  C   UNL     1      -7.497  -7.943   7.096  1.00  0.00     0.031 A 
ATOM     36  C   UNL     1      -8.108  -9.315   7.030  1.00  0.00     0.074 A 
ATOM     37  C   UNL     1      -8.082  -6.976   7.828  1.00  0.00     0.049 A 
ATOM     38  N   UNL     1      -9.213  -9.758   7.575  1.00  0.00    -0.248 NA
ATOM     39  C   UNL     1      -7.397 -10.316   6.220  1.00  0.00     0.031 C 
ATOM     40  C   UNL     1      -7.606  -5.597   7.939  1.00  0.00     0.029 A 
ATOM     41  N   UNL     1      -9.215  -7.000   8.603  1.00  0.00    -0.354 N 
ATOM     42  C   UNL     1      -9.339 -11.076   7.158  1.00  0.00     0.074 A 
ATOM     43  C   UNL     1      -8.223 -11.350   6.279  1.00  0.00     0.031 C 
ATOM     44  C   UNL     1      -8.433  -4.910   8.743  1.00  0.00     0.029 A 
ATOM     45  C   UNL     1      -9.518  -5.787   9.172  1.00  0.00     0.049 A 
ATOM     46  H   UNL     1      -9.759  -7.810   8.738  1.00  0.00     0.167 HD
ATOM     47  C   UNL     1     -10.290 -11.980   7.494  1.00  0.00     0.037 A 
ATOM     48  C   UNL     1     -10.561  -5.420   9.940  1.00  0.00     0.037 A 
ATOM     49  C   UNL     1     -11.382 -11.710   8.392  1.00  0.00     0.049 A 
ATOM     50  C   UNL     1     -11.604  -6.444  10.298  1.00  0.00     0.074 A 
ATOM     51  C   UNL     1     -12.361 -12.576   8.847  1.00  0.00     0.029 A 
ATOM     52  N   UNL     1     -11.640 -10.475   8.970  1.00  0.00    -0.354 N 
ATOM     53  N   UNL     1     -11.678  -7.706   9.950  1.00  0.00    -0.248 NA
ATOM     54  C   UNL     1     -12.705  -5.995  11.161  1.00  0.00     0.031 C 
ATOM     55  C   UNL     1     -13.237 -11.855   9.664  1.00  0.00     0.029 A 
ATOM     56  C   UNL     1     -12.776 -10.552   9.761  1.00  0.00     0.049 A 
ATOM     57  H   UNL     1     -11.097  -9.665   8.839  1.00  0.00     0.167 HD
ATOM     58  C   UNL     1     -12.813  -8.207  10.570  1.00  0.00     0.074 A 
ATOM     59  C   UNL     1     -13.391  -7.117  11.329  1.00  0.00     0.031 C 
ATOM     60  C   UNL     1     -13.331  -9.459  10.517  1.00  0.00     0.037 A 
BRANCH  47  61
ATOM     61  C   UNL     1     -10.193 -13.351   6.889  1.00  0.00     0.064 A 
ATOM     62  C   UNL     1      -9.182 -14.251   7.260  1.00  0.00     0.173 A 
ATOM     63  C   UNL     1     -11.148 -13.788   5.957  1.00  0.00     0.173 A 
ATOM     64  F   UNL     1      -8.239 -13.881   8.139  1.00  0.00    -0.203 F 
ATOM     65  C   UNL     1      -9.114 -15.524   6.701  1.00  0.00     0.198 A 
ATOM     66  C   UNL     1     -11.094 -15.073   5.423  1.00  0.00     0.198 A 
ATOM     67  F   UNL     1     -12.140 -12.972   5.572  1.00  0.00    -0.203 F 
ATOM     68  F   UNL     1      -8.111 -16.348   7.036  1.00  0.00    -0.200 F 
ATOM     69  C   UNL     1     -10.073 -15.937   5.789  1.00  0.00     0.200 A 
ATOM     70  F   UNL     1     -12.031 -15.475   4.553  1.00  0.00    -0.200 F 
ATOM     71  F   UNL     1     -10.011 -17.166   5.258  1.00  0.00    -0.200 F 
ENDBRANCH  47  61
BRANCH  48  72
ATOM     72  C   UNL     1     -10.660  -4.023  10.436  1.00  0.00     0.064 A 
ATOM     73  C   UNL     1     -10.479  -3.728  11.794  1.00  0.00     0.173 A 
ATOM     74  C   UNL     1     -10.932  -2.957   9.566  1.00  0.00     0.173 A 
ATOM     75  F   UNL     1     -10.237  -4.716  12.667  1.00  0.00    -0.203 F 
ATOM     76  C   UNL     1     -10.585  -2.421  12.267  1.00  0.00     0.198 A 
ATOM     77  C   UNL     1     -11.009  -1.647  10.036  1.00  0.00     0.198 A 
ATOM     78  F   UNL     1     -11.106  -3.185   8.256  1.00  0.00    -0.203 F 
ATOM     79  F   UNL     1     -10.450  -2.173  13.576  1.00  0.00    -0.200 F 
ATOM     80  C   UNL     1     -10.844  -1.381  11.387  1.00  0.00     0.200 A 
ATOM     81  F   UNL     1     -11.243  -0.643   9.180  1.00  0.00    -0.200 F 
ATOM     82  F   UNL     1     -10.939  -0.124  11.841  1.00  0.00    -0.200 F 
ENDBRANCH  48  72
BRANCH  60  83
ATOM     83  C   UNL     1     -14.565  -9.729  11.327  1.00  0.00     0.064 A 
ATOM     84  C   UNL     1     -15.817  -9.221  10.953  1.00  0.00     0.173 A 
ATOM     85  C   UNL     1     -14.500 -10.547  12.465  1.00  0.00     0.173 A 
ATOM     86  F   UNL     1     -15.929  -8.421   9.882  1.00  0.00    -0.203 F 
ATOM     87  C   UNL     1     -16.957  -9.506  11.701  1.00  0.00     0.198 A 
ATOM     88  C   UNL     1     -15.645 -10.854  13.193  1.00  0.00     0.198 A 
ATOM     89  F   UNL     1     -13.326 -11.062  12.862  1.00  0.00    -0.203 F 
ATOM     90  F   UNL     1     -18.136  -8.976  11.350  1.00  0.00    -0.200 F 
ATOM     91  C   UNL     1     -16.871 -10.329  12.814  1.00  0.00     0.200 A 
ATOM     92  F   UNL     1     -15.563 -11.660  14.261  1.00  0.00    -0.200 F 
ATOM     93  F   UNL     1     -17.971 -10.610  13.527  1.00  0.00    -0.200 F 
ENDBRANCH  60  83
ENDBRANCH  34  35
ENDBRANCH  26  29
ENDBRANCH  24  25
ENDBRANCH  23  24
ENDBRANCH   1  23
TORSDOF 14
