REMARK SMILES Cc1nc[nH]c1C(=O)N1CCC2(CC1)C[C@@H](C(=O)NCCCNC(=O)c1ccc(-c3c4nc(c(-c5c(F)c(F)c(F)c(F)c5F)c5ccc([nH]5)c(-c5c(F)c(F)c(F)c(F)c5F)c5nc(c(-c6c(F)c(F)c(F)c(F)c6F)c6ccc3[nH]6)C=C5)C=C4)cc1)N(C(=O)C1CC1)C2
REMARK SMILES IDX 21 1 20 2 19 3 17 4 18 5 16 7 7 8 8 9 9 10 10 11 14 12 11 13
REMARK SMILES IDX 13 14 12 15 15 16 95 17 89 18 6 19 1 20 2 21 3 22 4 23 5 24
REMARK SMILES IDX 90 26 91 27 92 28 93 29 94 30 22 31 23 32 24 33 25 35 26 36
REMARK SMILES IDX 27 37 88 38 28 39 87 40 29 41 30 42 31 43 81 44 32 45 86 46
REMARK SMILES IDX 80 47 82 48 33 49 85 50 79 51 78 52 34 54 66 55 46 56 65 57
REMARK SMILES IDX 47 58 50 59 64 60 83 61 48 62 49 63 63 65 84 66 51 67 35 68
REMARK SMILES IDX 36 69 44 70 37 71 38 72 42 73 45 74 39 75 40 76 43 77 41 78
REMARK SMILES IDX 67 79 68 80 76 81 69 82 70 83 74 84 77 85 71 86 72 87 75 88
REMARK SMILES IDX 73 89 52 90 53 91 61 92 54 93 55 94 59 95 62 96 56 97 57 98
REMARK SMILES IDX 60 99 58 100
REMARK H PARENT 19 6 5 25 23 34 82 53 50 64
REMARK Flexibility Score: inf
ROOT
ATOM      1  C   UNL     1       6.417  -3.635   2.707  1.00  0.00     0.042 C 
ENDROOT
BRANCH   1   2
ATOM      2  C   UNL     1       6.598  -2.437   1.803  1.00  0.00     0.117 C 
BRANCH   2   3
ATOM      3  N   UNL     1       7.827  -2.338   1.076  1.00  0.00    -0.354 N 
ATOM      4  C   UNL     1       7.943  -2.260  -0.291  1.00  0.00     0.242 C 
ATOM      5  O   UNL     1       8.866  -1.557  -0.718  1.00  0.00    -0.273 OA
ATOM      6  H   UNL     1       8.660  -2.326   1.600  1.00  0.00     0.163 HD
BRANCH   4   7
ATOM      7  C   UNL     1       6.881  -2.864  -1.273  1.00  0.00     0.175 C 
ATOM      8  C   UNL     1       0.145  -2.344  -0.471  1.00  0.00     0.272 C 
ATOM      9  O   UNL     1      -0.649  -3.238  -0.767  1.00  0.00    -0.267 OA
ATOM     10  N   UNL     1       1.510  -2.559  -0.560  1.00  0.00    -0.337 N 
ATOM     11  C   UNL     1       2.022  -3.451  -1.588  1.00  0.00     0.120 C 
ATOM     12  C   UNL     1       2.404  -2.308   0.551  1.00  0.00     0.120 C 
ATOM     13  C   UNL     1       3.332  -2.882  -2.161  1.00  0.00     0.030 C 
ATOM     14  C   UNL     1       3.733  -1.786   0.034  1.00  0.00     0.030 C 
ATOM     15  C   UNL     1       4.402  -2.683  -1.050  1.00  0.00    -0.006 C 
ATOM     16  C   UNL     1       5.678  -1.969  -1.580  1.00  0.00     0.044 C 
ATOM     17  C   UNL     1       4.895  -4.081  -0.604  1.00  0.00     0.127 C 
ATOM     18  N   UNL     1       6.320  -4.151  -0.873  1.00  0.00    -0.330 N 
BRANCH   8  19
ATOM     19  C   UNL     1      -0.332  -1.026  -0.109  1.00  0.00     0.127 A 
ATOM     20  C   UNL     1       1.552   0.766  -0.416  1.00  0.00     0.069 C 
ATOM     21  C   UNL     1       0.203   0.258  -0.089  1.00  0.00     0.068 A 
ATOM     22  N   UNL     1      -0.764   1.187   0.229  1.00  0.00    -0.241 NA
ATOM     23  C   UNL     1      -1.879   0.512   0.348  1.00  0.00     0.197 A 
ATOM     24  N   UNL     1      -1.666  -0.820   0.180  1.00  0.00    -0.340 N 
ATOM     25  H   UNL     1      -2.352  -1.522   0.252  1.00  0.00     0.168 HD
ENDBRANCH   8  19
BRANCH  18  26
ATOM     26  C   UNL     1       7.132  -5.269  -1.024  1.00  0.00     0.226 C 
ATOM     27  O   UNL     1       8.256  -5.167  -1.502  1.00  0.00    -0.275 OA
BRANCH  26  28
ATOM     28  C   UNL     1       6.729  -6.638  -0.599  1.00  0.00     0.079 C 
ATOM     29  C   UNL     1       5.491  -7.112   0.100  1.00  0.00     0.014 C 
ATOM     30  C   UNL     1       5.678  -7.407  -1.362  1.00  0.00     0.014 C 
ENDBRANCH  26  28
ENDBRANCH  18  26
ENDBRANCH   4   7
ENDBRANCH   2   3
ENDBRANCH   1   2
BRANCH   1  31
ATOM     31  C   UNL     1       6.632  -3.304   4.169  1.00  0.00     0.118 C 
BRANCH  31  32
ATOM     32  N   UNL     1       5.655  -2.353   4.701  1.00  0.00    -0.352 N 
ATOM     33  C   UNL     1       4.933  -2.379   5.871  1.00  0.00     0.251 C 
ATOM     34  H   UNL     1       5.489  -1.568   4.130  1.00  0.00     0.163 HD
ATOM     35  O   UNL     1       4.081  -1.520   6.076  1.00  0.00    -0.269 OA
BRANCH  33  36
ATOM     36  C   UNL     1       5.146  -3.461   6.857  1.00  0.00     0.039 A 
ATOM     37  C   UNL     1       4.050  -3.961   7.564  1.00  0.00     0.014 A 
ATOM     38  C   UNL     1       6.413  -4.003   7.068  1.00  0.00     0.014 A 
ATOM     39  C   UNL     1       4.220  -5.053   8.416  1.00  0.00     0.010 A 
ATOM     40  C   UNL     1       6.553  -5.174   7.796  1.00  0.00     0.010 A 
ATOM     41  C   UNL     1       5.465  -5.699   8.501  1.00  0.00    -0.014 A 
BRANCH  41  42
ATOM     42  C   UNL     1       5.651  -6.909   9.339  1.00  0.00     0.031 A 
ATOM     43  C   UNL     1       6.657  -6.906  10.458  1.00  0.00     0.074 A 
ATOM     44  C   UNL     1       4.957  -8.026   9.050  1.00  0.00     0.049 A 
ATOM     45  N   UNL     1       6.964  -7.864  11.296  1.00  0.00    -0.248 NA
ATOM     46  C   UNL     1       7.456  -5.683  10.637  1.00  0.00     0.031 C 
ATOM     47  C   UNL     1       4.024  -8.176   7.931  1.00  0.00     0.029 A 
ATOM     48  N   UNL     1       4.926  -9.248   9.673  1.00  0.00    -0.354 N 
ATOM     49  C   UNL     1       7.995  -7.363  12.080  1.00  0.00     0.074 A 
ATOM     50  C   UNL     1       8.319  -6.051  11.569  1.00  0.00     0.031 C 
ATOM     51  C   UNL     1       3.476  -9.400   7.976  1.00  0.00     0.029 A 
ATOM     52  C   UNL     1       4.045 -10.133   9.102  1.00  0.00     0.049 A 
ATOM     53  H   UNL     1       5.482  -9.468  10.454  1.00  0.00     0.167 HD
ATOM     54  C   UNL     1       8.594  -7.931  13.153  1.00  0.00     0.037 A 
ATOM     55  C   UNL     1       3.726 -11.393   9.456  1.00  0.00     0.037 A 
ATOM     56  C   UNL     1       8.241  -9.225  13.672  1.00  0.00     0.049 A 
ATOM     57  C   UNL     1       4.374 -11.989  10.675  1.00  0.00     0.074 A 
ATOM     58  C   UNL     1       8.724  -9.864  14.799  1.00  0.00     0.029 A 
ATOM     59  N   UNL     1       7.315 -10.079  13.091  1.00  0.00    -0.354 N 
ATOM     60  N   UNL     1       5.276 -11.467  11.472  1.00  0.00    -0.248 NA
ATOM     61  C   UNL     1       3.947 -13.341  11.055  1.00  0.00     0.031 C 
ATOM     62  C   UNL     1       8.135 -11.131  14.865  1.00  0.00     0.029 A 
ATOM     63  C   UNL     1       7.232 -11.254  13.821  1.00  0.00     0.049 A 
ATOM     64  H   UNL     1       6.794  -9.881  12.279  1.00  0.00     0.167 HD
ATOM     65  C   UNL     1       5.503 -12.411  12.463  1.00  0.00     0.074 A 
ATOM     66  C   UNL     1       4.631 -13.532  12.175  1.00  0.00     0.031 C 
ATOM     67  C   UNL     1       6.354 -12.356  13.518  1.00  0.00     0.037 A 
BRANCH  54  68
ATOM     68  C   UNL     1       9.687  -7.153  13.833  1.00  0.00     0.064 A 
ATOM     69  C   UNL     1       9.429  -5.953  14.516  1.00  0.00     0.173 A 
ATOM     70  C   UNL     1      11.009  -7.621  13.814  1.00  0.00     0.173 A 
ATOM     71  F   UNL     1       8.185  -5.451  14.556  1.00  0.00    -0.203 F 
ATOM     72  C   UNL     1      10.458  -5.232  15.118  1.00  0.00     0.198 A 
ATOM     73  C   UNL     1      12.030  -6.917  14.449  1.00  0.00     0.198 A 
ATOM     74  F   UNL     1      11.315  -8.763  13.180  1.00  0.00    -0.203 F 
ATOM     75  F   UNL     1      10.196  -4.057  15.705  1.00  0.00    -0.200 F 
ATOM     76  C   UNL     1      11.756  -5.719  15.090  1.00  0.00     0.200 A 
ATOM     77  F   UNL     1      13.281  -7.396  14.434  1.00  0.00    -0.200 F 
ATOM     78  F   UNL     1      12.745  -5.027  15.673  1.00  0.00    -0.200 F 
ENDBRANCH  54  68
BRANCH  55  79
ATOM     79  C   UNL     1       2.711 -12.145   8.672  1.00  0.00     0.064 A 
ATOM     80  C   UNL     1       1.451 -12.439   9.213  1.00  0.00     0.173 A 
ATOM     81  C   UNL     1       2.970 -12.566   7.359  1.00  0.00     0.173 A 
ATOM     82  F   UNL     1       1.159 -12.069  10.469  1.00  0.00    -0.203 F 
ATOM     83  C   UNL     1       0.497 -13.141   8.479  1.00  0.00     0.198 A 
ATOM     84  C   UNL     1       2.004 -13.241   6.615  1.00  0.00     0.198 A 
ATOM     85  F   UNL     1       4.154 -12.299   6.789  1.00  0.00    -0.203 F 
ATOM     86  F   UNL     1      -0.683 -13.444   9.036  1.00  0.00    -0.200 F 
ATOM     87  C   UNL     1       0.772 -13.536   7.178  1.00  0.00     0.200 A 
ATOM     88  F   UNL     1       2.266 -13.601   5.351  1.00  0.00    -0.200 F 
ATOM     89  F   UNL     1      -0.150 -14.201   6.469  1.00  0.00    -0.200 F 
ENDBRANCH  55  79
BRANCH  67  90
ATOM     90  C   UNL     1       6.352 -13.523  14.464  1.00  0.00     0.064 A 
ATOM     91  C   UNL     1       6.859 -14.777  14.094  1.00  0.00     0.173 A 
ATOM     92  C   UNL     1       5.866 -13.369  15.772  1.00  0.00     0.173 A 
ATOM     93  F   UNL     1       7.324 -14.979  12.852  1.00  0.00    -0.203 F 
ATOM     94  C   UNL     1       6.847 -15.844  14.989  1.00  0.00     0.198 A 
ATOM     95  C   UNL     1       5.891 -14.428  16.674  1.00  0.00     0.198 A 
ATOM     96  F   UNL     1       5.380 -12.187  16.179  1.00  0.00    -0.203 F 
ATOM     97  F   UNL     1       7.282 -17.049  14.595  1.00  0.00    -0.200 F 
ATOM     98  C   UNL     1       6.370 -15.667  16.279  1.00  0.00     0.200 A 
ATOM     99  F   UNL     1       5.447 -14.249  17.926  1.00  0.00    -0.200 F 
ATOM    100  F   UNL     1       6.366 -16.694  17.140  1.00  0.00    -0.200 F 
ENDBRANCH  67  90
ENDBRANCH  41  42
ENDBRANCH  33  36
ENDBRANCH  31  32
ENDBRANCH   1  31
TORSDOF 13
