REMARK SMILES CC[C@@H](Sc1nnc2ccc3ccccc3n12)C(=O)Nc1cccc(C(=O)NCCCNC(=O)c2ccc(-c3c4nc(c(-c5c(F)c(F)c(F)c(F)c5F)c5ccc([nH]5)c(-c5c(F)c(F)c(F)c(F)c5F)c5nc(c(-c6c(F)c(F)c(F)c(F)c6F)c6ccc3[nH]6)C=C5)C=C4)cc2)c1
REMARK SMILES IDX 29 1 28 2 26 3 27 4 25 6 21 7 22 8 98 9 23 10 24 11 20 12
REMARK SMILES IDX 18 13 19 14 3 16 2 17 1 18 4 19 5 20 6 21 17 22 7 23 8 24
REMARK SMILES IDX 16 25 9 26 11 27 15 28 10 29 12 30 14 31 13 32 30 33 31 34
REMARK SMILES IDX 32 35 33 36 34 38 35 39 36 40 97 41 37 42 96 43 38 44 39 45
REMARK SMILES IDX 40 46 90 47 41 48 95 49 89 50 91 51 42 52 94 53 88 54 87 55
REMARK SMILES IDX 43 57 75 58 55 59 74 60 56 61 59 62 73 63 92 64 57 65 58 66
REMARK SMILES IDX 72 68 93 69 60 70 44 71 45 72 53 73 46 74 47 75 51 76 54 77
REMARK SMILES IDX 48 78 49 79 52 80 50 81 76 82 77 83 85 84 78 85 79 86 83 87
REMARK SMILES IDX 86 88 80 89 81 90 84 91 82 92 61 93 62 94 70 95 63 96 64 97
REMARK SMILES IDX 68 98 71 99 65 100 66 101 69 102 67 103
REMARK H PARENT 28 5 20 15 32 37 91 56 59 67
REMARK Flexibility Score: inf
ROOT
ATOM      1  C   UNL     1      -3.925  -6.008   0.441  1.00  0.00     0.118 C 
ENDROOT
BRANCH   1   2
ATOM      2  N   UNL     1      -4.756  -5.001   1.067  1.00  0.00    -0.352 N 
ATOM      3  C   UNL     1      -4.830  -3.635   0.982  1.00  0.00     0.251 C 
ATOM      4  O   UNL     1      -5.719  -3.098   1.650  1.00  0.00    -0.269 OA
ATOM      5  H   UNL     1      -5.414  -5.382   1.692  1.00  0.00     0.163 HD
BRANCH   3   6
ATOM      6  C   UNL     1      -3.903  -2.771   0.195  1.00  0.00     0.041 A 
ATOM      7  C   UNL     1      -2.009  -2.395  -1.264  1.00  0.00     0.041 A 
ATOM      8  C   UNL     1      -2.125  -1.029  -1.081  1.00  0.00     0.026 A 
ATOM      9  C   UNL     1      -3.022  -3.224  -0.788  1.00  0.00     0.040 A 
ATOM     10  C   UNL     1      -3.064  -0.523  -0.189  1.00  0.00     0.003 A 
ATOM     11  C   UNL     1      -3.902  -1.400   0.497  1.00  0.00     0.014 A 
BRANCH   7  12
ATOM     12  N   UNL     1      -0.909  -3.006  -1.885  1.00  0.00    -0.325 N 
ATOM     13  C   UNL     1       0.414  -3.001  -1.504  1.00  0.00     0.237 C 
ATOM     14  O   UNL     1       1.138  -3.835  -2.070  1.00  0.00    -0.273 OA
ATOM     15  H   UNL     1      -1.112  -3.507  -2.707  1.00  0.00     0.169 HD
BRANCH  13  16
ATOM     16  C   UNL     1       1.029  -2.110  -0.388  1.00  0.00     0.144 C 
BRANCH  16  17
ATOM     17  C   UNL     1       0.939  -0.620  -0.740  1.00  0.00     0.021 C 
ATOM     18  C   UNL     1       2.055   0.290  -0.247  1.00  0.00     0.005 C 
ENDBRANCH  16  17
BRANCH  16  19
ATOM     19  S   UNL     1       0.463  -2.778   1.241  1.00  0.00    -0.072 SA
BRANCH  19  20
ATOM     20  C   UNL     1       0.861  -1.555   2.394  1.00  0.00     0.196 A 
ATOM     21  N   UNL     1       0.362  -0.342   2.298  1.00  0.00    -0.122 NA
ATOM     22  N   UNL     1       1.581  -1.675   3.579  1.00  0.00    -0.270 N 
ATOM     23  N   UNL     1       0.831   0.406   3.337  1.00  0.00    -0.129 NA
ATOM     24  C   UNL     1       1.556  -0.379   4.101  1.00  0.00     0.161 A 
ATOM     25  C   UNL     1       2.226  -2.749   4.269  1.00  0.00     0.057 A 
ATOM     26  C   UNL     1       2.235  -0.078   5.303  1.00  0.00     0.050 A 
ATOM     27  C   UNL     1       2.839  -2.426   5.504  1.00  0.00    -0.001 A 
ATOM     28  C   UNL     1       2.257  -4.071   3.821  1.00  0.00     0.027 A 
ATOM     29  C   UNL     1       2.852  -1.044   5.994  1.00  0.00     0.014 A 
ATOM     30  C   UNL     1       3.441  -3.424   6.280  1.00  0.00     0.010 A 
ATOM     31  C   UNL     1       2.867  -5.060   4.607  1.00  0.00     0.002 A 
ATOM     32  C   UNL     1       3.449  -4.742   5.833  1.00  0.00     0.001 A 
ENDBRANCH  19  20
ENDBRANCH  16  19
ENDBRANCH  13  16
ENDBRANCH   7  12
ENDBRANCH   3   6
ENDBRANCH   1   2
BRANCH   1  33
ATOM     33  C   UNL     1      -3.375  -7.052   1.399  1.00  0.00     0.042 C 
BRANCH  33  34
ATOM     34  C   UNL     1      -4.410  -7.852   2.178  1.00  0.00     0.118 C 
BRANCH  34  35
ATOM     35  N   UNL     1      -5.476  -8.405   1.371  1.00  0.00    -0.352 N 
ATOM     36  C   UNL     1      -5.661  -9.582   0.712  1.00  0.00     0.251 C 
ATOM     37  H   UNL     1      -6.241  -7.792   1.278  1.00  0.00     0.163 HD
ATOM     38  O   UNL     1      -6.802  -9.782   0.271  1.00  0.00    -0.269 OA
BRANCH  36  39
ATOM     39  C   UNL     1      -4.600 -10.573   0.399  1.00  0.00     0.039 A 
ATOM     40  C   UNL     1      -3.237 -10.409   0.648  1.00  0.00     0.014 A 
ATOM     41  C   UNL     1      -5.017 -11.684  -0.357  1.00  0.00     0.014 A 
ATOM     42  C   UNL     1      -2.306 -11.194  -0.018  1.00  0.00     0.010 A 
ATOM     43  C   UNL     1      -4.095 -12.503  -0.985  1.00  0.00     0.010 A 
ATOM     44  C   UNL     1      -2.746 -12.186  -0.893  1.00  0.00    -0.014 A 
BRANCH  44  45
ATOM     45  C   UNL     1      -1.762 -12.868  -1.721  1.00  0.00     0.031 A 
ATOM     46  C   UNL     1      -0.759 -13.692  -0.994  1.00  0.00     0.074 A 
ATOM     47  C   UNL     1      -1.821 -12.808  -3.067  1.00  0.00     0.049 A 
ATOM     48  N   UNL     1       0.531 -13.582  -1.006  1.00  0.00    -0.248 NA
ATOM     49  C   UNL     1      -1.262 -14.710  -0.059  1.00  0.00     0.031 C 
ATOM     50  C   UNL     1      -2.862 -12.227  -3.921  1.00  0.00     0.029 A 
ATOM     51  N   UNL     1      -0.958 -13.344  -3.970  1.00  0.00    -0.354 N 
ATOM     52  C   UNL     1       1.019 -14.595  -0.181  1.00  0.00     0.074 A 
ATOM     53  C   UNL     1      -0.129 -15.191   0.454  1.00  0.00     0.031 C 
ATOM     54  C   UNL     1      -2.680 -12.642  -5.195  1.00  0.00     0.029 A 
ATOM     55  C   UNL     1      -1.442 -13.396  -5.268  1.00  0.00     0.049 A 
ATOM     56  H   UNL     1      -0.062 -13.668  -3.722  1.00  0.00     0.167 HD
ATOM     57  C   UNL     1       2.329 -14.969  -0.185  1.00  0.00     0.037 A 
ATOM     58  C   UNL     1      -0.883 -14.074  -6.301  1.00  0.00     0.037 A 
ATOM     59  C   UNL     1       3.165 -13.964  -0.781  1.00  0.00     0.049 A 
ATOM     60  C   UNL     1       0.543 -14.306  -5.951  1.00  0.00     0.074 A 
ATOM     61  C   UNL     1       3.516 -12.675  -0.430  1.00  0.00     0.029 A 
ATOM     62  N   UNL     1       3.508 -14.092  -2.104  1.00  0.00    -0.354 N 
ATOM     63  N   UNL     1       1.426 -13.348  -5.873  1.00  0.00    -0.248 NA
ATOM     64  C   UNL     1       0.871 -15.520  -5.214  1.00  0.00     0.031 C 
ATOM     65  C   UNL     1       3.568 -11.959  -1.662  1.00  0.00     0.029 A 
ATOM     66  C   UNL     1       3.304 -12.866  -2.688  1.00  0.00     0.049 A 
ATOM     67  H   UNL     1       3.838 -14.907  -2.549  1.00  0.00     0.167 HD
ATOM     68  C   UNL     1       2.200 -13.666  -4.766  1.00  0.00     0.074 A 
ATOM     69  C   UNL     1       1.856 -15.049  -4.442  1.00  0.00     0.031 C 
ATOM     70  C   UNL     1       2.827 -12.695  -4.038  1.00  0.00     0.037 A 
BRANCH  57  71
ATOM     71  C   UNL     1       2.831 -16.355   0.121  1.00  0.00     0.064 A 
ATOM     72  C   UNL     1       4.209 -16.579   0.312  1.00  0.00     0.173 A 
ATOM     73  C   UNL     1       2.042 -17.513  -0.043  1.00  0.00     0.173 A 
ATOM     74  F   UNL     1       5.056 -15.550   0.463  1.00  0.00    -0.203 F 
ATOM     75  C   UNL     1       4.760 -17.864   0.277  1.00  0.00     0.198 A 
ATOM     76  C   UNL     1       2.588 -18.795  -0.028  1.00  0.00     0.198 A 
ATOM     77  F   UNL     1       0.736 -17.442  -0.330  1.00  0.00    -0.203 F 
ATOM     78  F   UNL     1       6.089 -18.021   0.353  1.00  0.00    -0.200 F 
ATOM     79  C   UNL     1       3.949 -18.970   0.101  1.00  0.00     0.200 A 
ATOM     80  F   UNL     1       1.787 -19.854  -0.215  1.00  0.00    -0.200 F 
ATOM     81  F   UNL     1       4.480 -20.197   0.010  1.00  0.00    -0.200 F 
ENDBRANCH  57  71
BRANCH  58  82
ATOM     82  C   UNL     1      -1.581 -14.807  -7.384  1.00  0.00     0.064 A 
ATOM     83  C   UNL     1      -0.909 -15.209  -8.549  1.00  0.00     0.173 A 
ATOM     84  C   UNL     1      -2.861 -15.360  -7.179  1.00  0.00     0.173 A 
ATOM     85  F   UNL     1       0.333 -14.769  -8.796  1.00  0.00    -0.203 F 
ATOM     86  C   UNL     1      -1.478 -16.121  -9.446  1.00  0.00     0.198 A 
ATOM     87  C   UNL     1      -3.430 -16.265  -8.077  1.00  0.00     0.198 A 
ATOM     88  F   UNL     1      -3.549 -15.108  -6.057  1.00  0.00    -0.203 F 
ATOM     89  F   UNL     1      -0.785 -16.525 -10.520  1.00  0.00    -0.200 F 
ATOM     90  C   UNL     1      -2.734 -16.655  -9.204  1.00  0.00     0.200 A 
ATOM     91  F   UNL     1      -4.629 -16.801  -7.809  1.00  0.00    -0.200 F 
ATOM     92  F   UNL     1      -3.254 -17.572 -10.032  1.00  0.00    -0.200 F 
ENDBRANCH  58  82
BRANCH  70  93
ATOM     93  C   UNL     1       2.784 -11.290  -4.574  1.00  0.00     0.064 A 
ATOM     94  C   UNL     1       1.594 -10.552  -4.710  1.00  0.00     0.173 A 
ATOM     95  C   UNL     1       3.986 -10.613  -4.811  1.00  0.00     0.173 A 
ATOM     96  F   UNL     1       0.414 -11.088  -4.384  1.00  0.00    -0.203 F 
ATOM     97  C   UNL     1       1.603  -9.221  -5.120  1.00  0.00     0.198 A 
ATOM     98  C   UNL     1       3.996  -9.270  -5.185  1.00  0.00     0.198 A 
ATOM     99  F   UNL     1       5.157 -11.241  -4.627  1.00  0.00    -0.203 F 
ATOM    100  F   UNL     1       0.449  -8.550  -5.251  1.00  0.00    -0.200 F 
ATOM    101  C   UNL     1       2.806  -8.579  -5.353  1.00  0.00     0.200 A 
ATOM    102  F   UNL     1       5.165  -8.636  -5.354  1.00  0.00    -0.200 F 
ATOM    103  F   UNL     1       2.821  -7.287  -5.710  1.00  0.00    -0.200 F 
ENDBRANCH  70  93
ENDBRANCH  44  45
ENDBRANCH  36  39
ENDBRANCH  34  35
ENDBRANCH  33  34
ENDBRANCH   1  33
TORSDOF 15
