REMARK SMILES Cc1c(Cl)cccc1NC(=O)NCc1cn([C@@H]2C[NH2+][C@H](C(=O)NCCCNC(=O)c3ccc(-c4c5nc(c(-c6c(F)c(F)c(F)c(F)c6F)c6ccc([nH]6)c(-c6c(F)c(F)c(F)c(F)c6F)c6nc(c(-c7c(F)c(F)c(F)c(F)c7F)c7ccc4[nH]7)C=C6)C=C5)cc3)C2)nn1
REMARK SMILES IDX 24 1 23 2 21 3 22 4 20 6 17 7 18 8 93 9 19 10 16 13 14 14
REMARK SMILES IDX 15 15 95 16 94 17 13 18 12 19 9 20 10 21 11 23 8 25 1 26
REMARK SMILES IDX 2 27 3 28 4 29 5 30 7 31 6 32 25 33 26 34 27 35 28 36 29 38
REMARK SMILES IDX 30 39 31 40 92 41 32 42 91 43 33 44 34 45 35 46 85 47 36 48
REMARK SMILES IDX 90 49 84 50 86 51 37 52 89 53 83 54 82 55 38 57 70 58 50 59
REMARK SMILES IDX 69 60 51 61 54 62 68 63 87 64 52 65 53 66 67 68 88 69 55 70
REMARK SMILES IDX 39 71 40 72 48 73 41 74 42 75 46 76 49 77 43 78 44 79 47 80
REMARK SMILES IDX 45 81 71 82 72 83 80 84 73 85 74 86 78 87 81 88 75 89 76 90
REMARK SMILES IDX 79 91 77 92 56 93 57 94 65 95 58 96 59 97 63 98 66 99 60 100
REMARK SMILES IDX 61 101 64 102 62 103
REMARK H PARENT 23 5 19 11 19 12 9 22 12 24 27 37 86 56 54 67
REMARK Flexibility Score: inf
ROOT
ATOM      1  C   UNL     1      -1.980  -5.856   1.317  1.00  0.00     0.118 C 
ENDROOT
BRANCH   1   2
ATOM      2  N   UNL     1      -3.164  -6.680   1.149  1.00  0.00    -0.351 N 
ATOM      3  C   UNL     1      -4.294  -6.818   1.893  1.00  0.00     0.278 C 
ATOM      4  O   UNL     1      -5.123  -7.634   1.468  1.00  0.00    -0.268 OA
ATOM      5  H   UNL     1      -3.145  -7.246   0.344  1.00  0.00     0.163 HD
BRANCH   3   6
ATOM      6  C   UNL     1      -4.657  -5.961   3.124  1.00  0.00     0.274 C 
ATOM      7  C   UNL     1      -5.119  -3.619   3.563  1.00  0.00     0.170 C 
ATOM      8  C   UNL     1      -3.658  -3.931   3.862  1.00  0.00     0.288 C 
ATOM      9  C   UNL     1      -5.571  -4.810   2.723  1.00  0.00     0.109 C 
ATOM     10  N   UNL     1      -3.511  -5.399   3.873  1.00  0.00    -0.334 N 
ATOM     11  H   UNL     1      -3.519  -5.744   4.833  1.00  0.00     0.347 HD
ATOM     12  H   UNL     1      -2.628  -5.677   3.445  1.00  0.00     0.347 HD
BRANCH   7  13
ATOM     13  N   UNL     1      -5.286  -2.344   2.899  1.00  0.00    -0.243 N 
ATOM     14  C   UNL     1      -5.080  -0.695   1.516  1.00  0.00     0.102 A 
ATOM     15  C   UNL     1      -5.025  -2.068   1.598  1.00  0.00     0.137 A 
ATOM     16  N   UNL     1      -5.434  -0.190   2.733  1.00  0.00    -0.134 NA
ATOM     17  N   UNL     1      -5.570  -1.216   3.576  1.00  0.00    -0.067 NA
BRANCH  14  18
ATOM     18  C   UNL     1      -4.528   0.033   0.362  1.00  0.00     0.178 C 
BRANCH  18  19
ATOM     19  N   UNL     1      -4.513   1.456   0.357  1.00  0.00    -0.332 N 
ATOM     20  N   UNL     1      -2.305   2.044  -0.416  1.00  0.00    -0.308 N 
ATOM     21  C   UNL     1      -3.595   2.314  -0.114  1.00  0.00     0.319 C 
ATOM     22  H   UNL     1      -1.829   2.869  -0.664  1.00  0.00     0.171 HD
ATOM     23  O   UNL     1      -3.936   3.501  -0.191  1.00  0.00    -0.248 OA
ATOM     24  H   UNL     1      -5.303   1.878   0.764  1.00  0.00     0.165 HD
BRANCH  20  25
ATOM     25  C   UNL     1      -1.433   0.931  -0.484  1.00  0.00     0.047 A 
ATOM     26  C   UNL     1       0.571   2.409   0.163  1.00  0.00     0.048 C 
ATOM     27  C   UNL     1      -0.082   1.069  -0.080  1.00  0.00    -0.009 A 
ATOM     28  C   UNL     1       0.709  -0.099   0.051  1.00  0.00     0.046 A 
ATOM     29  Cl  UNL     1       2.360  -0.037   0.574  1.00  0.00    -0.084 Cl
ATOM     30  C   UNL     1       0.195  -1.361  -0.242  1.00  0.00     0.021 A 
ATOM     31  C   UNL     1      -1.840  -0.313  -0.979  1.00  0.00     0.026 A 
ATOM     32  C   UNL     1      -1.071  -1.465  -0.796  1.00  0.00     0.004 A 
ENDBRANCH  20  25
ENDBRANCH  18  19
ENDBRANCH  14  18
ENDBRANCH   7  13
ENDBRANCH   3   6
ENDBRANCH   1   2
BRANCH   1  33
ATOM     33  C   UNL     1      -0.825  -6.604   1.989  1.00  0.00     0.042 C 
BRANCH  33  34
ATOM     34  C   UNL     1      -0.045  -7.448   0.991  1.00  0.00     0.118 C 
BRANCH  34  35
ATOM     35  N   UNL     1       0.677  -6.632   0.008  1.00  0.00    -0.352 N 
ATOM     36  C   UNL     1       1.423  -7.039  -1.085  1.00  0.00     0.251 C 
ATOM     37  H   UNL     1       0.624  -5.658   0.146  1.00  0.00     0.163 HD
ATOM     38  O   UNL     1       2.202  -6.283  -1.631  1.00  0.00    -0.269 OA
BRANCH  36  39
ATOM     39  C   UNL     1       1.258  -8.423  -1.564  1.00  0.00     0.039 A 
ATOM     40  C   UNL     1       2.363  -9.207  -1.900  1.00  0.00     0.014 A 
ATOM     41  C   UNL     1      -0.029  -8.947  -1.599  1.00  0.00     0.014 A 
ATOM     42  C   UNL     1       2.164 -10.559  -2.166  1.00  0.00     0.010 A 
ATOM     43  C   UNL     1      -0.201 -10.304  -1.683  1.00  0.00     0.010 A 
ATOM     44  C   UNL     1       0.880 -11.110  -2.016  1.00  0.00    -0.014 A 
BRANCH  44  45
ATOM     45  C   UNL     1       0.680 -12.554  -2.076  1.00  0.00     0.031 A 
ATOM     46  C   UNL     1       1.595 -13.339  -1.203  1.00  0.00     0.074 A 
ATOM     47  C   UNL     1      -0.367 -13.136  -2.702  1.00  0.00     0.049 A 
ATOM     48  N   UNL     1       2.521 -14.156  -1.580  1.00  0.00    -0.248 NA
ATOM     49  C   UNL     1       1.578 -13.090   0.248  1.00  0.00     0.031 C 
ATOM     50  C   UNL     1      -1.518 -12.496  -3.348  1.00  0.00     0.029 A 
ATOM     51  N   UNL     1      -0.672 -14.458  -2.804  1.00  0.00    -0.354 N 
ATOM     52  C   UNL     1       3.076 -14.679  -0.416  1.00  0.00     0.074 A 
ATOM     53  C   UNL     1       2.586 -13.861   0.663  1.00  0.00     0.031 C 
ATOM     54  C   UNL     1      -2.492 -13.410  -3.551  1.00  0.00     0.029 A 
ATOM     55  C   UNL     1      -1.973 -14.722  -3.217  1.00  0.00     0.049 A 
ATOM     56  H   UNL     1      -0.023 -15.171  -2.601  1.00  0.00     0.167 HD
ATOM     57  C   UNL     1       3.690 -15.896  -0.430  1.00  0.00     0.037 A 
ATOM     58  C   UNL     1      -2.583 -15.932  -3.262  1.00  0.00     0.037 A 
ATOM     59  C   UNL     1       4.029 -16.281  -1.780  1.00  0.00     0.049 A 
ATOM     60  C   UNL     1      -1.511 -16.959  -3.278  1.00  0.00     0.074 A 
ATOM     61  C   UNL     1       4.790 -15.715  -2.787  1.00  0.00     0.029 A 
ATOM     62  N   UNL     1       3.239 -17.217  -2.404  1.00  0.00    -0.354 N 
ATOM     63  N   UNL     1      -0.697 -17.138  -4.281  1.00  0.00    -0.248 NA
ATOM     64  C   UNL     1      -1.045 -17.465  -1.996  1.00  0.00     0.031 C 
ATOM     65  C   UNL     1       4.056 -15.963  -3.985  1.00  0.00     0.029 A 
ATOM     66  C   UNL     1       2.943 -16.735  -3.652  1.00  0.00     0.049 A 
ATOM     67  H   UNL     1       2.941 -18.075  -2.024  1.00  0.00     0.167 HD
ATOM     68  C   UNL     1       0.539 -17.351  -3.691  1.00  0.00     0.074 A 
ATOM     69  C   UNL     1       0.248 -17.631  -2.286  1.00  0.00     0.031 C 
ATOM     70  C   UNL     1       1.692 -16.988  -4.325  1.00  0.00     0.037 A 
BRANCH  57  71
ATOM     71  C   UNL     1       3.614 -16.908   0.693  1.00  0.00     0.064 A 
ATOM     72  C   UNL     1       4.321 -18.122   0.558  1.00  0.00     0.173 A 
ATOM     73  C   UNL     1       2.643 -16.888   1.717  1.00  0.00     0.173 A 
ATOM     74  F   UNL     1       5.271 -18.259  -0.379  1.00  0.00    -0.203 F 
ATOM     75  C   UNL     1       3.994 -19.256   1.305  1.00  0.00     0.198 A 
ATOM     76  C   UNL     1       2.356 -18.008   2.497  1.00  0.00     0.198 A 
ATOM     77  F   UNL     1       1.851 -15.833   1.938  1.00  0.00    -0.203 F 
ATOM     78  F   UNL     1       4.591 -20.425   1.033  1.00  0.00    -0.200 F 
ATOM     79  C   UNL     1       3.002 -19.202   2.264  1.00  0.00     0.200 A 
ATOM     80  F   UNL     1       1.381 -17.937   3.414  1.00  0.00    -0.200 F 
ATOM     81  F   UNL     1       2.633 -20.305   2.928  1.00  0.00    -0.200 F 
ENDBRANCH  57  71
BRANCH  58  82
ATOM     82  C   UNL     1      -4.006 -16.272  -3.020  1.00  0.00     0.064 A 
ATOM     83  C   UNL     1      -4.512 -17.540  -3.352  1.00  0.00     0.173 A 
ATOM     84  C   UNL     1      -4.824 -15.471  -2.199  1.00  0.00     0.173 A 
ATOM     85  F   UNL     1      -3.783 -18.383  -4.098  1.00  0.00    -0.203 F 
ATOM     86  C   UNL     1      -5.740 -17.995  -2.859  1.00  0.00     0.198 A 
ATOM     87  C   UNL     1      -6.053 -15.922  -1.714  1.00  0.00     0.198 A 
ATOM     88  F   UNL     1      -4.404 -14.272  -1.769  1.00  0.00    -0.203 F 
ATOM     89  F   UNL     1      -6.153 -19.239  -3.139  1.00  0.00    -0.200 F 
ATOM     90  C   UNL     1      -6.503 -17.191  -2.030  1.00  0.00     0.200 A 
ATOM     91  F   UNL     1      -6.765 -15.147  -0.884  1.00  0.00    -0.200 F 
ATOM     92  F   UNL     1      -7.646 -17.650  -1.502  1.00  0.00    -0.200 F 
ENDBRANCH  58  82
BRANCH  70  93
ATOM     93  C   UNL     1       1.613 -16.605  -5.778  1.00  0.00     0.064 A 
ATOM     94  C   UNL     1       0.871 -15.519  -6.274  1.00  0.00     0.173 A 
ATOM     95  C   UNL     1       2.441 -17.283  -6.683  1.00  0.00     0.173 A 
ATOM     96  F   UNL     1       0.133 -14.754  -5.460  1.00  0.00    -0.203 F 
ATOM     97  C   UNL     1       0.923 -15.161  -7.621  1.00  0.00     0.198 A 
ATOM     98  C   UNL     1       2.521 -16.899  -8.018  1.00  0.00     0.198 A 
ATOM     99  F   UNL     1       3.214 -18.294  -6.258  1.00  0.00    -0.203 F 
ATOM    100  F   UNL     1       0.194 -14.129  -8.071  1.00  0.00    -0.200 F 
ATOM    101  C   UNL     1       1.754 -15.847  -8.490  1.00  0.00     0.200 A 
ATOM    102  F   UNL     1       3.365 -17.535  -8.843  1.00  0.00    -0.200 F 
ATOM    103  F   UNL     1       1.837 -15.477  -9.775  1.00  0.00    -0.200 F 
ENDBRANCH  70  93
ENDBRANCH  44  45
ENDBRANCH  36  39
ENDBRANCH  34  35
ENDBRANCH  33  34
ENDBRANCH   1  33
TORSDOF 14
