REMARK SMILES CO[C@H]1CN(C(=O)c2cn(C(C)C)cc(C(=O)NCCCNC(=O)c3ccc(-c4c5nc(c(-c6c(F)c(F)c(F)c(F)c6F)c6ccc([nH]6)c(-c6c(F)c(F)c(F)c(F)c6F)c6nc(c(-c7c(F)c(F)c(F)c(F)c7F)c7ccc4[nH]7)C=C6)C=C5)cc3)c2=O)CC[C@H]1[NH3+]
REMARK SMILES IDX 19 1 18 2 16 3 17 4 15 6 8 7 9 8 88 9 10 10 89 11 14 12 6 13
REMARK SMILES IDX 7 14 5 15 3 16 4 17 92 18 91 19 90 20 2 21 1 22 93 23 11 27
REMARK SMILES IDX 12 28 13 29 20 30 21 31 22 32 23 33 24 35 25 36 26 37 87 38
REMARK SMILES IDX 27 39 86 40 28 41 29 42 30 43 80 44 31 45 85 46 79 47 81 48
REMARK SMILES IDX 32 49 84 50 78 51 77 52 33 54 65 55 45 56 64 57 46 58 49 59
REMARK SMILES IDX 63 60 82 61 47 62 48 63 62 65 83 66 50 67 34 68 35 69 43 70
REMARK SMILES IDX 36 71 37 72 41 73 44 74 38 75 39 76 42 77 40 78 66 79 67 80
REMARK SMILES IDX 75 81 68 82 69 83 73 84 76 85 70 86 71 87 74 88 72 89 51 90
REMARK SMILES IDX 52 91 60 92 53 93 54 94 58 95 61 96 55 97 56 98 59 99 57 100
REMARK H PARENT 18 5 93 24 93 25 93 26 22 34 81 53 49 64
REMARK Flexibility Score: inf
ROOT
ATOM      1  C   UNL     1       5.159   1.015   1.895  1.00  0.00     0.118 C 
ENDROOT
BRANCH   1   2
ATOM      2  N   UNL     1       5.194  -0.250   2.605  1.00  0.00    -0.352 N 
ATOM      3  C   UNL     1       4.207  -1.023   3.135  1.00  0.00     0.256 C 
ATOM      4  O   UNL     1       4.562  -2.072   3.680  1.00  0.00    -0.269 OA
ATOM      5  H   UNL     1       6.100  -0.618   2.726  1.00  0.00     0.163 HD
BRANCH   3   6
ATOM      6  C   UNL     1       2.763  -0.697   2.999  1.00  0.00     0.104 A 
ATOM      7  C   UNL     1       0.752   0.700   2.339  1.00  0.00     0.104 A 
ATOM      8  C   UNL     1       0.007  -0.405   2.467  1.00  0.00     0.103 A 
ATOM      9  C   UNL     1       2.136   0.642   2.859  1.00  0.00     0.207 A 
ATOM     10  N   UNL     1       0.508  -1.625   2.918  1.00  0.00    -0.350 N 
ATOM     11  O   UNL     1       2.700   1.682   3.182  1.00  0.00    -0.288 OA
ATOM     12  C   UNL     1       1.893  -1.724   3.073  1.00  0.00     0.103 A 
BRANCH   7  13
ATOM     13  C   UNL     1       0.184   1.949   1.796  1.00  0.00     0.259 C 
ATOM     14  O   UNL     1      -0.753   2.496   2.371  1.00  0.00    -0.269 OA
BRANCH  13  15
ATOM     15  N   UNL     1       0.760   2.439   0.629  1.00  0.00    -0.335 N 
ATOM     16  C   UNL     1       0.866   1.586  -1.675  1.00  0.00     0.195 C 
ATOM     17  C   UNL     1       1.578   1.656  -0.312  1.00  0.00     0.158 C 
ATOM     18  C   UNL     1       0.561   3.007  -2.239  1.00  0.00     0.213 C 
ATOM     19  C   UNL     1      -0.242   3.793  -1.182  1.00  0.00     0.089 C 
ATOM     20  C   UNL     1       0.437   3.795   0.190  1.00  0.00     0.126 C 
BRANCH  16  21
ATOM     21  O   UNL     1       1.446   0.668  -2.603  1.00  0.00    -0.373 OA
ATOM     22  C   UNL     1       2.787   0.894  -3.001  1.00  0.00     0.195 C 
ENDBRANCH  16  21
BRANCH  18  23
ATOM     23  N   UNL     1       1.742   3.784  -2.658  1.00  0.00    -0.353 N 
ATOM     24  H   UNL     1       2.333   3.967  -1.847  1.00  0.00     0.344 HD
ATOM     25  H   UNL     1       1.440   4.669  -3.065  1.00  0.00     0.344 HD
ATOM     26  H   UNL     1       2.270   3.254  -3.351  1.00  0.00     0.344 HD
ENDBRANCH  18  23
ENDBRANCH  13  15
ENDBRANCH   7  13
BRANCH  10  27
ATOM     27  C   UNL     1      -0.367  -2.778   3.241  1.00  0.00     0.080 C 
ATOM     28  C   UNL     1      -1.247  -2.449   4.447  1.00  0.00     0.031 C 
ATOM     29  C   UNL     1      -1.192  -3.208   2.031  1.00  0.00     0.031 C 
ENDBRANCH  10  27
ENDBRANCH   3   6
ENDBRANCH   1   2
BRANCH   1  30
ATOM     30  C   UNL     1       5.423   2.189   2.833  1.00  0.00     0.042 C 
BRANCH  30  31
ATOM     31  C   UNL     1       6.889   2.380   3.176  1.00  0.00     0.118 C 
BRANCH  31  32
ATOM     32  N   UNL     1       7.672   2.879   2.055  1.00  0.00    -0.352 N 
ATOM     33  C   UNL     1       8.509   3.969   1.981  1.00  0.00     0.251 C 
ATOM     34  H   UNL     1       7.591   2.358   1.224  1.00  0.00     0.163 HD
ATOM     35  O   UNL     1       8.947   4.325   0.895  1.00  0.00    -0.269 OA
BRANCH  33  36
ATOM     36  C   UNL     1       8.852   4.730   3.205  1.00  0.00     0.039 A 
ATOM     37  C   UNL     1       9.079   4.078   4.417  1.00  0.00     0.014 A 
ATOM     38  C   UNL     1       8.944   6.124   3.139  1.00  0.00     0.014 A 
ATOM     39  C   UNL     1       9.197   4.818   5.586  1.00  0.00     0.010 A 
ATOM     40  C   UNL     1       9.181   6.864   4.302  1.00  0.00     0.010 A 
ATOM     41  C   UNL     1       9.256   6.220   5.546  1.00  0.00    -0.014 A 
BRANCH  41  42
ATOM     42  C   UNL     1       9.398   6.970   6.822  1.00  0.00     0.031 A 
ATOM     43  C   UNL     1       8.325   7.917   7.287  1.00  0.00     0.074 A 
ATOM     44  C   UNL     1      10.469   6.728   7.604  1.00  0.00     0.049 A 
ATOM     45  N   UNL     1       8.255   8.598   8.405  1.00  0.00    -0.248 NA
ATOM     46  C   UNL     1       7.185   8.139   6.384  1.00  0.00     0.031 C 
ATOM     47  C   UNL     1      11.572   5.829   7.259  1.00  0.00     0.029 A 
ATOM     48  N   UNL     1      10.789   7.176   8.861  1.00  0.00    -0.354 N 
ATOM     49  C   UNL     1       7.078   9.331   8.333  1.00  0.00     0.074 A 
ATOM     50  C   UNL     1       6.483   9.049   7.045  1.00  0.00     0.031 C 
ATOM     51  C   UNL     1      12.405   5.731   8.305  1.00  0.00     0.029 A 
ATOM     52  C   UNL     1      11.937   6.616   9.367  1.00  0.00     0.049 A 
ATOM     53  H   UNL     1      10.248   7.835   9.353  1.00  0.00     0.167 HD
ATOM     54  C   UNL     1       6.533  10.148   9.266  1.00  0.00     0.037 A 
ATOM     55  C   UNL     1      12.553   6.798  10.550  1.00  0.00     0.037 A 
ATOM     56  C   UNL     1       7.115  10.402  10.558  1.00  0.00     0.049 A 
ATOM     57  C   UNL     1      11.949   7.745  11.548  1.00  0.00     0.074 A 
ATOM     58  C   UNL     1       6.624  11.193  11.582  1.00  0.00     0.029 A 
ATOM     59  N   UNL     1       8.315   9.869  11.005  1.00  0.00    -0.354 N 
ATOM     60  N   UNL     1      10.824   8.412  11.475  1.00  0.00    -0.248 NA
ATOM     61  C   UNL     1      12.704   7.973  12.788  1.00  0.00     0.031 C 
ATOM     62  C   UNL     1       7.551  11.181  12.627  1.00  0.00     0.029 A 
ATOM     63  C   UNL     1       8.594  10.338  12.279  1.00  0.00     0.049 A 
ATOM     64  H   UNL     1       8.884   9.249  10.494  1.00  0.00     0.167 HD
ATOM     65  C   UNL     1      10.729   9.131  12.657  1.00  0.00     0.074 A 
ATOM     66  C   UNL     1      11.899   8.798  13.444  1.00  0.00     0.031 C 
ATOM     67  C   UNL     1       9.762   9.995  13.050  1.00  0.00     0.037 A 
BRANCH  54  68
ATOM     68  C   UNL     1       5.239  10.834   8.934  1.00  0.00     0.064 A 
ATOM     69  C   UNL     1       4.028  10.128   8.864  1.00  0.00     0.173 A 
ATOM     70  C   UNL     1       5.195  12.227   8.762  1.00  0.00     0.173 A 
ATOM     71  F   UNL     1       4.015   8.795   9.014  1.00  0.00    -0.203 F 
ATOM     72  C   UNL     1       2.826  10.787   8.618  1.00  0.00     0.198 A 
ATOM     73  C   UNL     1       3.988  12.886   8.546  1.00  0.00     0.198 A 
ATOM     74  F   UNL     1       6.322  12.952   8.828  1.00  0.00    -0.203 F 
ATOM     75  F   UNL     1       1.687  10.088   8.523  1.00  0.00    -0.200 F 
ATOM     76  C   UNL     1       2.805  12.166   8.470  1.00  0.00     0.200 A 
ATOM     77  F   UNL     1       3.967  14.220   8.419  1.00  0.00    -0.200 F 
ATOM     78  F   UNL     1       1.645  12.801   8.252  1.00  0.00    -0.200 F 
ENDBRANCH  54  68
BRANCH  55  79
ATOM     79  C   UNL     1      13.807   6.056  10.847  1.00  0.00     0.064 A 
ATOM     80  C   UNL     1      13.842   5.063  11.835  1.00  0.00     0.173 A 
ATOM     81  C   UNL     1      14.986   6.300  10.127  1.00  0.00     0.173 A 
ATOM     82  F   UNL     1      12.747   4.806  12.565  1.00  0.00    -0.203 F 
ATOM     83  C   UNL     1      15.008   4.346  12.093  1.00  0.00     0.198 A 
ATOM     84  C   UNL     1      16.142   5.560  10.362  1.00  0.00     0.198 A 
ATOM     85  F   UNL     1      15.005   7.238   9.168  1.00  0.00    -0.203 F 
ATOM     86  F   UNL     1      15.024   3.423  13.065  1.00  0.00    -0.200 F 
ATOM     87  C   UNL     1      16.154   4.587  11.349  1.00  0.00     0.200 A 
ATOM     88  F   UNL     1      17.239   5.784   9.627  1.00  0.00    -0.200 F 
ATOM     89  F   UNL     1      17.269   3.883  11.585  1.00  0.00    -0.200 F 
ENDBRANCH  55  79
BRANCH  67  90
ATOM     90  C   UNL     1       9.915  10.646  14.394  1.00  0.00     0.064 A 
ATOM     91  C   UNL     1      10.864  11.655  14.612  1.00  0.00     0.173 A 
ATOM     92  C   UNL     1       9.044  10.321  15.446  1.00  0.00     0.173 A 
ATOM     93  F   UNL     1      11.727  11.990  13.642  1.00  0.00    -0.203 F 
ATOM     94  C   UNL     1      10.940  12.311  15.837  1.00  0.00     0.198 A 
ATOM     95  C   UNL     1       9.104  11.001  16.659  1.00  0.00     0.198 A 
ATOM     96  F   UNL     1       8.114   9.368  15.285  1.00  0.00    -0.203 F 
ATOM     97  F   UNL     1      11.873  13.253  16.033  1.00  0.00    -0.200 F 
ATOM     98  C   UNL     1      10.052  11.993  16.854  1.00  0.00     0.200 A 
ATOM     99  F   UNL     1       8.234  10.704  17.635  1.00  0.00    -0.200 F 
ATOM    100  F   UNL     1      10.112  12.643  18.024  1.00  0.00    -0.200 F 
ENDBRANCH  67  90
ENDBRANCH  41  42
ENDBRANCH  33  36
ENDBRANCH  31  32
ENDBRANCH  30  31
ENDBRANCH   1  30
TORSDOF 15
