REMARK SMILES O=C(NCCCNC(=O)[C@H]1CC[C@@H]2CCCC[C@H]2N1C(=O)C1CC[NH2+]CC1)c1ccc(-c2c3nc(c(-c4c(F)c(F)c(F)c(F)c4F)c4ccc([nH]4)c(-c4c(F)c(F)c(F)c(F)c4F)c4nc(c(-c5c(F)c(F)c(F)c(F)c5F)c5ccc2[nH]5)C=C4)C=C3)cc1
REMARK SMILES IDX 5 1 4 2 3 3 1 4 2 5 28 7 29 8 90 9 30 10 89 11 31 12 32 13
REMARK SMILES IDX 33 14 83 15 34 16 88 17 82 18 84 19 35 20 87 21 81 22 80 23
REMARK SMILES IDX 36 25 68 26 48 27 67 28 49 29 52 30 66 31 85 32 50 33 51 34
REMARK SMILES IDX 65 36 86 37 53 38 37 39 38 40 46 41 39 42 40 43 44 44 47 45
REMARK SMILES IDX 41 46 42 47 45 48 43 49 69 50 70 51 78 52 71 53 72 54 76 55
REMARK SMILES IDX 79 56 73 57 74 58 77 59 75 60 54 61 55 62 63 63 56 64 57 65
REMARK SMILES IDX 61 66 64 67 58 68 59 69 62 70 60 71 6 72 7 73 8 74 9 76
REMARK SMILES IDX 10 77 11 78 19 79 12 80 18 81 13 82 17 83 14 84 16 85 15 86
REMARK SMILES IDX 20 87 21 88 22 89 23 90 27 91 24 92 26 93 25 94
REMARK H PARENT 3 6 84 24 52 35 7 75 25 95 25 96
REMARK Flexibility Score: inf
ROOT
ATOM      1  C   UNL     1       3.863   8.695  -0.085  1.00  0.00     0.042 C 
ENDROOT
BRANCH   1   2
ATOM      2  C   UNL     1       3.439  10.121   0.184  1.00  0.00     0.118 C 
BRANCH   2   3
ATOM      3  N   UNL     1       4.562  11.078   0.146  1.00  0.00    -0.352 N 
ATOM      4  O   UNL     1       6.382  12.171  -0.601  1.00  0.00    -0.269 OA
ATOM      5  C   UNL     1       5.294  11.666  -0.866  1.00  0.00     0.251 C 
ATOM      6  H   UNL     1       4.855  11.359   1.043  1.00  0.00     0.163 HD
BRANCH   5   7
ATOM      7  C   UNL     1       4.810  11.666  -2.260  1.00  0.00     0.039 A 
ATOM      8  C   UNL     1       3.454  11.551  -2.488  1.00  0.00     0.014 A 
ATOM      9  C   UNL     1       5.674  11.815  -3.354  1.00  0.00     0.014 A 
ATOM     10  C   UNL     1       2.982  11.269  -3.746  1.00  0.00     0.010 A 
ATOM     11  C   UNL     1       5.153  11.794  -4.657  1.00  0.00     0.010 A 
ATOM     12  C   UNL     1       3.798  11.495  -4.858  1.00  0.00    -0.014 A 
BRANCH  12  13
ATOM     13  C   UNL     1       3.109  11.545  -6.171  1.00  0.00     0.031 A 
ATOM     14  C   UNL     1       3.489  10.628  -7.290  1.00  0.00     0.074 A 
ATOM     15  C   UNL     1       2.043  12.370  -6.277  1.00  0.00     0.049 A 
ATOM     16  N   UNL     1       2.954  10.534  -8.479  1.00  0.00    -0.248 NA
ATOM     17  C   UNL     1       4.615   9.708  -7.065  1.00  0.00     0.031 C 
ATOM     18  C   UNL     1       1.599  13.307  -5.234  1.00  0.00     0.029 A 
ATOM     19  N   UNL     1       1.099  12.517  -7.258  1.00  0.00    -0.354 N 
ATOM     20  C   UNL     1       3.707   9.591  -9.161  1.00  0.00     0.074 A 
ATOM     21  C   UNL     1       4.732   9.126  -8.253  1.00  0.00     0.031 C 
ATOM     22  C   UNL     1       0.417  13.830  -5.575  1.00  0.00     0.029 A 
ATOM     23  C   UNL     1       0.101  13.402  -6.927  1.00  0.00     0.049 A 
ATOM     24  H   UNL     1       1.133  12.036  -8.117  1.00  0.00     0.167 HD
ATOM     25  C   UNL     1       3.548   9.172 -10.438  1.00  0.00     0.037 A 
ATOM     26  C   UNL     1      -0.926  13.877  -7.652  1.00  0.00     0.037 A 
ATOM     27  C   UNL     1       2.485   9.618 -11.301  1.00  0.00     0.049 A 
ATOM     28  C   UNL     1      -1.057  13.400  -9.064  1.00  0.00     0.074 A 
ATOM     29  C   UNL     1       2.194   9.209 -12.591  1.00  0.00     0.029 A 
ATOM     30  N   UNL     1       1.538  10.575 -10.961  1.00  0.00    -0.354 N 
ATOM     31  N   UNL     1      -0.340  12.503  -9.696  1.00  0.00    -0.248 NA
ATOM     32  C   UNL     1      -2.107  14.021  -9.875  1.00  0.00     0.031 C 
ATOM     33  C   UNL     1       1.107   9.958 -13.050  1.00  0.00     0.029 A 
ATOM     34  C   UNL     1       0.687  10.799 -12.032  1.00  0.00     0.049 A 
ATOM     35  H   UNL     1       1.480  11.028 -10.089  1.00  0.00     0.167 HD
ATOM     36  C   UNL     1      -0.838  12.464 -10.986  1.00  0.00     0.074 A 
ATOM     37  C   UNL     1      -1.951  13.392 -11.031  1.00  0.00     0.031 C 
ATOM     38  C   UNL     1      -0.402  11.741 -12.046  1.00  0.00     0.037 A 
BRANCH  25  39
ATOM     39  C   UNL     1       4.556   8.219 -11.007  1.00  0.00     0.064 A 
ATOM     40  C   UNL     1       4.578   6.861 -10.663  1.00  0.00     0.173 A 
ATOM     41  C   UNL     1       5.455   8.662 -11.992  1.00  0.00     0.173 A 
ATOM     42  F   UNL     1       3.751   6.390  -9.719  1.00  0.00    -0.203 F 
ATOM     43  C   UNL     1       5.461   5.980 -11.286  1.00  0.00     0.198 A 
ATOM     44  C   UNL     1       6.319   7.776 -12.627  1.00  0.00     0.198 A 
ATOM     45  F   UNL     1       5.473   9.953 -12.357  1.00  0.00    -0.203 F 
ATOM     46  F   UNL     1       5.477   4.688 -10.932  1.00  0.00    -0.200 F 
ATOM     47  C   UNL     1       6.321   6.436 -12.275  1.00  0.00     0.200 A 
ATOM     48  F   UNL     1       7.140   8.217 -13.591  1.00  0.00    -0.200 F 
ATOM     49  F   UNL     1       7.152   5.582 -12.889  1.00  0.00    -0.200 F 
ENDBRANCH  25  39
BRANCH  26  50
ATOM     50  C   UNL     1      -1.817  14.925  -7.087  1.00  0.00     0.064 A 
ATOM     51  C   UNL     1      -3.181  14.691  -6.873  1.00  0.00     0.173 A 
ATOM     52  C   UNL     1      -1.311  16.188  -6.734  1.00  0.00     0.173 A 
ATOM     53  F   UNL     1      -3.719  13.510  -7.211  1.00  0.00    -0.203 F 
ATOM     54  C   UNL     1      -4.005  15.681  -6.339  1.00  0.00     0.198 A 
ATOM     55  C   UNL     1      -2.126  17.160  -6.161  1.00  0.00     0.198 A 
ATOM     56  F   UNL     1      -0.011  16.467  -6.913  1.00  0.00    -0.203 F 
ATOM     57  F   UNL     1      -5.315  15.447  -6.187  1.00  0.00    -0.200 F 
ATOM     58  C   UNL     1      -3.475  16.910  -5.974  1.00  0.00     0.200 A 
ATOM     59  F   UNL     1      -1.600  18.334  -5.785  1.00  0.00    -0.200 F 
ATOM     60  F   UNL     1      -4.265  17.855  -5.447  1.00  0.00    -0.200 F 
ENDBRANCH  26  50
BRANCH  38  61
ATOM     61  C   UNL     1      -1.138  11.942 -13.333  1.00  0.00     0.064 A 
ATOM     62  C   UNL     1      -0.985  13.118 -14.081  1.00  0.00     0.173 A 
ATOM     63  C   UNL     1      -1.994  10.948 -13.826  1.00  0.00     0.173 A 
ATOM     64  F   UNL     1      -0.195  14.105 -13.632  1.00  0.00    -0.203 F 
ATOM     65  C   UNL     1      -1.684  13.301 -15.269  1.00  0.00     0.198 A 
ATOM     66  C   UNL     1      -2.668  11.122 -15.030  1.00  0.00     0.198 A 
ATOM     67  F   UNL     1      -2.171   9.807 -13.143  1.00  0.00    -0.203 F 
ATOM     68  F   UNL     1      -1.565  14.454 -15.942  1.00  0.00    -0.200 F 
ATOM     69  C   UNL     1      -2.518  12.301 -15.746  1.00  0.00     0.200 A 
ATOM     70  F   UNL     1      -3.466  10.152 -15.494  1.00  0.00    -0.200 F 
ATOM     71  F   UNL     1      -3.189  12.478 -16.892  1.00  0.00    -0.200 F 
ENDBRANCH  38  61
ENDBRANCH  12  13
ENDBRANCH   5   7
ENDBRANCH   2   3
ENDBRANCH   1   2
BRANCH   1  72
ATOM     72  C   UNL     1       5.142   8.373   0.650  1.00  0.00     0.117 C 
BRANCH  72  73
ATOM     73  N   UNL     1       5.041   8.148   2.197  1.00  0.00    -0.354 N 
ATOM     74  C   UNL     1       5.746   7.309   3.296  1.00  0.00     0.242 C 
ATOM     75  H   UNL     1       4.321   8.697   2.584  1.00  0.00     0.163 HD
ATOM     76  O   UNL     1       5.346   7.973   4.292  1.00  0.00    -0.273 OA
BRANCH  74  77
ATOM     77  C   UNL     1       6.989   5.561   3.201  1.00  0.00     0.174 C 
ATOM     78  C   UNL     1       7.176   4.459   1.769  1.00  0.00     0.036 C 
ATOM     79  N   UNL     1       8.368   5.348   3.963  1.00  0.00    -0.327 N 
ATOM     80  C   UNL     1       7.927   3.195   1.988  1.00  0.00     0.008 C 
ATOM     81  C   UNL     1       9.234   4.128   3.837  1.00  0.00     0.089 C 
ATOM     82  C   UNL     1       9.312   3.590   2.402  1.00  0.00     0.012 C 
ATOM     83  C   UNL     1      10.681   4.308   4.353  1.00  0.00     0.025 C 
ATOM     84  C   UNL     1      10.199   2.365   2.192  1.00  0.00     0.006 C 
ATOM     85  C   UNL     1      11.515   3.032   4.181  1.00  0.00     0.002 C 
ATOM     86  C   UNL     1      11.592   2.597   2.727  1.00  0.00     0.000 C 
BRANCH  79  87
ATOM     87  C   UNL     1       8.281   5.944   5.212  1.00  0.00     0.227 C 
ATOM     88  O   UNL     1       8.914   5.751   6.230  1.00  0.00    -0.275 OA
BRANCH  87  89
ATOM     89  C   UNL     1       7.187   6.904   5.035  1.00  0.00     0.090 C 
ATOM     90  C   UNL     1       7.814   7.736   3.476  1.00  0.00     0.075 C 
ATOM     91  C   UNL     1       5.623   5.848   5.033  1.00  0.00     0.075 C 
ATOM     92  C   UNL     1       7.167   7.082   1.819  1.00  0.00     0.261 C 
ATOM     93  C   UNL     1       4.777   5.458   3.365  1.00  0.00     0.261 C 
ATOM     94  N   UNL     1       5.568   5.992   1.755  1.00  0.00    -0.346 N 
ATOM     95  H   UNL     1       5.804   5.143   1.242  1.00  0.00     0.346 HD
ATOM     96  H   UNL     1       4.871   6.601   1.328  1.00  0.00     0.346 HD
ENDBRANCH  87  89
ENDBRANCH  79  87
ENDBRANCH  74  77
ENDBRANCH  72  73
ENDBRANCH   1  72
TORSDOF 12
