REMARK SMILES [NH3+][C@]1(C(=O)NCCCNC(=O)c2ccc(-c3c4nc(c(-c5c(F)c(F)c(F)c(F)c5F)c5ccc([nH]5)c(-c5c(F)c(F)c(F)c(F)c5F)c5nc(c(-c6c(F)c(F)c(F)c(F)c6F)c6ccc3[nH]6)C=C5)C=C4)cc2)CCC[C@H]1CC[NH+]1CCCCC1
REMARK SMILES IDX 6 1 5 2 3 3 4 4 2 6 75 7 78 8 76 9 77 10 1 11 79 15 80 16
REMARK SMILES IDX 81 17 82 18 86 19 83 21 85 22 84 23 7 24 8 25 9 26 10 27
REMARK SMILES IDX 11 29 12 30 13 31 74 32 14 33 73 34 15 35 16 36 17 37 67 38
REMARK SMILES IDX 18 39 72 40 66 41 68 42 19 43 71 44 65 45 64 46 20 48 52 49
REMARK SMILES IDX 32 50 51 51 33 52 36 53 50 54 69 55 34 56 35 57 49 59 70 60
REMARK SMILES IDX 37 61 21 62 22 63 30 64 23 65 24 66 28 67 31 68 25 69 26 70
REMARK SMILES IDX 29 71 27 72 53 73 54 74 62 75 55 76 56 77 60 78 63 79 57 80
REMARK SMILES IDX 58 81 61 82 59 83 38 84 39 85 47 86 40 87 41 88 45 89 48 90
REMARK SMILES IDX 42 91 43 92 46 93 44 94
REMARK H PARENT 5 5 1 12 1 13 1 14 81 20 9 28 68 47 36 58
REMARK Flexibility Score: inf
ROOT
ATOM      1  C   UNL     1       3.355  -0.707   0.553  1.00  0.00     0.118 C 
ENDROOT
BRANCH   1   2
ATOM      2  N   UNL     1       2.151  -0.730  -0.250  1.00  0.00    -0.351 N 
ATOM      3  C   UNL     1       0.850  -0.511   0.059  1.00  0.00     0.281 C 
ATOM      4  O   UNL     1       0.037  -0.835  -0.818  1.00  0.00    -0.268 OA
ATOM      5  H   UNL     1       2.306  -0.945  -1.198  1.00  0.00     0.163 HD
BRANCH   3   6
ATOM      6  C   UNL     1       0.366   0.135   1.391  1.00  0.00     0.177 C 
ATOM      7  C   UNL     1       0.766  -0.650   2.655  1.00  0.00     0.079 C 
ATOM      8  C   UNL     1       0.760   1.623   1.672  1.00  0.00     0.066 C 
ATOM      9  C   UNL     1       0.684   0.371   3.779  1.00  0.00     0.008 C 
ATOM     10  C   UNL     1       1.232   1.639   3.145  1.00  0.00     0.011 C 
BRANCH   6  11
ATOM     11  N   UNL     1      -1.134   0.090   1.377  1.00  0.00    -0.345 N 
ATOM     12  H   UNL     1      -1.495   0.505   2.235  1.00  0.00     0.345 HD
ATOM     13  H   UNL     1      -1.444  -0.880   1.311  1.00  0.00     0.345 HD
ATOM     14  H   UNL     1      -1.482   0.613   0.573  1.00  0.00     0.345 HD
ENDBRANCH   6  11
BRANCH   8  15
ATOM     15  C   UNL     1       1.787   2.363   0.785  1.00  0.00     0.072 C 
BRANCH  15  16
ATOM     16  C   UNL     1       1.450   2.530  -0.703  1.00  0.00     0.262 C 
BRANCH  16  17
ATOM     17  N   UNL     1       0.169   3.218  -0.892  1.00  0.00    -0.335 N 
ATOM     18  C   UNL     1       0.384   4.633  -1.232  1.00  0.00     0.262 C 
ATOM     19  C   UNL     1      -0.644   2.551  -1.920  1.00  0.00     0.262 C 
ATOM     20  H   UNL     1      -0.344   3.174  -0.012  1.00  0.00     0.348 HD
ATOM     21  C   UNL     1      -0.941   5.381  -1.372  1.00  0.00     0.062 C 
ATOM     22  C   UNL     1      -2.006   3.225  -2.065  1.00  0.00     0.062 C 
ATOM     23  C   UNL     1      -1.855   4.706  -2.388  1.00  0.00     0.012 C 
ENDBRANCH  16  17
ENDBRANCH  15  16
ENDBRANCH   8  15
ENDBRANCH   3   6
ENDBRANCH   1   2
BRANCH   1  24
ATOM     24  C   UNL     1       3.800  -2.129   0.878  1.00  0.00     0.042 C 
BRANCH  24  25
ATOM     25  C   UNL     1       4.314  -2.883  -0.344  1.00  0.00     0.118 C 
BRANCH  25  26
ATOM     26  N   UNL     1       5.584  -2.353  -0.818  1.00  0.00    -0.352 N 
ATOM     27  C   UNL     1       6.774  -3.003  -1.023  1.00  0.00     0.251 C 
ATOM     28  H   UNL     1       5.590  -1.389  -1.019  1.00  0.00     0.163 HD
ATOM     29  O   UNL     1       7.800  -2.360  -1.212  1.00  0.00    -0.269 OA
BRANCH  27  30
ATOM     30  C   UNL     1       6.820  -4.480  -1.003  1.00  0.00     0.039 A 
ATOM     31  C   UNL     1       7.871  -5.112  -0.335  1.00  0.00     0.014 A 
ATOM     32  C   UNL     1       5.845  -5.237  -1.659  1.00  0.00     0.014 A 
ATOM     33  C   UNL     1       7.916  -6.506  -0.280  1.00  0.00     0.010 A 
ATOM     34  C   UNL     1       5.851  -6.624  -1.542  1.00  0.00     0.010 A 
ATOM     35  C   UNL     1       6.890  -7.271  -0.858  1.00  0.00    -0.014 A 
BRANCH  35  36
ATOM     36  C   UNL     1       6.890  -8.752  -0.757  1.00  0.00     0.031 A 
ATOM     37  C   UNL     1       7.022  -9.594  -1.995  1.00  0.00     0.074 A 
ATOM     38  C   UNL     1       6.709  -9.333   0.444  1.00  0.00     0.049 A 
ATOM     39  N   UNL     1       6.984 -10.897  -2.118  1.00  0.00    -0.248 NA
ATOM     40  C   UNL     1       7.193  -8.876  -3.268  1.00  0.00     0.031 C 
ATOM     41  C   UNL     1       6.520  -8.619   1.708  1.00  0.00     0.029 A 
ATOM     42  N   UNL     1       6.643 -10.657   0.797  1.00  0.00    -0.354 N 
ATOM     43  C   UNL     1       7.112 -11.152  -3.477  1.00  0.00     0.074 A 
ATOM     44  C   UNL     1       7.175  -9.870  -4.144  1.00  0.00     0.031 C 
ATOM     45  C   UNL     1       6.381  -9.512   2.700  1.00  0.00     0.029 A 
ATOM     46  C   UNL     1       6.433 -10.858   2.139  1.00  0.00     0.049 A 
ATOM     47  H   UNL     1       6.738 -11.393   0.150  1.00  0.00     0.167 HD
ATOM     48  C   UNL     1       7.193 -12.348  -4.107  1.00  0.00     0.037 A 
ATOM     49  C   UNL     1       6.290 -12.001   2.837  1.00  0.00     0.037 A 
ATOM     50  C   UNL     1       7.152 -13.620  -3.433  1.00  0.00     0.049 A 
ATOM     51  C   UNL     1       6.380 -13.316   2.111  1.00  0.00     0.074 A 
ATOM     52  C   UNL     1       7.287 -14.887  -3.972  1.00  0.00     0.029 A 
ATOM     53  N   UNL     1       6.955 -13.784  -2.070  1.00  0.00    -0.354 N 
ATOM     54  N   UNL     1       6.575 -13.547   0.836  1.00  0.00    -0.248 NA
ATOM     55  C   UNL     1       6.238 -14.531   2.925  1.00  0.00     0.031 C 
ATOM     56  C   UNL     1       7.124 -15.820  -2.943  1.00  0.00     0.029 A 
ATOM     57  C   UNL     1       6.942 -15.134  -1.753  1.00  0.00     0.049 A 
ATOM     58  H   UNL     1       6.842 -13.051  -1.422  1.00  0.00     0.167 HD
ATOM     59  C   UNL     1       6.607 -14.927   0.697  1.00  0.00     0.074 A 
ATOM     60  C   UNL     1       6.428 -15.483   2.022  1.00  0.00     0.031 C 
ATOM     61  C   UNL     1       6.769 -15.669  -0.426  1.00  0.00     0.037 A 
BRANCH  48  62
ATOM     62  C   UNL     1       7.337 -12.339  -5.602  1.00  0.00     0.064 A 
ATOM     63  C   UNL     1       8.513 -11.896  -6.226  1.00  0.00     0.173 A 
ATOM     64  C   UNL     1       6.301 -12.814  -6.420  1.00  0.00     0.173 A 
ATOM     65  F   UNL     1       9.530 -11.421  -5.491  1.00  0.00    -0.203 F 
ATOM     66  C   UNL     1       8.635 -11.900  -7.613  1.00  0.00     0.198 A 
ATOM     67  C   UNL     1       6.438 -12.847  -7.806  1.00  0.00     0.198 A 
ATOM     68  F   UNL     1       5.156 -13.255  -5.876  1.00  0.00    -0.203 F 
ATOM     69  F   UNL     1       9.748 -11.425  -8.188  1.00  0.00    -0.200 F 
ATOM     70  C   UNL     1       7.601 -12.382  -8.401  1.00  0.00     0.200 A 
ATOM     71  F   UNL     1       5.443 -13.326  -8.565  1.00  0.00    -0.200 F 
ATOM     72  F   UNL     1       7.723 -12.394  -9.736  1.00  0.00    -0.200 F 
ENDBRANCH  48  62
BRANCH  49  73
ATOM     73  C   UNL     1       6.072 -11.952   4.306  1.00  0.00     0.064 A 
ATOM     74  C   UNL     1       7.063 -12.390   5.196  1.00  0.00     0.173 A 
ATOM     75  C   UNL     1       4.873 -11.469   4.851  1.00  0.00     0.173 A 
ATOM     76  F   UNL     1       8.219 -12.878   4.722  1.00  0.00    -0.203 F 
ATOM     77  C   UNL     1       6.855 -12.367   6.573  1.00  0.00     0.198 A 
ATOM     78  C   UNL     1       4.678 -11.419   6.229  1.00  0.00     0.198 A 
ATOM     79  F   UNL     1       3.896 -11.031   4.043  1.00  0.00    -0.203 F 
ATOM     80  F   UNL     1       7.801 -12.835   7.399  1.00  0.00    -0.200 F 
ATOM     81  C   UNL     1       5.665 -11.876   7.089  1.00  0.00     0.200 A 
ATOM     82  F   UNL     1       3.534 -10.928   6.724  1.00  0.00    -0.200 F 
ATOM     83  F   UNL     1       5.468 -11.850   8.414  1.00  0.00    -0.200 F 
ENDBRANCH  49  73
BRANCH  61  84
ATOM     84  C   UNL     1       6.795 -17.161  -0.266  1.00  0.00     0.064 A 
ATOM     85  C   UNL     1       5.636 -17.889   0.043  1.00  0.00     0.173 A 
ATOM     86  C   UNL     1       7.987 -17.875  -0.463  1.00  0.00     0.173 A 
ATOM     87  F   UNL     1       4.475 -17.252   0.256  1.00  0.00    -0.203 F 
ATOM     88  C   UNL     1       5.677 -19.274   0.178  1.00  0.00     0.198 A 
ATOM     89  C   UNL     1       8.017 -19.262  -0.359  1.00  0.00     0.198 A 
ATOM     90  F   UNL     1       9.121 -17.226  -0.767  1.00  0.00    -0.203 F 
ATOM     91  F   UNL     1       4.570 -19.945   0.524  1.00  0.00    -0.200 F 
ATOM     92  C   UNL     1       6.865 -19.960  -0.031  1.00  0.00     0.200 A 
ATOM     93  F   UNL     1       9.162 -19.924  -0.576  1.00  0.00    -0.200 F 
ATOM     94  F   UNL     1       6.900 -21.294   0.091  1.00  0.00    -0.200 F 
ENDBRANCH  61  84
ENDBRANCH  35  36
ENDBRANCH  27  30
ENDBRANCH  25  26
ENDBRANCH  24  25
ENDBRANCH   1  24
TORSDOF 14
