REMARK SMILES Cc1ccc(O[C@H](C)C(=O)NNC(=O)[C@@H]2[C@@H](C(=O)NCCCNC(=O)c3ccc(-c4c5nc(c(-c6c(F)c(F)c(F)c(F)c6F)c6ccc([nH]6)c(-c6c(F)c(F)c(F)c(F)c6F)c6nc(c(-c7c(F)c(F)c(F)c(F)c7F)c7ccc4[nH]7)C=C6)C=C5)cc3)[C@@H]3C=C[C@H]2C3)cc1C
REMARK SMILES IDX 17 1 18 2 19 3 16 5 15 6 92 7 89 8 91 9 93 10 90 11 13 12
REMARK SMILES IDX 12 13 14 15 11 16 9 17 10 18 7 20 8 21 6 22 5 23 1 24 2 25
REMARK SMILES IDX 3 26 95 27 4 28 94 29 96 30 20 31 21 32 22 33 23 34 24 35
REMARK SMILES IDX 25 37 26 38 27 39 88 40 28 41 87 42 29 43 30 44 31 45 81 46
REMARK SMILES IDX 32 47 86 48 80 49 82 50 33 51 85 52 79 53 78 54 34 56 66 57
REMARK SMILES IDX 46 58 65 59 47 60 50 61 64 62 83 63 48 64 49 65 63 67 84 68
REMARK SMILES IDX 51 69 35 70 36 71 44 72 37 73 38 74 42 75 45 76 39 77 40 78
REMARK SMILES IDX 43 79 41 80 67 81 68 82 76 83 69 84 70 85 74 86 77 87 71 88
REMARK SMILES IDX 72 89 75 90 73 91 52 92 53 93 61 94 54 95 55 96 59 97 62 98
REMARK SMILES IDX 56 99 57 100 60 101 58 102
REMARK H PARENT 19 4 12 14 11 19 23 36 82 55 50 66
REMARK Flexibility Score: inf
ROOT
ATOM      1  C   UNL     1      -0.639   5.605  -1.871  1.00  0.00     0.224 C 
ATOM      2  O   UNL     1      -0.521   6.208  -2.940  1.00  0.00    -0.275 OA
ATOM      3  N   UNL     1       0.456   5.573  -1.068  1.00  0.00    -0.356 N 
ATOM      4  H   UNL     1       1.246   6.038  -1.426  1.00  0.00     0.163 HD
ENDROOT
BRANCH   1   5
ATOM      5  C   UNL     1      -1.941   4.925  -1.453  1.00  0.00     0.098 C 
ATOM      6  C   UNL     1      -2.014   3.393  -1.856  1.00  0.00     0.100 C 
ATOM      7  C   UNL     1      -3.232   3.379  -2.821  1.00  0.00     0.025 C 
ATOM      8  C   UNL     1      -3.130   5.532  -2.251  1.00  0.00     0.025 C 
ATOM      9  C   UNL     1      -4.485   3.682  -2.038  1.00  0.00    -0.027 C 
ATOM     10  C   UNL     1      -3.088   4.719  -3.545  1.00  0.00     0.017 C 
ATOM     11  C   UNL     1      -4.416   4.972  -1.678  1.00  0.00    -0.027 C 
BRANCH   6  12
ATOM     12  C   UNL     1      -2.095   2.506  -0.603  1.00  0.00     0.242 C 
ATOM     13  N   UNL     1      -2.531   1.211  -0.626  1.00  0.00    -0.267 N 
ATOM     14  H   UNL     1      -2.326   0.666   0.168  1.00  0.00     0.191 HD
ATOM     15  O   UNL     1      -1.648   2.898   0.480  1.00  0.00    -0.273 OA
BRANCH  13  16
ATOM     16  N   UNL     1      -3.228   0.584  -1.639  1.00  0.00    -0.264 N 
ATOM     17  C   UNL     1      -4.134  -0.429  -1.429  1.00  0.00     0.279 C 
ATOM     18  O   UNL     1      -4.871  -0.763  -2.361  1.00  0.00    -0.269 OA
ATOM     19  H   UNL     1      -3.068   0.879  -2.565  1.00  0.00     0.191 HD
BRANCH  17  20
ATOM     20  C   UNL     1      -4.115  -1.216  -0.104  1.00  0.00     0.260 C 
ATOM     21  C   UNL     1      -2.824  -2.044  -0.079  1.00  0.00     0.064 C 
BRANCH  20  22
ATOM     22  O   UNL     1      -4.204  -0.356   1.034  1.00  0.00    -0.481 OA
BRANCH  22  23
ATOM     23  C   UNL     1      -4.488  -0.917   2.253  1.00  0.00     0.120 A 
ATOM     24  C   UNL     1      -5.154  -2.399   6.272  1.00  0.00     0.044 C 
ATOM     25  C   UNL     1      -4.938  -1.842   4.892  1.00  0.00    -0.048 A 
ATOM     26  C   UNL     1      -4.996  -2.715   3.796  1.00  0.00     0.007 A 
ATOM     27  C   UNL     1      -4.683  -0.478   4.660  1.00  0.00    -0.045 A 
ATOM     28  C   UNL     1      -4.784  -2.256   2.492  1.00  0.00     0.047 A 
ATOM     29  C   UNL     1      -4.458  -0.036   3.339  1.00  0.00     0.050 A 
ATOM     30  C   UNL     1      -4.652   0.545   5.763  1.00  0.00     0.045 C 
ENDBRANCH  22  23
ENDBRANCH  20  22
ENDBRANCH  17  20
ENDBRANCH  13  16
ENDBRANCH   6  12
ENDBRANCH   1   5
BRANCH   3  31
ATOM     31  C   UNL     1       0.648   4.963   0.234  1.00  0.00     0.117 C 
BRANCH  31  32
ATOM     32  C   UNL     1       1.364   3.620   0.122  1.00  0.00     0.042 C 
BRANCH  32  33
ATOM     33  C   UNL     1       2.827   3.738  -0.298  1.00  0.00     0.118 C 
BRANCH  33  34
ATOM     34  N   UNL     1       3.651   4.356   0.730  1.00  0.00    -0.352 N 
ATOM     35  C   UNL     1       4.734   3.872   1.417  1.00  0.00     0.251 C 
ATOM     36  H   UNL     1       3.387   5.274   0.971  1.00  0.00     0.163 HD
ATOM     37  O   UNL     1       5.149   4.489   2.395  1.00  0.00    -0.269 OA
BRANCH  35  38
ATOM     38  C   UNL     1       5.410   2.620   1.008  1.00  0.00     0.039 A 
ATOM     39  C   UNL     1       5.885   1.766   2.009  1.00  0.00     0.014 A 
ATOM     40  C   UNL     1       5.649   2.316  -0.335  1.00  0.00     0.014 A 
ATOM     41  C   UNL     1       6.560   0.593   1.664  1.00  0.00     0.010 A 
ATOM     42  C   UNL     1       6.264   1.112  -0.680  1.00  0.00     0.010 A 
ATOM     43  C   UNL     1       6.737   0.246   0.316  1.00  0.00    -0.014 A 
BRANCH  43  44
ATOM     44  C   UNL     1       7.420  -1.019  -0.056  1.00  0.00     0.031 A 
ATOM     45  C   UNL     1       8.751  -0.995  -0.753  1.00  0.00     0.074 A 
ATOM     46  C   UNL     1       6.817  -2.195   0.201  1.00  0.00     0.049 A 
ATOM     47  N   UNL     1       9.494  -1.997  -1.154  1.00  0.00    -0.248 NA
ATOM     48  C   UNL     1       9.309   0.328  -1.067  1.00  0.00     0.031 C 
ATOM     49  C   UNL     1       5.498  -2.349   0.815  1.00  0.00     0.029 A 
ATOM     50  N   UNL     1       7.233  -3.483  -0.025  1.00  0.00    -0.354 N 
ATOM     51  C   UNL     1      10.595  -1.427  -1.778  1.00  0.00     0.074 A 
ATOM     52  C   UNL     1      10.401   0.007  -1.746  1.00  0.00     0.031 C 
ATOM     53  C   UNL     1       5.223  -3.657   0.940  1.00  0.00     0.029 A 
ATOM     54  C   UNL     1       6.336  -4.431   0.398  1.00  0.00     0.049 A 
ATOM     55  H   UNL     1       8.093  -3.705  -0.450  1.00  0.00     0.167 HD
ATOM     56  C   UNL     1      11.679  -2.041  -2.311  1.00  0.00     0.037 A 
ATOM     57  C   UNL     1       6.407  -5.775   0.362  1.00  0.00     0.037 A 
ATOM     58  C   UNL     1      11.884  -3.466  -2.315  1.00  0.00     0.049 A 
ATOM     59  C   UNL     1       7.640  -6.434  -0.188  1.00  0.00     0.074 A 
ATOM     60  C   UNL     1      12.980  -4.181  -2.767  1.00  0.00     0.029 A 
ATOM     61  N   UNL     1      10.969  -4.395  -1.843  1.00  0.00    -0.354 N 
ATOM     62  N   UNL     1       8.709  -5.882  -0.707  1.00  0.00    -0.248 NA
ATOM     63  C   UNL     1       7.681  -7.902  -0.143  1.00  0.00     0.031 C 
ATOM     64  C   UNL     1      12.713  -5.545  -2.599  1.00  0.00     0.029 A 
ATOM     65  C   UNL     1      11.468  -5.678  -2.006  1.00  0.00     0.049 A 
ATOM     66  H   UNL     1      10.094  -4.176  -1.449  1.00  0.00     0.167 HD
ATOM     67  C   UNL     1       9.558  -6.929  -1.035  1.00  0.00     0.074 A 
ATOM     68  C   UNL     1       8.886  -8.150  -0.639  1.00  0.00     0.031 C 
ATOM     69  C   UNL     1      10.784  -6.883  -1.613  1.00  0.00     0.037 A 
BRANCH  56  70
ATOM     70  C   UNL     1      12.729  -1.167  -2.931  1.00  0.00     0.064 A 
ATOM     71  C   UNL     1      13.561  -0.350  -2.150  1.00  0.00     0.173 A 
ATOM     72  C   UNL     1      12.919  -1.157  -4.321  1.00  0.00     0.173 A 
ATOM     73  F   UNL     1      13.413  -0.314  -0.817  1.00  0.00    -0.203 F 
ATOM     74  C   UNL     1      14.520   0.470  -2.740  1.00  0.00     0.198 A 
ATOM     75  C   UNL     1      13.897  -0.356  -4.906  1.00  0.00     0.198 A 
ATOM     76  F   UNL     1      12.155  -1.924  -5.114  1.00  0.00    -0.203 F 
ATOM     77  F   UNL     1      15.266   1.281  -1.978  1.00  0.00    -0.200 F 
ATOM     78  C   UNL     1      14.690   0.463  -4.116  1.00  0.00     0.200 A 
ATOM     79  F   UNL     1      14.068  -0.372  -6.235  1.00  0.00    -0.200 F 
ATOM     80  F   UNL     1      15.612   1.253  -4.683  1.00  0.00    -0.200 F 
ENDBRANCH  56  70
BRANCH  57  81
ATOM     81  C   UNL     1       5.288  -6.578   0.915  1.00  0.00     0.064 A 
ATOM     82  C   UNL     1       5.419  -7.239   2.144  1.00  0.00     0.173 A 
ATOM     83  C   UNL     1       4.059  -6.672   0.247  1.00  0.00     0.173 A 
ATOM     84  F   UNL     1       6.583  -7.190   2.808  1.00  0.00    -0.203 F 
ATOM     85  C   UNL     1       4.364  -7.970   2.682  1.00  0.00     0.198 A 
ATOM     86  C   UNL     1       2.997  -7.386   0.797  1.00  0.00     0.198 A 
ATOM     87  F   UNL     1       3.884  -6.050  -0.928  1.00  0.00    -0.203 F 
ATOM     88  F   UNL     1       4.522  -8.614   3.846  1.00  0.00    -0.200 F 
ATOM     89  C   UNL     1       3.151  -8.037   2.012  1.00  0.00     0.200 A 
ATOM     90  F   UNL     1       1.822  -7.435   0.155  1.00  0.00    -0.200 F 
ATOM     91  F   UNL     1       2.131  -8.730   2.537  1.00  0.00    -0.200 F 
ENDBRANCH  57  81
BRANCH  69  92
ATOM     92  C   UNL     1      11.480  -8.192  -1.839  1.00  0.00     0.064 A 
ATOM     93  C   UNL     1      11.070  -9.074  -2.850  1.00  0.00     0.173 A 
ATOM     94  C   UNL     1      12.582  -8.558  -1.052  1.00  0.00     0.173 A 
ATOM     95  F   UNL     1      10.011  -8.775  -3.617  1.00  0.00    -0.203 F 
ATOM     96  C   UNL     1      11.724 -10.287  -3.048  1.00  0.00     0.198 A 
ATOM     97  C   UNL     1      13.248  -9.760  -1.269  1.00  0.00     0.198 A 
ATOM     98  F   UNL     1      13.014  -7.746  -0.075  1.00  0.00    -0.203 F 
ATOM     99  F   UNL     1      11.287 -11.135  -3.989  1.00  0.00    -0.200 F 
ATOM    100  C   UNL     1      12.814 -10.627  -2.261  1.00  0.00     0.200 A 
ATOM    101  F   UNL     1      14.306 -10.084  -0.513  1.00  0.00    -0.200 F 
ATOM    102  F   UNL     1      13.442 -11.795  -2.453  1.00  0.00    -0.200 F 
ENDBRANCH  69  92
ENDBRANCH  43  44
ENDBRANCH  35  38
ENDBRANCH  33  34
ENDBRANCH  32  33
ENDBRANCH  31  32
ENDBRANCH   3  31
TORSDOF 15
