REMARK SMILES O=C(NCCCNC(=O)c1cnc(-c2ccccc2Cl)nc1)c1ccc(-c2c3nc(c(-c4c(F)c(F)c(F)c(F)c4F)c4ccc([nH]4)c(-c4c(F)c(F)c(F)c(F)c4F)c4nc(c(-c5c(F)c(F)c(F)c(F)c5F)c5ccc2[nH]5)C=C4)C=C3)cc1
REMARK SMILES IDX 4 1 3 2 1 3 2 4 23 6 24 7 85 8 25 9 84 10 26 11 27 12 28 13
REMARK SMILES IDX 78 14 29 15 83 16 77 17 79 18 30 19 82 20 76 21 75 22 31 24
REMARK SMILES IDX 63 25 43 26 62 27 44 28 47 29 61 30 80 31 45 32 46 33 60 35
REMARK SMILES IDX 81 36 48 37 32 38 33 39 41 40 34 41 35 42 39 43 42 44 36 45
REMARK SMILES IDX 37 46 40 47 38 48 64 49 65 50 73 51 66 52 67 53 71 54 74 55
REMARK SMILES IDX 68 56 69 57 72 58 70 59 49 60 50 61 58 62 51 63 52 64 56 65
REMARK SMILES IDX 59 66 53 67 54 68 57 69 55 70 5 71 6 72 7 73 8 74 9 76 10 77
REMARK SMILES IDX 11 78 22 79 12 80 21 81 13 82 14 83 15 84 19 85 16 86 18 87
REMARK SMILES IDX 20 88 17 89
REMARK H PARENT 3 5 79 23 47 34 7 75
REMARK Flexibility Score: inf
ROOT
ATOM      1  C   UNL     1       4.582  -1.355  -0.501  1.00  0.00     0.118 C 
ENDROOT
BRANCH   1   2
ATOM      2  N   UNL     1       3.162  -1.038  -0.578  1.00  0.00    -0.352 N 
ATOM      3  O   UNL     1       1.223   0.001  -0.117  1.00  0.00    -0.269 OA
ATOM      4  C   UNL     1       2.450   0.033  -0.094  1.00  0.00     0.251 C 
ATOM      5  H   UNL     1       2.620  -1.704  -1.059  1.00  0.00     0.163 HD
BRANCH   4   6
ATOM      6  C   UNL     1       3.140   1.212   0.474  1.00  0.00     0.039 A 
ATOM      7  C   UNL     1       4.296   1.727  -0.113  1.00  0.00     0.014 A 
ATOM      8  C   UNL     1       2.595   1.840   1.599  1.00  0.00     0.014 A 
ATOM      9  C   UNL     1       4.999   2.747   0.519  1.00  0.00     0.010 A 
ATOM     10  C   UNL     1       3.250   2.931   2.178  1.00  0.00     0.010 A 
ATOM     11  C   UNL     1       4.483   3.365   1.669  1.00  0.00    -0.014 A 
BRANCH  11  12
ATOM     12  C   UNL     1       5.243   4.475   2.301  1.00  0.00     0.031 A 
ATOM     13  C   UNL     1       5.806   4.336   3.688  1.00  0.00     0.074 A 
ATOM     14  C   UNL     1       5.461   5.601   1.595  1.00  0.00     0.049 A 
ATOM     15  N   UNL     1       6.534   5.184   4.373  1.00  0.00    -0.248 NA
ATOM     16  C   UNL     1       5.508   3.090   4.408  1.00  0.00     0.031 C 
ATOM     17  C   UNL     1       4.956   5.859   0.245  1.00  0.00     0.029 A 
ATOM     18  N   UNL     1       6.184   6.727   1.900  1.00  0.00    -0.354 N 
ATOM     19  C   UNL     1       6.756   4.587   5.607  1.00  0.00     0.074 A 
ATOM     20  C   UNL     1       6.066   3.315   5.589  1.00  0.00     0.031 C 
ATOM     21  C   UNL     1       5.432   7.036  -0.185  1.00  0.00     0.029 A 
ATOM     22  C   UNL     1       6.227   7.642   0.878  1.00  0.00     0.049 A 
ATOM     23  H   UNL     1       6.628   6.865   2.768  1.00  0.00     0.167 HD
ATOM     24  C   UNL     1       7.477   5.054   6.655  1.00  0.00     0.037 A 
ATOM     25  C   UNL     1       6.838   8.839   0.803  1.00  0.00     0.037 A 
ATOM     26  C   UNL     1       8.188   6.307   6.659  1.00  0.00     0.049 A 
ATOM     27  C   UNL     1       7.628   9.332   1.980  1.00  0.00     0.074 A 
ATOM     28  C   UNL     1       8.986   6.845   7.655  1.00  0.00     0.029 A 
ATOM     29  N   UNL     1       8.186   7.220   5.614  1.00  0.00    -0.354 N 
ATOM     30  N   UNL     1       7.862   8.741   3.126  1.00  0.00    -0.248 NA
ATOM     31  C   UNL     1       8.238  10.662   1.853  1.00  0.00     0.031 C 
ATOM     32  C   UNL     1       9.430   8.102   7.230  1.00  0.00     0.029 A 
ATOM     33  C   UNL     1       8.950   8.327   5.950  1.00  0.00     0.049 A 
ATOM     34  H   UNL     1       7.711   7.100   4.760  1.00  0.00     0.167 HD
ATOM     35  C   UNL     1       8.665   9.612   3.847  1.00  0.00     0.074 A 
ATOM     36  C   UNL     1       8.890  10.768   3.003  1.00  0.00     0.031 C 
ATOM     37  C   UNL     1       9.171   9.466   5.096  1.00  0.00     0.037 A 
BRANCH  24  38
ATOM     38  C   UNL     1       7.516   4.215   7.900  1.00  0.00     0.064 A 
ATOM     39  C   UNL     1       8.231   3.009   7.959  1.00  0.00     0.173 A 
ATOM     40  C   UNL     1       6.852   4.641   9.061  1.00  0.00     0.173 A 
ATOM     41  F   UNL     1       8.873   2.551   6.874  1.00  0.00    -0.203 F 
ATOM     42  C   UNL     1       8.255   2.247   9.125  1.00  0.00     0.198 A 
ATOM     43  C   UNL     1       6.902   3.890  10.233  1.00  0.00     0.198 A 
ATOM     44  F   UNL     1       6.160   5.789   9.062  1.00  0.00    -0.203 F 
ATOM     45  F   UNL     1       8.904   1.074   9.143  1.00  0.00    -0.200 F 
ATOM     46  C   UNL     1       7.596   2.690  10.262  1.00  0.00     0.200 A 
ATOM     47  F   UNL     1       6.274   4.326  11.334  1.00  0.00    -0.200 F 
ATOM     48  F   UNL     1       7.622   1.956  11.383  1.00  0.00    -0.200 F 
ENDBRANCH  24  38
BRANCH  25  49
ATOM     49  C   UNL     1       6.742   9.636  -0.446  1.00  0.00     0.064 A 
ATOM     50  C   UNL     1       7.858   9.808  -1.275  1.00  0.00     0.173 A 
ATOM     51  C   UNL     1       5.532  10.220  -0.847  1.00  0.00     0.173 A 
ATOM     52  F   UNL     1       9.041   9.283  -0.923  1.00  0.00    -0.203 F 
ATOM     53  C   UNL     1       7.770  10.543  -2.455  1.00  0.00     0.198 A 
ATOM     54  C   UNL     1       5.438  10.932  -2.040  1.00  0.00     0.198 A 
ATOM     55  F   UNL     1       4.434  10.079  -0.090  1.00  0.00    -0.203 F 
ATOM     56  F   UNL     1       8.860  10.721  -3.213  1.00  0.00    -0.200 F 
ATOM     57  C   UNL     1       6.559  11.098  -2.841  1.00  0.00     0.200 A 
ATOM     58  F   UNL     1       4.262  11.452  -2.417  1.00  0.00    -0.200 F 
ATOM     59  F   UNL     1       6.472  11.795  -3.981  1.00  0.00    -0.200 F 
ENDBRANCH  25  49
BRANCH  37  60
ATOM     60  C   UNL     1      10.051  10.568   5.608  1.00  0.00     0.064 A 
ATOM     61  C   UNL     1       9.528  11.813   5.986  1.00  0.00     0.173 A 
ATOM     62  C   UNL     1      11.433  10.366   5.740  1.00  0.00     0.173 A 
ATOM     63  F   UNL     1       8.216  12.061   5.862  1.00  0.00    -0.203 F 
ATOM     64  C   UNL     1      10.362  12.827   6.452  1.00  0.00     0.198 A 
ATOM     65  C   UNL     1      12.260  11.372   6.233  1.00  0.00     0.198 A 
ATOM     66  F   UNL     1      11.981   9.191   5.396  1.00  0.00    -0.203 F 
ATOM     67  F   UNL     1       9.849  14.026   6.760  1.00  0.00    -0.200 F 
ATOM     68  C   UNL     1      11.725  12.603   6.580  1.00  0.00     0.200 A 
ATOM     69  F   UNL     1      13.575  11.151   6.366  1.00  0.00    -0.200 F 
ATOM     70  F   UNL     1      12.526  13.579   7.030  1.00  0.00    -0.200 F 
ENDBRANCH  37  60
ENDBRANCH  11  12
ENDBRANCH   4   6
ENDBRANCH   1   2
BRANCH   1  71
ATOM     71  C   UNL     1       4.869  -2.572   0.369  1.00  0.00     0.042 C 
BRANCH  71  72
ATOM     72  C   UNL     1       4.275  -3.868  -0.169  1.00  0.00     0.118 C 
BRANCH  72  73
ATOM     73  N   UNL     1       4.873  -4.263  -1.440  1.00  0.00    -0.352 N 
ATOM     74  C   UNL     1       5.826  -5.218  -1.695  1.00  0.00     0.254 C 
ATOM     75  H   UNL     1       4.546  -3.774  -2.229  1.00  0.00     0.163 HD
ATOM     76  O   UNL     1       6.382  -5.271  -2.787  1.00  0.00    -0.269 OA
BRANCH  74  77
ATOM     77  C   UNL     1       6.198  -6.166  -0.650  1.00  0.00     0.076 A 
ATOM     78  C   UNL     1       5.271  -6.928   0.021  1.00  0.00     0.129 A 
ATOM     79  C   UNL     1       7.507  -6.340  -0.274  1.00  0.00     0.129 A 
ATOM     80  N   UNL     1       5.579  -7.705   1.078  1.00  0.00    -0.236 NA
ATOM     81  N   UNL     1       7.872  -7.115   0.771  1.00  0.00    -0.236 NA
ATOM     82  C   UNL     1       6.879  -7.730   1.445  1.00  0.00     0.160 A 
BRANCH  82  83
ATOM     83  C   UNL     1       7.195  -8.448   2.684  1.00  0.00     0.038 A 
ATOM     84  C   UNL     1       6.570  -9.691   2.934  1.00  0.00     0.013 A 
ATOM     85  C   UNL     1       8.049  -7.943   3.683  1.00  0.00     0.052 A 
ATOM     86  C   UNL     1       6.793 -10.402   4.116  1.00  0.00     0.001 A 
ATOM     87  C   UNL     1       8.277  -8.662   4.866  1.00  0.00     0.021 A 
ATOM     88  Cl  UNL     1       8.805  -6.385   3.583  1.00  0.00    -0.084 Cl
ATOM     89  C   UNL     1       7.650  -9.888   5.081  1.00  0.00     0.002 A 
ENDBRANCH  82  83
ENDBRANCH  74  77
ENDBRANCH  72  73
ENDBRANCH  71  72
ENDBRANCH   1  71
TORSDOF 11
