REMARK SMILES CCC(CC)(C[C@H](O)COC)C(=O)NCCCNC(=O)c1ccc(-c2c3nc(c(-c4c(F)c(F)c(F)c(F)c4F)c4ccc([nH]4)c(-c4c(F)c(F)c(F)c(F)c4F)c4nc(c(-c5c(F)c(F)c(F)c(F)c5F)c5ccc2[nH]5)C=C4)C=C3)cc1
REMARK SMILES IDX 15 1 14 2 12 3 13 4 3 6 2 7 1 8 4 9 5 10 6 11 7 12 9 13
REMARK SMILES IDX 10 14 11 15 8 16 16 18 17 19 18 20 19 21 20 23 21 24 22 25
REMARK SMILES IDX 83 26 23 27 82 28 24 29 25 30 26 31 76 32 27 33 81 34 75 35
REMARK SMILES IDX 77 36 28 37 80 38 74 39 73 40 29 42 61 43 41 44 60 45 42 46
REMARK SMILES IDX 45 47 59 48 78 49 43 50 44 51 58 53 79 54 46 55 30 56 31 57
REMARK SMILES IDX 39 58 32 59 33 60 37 61 40 62 34 63 35 64 38 65 36 66 62 67
REMARK SMILES IDX 63 68 71 69 64 70 65 71 69 72 72 73 66 74 67 75 70 76 68 77
REMARK SMILES IDX 47 78 48 79 56 80 49 81 50 82 54 83 57 84 51 85 52 86 55 87
REMARK SMILES IDX 53 88
REMARK H PARENT 14 5 8 17 18 22 77 41 45 52
REMARK Flexibility Score: inf
ROOT
ATOM      1  C   UNL     1       4.047   4.825  -4.647  1.00  0.00     0.117 C 
ENDROOT
BRANCH   1   2
ATOM      2  N   UNL     1       3.164   5.051  -3.510  1.00  0.00    -0.356 N 
ATOM      3  C   UNL     1       2.742   4.280  -2.473  1.00  0.00     0.226 C 
ATOM      4  O   UNL     1       1.944   4.823  -1.703  1.00  0.00    -0.274 OA
ATOM      5  H   UNL     1       2.792   5.962  -3.489  1.00  0.00     0.163 HD
BRANCH   3   6
ATOM      6  C   UNL     1       3.171   2.809  -2.281  1.00  0.00     0.051 C 
BRANCH   6   7
ATOM      7  C   UNL     1       2.576   2.252  -0.935  1.00  0.00     0.013 C 
ATOM      8  C   UNL     1       3.165   2.811   0.360  1.00  0.00     0.005 C 
ENDBRANCH   6   7
BRANCH   6   9
ATOM      9  C   UNL     1       4.731   2.721  -2.213  1.00  0.00     0.013 C 
ATOM     10  C   UNL     1       5.322   1.317  -2.186  1.00  0.00     0.005 C 
ENDBRANCH   6   9
BRANCH   6  11
ATOM     11  C   UNL     1       2.566   1.964  -3.452  1.00  0.00     0.051 C 
BRANCH  11  12
ATOM     12  C   UNL     1       1.017   1.944  -3.556  1.00  0.00     0.141 C 
BRANCH  12  13
ATOM     13  C   UNL     1       0.481   2.719  -4.773  1.00  0.00     0.191 C 
BRANCH  13  14
ATOM     14  O   UNL     1      -0.944   2.879  -4.769  1.00  0.00    -0.382 OA
ATOM     15  C   UNL     1      -1.660   1.693  -5.090  1.00  0.00     0.195 C 
ENDBRANCH  13  14
ENDBRANCH  12  13
BRANCH  12  16
ATOM     16  O   UNL     1       0.643   0.563  -3.689  1.00  0.00    -0.391 OA
ATOM     17  H   UNL     1       1.048   0.194  -4.490  1.00  0.00     0.211 HD
ENDBRANCH  12  16
ENDBRANCH  11  12
ENDBRANCH   6  11
ENDBRANCH   3   6
ENDBRANCH   1   2
BRANCH   1  18
ATOM     18  C   UNL     1       3.355   5.029  -5.987  1.00  0.00     0.042 C 
BRANCH  18  19
ATOM     19  C   UNL     1       2.788   6.424  -6.189  1.00  0.00     0.118 C 
BRANCH  19  20
ATOM     20  N   UNL     1       3.831   7.420  -6.395  1.00  0.00    -0.352 N 
ATOM     21  C   UNL     1       4.122   8.148  -7.525  1.00  0.00     0.251 C 
ATOM     22  H   UNL     1       4.408   7.596  -5.617  1.00  0.00     0.163 HD
ATOM     23  O   UNL     1       5.165   8.791  -7.597  1.00  0.00    -0.269 OA
BRANCH  21  24
ATOM     24  C   UNL     1       3.183   8.130  -8.665  1.00  0.00     0.039 A 
ATOM     25  C   UNL     1       3.676   7.934  -9.957  1.00  0.00     0.014 A 
ATOM     26  C   UNL     1       1.811   8.282  -8.450  1.00  0.00     0.014 A 
ATOM     27  C   UNL     1       2.784   7.806 -11.025  1.00  0.00     0.010 A 
ATOM     28  C   UNL     1       0.923   8.065  -9.496  1.00  0.00     0.010 A 
ATOM     29  C   UNL     1       1.399   7.826 -10.795  1.00  0.00    -0.014 A 
BRANCH  29  30
ATOM     30  C   UNL     1       0.414   7.609 -11.885  1.00  0.00     0.031 A 
ATOM     31  C   UNL     1      -0.568   8.695 -12.224  1.00  0.00     0.074 A 
ATOM     32  C   UNL     1       0.333   6.409 -12.491  1.00  0.00     0.049 A 
ATOM     33  N   UNL     1      -1.610   8.655 -13.015  1.00  0.00    -0.248 NA
ATOM     34  C   UNL     1      -0.371   9.991 -11.555  1.00  0.00     0.031 C 
ATOM     35  C   UNL     1       1.204   5.263 -12.224  1.00  0.00     0.029 A 
ATOM     36  N   UNL     1      -0.544   5.944 -13.440  1.00  0.00    -0.354 N 
ATOM     37  C   UNL     1      -2.205   9.906 -12.915  1.00  0.00     0.074 A 
ATOM     38  C   UNL     1      -1.439  10.666 -11.953  1.00  0.00     0.031 C 
ATOM     39  C   UNL     1       0.826   4.233 -12.998  1.00  0.00     0.029 A 
ATOM     40  C   UNL     1      -0.343   4.628 -13.778  1.00  0.00     0.049 A 
ATOM     41  H   UNL     1      -1.249   6.501 -13.841  1.00  0.00     0.167 HD
ATOM     42  C   UNL     1      -3.284  10.382 -13.581  1.00  0.00     0.037 A 
ATOM     43  C   UNL     1      -1.036   3.824 -14.608  1.00  0.00     0.037 A 
ATOM     44  C   UNL     1      -4.022   9.632 -14.561  1.00  0.00     0.049 A 
ATOM     45  C   UNL     1      -2.236   4.375 -15.331  1.00  0.00     0.074 A 
ATOM     46  C   UNL     1      -5.094  10.043 -15.335  1.00  0.00     0.029 A 
ATOM     47  N   UNL     1      -3.763   8.313 -14.903  1.00  0.00    -0.354 N 
ATOM     48  N   UNL     1      -2.759   5.576 -15.271  1.00  0.00    -0.248 NA
ATOM     49  C   UNL     1      -2.942   3.461 -16.240  1.00  0.00     0.031 C 
ATOM     50  C   UNL     1      -5.511   8.959 -16.113  1.00  0.00     0.029 A 
ATOM     51  C   UNL     1      -4.666   7.889 -15.865  1.00  0.00     0.049 A 
ATOM     52  H   UNL     1      -3.045   7.760 -14.520  1.00  0.00     0.167 HD
ATOM     53  C   UNL     1      -3.826   5.574 -16.159  1.00  0.00     0.074 A 
ATOM     54  C   UNL     1      -3.877   4.252 -16.748  1.00  0.00     0.031 C 
ATOM     55  C   UNL     1      -4.684   6.578 -16.461  1.00  0.00     0.037 A 
BRANCH  42  56
ATOM     56  C   UNL     1      -3.729  11.782 -13.273  1.00  0.00     0.064 A 
ATOM     57  C   UNL     1      -2.967  12.898 -13.650  1.00  0.00     0.173 A 
ATOM     58  C   UNL     1      -4.952  12.013 -12.623  1.00  0.00     0.173 A 
ATOM     59  F   UNL     1      -1.785  12.732 -14.264  1.00  0.00    -0.203 F 
ATOM     60  C   UNL     1      -3.396  14.191 -13.362  1.00  0.00     0.198 A 
ATOM     61  C   UNL     1      -5.393  13.309 -12.366  1.00  0.00     0.198 A 
ATOM     62  F   UNL     1      -5.723  10.983 -12.246  1.00  0.00    -0.203 F 
ATOM     63  F   UNL     1      -2.625  15.238 -13.687  1.00  0.00    -0.200 F 
ATOM     64  C   UNL     1      -4.612  14.395 -12.727  1.00  0.00     0.200 A 
ATOM     65  F   UNL     1      -6.575  13.505 -11.766  1.00  0.00    -0.200 F 
ATOM     66  F   UNL     1      -5.027  15.640 -12.459  1.00  0.00    -0.200 F 
ENDBRANCH  42  56
BRANCH  43  67
ATOM     67  C   UNL     1      -0.603   2.417 -14.814  1.00  0.00     0.064 A 
ATOM     68  C   UNL     1      -0.061   2.006 -16.040  1.00  0.00     0.173 A 
ATOM     69  C   UNL     1      -0.723   1.457 -13.799  1.00  0.00     0.173 A 
ATOM     70  F   UNL     1       0.055   2.883 -17.048  1.00  0.00    -0.203 F 
ATOM     71  C   UNL     1       0.326   0.684 -16.249  1.00  0.00     0.198 A 
ATOM     72  C   UNL     1      -0.309   0.141 -14.000  1.00  0.00     0.198 A 
ATOM     73  F   UNL     1      -1.230   1.799 -12.606  1.00  0.00    -0.203 F 
ATOM     74  F   UNL     1       0.798   0.308 -17.446  1.00  0.00    -0.200 F 
ATOM     75  C   UNL     1       0.207  -0.246 -15.228  1.00  0.00     0.200 A 
ATOM     76  F   UNL     1      -0.411  -0.751 -13.006  1.00  0.00    -0.200 F 
ATOM     77  F   UNL     1       0.583  -1.516 -15.428  1.00  0.00    -0.200 F 
ENDBRANCH  43  67
BRANCH  55  78
ATOM     78  C   UNL     1      -5.715   6.317 -17.519  1.00  0.00     0.064 A 
ATOM     79  C   UNL     1      -6.831   5.504 -17.279  1.00  0.00     0.173 A 
ATOM     80  C   UNL     1      -5.617   6.950 -18.768  1.00  0.00     0.173 A 
ATOM     81  F   UNL     1      -6.962   4.865 -16.107  1.00  0.00    -0.203 F 
ATOM     82  C   UNL     1      -7.806   5.323 -18.258  1.00  0.00     0.198 A 
ATOM     83  C   UNL     1      -6.607   6.790 -19.732  1.00  0.00     0.198 A 
ATOM     84  F   UNL     1      -4.570   7.743 -19.043  1.00  0.00    -0.203 F 
ATOM     85  F   UNL     1      -8.847   4.514 -18.021  1.00  0.00    -0.200 F 
ATOM     86  C   UNL     1      -7.698   5.974 -19.478  1.00  0.00     0.200 A 
ATOM     87  F   UNL     1      -6.508   7.432 -20.905  1.00  0.00    -0.200 F 
ATOM     88  F   UNL     1      -8.646   5.812 -20.411  1.00  0.00    -0.200 F 
ENDBRANCH  55  78
ENDBRANCH  29  30
ENDBRANCH  21  24
ENDBRANCH  19  20
ENDBRANCH  18  19
ENDBRANCH   1  18
TORSDOF 17
