REMARK SMILES C[NH2+]C[C@H](C)C(=O)NC[C@](C)(O)C(=O)NCCCNC(=O)c1ccc(-c2c3nc(c(-c4c(F)c(F)c(F)c(F)c4F)c4ccc([nH]4)c(-c4c(F)c(F)c(F)c(F)c4F)c4nc(c(-c5c(F)c(F)c(F)c(F)c5F)c5ccc2[nH]5)C=C4)C=C3)cc1
REMARK SMILES IDX 13 1 14 2 15 3 10 5 11 6 9 7 8 8 6 9 7 10 4 12 5 13 3 14
REMARK SMILES IDX 2 15 1 16 12 19 16 21 17 22 18 23 19 24 20 25 21 27 22 28
REMARK SMILES IDX 23 29 84 30 24 31 83 32 25 33 26 34 27 35 77 36 28 37 82 38
REMARK SMILES IDX 76 39 78 40 29 41 81 42 75 43 74 44 30 46 62 47 42 48 61 49
REMARK SMILES IDX 43 50 46 51 60 52 79 53 44 54 45 55 59 57 80 58 47 59 31 60
REMARK SMILES IDX 32 61 40 62 33 63 34 64 38 65 41 66 35 67 36 68 39 69 37 70
REMARK SMILES IDX 63 71 64 72 72 73 65 74 66 75 70 76 73 77 67 78 68 79 71 80
REMARK SMILES IDX 69 81 48 82 49 83 57 84 50 85 51 86 55 87 58 88 52 89 53 90
REMARK SMILES IDX 56 91 54 92
REMARK H PARENT 15 4 8 11 2 17 2 18 12 20 19 26 78 45 46 56
REMARK Flexibility Score: inf
ROOT
ATOM      1  C   UNL     1      -2.807   3.660  -0.013  1.00  0.00     0.253 C 
ATOM      2  O   UNL     1      -2.287   2.571  -0.283  1.00  0.00    -0.272 OA
ATOM      3  N   UNL     1      -2.780   4.593  -1.006  1.00  0.00    -0.353 N 
ATOM      4  H   UNL     1      -2.240   4.345  -1.791  1.00  0.00     0.163 HD
ENDROOT
BRANCH   1   5
ATOM      5  C   UNL     1      -3.480   3.918   1.372  1.00  0.00     0.157 C 
ATOM      6  C   UNL     1      -2.924   2.871   2.357  1.00  0.00     0.055 C 
BRANCH   5   7
ATOM      7  C   UNL     1      -5.015   3.719   1.284  1.00  0.00     0.160 C 
BRANCH   7   8
ATOM      8  N   UNL     1      -5.691   4.841   0.650  1.00  0.00    -0.352 N 
ATOM      9  C   UNL     1      -6.533   4.918  -0.408  1.00  0.00     0.228 C 
ATOM     10  O   UNL     1      -6.823   6.048  -0.815  1.00  0.00    -0.275 OA
ATOM     11  H   UNL     1      -5.501   5.710   1.072  1.00  0.00     0.163 HD
BRANCH   9  12
ATOM     12  C   UNL     1      -7.154   3.690  -1.054  1.00  0.00     0.130 C 
ATOM     13  C   UNL     1      -6.141   2.678  -1.587  1.00  0.00     0.024 C 
BRANCH  12  14
ATOM     14  C   UNL     1      -8.187   3.052  -0.111  1.00  0.00     0.273 C 
BRANCH  14  15
ATOM     15  N   UNL     1      -9.252   3.942   0.369  1.00  0.00    -0.348 N 
ATOM     16  C   UNL     1     -10.127   4.407  -0.701  1.00  0.00     0.330 C 
ATOM     17  H   UNL     1      -9.815   3.437   1.054  1.00  0.00     0.346 HD
ATOM     18  H   UNL     1      -8.805   4.763   0.778  1.00  0.00     0.346 HD
ENDBRANCH  14  15
ENDBRANCH  12  14
ENDBRANCH   9  12
ENDBRANCH   7   8
ENDBRANCH   5   7
BRANCH   5  19
ATOM     19  O   UNL     1      -3.224   5.202   1.948  1.00  0.00    -0.378 OA
ATOM     20  H   UNL     1      -2.266   5.343   2.011  1.00  0.00     0.212 HD
ENDBRANCH   5  19
ENDBRANCH   1   5
BRANCH   3  21
ATOM     21  C   UNL     1      -3.418   5.894  -1.094  1.00  0.00     0.117 C 
BRANCH  21  22
ATOM     22  C   UNL     1      -2.580   6.924  -1.830  1.00  0.00     0.042 C 
BRANCH  22  23
ATOM     23  C   UNL     1      -2.413   6.637  -3.316  1.00  0.00     0.118 C 
BRANCH  23  24
ATOM     24  N   UNL     1      -3.643   6.783  -4.089  1.00  0.00    -0.352 N 
ATOM     25  C   UNL     1      -3.964   7.661  -5.098  1.00  0.00     0.251 C 
ATOM     26  H   UNL     1      -4.358   6.150  -3.850  1.00  0.00     0.163 HD
ATOM     27  O   UNL     1      -5.099   7.676  -5.568  1.00  0.00    -0.269 OA
BRANCH  25  28
ATOM     28  C   UNL     1      -2.958   8.624  -5.594  1.00  0.00     0.039 A 
ATOM     29  C   UNL     1      -3.330   9.959  -5.779  1.00  0.00     0.014 A 
ATOM     30  C   UNL     1      -1.646   8.224  -5.845  1.00  0.00     0.014 A 
ATOM     31  C   UNL     1      -2.361  10.908  -6.114  1.00  0.00     0.010 A 
ATOM     32  C   UNL     1      -0.665   9.183  -6.065  1.00  0.00     0.010 A 
ATOM     33  C   UNL     1      -1.010  10.536  -6.202  1.00  0.00    -0.014 A 
BRANCH  33  34
ATOM     34  C   UNL     1       0.065  11.532  -6.452  1.00  0.00     0.031 A 
ATOM     35  C   UNL     1       0.948  11.387  -7.662  1.00  0.00     0.074 A 
ATOM     36  C   UNL     1       0.306  12.507  -5.552  1.00  0.00     0.049 A 
ATOM     37  N   UNL     1       2.031  12.048  -7.984  1.00  0.00    -0.248 NA
ATOM     38  C   UNL     1       0.586  10.329  -8.620  1.00  0.00     0.031 C 
ATOM     39  C   UNL     1      -0.443  12.725  -4.312  1.00  0.00     0.029 A 
ATOM     40  N   UNL     1       1.264  13.491  -5.535  1.00  0.00    -0.354 N 
ATOM     41  C   UNL     1       2.488  11.470  -9.161  1.00  0.00     0.074 A 
ATOM     42  C   UNL     1       1.604  10.367  -9.466  1.00  0.00     0.031 C 
ATOM     43  C   UNL     1       0.069  13.786  -3.668  1.00  0.00     0.029 A 
ATOM     44  C   UNL     1       1.207  14.298  -4.423  1.00  0.00     0.049 A 
ATOM     45  H   UNL     1       1.929  13.608  -6.251  1.00  0.00     0.167 HD
ATOM     46  C   UNL     1       3.532  11.845  -9.937  1.00  0.00     0.037 A 
ATOM     47  C   UNL     1       1.994  15.327  -4.052  1.00  0.00     0.037 A 
ATOM     48  C   UNL     1       4.382  12.970  -9.659  1.00  0.00     0.049 A 
ATOM     49  C   UNL     1       3.137  15.732  -4.944  1.00  0.00     0.074 A 
ATOM     50  C   UNL     1       5.442  13.457 -10.403  1.00  0.00     0.029 A 
ATOM     51  N   UNL     1       4.256  13.796  -8.552  1.00  0.00    -0.354 N 
ATOM     52  N   UNL     1       3.531  15.205  -6.077  1.00  0.00    -0.248 NA
ATOM     53  C   UNL     1       3.942  16.883  -4.509  1.00  0.00     0.031 C 
ATOM     54  C   UNL     1       5.974  14.564  -9.733  1.00  0.00     0.029 A 
ATOM     55  C   UNL     1       5.220  14.789  -8.593  1.00  0.00     0.049 A 
ATOM     56  H   UNL     1       3.582  13.691  -7.842  1.00  0.00     0.167 HD
ATOM     57  C   UNL     1       4.603  15.976  -6.505  1.00  0.00     0.074 A 
ATOM     58  C   UNL     1       4.790  17.018  -5.518  1.00  0.00     0.031 C 
ATOM     59  C   UNL     1       5.368  15.834  -7.615  1.00  0.00     0.037 A 
BRANCH  46  60
ATOM     60  C   UNL     1       3.796  11.047 -11.180  1.00  0.00     0.064 A 
ATOM     61  C   UNL     1       2.934  11.113 -12.286  1.00  0.00     0.173 A 
ATOM     62  C   UNL     1       4.944  10.247 -11.288  1.00  0.00     0.173 A 
ATOM     63  F   UNL     1       1.816  11.852 -12.226  1.00  0.00    -0.203 F 
ATOM     64  C   UNL     1       3.200  10.390 -13.445  1.00  0.00     0.198 A 
ATOM     65  C   UNL     1       5.221   9.549 -12.460  1.00  0.00     0.198 A 
ATOM     66  F   UNL     1       5.802  10.153 -10.262  1.00  0.00    -0.203 F 
ATOM     67  F   UNL     1       2.340  10.435 -14.472  1.00  0.00    -0.200 F 
ATOM     68  C   UNL     1       4.347   9.616 -13.535  1.00  0.00     0.200 A 
ATOM     69  F   UNL     1       6.336   8.811 -12.551  1.00  0.00    -0.200 F 
ATOM     70  F   UNL     1       4.608   8.931 -14.657  1.00  0.00    -0.200 F 
ENDBRANCH  46  60
BRANCH  47  71
ATOM     71  C   UNL     1       1.725  16.063  -2.788  1.00  0.00     0.064 A 
ATOM     72  C   UNL     1       1.277  17.392  -2.812  1.00  0.00     0.173 A 
ATOM     73  C   UNL     1       1.945  15.472  -1.536  1.00  0.00     0.173 A 
ATOM     74  F   UNL     1       1.073  18.008  -3.986  1.00  0.00    -0.203 F 
ATOM     75  C   UNL     1       1.093  18.112  -1.633  1.00  0.00     0.198 A 
ATOM     76  C   UNL     1       1.731  16.184  -0.357  1.00  0.00     0.198 A 
ATOM     77  F   UNL     1       2.368  14.202  -1.456  1.00  0.00    -0.203 F 
ATOM     78  F   UNL     1       0.725  19.399  -1.688  1.00  0.00    -0.200 F 
ATOM     79  C   UNL     1       1.318  17.507  -0.406  1.00  0.00     0.200 A 
ATOM     80  F   UNL     1       1.938  15.591   0.828  1.00  0.00    -0.200 F 
ATOM     81  F   UNL     1       1.149  18.201   0.727  1.00  0.00    -0.200 F 
ENDBRANCH  47  71
BRANCH  59  82
ATOM     82  C   UNL     1       6.439  16.857  -7.849  1.00  0.00     0.064 A 
ATOM     83  C   UNL     1       7.613  16.881  -7.084  1.00  0.00     0.173 A 
ATOM     84  C   UNL     1       6.305  17.795  -8.883  1.00  0.00     0.173 A 
ATOM     85  F   UNL     1       7.780  16.012  -6.075  1.00  0.00    -0.203 F 
ATOM     86  C   UNL     1       8.607  17.823  -7.332  1.00  0.00     0.198 A 
ATOM     87  C   UNL     1       7.312  18.718  -9.147  1.00  0.00     0.198 A 
ATOM     88  F   UNL     1       5.202  17.807  -9.647  1.00  0.00    -0.203 F 
ATOM     89  F   UNL     1       9.703  17.857  -6.562  1.00  0.00    -0.200 F 
ATOM     90  C   UNL     1       8.459  18.735  -8.367  1.00  0.00     0.200 A 
ATOM     91  F   UNL     1       7.174  19.589 -10.155  1.00  0.00    -0.200 F 
ATOM     92  F   UNL     1       9.421  19.636  -8.610  1.00  0.00    -0.200 F 
ENDBRANCH  59  82
ENDBRANCH  33  34
ENDBRANCH  25  28
ENDBRANCH  23  24
ENDBRANCH  22  23
ENDBRANCH  21  22
ENDBRANCH   3  21
TORSDOF 16
