REMARK SMILES CC[N@@H+](C)CCNC(=O)N1CCO[C@H](CC(=O)NCCCNC(=O)c2ccc(-c3c4nc(c(-c5c(F)c(F)c(F)c(F)c5F)c5ccc([nH]5)c(-c5c(F)c(F)c(F)c(F)c5F)c5nc(c(-c6c(F)c(F)c(F)c(F)c6F)c6ccc3[nH]6)C=C5)C=C4)cc2)C1
REMARK SMILES IDX 16 1 17 2 18 3 15 5 14 6 10 7 11 8 88 9 12 10 13 11 8 12
REMARK SMILES IDX 7 13 9 15 6 16 5 17 3 18 4 19 2 21 1 22 19 23 20 24 21 25
REMARK SMILES IDX 22 26 23 27 24 29 25 30 26 31 87 32 27 33 86 34 28 35 29 36
REMARK SMILES IDX 30 37 80 38 31 39 85 40 79 41 81 42 32 43 84 44 78 45 77 46
REMARK SMILES IDX 33 48 65 49 45 50 64 51 46 52 49 53 63 54 82 55 47 56 48 57
REMARK SMILES IDX 62 59 83 60 50 61 34 62 35 63 43 64 36 65 37 66 41 67 44 68
REMARK SMILES IDX 38 69 39 70 42 71 40 72 66 73 67 74 75 75 68 76 69 77 73 78
REMARK SMILES IDX 76 79 70 80 71 81 74 82 72 83 51 84 52 85 60 86 53 87 54 88
REMARK SMILES IDX 58 89 61 90 55 91 56 92 59 93 57 94
REMARK H PARENT 18 4 7 14 3 20 22 28 81 47 49 58
REMARK Flexibility Score: inf
ROOT
ATOM      1  C   UNL     1       4.708   0.138   0.355  1.00  0.00     0.222 C 
ATOM      2  O   UNL     1       4.224  -0.165  -0.736  1.00  0.00    -0.275 OA
ATOM      3  N   UNL     1       3.880   0.529   1.372  1.00  0.00    -0.356 N 
ATOM      4  H   UNL     1       3.034   0.929   1.067  1.00  0.00     0.163 HD
ENDROOT
BRANCH   1   5
ATOM      5  C   UNL     1       6.204   0.161   0.514  1.00  0.00     0.133 C 
BRANCH   5   6
ATOM      6  C   UNL     1       6.822   1.551   0.273  1.00  0.00     0.147 C 
ATOM      7  N   UNL     1       5.107   3.123  -0.632  1.00  0.00    -0.320 N 
ATOM      8  C   UNL     1       5.952   3.393  -1.781  1.00  0.00     0.150 C 
ATOM      9  C   UNL     1       5.910   2.770   0.536  1.00  0.00     0.154 C 
ATOM     10  C   UNL     1       6.728   2.115  -2.103  1.00  0.00     0.182 C 
ATOM     11  O   UNL     1       7.524   1.661  -0.991  1.00  0.00    -0.374 OA
BRANCH   7  12
ATOM     12  C   UNL     1       3.745   3.188  -0.573  1.00  0.00     0.317 C 
ATOM     13  N   UNL     1       3.009   3.409  -1.681  1.00  0.00    -0.332 N 
ATOM     14  H   UNL     1       2.433   4.208  -1.679  1.00  0.00     0.165 HD
ATOM     15  O   UNL     1       3.102   3.103   0.471  1.00  0.00    -0.249 OA
BRANCH  13  16
ATOM     16  C   UNL     1       2.982   2.586  -2.876  1.00  0.00     0.179 C 
BRANCH  16  17
ATOM     17  C   UNL     1       2.102   1.315  -2.746  1.00  0.00     0.283 C 
BRANCH  17  18
ATOM     18  N   UNL     1       0.654   1.421  -2.489  1.00  0.00    -0.336 N 
ATOM     19  C   UNL     1       0.006   2.499  -3.220  1.00  0.00     0.332 C 
ATOM     20  H   UNL     1       0.292   0.549  -2.876  1.00  0.00     0.347 HD
BRANCH  18  21
ATOM     21  C   UNL     1       0.260   1.389  -1.077  1.00  0.00     0.258 C 
ATOM     22  C   UNL     1       0.451   0.019  -0.429  1.00  0.00     0.071 C 
ENDBRANCH  18  21
ENDBRANCH  17  18
ENDBRANCH  16  17
ENDBRANCH  13  16
ENDBRANCH   7  12
ENDBRANCH   5   6
ENDBRANCH   1   5
BRANCH   3  23
ATOM     23  C   UNL     1       4.015   0.465   2.820  1.00  0.00     0.117 C 
BRANCH  23  24
ATOM     24  C   UNL     1       4.297   1.748   3.624  1.00  0.00     0.042 C 
BRANCH  24  25
ATOM     25  C   UNL     1       3.432   3.010   3.484  1.00  0.00     0.118 C 
BRANCH  25  26
ATOM     26  N   UNL     1       2.019   2.852   3.760  1.00  0.00    -0.352 N 
ATOM     27  C   UNL     1       1.147   3.809   4.243  1.00  0.00     0.251 C 
ATOM     28  H   UNL     1       1.636   1.963   3.583  1.00  0.00     0.163 HD
ATOM     29  O   UNL     1      -0.015   3.533   4.494  1.00  0.00    -0.269 OA
BRANCH  27  30
ATOM     30  C   UNL     1       1.631   5.192   4.482  1.00  0.00     0.039 A 
ATOM     31  C   UNL     1       1.617   5.700   5.784  1.00  0.00     0.014 A 
ATOM     32  C   UNL     1       2.043   6.002   3.419  1.00  0.00     0.014 A 
ATOM     33  C   UNL     1       2.058   7.008   6.029  1.00  0.00     0.010 A 
ATOM     34  C   UNL     1       2.503   7.302   3.670  1.00  0.00     0.010 A 
ATOM     35  C   UNL     1       2.521   7.819   4.978  1.00  0.00    -0.014 A 
BRANCH  35  36
ATOM     36  C   UNL     1       3.051   9.185   5.254  1.00  0.00     0.031 A 
ATOM     37  C   UNL     1       2.317  10.416   4.797  1.00  0.00     0.074 A 
ATOM     38  C   UNL     1       4.230   9.325   5.892  1.00  0.00     0.049 A 
ATOM     39  N   UNL     1       2.629  11.679   4.962  1.00  0.00    -0.248 NA
ATOM     40  C   UNL     1       1.079  10.198   4.038  1.00  0.00     0.031 C 
ATOM     41  C   UNL     1       5.075   8.221   6.343  1.00  0.00     0.029 A 
ATOM     42  N   UNL     1       4.928  10.451   6.260  1.00  0.00    -0.354 N 
ATOM     43  C   UNL     1       1.632  12.406   4.323  1.00  0.00     0.074 A 
ATOM     44  C   UNL     1       0.732  11.439   3.727  1.00  0.00     0.031 C 
ATOM     45  C   UNL     1       6.172   8.721   6.933  1.00  0.00     0.029 A 
ATOM     46  C   UNL     1       6.123  10.181   6.880  1.00  0.00     0.049 A 
ATOM     47  H   UNL     1       4.601  11.366   6.095  1.00  0.00     0.167 HD
ATOM     48  C   UNL     1       1.470  13.751   4.253  1.00  0.00     0.037 A 
ATOM     49  C   UNL     1       7.078  11.008   7.348  1.00  0.00     0.037 A 
ATOM     50  C   UNL     1       2.364  14.714   4.848  1.00  0.00     0.049 A 
ATOM     51  C   UNL     1       6.881  12.497   7.264  1.00  0.00     0.074 A 
ATOM     52  C   UNL     1       2.241  16.093   4.896  1.00  0.00     0.029 A 
ATOM     53  N   UNL     1       3.558  14.401   5.482  1.00  0.00    -0.354 N 
ATOM     54  N   UNL     1       5.884  13.171   6.745  1.00  0.00    -0.248 NA
ATOM     55  C   UNL     1       7.936  13.341   7.845  1.00  0.00     0.031 C 
ATOM     56  C   UNL     1       3.389  16.617   5.503  1.00  0.00     0.029 A 
ATOM     57  C   UNL     1       4.199  15.562   5.891  1.00  0.00     0.049 A 
ATOM     58  H   UNL     1       3.900  13.488   5.622  1.00  0.00     0.167 HD
ATOM     59  C   UNL     1       6.179  14.512   6.949  1.00  0.00     0.074 A 
ATOM     60  C   UNL     1       7.442  14.557   7.657  1.00  0.00     0.031 C 
ATOM     61  C   UNL     1       5.464  15.605   6.584  1.00  0.00     0.037 A 
BRANCH  48  62
ATOM     62  C   UNL     1       0.283  14.264   3.484  1.00  0.00     0.064 A 
ATOM     63  C   UNL     1      -1.032  14.069   3.935  1.00  0.00     0.173 A 
ATOM     64  C   UNL     1       0.462  14.971   2.284  1.00  0.00     0.173 A 
ATOM     65  F   UNL     1      -1.263  13.400   5.076  1.00  0.00    -0.203 F 
ATOM     66  C   UNL     1      -2.122  14.514   3.190  1.00  0.00     0.198 A 
ATOM     67  C   UNL     1      -0.629  15.446   1.560  1.00  0.00     0.198 A 
ATOM     68  F   UNL     1       1.696  15.203   1.812  1.00  0.00    -0.203 F 
ATOM     69  F   UNL     1      -3.369  14.254   3.608  1.00  0.00    -0.200 F 
ATOM     70  C   UNL     1      -1.920  15.204   2.005  1.00  0.00     0.200 A 
ATOM     71  F   UNL     1      -0.431  16.129   0.423  1.00  0.00    -0.200 F 
ATOM     72  F   UNL     1      -2.969  15.628   1.287  1.00  0.00    -0.200 F 
ENDBRANCH  48  62
BRANCH  49  73
ATOM     73  C   UNL     1       8.304  10.429   7.957  1.00  0.00     0.064 A 
ATOM     74  C   UNL     1       8.529  10.496   9.339  1.00  0.00     0.173 A 
ATOM     75  C   UNL     1       9.256   9.762   7.172  1.00  0.00     0.173 A 
ATOM     76  F   UNL     1       7.659  11.143  10.128  1.00  0.00    -0.203 F 
ATOM     77  C   UNL     1       9.661   9.921   9.912  1.00  0.00     0.198 A 
ATOM     78  C   UNL     1      10.373   9.163   7.749  1.00  0.00     0.198 A 
ATOM     79  F   UNL     1       9.084   9.666   5.846  1.00  0.00    -0.203 F 
ATOM     80  F   UNL     1       9.867  10.023  11.232  1.00  0.00    -0.200 F 
ATOM     81  C   UNL     1      10.577   9.246   9.118  1.00  0.00     0.200 A 
ATOM     82  F   UNL     1      11.246   8.497   6.981  1.00  0.00    -0.200 F 
ATOM     83  F   UNL     1      11.656   8.676   9.672  1.00  0.00    -0.200 F 
ENDBRANCH  49  73
BRANCH  61  84
ATOM     84  C   UNL     1       6.021  16.952   6.953  1.00  0.00     0.064 A 
ATOM     85  C   UNL     1       7.158  17.479   6.322  1.00  0.00     0.173 A 
ATOM     86  C   UNL     1       5.385  17.743   7.923  1.00  0.00     0.173 A 
ATOM     87  F   UNL     1       7.813  16.759   5.399  1.00  0.00    -0.203 F 
ATOM     88  C   UNL     1       7.651  18.736   6.665  1.00  0.00     0.198 A 
ATOM     89  C   UNL     1       5.863  19.012   8.241  1.00  0.00     0.198 A 
ATOM     90  F   UNL     1       4.292  17.291   8.555  1.00  0.00    -0.203 F 
ATOM     91  F   UNL     1       8.766  19.199   6.082  1.00  0.00    -0.200 F 
ATOM     92  C   UNL     1       6.999  19.505   7.617  1.00  0.00     0.200 A 
ATOM     93  F   UNL     1       5.223  19.759   9.152  1.00  0.00    -0.200 F 
ATOM     94  F   UNL     1       7.470  20.718   7.940  1.00  0.00    -0.200 F 
ENDBRANCH  61  84
ENDBRANCH  35  36
ENDBRANCH  27  30
ENDBRANCH  25  26
ENDBRANCH  24  25
ENDBRANCH  23  24
ENDBRANCH   3  23
TORSDOF 16
