REMARK SMILES O=C(NCCCNC(=O)c1ccc(CNC(=O)c2cnns2)o1)c1ccc(-c2c3nc(c(-c4c(F)c(F)c(F)c(F)c4F)c4ccc([nH]4)c(-c4c(F)c(F)c(F)c(F)c4F)c4nc(c(-c5c(F)c(F)c(F)c(F)c5F)c5ccc2[nH]5)C=C4)C=C3)cc1
REMARK SMILES IDX 5 1 4 2 3 3 1 4 2 5 24 7 25 8 86 9 26 10 85 11 27 12 28 13
REMARK SMILES IDX 29 14 79 15 30 16 84 17 78 18 80 19 31 20 83 21 77 22 76 23
REMARK SMILES IDX 32 25 64 26 44 27 63 28 45 29 48 30 62 31 81 32 46 33 47 34
REMARK SMILES IDX 61 36 82 37 49 38 33 39 34 40 42 41 35 42 36 43 40 44 43 45
REMARK SMILES IDX 37 46 38 47 41 48 39 49 65 50 66 51 74 52 67 53 68 54 72 55
REMARK SMILES IDX 75 56 69 57 70 58 73 59 71 60 50 61 51 62 59 63 52 64 53 65
REMARK SMILES IDX 57 66 60 67 54 68 55 69 58 70 56 71 6 72 7 73 8 74 9 76
REMARK SMILES IDX 10 77 11 78 23 79 12 80 13 81 14 82 15 83 16 84 17 86 18 87
REMARK SMILES IDX 19 88 22 89 20 90 21 91
REMARK H PARENT 3 6 80 24 48 35 7 75 15 85
REMARK Flexibility Score: inf
ROOT
ATOM      1  C   UNL     1       4.732  -1.080   2.436  1.00  0.00     0.042 C 
ENDROOT
BRANCH   1   2
ATOM      2  C   UNL     1       4.524  -1.179   0.925  1.00  0.00     0.118 C 
BRANCH   2   3
ATOM      3  N   UNL     1       3.117  -1.164   0.556  1.00  0.00    -0.352 N 
ATOM      4  O   UNL     1       1.145  -0.328  -0.107  1.00  0.00    -0.269 OA
ATOM      5  C   UNL     1       2.369  -0.222  -0.103  1.00  0.00     0.251 C 
ATOM      6  H   UNL     1       2.615  -1.968   0.826  1.00  0.00     0.163 HD
BRANCH   5   7
ATOM      7  C   UNL     1       3.001   0.921  -0.799  1.00  0.00     0.039 A 
ATOM      8  C   UNL     1       4.143   0.764  -1.589  1.00  0.00     0.014 A 
ATOM      9  C   UNL     1       2.370   2.169  -0.733  1.00  0.00     0.014 A 
ATOM     10  C   UNL     1       4.709   1.868  -2.228  1.00  0.00     0.010 A 
ATOM     11  C   UNL     1       2.907   3.264  -1.415  1.00  0.00     0.010 A 
ATOM     12  C   UNL     1       4.094   3.127  -2.150  1.00  0.00    -0.014 A 
BRANCH  12  13
ATOM     13  C   UNL     1       4.673   4.293  -2.862  1.00  0.00     0.031 A 
ATOM     14  C   UNL     1       5.284   5.429  -2.095  1.00  0.00     0.074 A 
ATOM     15  C   UNL     1       4.629   4.338  -4.207  1.00  0.00     0.049 A 
ATOM     16  N   UNL     1       5.787   6.553  -2.541  1.00  0.00    -0.248 NA
ATOM     17  C   UNL     1       5.329   5.290  -0.632  1.00  0.00     0.031 C 
ATOM     18  C   UNL     1       4.048   3.306  -5.065  1.00  0.00     0.029 A 
ATOM     19  N   UNL     1       5.076   5.292  -5.085  1.00  0.00    -0.354 N 
ATOM     20  C   UNL     1       6.183   7.264  -1.417  1.00  0.00     0.074 A 
ATOM     21  C   UNL     1       5.853   6.451  -0.265  1.00  0.00     0.031 C 
ATOM     22  C   UNL     1       4.185   3.676  -6.348  1.00  0.00     0.029 A 
ATOM     23  C   UNL     1       4.830   4.985  -6.399  1.00  0.00     0.049 A 
ATOM     24  H   UNL     1       5.530   6.118  -4.800  1.00  0.00     0.167 HD
ATOM     25  C   UNL     1       6.772   8.482  -1.353  1.00  0.00     0.037 A 
ATOM     26  C   UNL     1       5.082   5.685  -7.521  1.00  0.00     0.037 A 
ATOM     27  C   UNL     1       7.130   9.279  -2.497  1.00  0.00     0.049 A 
ATOM     28  C   UNL     1       5.745   7.028  -7.425  1.00  0.00     0.074 A 
ATOM     29  C   UNL     1       7.777  10.502  -2.529  1.00  0.00     0.029 A 
ATOM     30  N   UNL     1       6.872   8.928  -3.813  1.00  0.00    -0.354 N 
ATOM     31  N   UNL     1       6.138   7.677  -6.357  1.00  0.00    -0.248 NA
ATOM     32  C   UNL     1       5.996   7.737  -8.687  1.00  0.00     0.031 C 
ATOM     33  C   UNL     1       7.889  10.903  -3.865  1.00  0.00     0.029 A 
ATOM     34  C   UNL     1       7.334   9.918  -4.665  1.00  0.00     0.049 A 
ATOM     35  H   UNL     1       6.426   8.098  -4.100  1.00  0.00     0.167 HD
ATOM     36  C   UNL     1       6.690   8.864  -6.815  1.00  0.00     0.074 A 
ATOM     37  C   UNL     1       6.591   8.843  -8.260  1.00  0.00     0.031 C 
ATOM     38  C   UNL     1       7.228   9.881  -6.099  1.00  0.00     0.037 A 
BRANCH  25  39
ATOM     39  C   UNL     1       7.060   9.035   0.008  1.00  0.00     0.064 A 
ATOM     40  C   UNL     1       8.143   8.577   0.771  1.00  0.00     0.173 A 
ATOM     41  C   UNL     1       6.263  10.060   0.539  1.00  0.00     0.173 A 
ATOM     42  F   UNL     1       8.923   7.588   0.309  1.00  0.00    -0.203 F 
ATOM     43  C   UNL     1       8.407   9.114   2.028  1.00  0.00     0.198 A 
ATOM     44  C   UNL     1       6.541  10.606   1.789  1.00  0.00     0.198 A 
ATOM     45  F   UNL     1       5.216  10.531  -0.155  1.00  0.00    -0.203 F 
ATOM     46  F   UNL     1       9.427   8.638   2.757  1.00  0.00    -0.200 F 
ATOM     47  C   UNL     1       7.610  10.130   2.534  1.00  0.00     0.200 A 
ATOM     48  F   UNL     1       5.772  11.590   2.276  1.00  0.00    -0.200 F 
ATOM     49  F   UNL     1       7.866  10.645   3.744  1.00  0.00    -0.200 F 
ENDBRANCH  25  39
BRANCH  26  50
ATOM     50  C   UNL     1       4.699   5.112  -8.833  1.00  0.00     0.064 A 
ATOM     51  C   UNL     1       5.665   4.561  -9.684  1.00  0.00     0.173 A 
ATOM     52  C   UNL     1       3.358   5.063  -9.238  1.00  0.00     0.173 A 
ATOM     53  F   UNL     1       6.961   4.603  -9.343  1.00  0.00    -0.203 F 
ATOM     54  C   UNL     1       5.301   3.979 -10.897  1.00  0.00     0.198 A 
ATOM     55  C   UNL     1       2.994   4.466 -10.442  1.00  0.00     0.198 A 
ATOM     56  F   UNL     1       2.401   5.577  -8.452  1.00  0.00    -0.203 F 
ATOM     57  F   UNL     1       6.244   3.473 -11.703  1.00  0.00    -0.200 F 
ATOM     58  C   UNL     1       3.966   3.925 -11.271  1.00  0.00     0.200 A 
ATOM     59  F   UNL     1       1.703   4.407 -10.796  1.00  0.00    -0.200 F 
ATOM     60  F   UNL     1       3.617   3.353 -12.431  1.00  0.00    -0.200 F 
ENDBRANCH  26  50
BRANCH  38  61
ATOM     61  C   UNL     1       7.762  11.049  -6.867  1.00  0.00     0.064 A 
ATOM     62  C   UNL     1       6.907  12.037  -7.374  1.00  0.00     0.173 A 
ATOM     63  C   UNL     1       9.142  11.205  -7.058  1.00  0.00     0.173 A 
ATOM     64  F   UNL     1       5.579  11.920  -7.226  1.00  0.00    -0.203 F 
ATOM     65  C   UNL     1       7.416  13.140  -8.054  1.00  0.00     0.198 A 
ATOM     66  C   UNL     1       9.649  12.316  -7.726  1.00  0.00     0.198 A 
ATOM     67  F   UNL     1       9.997  10.284  -6.589  1.00  0.00    -0.203 F 
ATOM     68  F   UNL     1       6.581  14.062  -8.552  1.00  0.00    -0.200 F 
ATOM     69  C   UNL     1       8.786  13.280  -8.225  1.00  0.00     0.200 A 
ATOM     70  F   UNL     1      10.972  12.453  -7.888  1.00  0.00    -0.200 F 
ATOM     71  F   UNL     1       9.274  14.345  -8.877  1.00  0.00    -0.200 F 
ENDBRANCH  38  61
ENDBRANCH  12  13
ENDBRANCH   5   7
ENDBRANCH   2   3
ENDBRANCH   1   2
BRANCH   1  72
ATOM     72  C   UNL     1       4.154  -2.249   3.234  1.00  0.00     0.118 C 
BRANCH  72  73
ATOM     73  N   UNL     1       4.817  -3.502   2.918  1.00  0.00    -0.349 N 
ATOM     74  C   UNL     1       5.734  -4.217   3.653  1.00  0.00     0.286 C 
ATOM     75  H   UNL     1       4.573  -3.898   2.050  1.00  0.00     0.163 HD
ATOM     76  O   UNL     1       6.368  -5.089   3.057  1.00  0.00    -0.266 OA
BRANCH  74  77
ATOM     77  C   UNL     1       5.904  -3.927   5.058  1.00  0.00     0.191 A 
ATOM     78  C   UNL     1       5.007  -3.720   6.091  1.00  0.00     0.056 A 
ATOM     79  O   UNL     1       7.178  -3.884   5.557  1.00  0.00    -0.454 OA
ATOM     80  C   UNL     1       5.770  -3.517   7.268  1.00  0.00     0.048 A 
ATOM     81  C   UNL     1       7.092  -3.625   6.892  1.00  0.00     0.124 A 
BRANCH  81  82
ATOM     82  C   UNL     1       8.378  -3.518   7.621  1.00  0.00     0.191 C 
BRANCH  82  83
ATOM     83  N   UNL     1       8.961  -4.839   7.728  1.00  0.00    -0.344 N 
ATOM     84  C   UNL     1      10.220  -5.263   7.385  1.00  0.00     0.265 C 
ATOM     85  H   UNL     1       8.369  -5.532   8.101  1.00  0.00     0.164 HD
ATOM     86  O   UNL     1      10.411  -6.479   7.348  1.00  0.00    -0.268 OA
BRANCH  84  87
ATOM     87  C   UNL     1      11.244  -4.297   7.106  1.00  0.00     0.133 A 
ATOM     88  C   UNL     1      11.587  -3.098   7.702  1.00  0.00     0.163 A 
ATOM     89  S   UNL     1      12.390  -4.579   5.863  1.00  0.00    -0.007 S 
ATOM     90  N   UNL     1      12.663  -2.436   7.134  1.00  0.00    -0.146 NA
ATOM     91  N   UNL     1      13.179  -3.124   6.129  1.00  0.00    -0.090 NA
ENDBRANCH  84  87
ENDBRANCH  82  83
ENDBRANCH  81  82
ENDBRANCH  74  77
ENDBRANCH  72  73
ENDBRANCH   1  72
TORSDOF 13
