REMARK SMILES CC(C)CN(C)/C=C\C(=O)NCCCNC(=O)c1ccc(-c2c3nc(c(-c4c(F)c(F)c(F)c(F)c4F)c4ccc([nH]4)c(-c4c(F)c(F)c(F)c(F)c4F)c4nc(c(-c5c(F)c(F)c(F)c(F)c5F)c5ccc2[nH]5)C=C4)C=C3)cc1
REMARK SMILES IDX 12 1 11 2 9 3 10 4 8 6 7 7 5 8 6 9 4 10 2 11 1 12 3 13 13 14
REMARK SMILES IDX 14 15 15 16 16 17 17 19 18 20 19 21 80 22 20 23 79 24 21 25
REMARK SMILES IDX 22 26 23 27 73 28 24 29 78 30 72 31 74 32 25 33 77 34 71 35
REMARK SMILES IDX 70 36 26 38 58 39 38 40 57 41 39 42 42 43 56 44 75 45 40 46
REMARK SMILES IDX 41 47 55 49 76 50 43 51 27 52 28 53 36 54 29 55 30 56 34 57
REMARK SMILES IDX 37 58 31 59 32 60 35 61 33 62 59 63 60 64 68 65 61 66 62 67
REMARK SMILES IDX 66 68 69 69 63 70 64 71 67 72 65 73 44 74 45 75 53 76 46 77
REMARK SMILES IDX 47 78 51 79 54 80 48 81 49 82 52 83 50 84
REMARK H PARENT 11 5 15 18 74 37 42 48
REMARK Flexibility Score: inf
ROOT
ATOM      1  C   UNL     1      -2.825  -0.193   1.950  1.00  0.00     0.118 C 
ENDROOT
BRANCH   1   2
ATOM      2  N   UNL     1      -1.890   0.903   1.754  1.00  0.00    -0.352 N 
ATOM      3  C   UNL     1      -1.330   1.405   0.619  1.00  0.00     0.245 C 
ATOM      4  O   UNL     1      -0.680   2.449   0.673  1.00  0.00    -0.270 OA
ATOM      5  H   UNL     1      -1.616   1.360   2.582  1.00  0.00     0.163 HD
BRANCH   3   6
ATOM      6  C   UNL     1      -1.573   0.764  -0.684  1.00  0.00     0.088 C 
ATOM      7  C   UNL     1      -1.204  -0.457  -1.093  1.00  0.00     0.086 C 
BRANCH   7   8
ATOM      8  N   UNL     1      -0.486  -1.495  -0.516  1.00  0.00    -0.380 N 
ATOM      9  C   UNL     1      -0.636  -2.862  -1.022  1.00  0.00     0.143 C 
BRANCH   8  10
ATOM     10  C   UNL     1       0.475  -1.327   0.583  1.00  0.00     0.118 C 
BRANCH  10  11
ATOM     11  C   UNL     1       1.942  -1.185   0.165  1.00  0.00     0.002 C 
ATOM     12  C   UNL     1       2.181  -0.085  -0.866  1.00  0.00     0.009 C 
ATOM     13  C   UNL     1       2.759  -0.884   1.431  1.00  0.00     0.009 C 
ENDBRANCH  10  11
ENDBRANCH   8  10
ENDBRANCH   7   8
ENDBRANCH   3   6
ENDBRANCH   1   2
BRANCH   1  14
ATOM     14  C   UNL     1      -2.230  -1.469   2.560  1.00  0.00     0.042 C 
BRANCH  14  15
ATOM     15  C   UNL     1      -1.170  -1.289   3.652  1.00  0.00     0.118 C 
BRANCH  15  16
ATOM     16  N   UNL     1      -1.761  -1.128   4.966  1.00  0.00    -0.352 N 
ATOM     17  C   UNL     1      -1.704  -1.946   6.065  1.00  0.00     0.251 C 
ATOM     18  H   UNL     1      -2.285  -0.303   5.088  1.00  0.00     0.163 HD
ATOM     19  O   UNL     1      -2.483  -1.740   6.998  1.00  0.00    -0.269 OA
BRANCH  17  20
ATOM     20  C   UNL     1      -0.738  -3.068   6.181  1.00  0.00     0.039 A 
ATOM     21  C   UNL     1      -1.189  -4.265   6.750  1.00  0.00     0.014 A 
ATOM     22  C   UNL     1       0.624  -2.920   5.891  1.00  0.00     0.014 A 
ATOM     23  C   UNL     1      -0.292  -5.303   7.028  1.00  0.00     0.010 A 
ATOM     24  C   UNL     1       1.518  -3.973   6.144  1.00  0.00     0.010 A 
ATOM     25  C   UNL     1       1.074  -5.168   6.735  1.00  0.00    -0.014 A 
BRANCH  25  26
ATOM     26  C   UNL     1       2.025  -6.264   7.083  1.00  0.00     0.031 A 
ATOM     27  C   UNL     1       2.999  -6.109   8.223  1.00  0.00     0.074 A 
ATOM     28  C   UNL     1       2.015  -7.415   6.381  1.00  0.00     0.049 A 
ATOM     29  N   UNL     1       3.882  -6.965   8.681  1.00  0.00    -0.248 NA
ATOM     30  C   UNL     1       2.987  -4.824   8.937  1.00  0.00     0.031 C 
ATOM     31  C   UNL     1       1.144  -7.699   5.242  1.00  0.00     0.029 A 
ATOM     32  N   UNL     1       2.764  -8.560   6.522  1.00  0.00    -0.354 N 
ATOM     33  C   UNL     1       4.534  -6.321   9.725  1.00  0.00     0.074 A 
ATOM     34  C   UNL     1       3.967  -4.992   9.817  1.00  0.00     0.031 C 
ATOM     35  C   UNL     1       1.405  -8.937   4.788  1.00  0.00     0.029 A 
ATOM     36  C   UNL     1       2.474  -9.527   5.591  1.00  0.00     0.049 A 
ATOM     37  H   UNL     1       3.444  -8.675   7.224  1.00  0.00     0.167 HD
ATOM     38  C   UNL     1       5.506  -6.797  10.542  1.00  0.00     0.037 A 
ATOM     39  C   UNL     1       3.010 -10.749   5.398  1.00  0.00     0.037 A 
ATOM     40  C   UNL     1       6.053  -8.128  10.485  1.00  0.00     0.049 A 
ATOM     41  C   UNL     1       4.088 -11.251   6.323  1.00  0.00     0.074 A 
ATOM     42  C   UNL     1       6.984  -8.714  11.329  1.00  0.00     0.029 A 
ATOM     43  N   UNL     1       5.727  -9.079   9.533  1.00  0.00    -0.354 N 
ATOM     44  N   UNL     1       4.634 -10.659   7.355  1.00  0.00    -0.248 NA
ATOM     45  C   UNL     1       4.615 -12.599   6.060  1.00  0.00     0.031 C 
ATOM     46  C   UNL     1       7.252 -10.004  10.861  1.00  0.00     0.029 A 
ATOM     47  C   UNL     1       6.458 -10.237   9.751  1.00  0.00     0.049 A 
ATOM     48  H   UNL     1       5.073  -8.952   8.808  1.00  0.00     0.167 HD
ATOM     49  C   UNL     1       5.546 -11.567   7.878  1.00  0.00     0.074 A 
ATOM     50  C   UNL     1       5.471 -12.757   7.059  1.00  0.00     0.031 C 
ATOM     51  C   UNL     1       6.373 -11.423   8.941  1.00  0.00     0.037 A 
BRANCH  38  52
ATOM     52  C   UNL     1       6.055  -5.876  11.592  1.00  0.00     0.064 A 
ATOM     53  C   UNL     1       5.332  -5.575  12.754  1.00  0.00     0.173 A 
ATOM     54  C   UNL     1       7.359  -5.369  11.477  1.00  0.00     0.173 A 
ATOM     55  F   UNL     1       4.081  -6.035  12.909  1.00  0.00    -0.203 F 
ATOM     56  C   UNL     1       5.889  -4.790  13.760  1.00  0.00     0.198 A 
ATOM     57  C   UNL     1       7.921  -4.602  12.495  1.00  0.00     0.198 A 
ATOM     58  F   UNL     1       8.096  -5.639  10.389  1.00  0.00    -0.203 F 
ATOM     59  F   UNL     1       5.173  -4.498  14.855  1.00  0.00    -0.200 F 
ATOM     60  C   UNL     1       7.186  -4.312  13.634  1.00  0.00     0.200 A 
ATOM     61  F   UNL     1       9.179  -4.154  12.378  1.00  0.00    -0.200 F 
ATOM     62  F   UNL     1       7.727  -3.573  14.612  1.00  0.00    -0.200 F 
ENDBRANCH  38  52
BRANCH  39  63
ATOM     63  C   UNL     1       2.536 -11.598   4.275  1.00  0.00     0.064 A 
ATOM     64  C   UNL     1       1.797 -12.766   4.511  1.00  0.00     0.173 A 
ATOM     65  C   UNL     1       2.841 -11.275   2.945  1.00  0.00     0.173 A 
ATOM     66  F   UNL     1       1.504 -13.129   5.768  1.00  0.00    -0.203 F 
ATOM     67  C   UNL     1       1.403 -13.592   3.461  1.00  0.00     0.198 A 
ATOM     68  C   UNL     1       2.423 -12.087   1.894  1.00  0.00     0.198 A 
ATOM     69  F   UNL     1       3.546 -10.169   2.667  1.00  0.00    -0.203 F 
ATOM     70  F   UNL     1       0.743 -14.729   3.717  1.00  0.00    -0.200 F 
ATOM     71  C   UNL     1       1.712 -13.250   2.153  1.00  0.00     0.200 A 
ATOM     72  F   UNL     1       2.715 -11.748   0.631  1.00  0.00    -0.200 F 
ATOM     73  F   UNL     1       1.335 -14.046   1.143  1.00  0.00    -0.200 F 
ENDBRANCH  39  63
BRANCH  51  74
ATOM     74  C   UNL     1       7.246 -12.588   9.303  1.00  0.00     0.064 A 
ATOM     75  C   UNL     1       8.363 -12.936   8.530  1.00  0.00     0.173 A 
ATOM     76  C   UNL     1       6.985 -13.343  10.457  1.00  0.00     0.173 A 
ATOM     77  F   UNL     1       8.646 -12.255   7.409  1.00  0.00    -0.203 F 
ATOM     78  C   UNL     1       9.175 -14.010   8.887  1.00  0.00     0.198 A 
ATOM     79  C   UNL     1       7.812 -14.400  10.825  1.00  0.00     0.198 A 
ATOM     80  F   UNL     1       5.931 -13.048  11.233  1.00  0.00    -0.203 F 
ATOM     81  F   UNL     1      10.213 -14.350   8.111  1.00  0.00    -0.200 F 
ATOM     82  C   UNL     1       8.903 -14.736  10.037  1.00  0.00     0.200 A 
ATOM     83  F   UNL     1       7.554 -15.095  11.941  1.00  0.00    -0.200 F 
ATOM     84  F   UNL     1       9.688 -15.767  10.381  1.00  0.00    -0.200 F 
ENDBRANCH  51  74
ENDBRANCH  25  26
ENDBRANCH  17  20
ENDBRANCH  15  16
ENDBRANCH  14  15
ENDBRANCH   1  14
TORSDOF 13
