REMARK SMILES C[C@@H](Nc1ccc(C(=O)NCCCNC(=O)c2ccc(-c3c4nc(c(-c5c(F)c(F)c(F)c(F)c5F)c5ccc([nH]5)c(-c5c(F)c(F)c(F)c(F)c5F)c5nc(c(-c6c(F)c(F)c(F)c(F)c6F)c6ccc3[nH]6)C=C5)C=C4)cc2)c(F)c1F)C(N)=O
REMARK SMILES IDX 11 1 10 2 8 3 9 4 7 6 4 7 5 8 82 9 6 10 80 11 83 12 81 13
REMARK SMILES IDX 3 14 2 16 1 17 84 18 85 19 86 20 12 23 13 24 14 25 15 26
REMARK SMILES IDX 16 28 17 29 18 30 79 31 19 32 78 33 20 34 21 35 22 36 72 37
REMARK SMILES IDX 23 38 77 39 71 40 73 41 24 42 76 43 70 44 69 45 25 47 57 48
REMARK SMILES IDX 37 49 56 50 38 51 41 52 55 53 74 54 39 55 40 56 54 58 75 59
REMARK SMILES IDX 42 60 26 61 27 62 35 63 28 64 29 65 33 66 36 67 30 68 31 69
REMARK SMILES IDX 34 70 32 71 58 72 59 73 67 74 60 75 61 76 65 77 68 78 62 79
REMARK SMILES IDX 63 80 66 81 64 82 43 83 44 84 52 85 45 86 46 87 50 88 53 89
REMARK SMILES IDX 47 90 48 91 51 92 49 93
REMARK H PARENT 10 5 3 15 85 21 85 22 14 27 73 46 41 57
REMARK Flexibility Score: inf
ROOT
ATOM      1  C   UNL     1      -1.590   7.532   2.996  1.00  0.00     0.118 C 
ENDROOT
BRANCH   1   2
ATOM      2  N   UNL     1      -2.640   6.645   3.456  1.00  0.00    -0.352 N 
ATOM      3  C   UNL     1      -2.759   5.287   3.547  1.00  0.00     0.254 C 
ATOM      4  O   UNL     1      -3.827   4.872   4.009  1.00  0.00    -0.269 OA
ATOM      5  H   UNL     1      -3.441   7.125   3.769  1.00  0.00     0.163 HD
BRANCH   3   6
ATOM      6  C   UNL     1      -1.712   4.289   3.201  1.00  0.00     0.078 A 
ATOM      7  C   UNL     1       0.093   2.148   2.668  1.00  0.00     0.074 A 
ATOM      8  C   UNL     1      -0.951   1.987   3.575  1.00  0.00     0.030 A 
ATOM      9  C   UNL     1       0.215   3.392   2.036  1.00  0.00     0.182 A 
ATOM     10  C   UNL     1      -1.832   3.040   3.844  1.00  0.00     0.019 A 
ATOM     11  C   UNL     1      -0.685   4.436   2.273  1.00  0.00     0.173 A 
ATOM     12  F   UNL     1       1.215   3.579   1.157  1.00  0.00    -0.201 F 
ATOM     13  F   UNL     1      -0.547   5.540   1.529  1.00  0.00    -0.203 F 
BRANCH   7  14
ATOM     14  N   UNL     1       0.923   1.078   2.334  1.00  0.00    -0.371 N 
ATOM     15  H   UNL     1       1.843   1.053   2.684  1.00  0.00     0.161 HD
BRANCH  14  16
ATOM     16  C   UNL     1       0.445  -0.022   1.462  1.00  0.00     0.165 C 
ATOM     17  C   UNL     1       1.100   0.094   0.087  1.00  0.00     0.041 C 
BRANCH  16  18
ATOM     18  C   UNL     1      -1.087  -0.111   1.288  1.00  0.00     0.239 C 
ATOM     19  N   UNL     1      -1.733  -0.953   2.152  1.00  0.00    -0.368 N 
ATOM     20  O   UNL     1      -1.728   0.521   0.453  1.00  0.00    -0.273 OA
ATOM     21  H   UNL     1      -1.220  -1.460   2.822  1.00  0.00     0.159 HD
ATOM     22  H   UNL     1      -2.711  -1.052   2.103  1.00  0.00     0.159 HD
ENDBRANCH  16  18
ENDBRANCH  14  16
ENDBRANCH   7  14
ENDBRANCH   3   6
ENDBRANCH   1   2
BRANCH   1  23
ATOM     23  C   UNL     1      -1.886   8.040   1.584  1.00  0.00     0.042 C 
BRANCH  23  24
ATOM     24  C   UNL     1      -2.973   9.115   1.543  1.00  0.00     0.118 C 
BRANCH  24  25
ATOM     25  N   UNL     1      -2.537  10.357   2.172  1.00  0.00    -0.352 N 
ATOM     26  C   UNL     1      -2.339  11.603   1.633  1.00  0.00     0.251 C 
ATOM     27  H   UNL     1      -2.357  10.291   3.137  1.00  0.00     0.163 HD
ATOM     28  O   UNL     1      -1.725  12.452   2.272  1.00  0.00    -0.269 OA
BRANCH  26  29
ATOM     29  C   UNL     1      -2.858  11.934   0.290  1.00  0.00     0.039 A 
ATOM     30  C   UNL     1      -2.069  12.704  -0.570  1.00  0.00     0.014 A 
ATOM     31  C   UNL     1      -4.138  11.535  -0.105  1.00  0.00     0.014 A 
ATOM     32  C   UNL     1      -2.538  13.021  -1.847  1.00  0.00     0.010 A 
ATOM     33  C   UNL     1      -4.575  11.790  -1.401  1.00  0.00     0.010 A 
ATOM     34  C   UNL     1      -3.780  12.535  -2.285  1.00  0.00    -0.014 A 
BRANCH  34  35
ATOM     35  C   UNL     1      -4.261  12.778  -3.669  1.00  0.00     0.031 A 
ATOM     36  C   UNL     1      -5.509  13.580  -3.908  1.00  0.00     0.074 A 
ATOM     37  C   UNL     1      -3.611  12.209  -4.703  1.00  0.00     0.049 A 
ATOM     38  N   UNL     1      -6.141  13.811  -5.031  1.00  0.00    -0.248 NA
ATOM     39  C   UNL     1      -6.148  14.181  -2.727  1.00  0.00     0.031 C 
ATOM     40  C   UNL     1      -2.413  11.375  -4.590  1.00  0.00     0.029 A 
ATOM     41  N   UNL     1      -3.873  12.232  -6.051  1.00  0.00    -0.354 N 
ATOM     42  C   UNL     1      -7.255  14.566  -4.690  1.00  0.00     0.074 A 
ATOM     43  C   UNL     1      -7.241  14.717  -3.252  1.00  0.00     0.031 C 
ATOM     44  C   UNL     1      -2.031  10.985  -5.815  1.00  0.00     0.029 A 
ATOM     45  C   UNL     1      -2.981  11.500  -6.797  1.00  0.00     0.049 A 
ATOM     46  H   UNL     1      -4.628  12.726  -6.445  1.00  0.00     0.167 HD
ATOM     47  C   UNL     1      -8.190  15.102  -5.509  1.00  0.00     0.037 A 
ATOM     48  C   UNL     1      -2.939  11.261  -8.121  1.00  0.00     0.037 A 
ATOM     49  C   UNL     1      -8.178  14.973  -6.942  1.00  0.00     0.049 A 
ATOM     50  C   UNL     1      -3.992  11.867  -9.008  1.00  0.00     0.074 A 
ATOM     51  C   UNL     1      -9.048  15.529  -7.863  1.00  0.00     0.029 A 
ATOM     52  N   UNL     1      -7.247  14.239  -7.663  1.00  0.00    -0.354 N 
ATOM     53  N   UNL     1      -5.011  12.624  -8.679  1.00  0.00    -0.248 NA
ATOM     54  C   UNL     1      -3.891  11.590 -10.447  1.00  0.00     0.031 C 
ATOM     55  C   UNL     1      -8.675  15.092  -9.136  1.00  0.00     0.029 A 
ATOM     56  C   UNL     1      -7.537  14.311  -9.016  1.00  0.00     0.049 A 
ATOM     57  H   UNL     1      -6.494  13.741  -7.271  1.00  0.00     0.167 HD
ATOM     58  C   UNL     1      -5.657  12.933  -9.868  1.00  0.00     0.074 A 
ATOM     59  C   UNL     1      -4.906  12.294 -10.929  1.00  0.00     0.031 C 
ATOM     60  C   UNL     1      -6.774  13.676 -10.061  1.00  0.00     0.037 A 
BRANCH  47  61
ATOM     61  C   UNL     1      -9.304  15.893  -4.886  1.00  0.00     0.064 A 
ATOM     62  C   UNL     1     -10.626  15.423  -4.934  1.00  0.00     0.173 A 
ATOM     63  C   UNL     1      -9.078  17.157  -4.321  1.00  0.00     0.173 A 
ATOM     64  F   UNL     1     -10.898  14.224  -5.470  1.00  0.00    -0.203 F 
ATOM     65  C   UNL     1     -11.680  16.197  -4.455  1.00  0.00     0.198 A 
ATOM     66  C   UNL     1     -10.131  17.915  -3.816  1.00  0.00     0.198 A 
ATOM     67  F   UNL     1      -7.832  17.649  -4.242  1.00  0.00    -0.203 F 
ATOM     68  F   UNL     1     -12.938  15.743  -4.546  1.00  0.00    -0.200 F 
ATOM     69  C   UNL     1     -11.432  17.440  -3.894  1.00  0.00     0.200 A 
ATOM     70  F   UNL     1      -9.887  19.107  -3.254  1.00  0.00    -0.200 F 
ATOM     71  F   UNL     1     -12.447  18.182  -3.429  1.00  0.00    -0.200 F 
ENDBRANCH  47  61
BRANCH  48  72
ATOM     72  C   UNL     1      -1.841  10.433  -8.685  1.00  0.00     0.064 A 
ATOM     73  C   UNL     1      -1.750   9.058  -8.420  1.00  0.00     0.173 A 
ATOM     74  C   UNL     1      -0.838  11.011  -9.475  1.00  0.00     0.173 A 
ATOM     75  F   UNL     1      -2.681   8.457  -7.665  1.00  0.00    -0.203 F 
ATOM     76  C   UNL     1      -0.688   8.299  -8.908  1.00  0.00     0.198 A 
ATOM     77  C   UNL     1       0.208  10.246  -9.986  1.00  0.00     0.198 A 
ATOM     78  F   UNL     1      -0.891  12.318  -9.772  1.00  0.00    -0.203 F 
ATOM     79  F   UNL     1      -0.606   6.995  -8.610  1.00  0.00    -0.200 F 
ATOM     80  C   UNL     1       0.287   8.892  -9.694  1.00  0.00     0.200 A 
ATOM     81  F   UNL     1       1.135  10.818 -10.766  1.00  0.00    -0.200 F 
ATOM     82  F   UNL     1       1.302   8.160 -10.174  1.00  0.00    -0.200 F 
ENDBRANCH  48  72
BRANCH  60  83
ATOM     83  C   UNL     1      -7.249  13.866 -11.472  1.00  0.00     0.064 A 
ATOM     84  C   UNL     1      -7.178  15.129 -12.081  1.00  0.00     0.173 A 
ATOM     85  C   UNL     1      -7.851  12.822 -12.190  1.00  0.00     0.173 A 
ATOM     86  F   UNL     1      -6.621  16.162 -11.432  1.00  0.00    -0.203 F 
ATOM     87  C   UNL     1      -7.709  15.343 -13.349  1.00  0.00     0.198 A 
ATOM     88  C   UNL     1      -8.352  13.033 -13.472  1.00  0.00     0.198 A 
ATOM     89  F   UNL     1      -7.932  11.594 -11.657  1.00  0.00    -0.203 F 
ATOM     90  F   UNL     1      -7.666  16.567 -13.894  1.00  0.00    -0.200 F 
ATOM     91  C   UNL     1      -8.292  14.295 -14.045  1.00  0.00     0.200 A 
ATOM     92  F   UNL     1      -8.893  12.014 -14.153  1.00  0.00    -0.200 F 
ATOM     93  F   UNL     1      -8.794  14.500 -15.270  1.00  0.00    -0.200 F 
ENDBRANCH  60  83
ENDBRANCH  34  35
ENDBRANCH  26  29
ENDBRANCH  24  25
ENDBRANCH  23  24
ENDBRANCH   1  23
TORSDOF 13
