REMARK SMILES Cc1oc2ccc(NS(=O)(=O)c3ccc(C(C)C)cc3)cc2c1C(=O)NCCCNC(=O)c1ccc(-c2c3nc(c(-c4c(F)c(F)c(F)c(F)c4F)c4ccc([nH]4)c(-c4c(F)c(F)c(F)c(F)c4F)c4nc(c(-c5c(F)c(F)c(F)c(F)c5F)c5ccc2[nH]5)C=C4)C=C3)cc1
REMARK SMILES IDX 27 1 26 2 24 3 25 4 23 6 1 7 2 8 3 9 4 10 22 11 5 12 21 13
REMARK SMILES IDX 6 14 7 15 8 16 9 18 10 19 11 20 12 21 13 22 20 23 14 24
REMARK SMILES IDX 19 25 15 26 16 27 17 28 18 29 28 30 29 31 30 32 31 33 32 35
REMARK SMILES IDX 33 36 34 37 95 38 35 39 94 40 36 41 37 42 38 43 88 44 39 45
REMARK SMILES IDX 93 46 87 47 89 48 40 49 92 50 86 51 85 52 41 54 73 55 53 56
REMARK SMILES IDX 72 57 54 58 57 59 71 60 90 61 55 62 56 63 70 65 91 66 58 67
REMARK SMILES IDX 42 68 43 69 51 70 44 71 45 72 49 73 52 74 46 75 47 76 50 77
REMARK SMILES IDX 48 78 74 79 75 80 83 81 76 82 77 83 81 84 84 85 78 86 79 87
REMARK SMILES IDX 82 88 80 89 59 90 60 91 68 92 61 93 62 94 66 95 69 96 63 97
REMARK SMILES IDX 64 98 67 99 65 100
REMARK H PARENT 26 5 8 17 30 34 89 53 57 64
REMARK Flexibility Score: inf
ROOT
ATOM      1  C   UNL     1       4.137  -1.615   0.354  1.00  0.00     0.118 C 
ENDROOT
BRANCH   1   2
ATOM      2  N   UNL     1       3.184  -2.340  -0.462  1.00  0.00    -0.352 N 
ATOM      3  C   UNL     1       1.987  -1.962  -1.025  1.00  0.00     0.255 C 
ATOM      4  O   UNL     1       1.425  -2.801  -1.730  1.00  0.00    -0.269 OA
ATOM      5  H   UNL     1       3.440  -3.272  -0.648  1.00  0.00     0.163 HD
BRANCH   3   6
ATOM      6  C   UNL     1       1.361  -0.680  -0.732  1.00  0.00     0.088 A 
ATOM      7  C   UNL     1       3.249   1.182  -0.867  1.00  0.00     0.088 C 
ATOM      8  C   UNL     1       1.915   0.589  -0.623  1.00  0.00     0.114 A 
ATOM      9  O   UNL     1       0.970   1.490  -0.223  1.00  0.00    -0.461 OA
ATOM     10  C   UNL     1      -0.223   0.845  -0.193  1.00  0.00     0.135 A 
ATOM     11  C   UNL     1      -0.058  -0.471  -0.591  1.00  0.00     0.035 A 
ATOM     12  C   UNL     1      -1.448   1.412   0.152  1.00  0.00     0.050 A 
ATOM     13  C   UNL     1      -1.218  -1.259  -0.749  1.00  0.00     0.039 A 
ATOM     14  C   UNL     1      -2.577   0.580   0.064  1.00  0.00     0.030 A 
ATOM     15  C   UNL     1      -2.471  -0.739  -0.391  1.00  0.00     0.050 A 
BRANCH  15  16
ATOM     16  N   UNL     1      -3.657  -1.522  -0.604  1.00  0.00    -0.280 N 
ATOM     17  H   UNL     1      -4.266  -1.284  -1.340  1.00  0.00     0.180 HD
BRANCH  16  18
ATOM     18  S   UNL     1      -4.029  -2.855   0.394  1.00  0.00     0.261 S 
ATOM     19  O   UNL     1      -4.361  -2.335   1.697  1.00  0.00    -0.201 OA
ATOM     20  O   UNL     1      -5.009  -3.630  -0.353  1.00  0.00    -0.201 OA
BRANCH  18  21
ATOM     21  C   UNL     1      -2.563  -3.837   0.550  1.00  0.00     0.087 A 
ATOM     22  C   UNL     1      -2.415  -5.018  -0.178  1.00  0.00     0.022 A 
ATOM     23  C   UNL     1      -1.556  -3.415   1.421  1.00  0.00     0.022 A 
ATOM     24  C   UNL     1      -1.199  -5.707  -0.130  1.00  0.00     0.005 A 
ATOM     25  C   UNL     1      -0.330  -4.079   1.426  1.00  0.00     0.005 A 
ATOM     26  C   UNL     1      -0.119  -5.206   0.614  1.00  0.00    -0.045 A 
BRANCH  26  27
ATOM     27  C   UNL     1       1.275  -5.808   0.544  1.00  0.00     0.013 C 
ATOM     28  C   UNL     1       1.521  -6.779   1.698  1.00  0.00     0.012 C 
ATOM     29  C   UNL     1       1.601  -6.474  -0.798  1.00  0.00     0.012 C 
ENDBRANCH  26  27
ENDBRANCH  18  21
ENDBRANCH  16  18
ENDBRANCH  15  16
ENDBRANCH   3   6
ENDBRANCH   1   2
BRANCH   1  30
ATOM     30  C   UNL     1       4.732  -2.396   1.520  1.00  0.00     0.042 C 
BRANCH  30  31
ATOM     31  C   UNL     1       5.348  -3.750   1.198  1.00  0.00     0.118 C 
BRANCH  31  32
ATOM     32  N   UNL     1       6.446  -3.703   0.246  1.00  0.00    -0.352 N 
ATOM     33  C   UNL     1       7.813  -3.761   0.381  1.00  0.00     0.251 C 
ATOM     34  H   UNL     1       6.150  -3.610  -0.688  1.00  0.00     0.163 HD
ATOM     35  O   UNL     1       8.501  -3.616  -0.628  1.00  0.00    -0.269 OA
BRANCH  33  36
ATOM     36  C   UNL     1       8.491  -3.941   1.690  1.00  0.00     0.039 A 
ATOM     37  C   UNL     1       9.715  -3.287   1.892  1.00  0.00     0.014 A 
ATOM     38  C   UNL     1       7.998  -4.767   2.697  1.00  0.00     0.014 A 
ATOM     39  C   UNL     1      10.384  -3.391   3.117  1.00  0.00     0.010 A 
ATOM     40  C   UNL     1       8.610  -4.792   3.952  1.00  0.00     0.010 A 
ATOM     41  C   UNL     1       9.809  -4.102   4.181  1.00  0.00    -0.014 A 
BRANCH  41  42
ATOM     42  C   UNL     1      10.439  -4.135   5.530  1.00  0.00     0.031 A 
ATOM     43  C   UNL     1      10.856  -5.443   6.150  1.00  0.00     0.074 A 
ATOM     44  C   UNL     1      10.563  -2.994   6.238  1.00  0.00     0.049 A 
ATOM     45  N   UNL     1      11.312  -5.683   7.355  1.00  0.00    -0.248 NA
ATOM     46  C   UNL     1      10.710  -6.646   5.317  1.00  0.00     0.031 C 
ATOM     47  C   UNL     1      10.156  -1.665   5.779  1.00  0.00     0.029 A 
ATOM     48  N   UNL     1      11.053  -2.770   7.502  1.00  0.00    -0.354 N 
ATOM     49  C   UNL     1      11.477  -7.060   7.432  1.00  0.00     0.074 A 
ATOM     50  C   UNL     1      11.028  -7.608   6.170  1.00  0.00     0.031 C 
ATOM     51  C   UNL     1      10.435  -0.764   6.734  1.00  0.00     0.029 A 
ATOM     52  C   UNL     1      10.999  -1.453   7.890  1.00  0.00     0.049 A 
ATOM     53  H   UNL     1      11.411  -3.486   8.075  1.00  0.00     0.167 HD
ATOM     54  C   UNL     1      11.976  -7.799   8.452  1.00  0.00     0.037 A 
ATOM     55  C   UNL     1      11.352  -0.866   9.050  1.00  0.00     0.037 A 
ATOM     56  C   UNL     1      12.466  -7.251   9.690  1.00  0.00     0.049 A 
ATOM     57  C   UNL     1      11.918  -1.707  10.161  1.00  0.00     0.074 A 
ATOM     58  C   UNL     1      13.060  -7.912  10.751  1.00  0.00     0.029 A 
ATOM     59  N   UNL     1      12.420  -5.907  10.032  1.00  0.00    -0.354 N 
ATOM     60  N   UNL     1      12.125  -3.001  10.196  1.00  0.00    -0.248 NA
ATOM     61  C   UNL     1      12.304  -1.004  11.393  1.00  0.00     0.031 C 
ATOM     62  C   UNL     1      13.335  -6.975  11.753  1.00  0.00     0.029 A 
ATOM     63  C   UNL     1      12.958  -5.723  11.296  1.00  0.00     0.049 A 
ATOM     64  H   UNL     1      12.059  -5.191   9.461  1.00  0.00     0.167 HD
ATOM     65  C   UNL     1      12.690  -3.263  11.437  1.00  0.00     0.074 A 
ATOM     66  C   UNL     1      12.806  -1.992  12.121  1.00  0.00     0.031 C 
ATOM     67  C   UNL     1      13.076  -4.451  11.962  1.00  0.00     0.037 A 
BRANCH  54  68
ATOM     68  C   UNL     1      12.027  -9.290   8.272  1.00  0.00     0.064 A 
ATOM     69  C   UNL     1      12.918  -9.894   7.372  1.00  0.00     0.173 A 
ATOM     70  C   UNL     1      11.202 -10.127   9.038  1.00  0.00     0.173 A 
ATOM     71  F   UNL     1      13.722  -9.139   6.608  1.00  0.00    -0.203 F 
ATOM     72  C   UNL     1      12.959 -11.278   7.223  1.00  0.00     0.198 A 
ATOM     73  C   UNL     1      11.268 -11.513   8.909  1.00  0.00     0.198 A 
ATOM     74  F   UNL     1      10.337  -9.603   9.920  1.00  0.00    -0.203 F 
ATOM     75  F   UNL     1      13.782 -11.829   6.320  1.00  0.00    -0.200 F 
ATOM     76  C   UNL     1      12.139 -12.086   7.996  1.00  0.00     0.200 A 
ATOM     77  F   UNL     1      10.485 -12.293   9.668  1.00  0.00    -0.200 F 
ATOM     78  F   UNL     1      12.185 -13.418   7.857  1.00  0.00    -0.200 F 
ENDBRANCH  54  68
BRANCH  55  79
ATOM     79  C   UNL     1      11.206   0.604   9.210  1.00  0.00     0.064 A 
ATOM     80  C   UNL     1      12.334   1.435   9.266  1.00  0.00     0.173 A 
ATOM     81  C   UNL     1       9.944   1.209   9.312  1.00  0.00     0.173 A 
ATOM     82  F   UNL     1      13.562   0.900   9.195  1.00  0.00    -0.203 F 
ATOM     83  C   UNL     1      12.207   2.812   9.434  1.00  0.00     0.198 A 
ATOM     84  C   UNL     1       9.818   2.589   9.453  1.00  0.00     0.198 A 
ATOM     85  F   UNL     1       8.834   0.459   9.259  1.00  0.00    -0.203 F 
ATOM     86  F   UNL     1      13.303   3.577   9.527  1.00  0.00    -0.200 F 
ATOM     87  C   UNL     1      10.949   3.389   9.521  1.00  0.00     0.200 A 
ATOM     88  F   UNL     1       8.600   3.145   9.521  1.00  0.00    -0.200 F 
ATOM     89  F   UNL     1      10.827   4.714   9.678  1.00  0.00    -0.200 F 
ENDBRANCH  55  79
BRANCH  67  90
ATOM     90  C   UNL     1      13.697  -4.432  13.328  1.00  0.00     0.064 A 
ATOM     91  C   UNL     1      12.933  -4.195  14.481  1.00  0.00     0.173 A 
ATOM     92  C   UNL     1      15.066  -4.694  13.489  1.00  0.00     0.173 A 
ATOM     93  F   UNL     1      11.623  -3.924  14.378  1.00  0.00    -0.203 F 
ATOM     94  C   UNL     1      13.523  -4.199  15.742  1.00  0.00     0.198 A 
ATOM     95  C   UNL     1      15.646  -4.725  14.754  1.00  0.00     0.198 A 
ATOM     96  F   UNL     1      15.839  -4.932  12.419  1.00  0.00    -0.203 F 
ATOM     97  F   UNL     1      12.783  -3.925  16.826  1.00  0.00    -0.200 F 
ATOM     98  C   UNL     1      14.876  -4.471  15.879  1.00  0.00     0.200 A 
ATOM     99  F   UNL     1      16.951  -5.001  14.885  1.00  0.00    -0.200 F 
ATOM    100  F   UNL     1      15.440  -4.481  17.094  1.00  0.00    -0.200 F 
ENDBRANCH  67  90
ENDBRANCH  41  42
ENDBRANCH  33  36
ENDBRANCH  31  32
ENDBRANCH  30  31
ENDBRANCH   1  30
TORSDOF 14
