REMARK SMILES Cc1nc(/C=C/C(=O)N2CCC[C@@H]2C(=O)NCCCNC(=O)c2ccc(-c3c4nc(c(-c5c(F)c(F)c(F)c(F)c5F)c5ccc([nH]5)c(-c5c(F)c(F)c(F)c(F)c5F)c5nc(c(-c6c(F)c(F)c(F)c(F)c6F)c6ccc3[nH]6)C=C5)C=C4)cc2)cs1
REMARK SMILES IDX 17 1 16 2 14 3 15 4 13 6 9 7 10 8 11 9 12 10 7 11 8 12 6 13
REMARK SMILES IDX 5 14 4 15 1 16 2 17 3 18 87 19 86 20 18 21 19 22 20 23 21 24
REMARK SMILES IDX 22 26 23 27 24 28 85 29 25 30 84 31 26 32 27 33 28 34 78 35
REMARK SMILES IDX 29 36 83 37 77 38 79 39 30 40 82 41 76 42 75 43 31 45 63 46
REMARK SMILES IDX 43 47 62 48 44 49 47 50 61 51 80 52 45 53 46 54 60 56 81 57
REMARK SMILES IDX 48 58 32 59 33 60 41 61 34 62 35 63 39 64 42 65 36 66 37 67
REMARK SMILES IDX 40 68 38 69 64 70 65 71 73 72 66 73 67 74 71 75 74 76 68 77
REMARK SMILES IDX 69 78 72 79 70 80 49 81 50 82 58 83 51 84 52 85 56 86 59 87
REMARK SMILES IDX 53 88 54 89 57 90 55 91
REMARK H PARENT 16 5 20 25 79 44 47 55
REMARK Flexibility Score: inf
ROOT
ATOM      1  C   UNL     1       2.273  -4.736   2.515  1.00  0.00     0.117 C 
ENDROOT
BRANCH   1   2
ATOM      2  N   UNL     1       3.568  -5.322   2.771  1.00  0.00    -0.354 N 
ATOM      3  C   UNL     1       4.468  -5.887   1.916  1.00  0.00     0.242 C 
ATOM      4  O   UNL     1       5.404  -6.504   2.438  1.00  0.00    -0.273 OA
ATOM      5  H   UNL     1       3.847  -5.311   3.715  1.00  0.00     0.163 HD
BRANCH   3   6
ATOM      6  C   UNL     1       4.244  -5.959   0.388  1.00  0.00     0.174 C 
ATOM      7  N   UNL     1       3.602  -4.814  -0.260  1.00  0.00    -0.327 N 
ATOM      8  C   UNL     1       2.627  -5.266  -1.239  1.00  0.00     0.121 C 
ATOM      9  C   UNL     1       2.125  -6.576  -0.664  1.00  0.00     0.024 C 
ATOM     10  C   UNL     1       3.351  -7.163   0.035  1.00  0.00     0.037 C 
BRANCH   7  11
ATOM     11  C   UNL     1       4.175  -3.570  -0.169  1.00  0.00     0.247 C 
ATOM     12  O   UNL     1       5.313  -3.395   0.262  1.00  0.00    -0.270 OA
BRANCH  11  13
ATOM     13  C   UNL     1       3.367  -2.361  -0.484  1.00  0.00     0.073 C 
ATOM     14  C   UNL     1       2.069  -2.252  -0.161  1.00  0.00     0.035 C 
BRANCH  14  15
ATOM     15  C   UNL     1       1.252  -1.089  -0.194  1.00  0.00     0.074 A 
ATOM     16  C   UNL     1      -2.209   0.024  -0.007  1.00  0.00     0.079 C 
ATOM     17  C   UNL     1      -0.732  -0.134  -0.087  1.00  0.00     0.090 A 
ATOM     18  N   UNL     1      -0.110  -1.294  -0.115  1.00  0.00    -0.242 NA
ATOM     19  S   UNL     1       0.286   1.251  -0.142  1.00  0.00    -0.127 S 
ATOM     20  C   UNL     1       1.662   0.225  -0.209  1.00  0.00     0.095 A 
ENDBRANCH  14  15
ENDBRANCH  11  13
ENDBRANCH   7  11
ENDBRANCH   3   6
ENDBRANCH   1   2
BRANCH   1  21
ATOM     21  C   UNL     1       1.142  -5.556   3.110  1.00  0.00     0.042 C 
BRANCH  21  22
ATOM     22  C   UNL     1       1.060  -5.454   4.622  1.00  0.00     0.118 C 
BRANCH  22  23
ATOM     23  N   UNL     1       0.687  -4.118   5.066  1.00  0.00    -0.352 N 
ATOM     24  C   UNL     1      -0.386  -3.704   5.810  1.00  0.00     0.251 C 
ATOM     25  H   UNL     1       1.302  -3.401   4.788  1.00  0.00     0.163 HD
ATOM     26  O   UNL     1      -0.631  -2.502   5.911  1.00  0.00    -0.269 OA
BRANCH  24  27
ATOM     27  C   UNL     1      -1.258  -4.687   6.487  1.00  0.00     0.039 A 
ATOM     28  C   UNL     1      -2.633  -4.441   6.546  1.00  0.00     0.014 A 
ATOM     29  C   UNL     1      -0.726  -5.823   7.101  1.00  0.00     0.014 A 
ATOM     30  C   UNL     1      -3.474  -5.351   7.188  1.00  0.00     0.010 A 
ATOM     31  C   UNL     1      -1.573  -6.776   7.653  1.00  0.00     0.010 A 
ATOM     32  C   UNL     1      -2.952  -6.536   7.729  1.00  0.00    -0.014 A 
BRANCH  32  33
ATOM     33  C   UNL     1      -3.817  -7.509   8.438  1.00  0.00     0.031 A 
ATOM     34  C   UNL     1      -3.596  -7.771   9.903  1.00  0.00     0.074 A 
ATOM     35  C   UNL     1      -4.753  -8.196   7.758  1.00  0.00     0.049 A 
ATOM     36  N   UNL     1      -4.184  -8.635  10.691  1.00  0.00    -0.248 NA
ATOM     37  C   UNL     1      -2.546  -6.978  10.564  1.00  0.00     0.031 C 
ATOM     38  C   UNL     1      -5.026  -8.066   6.327  1.00  0.00     0.029 A 
ATOM     39  N   UNL     1      -5.642  -9.151   8.182  1.00  0.00    -0.354 N 
ATOM     40  C   UNL     1      -3.558  -8.507  11.924  1.00  0.00     0.074 A 
ATOM     41  C   UNL     1      -2.508  -7.526  11.768  1.00  0.00     0.031 C 
ATOM     42  C   UNL     1      -6.030  -8.893   5.995  1.00  0.00     0.029 A 
ATOM     43  C   UNL     1      -6.449  -9.633   7.182  1.00  0.00     0.049 A 
ATOM     44  H   UNL     1      -5.695  -9.462   9.115  1.00  0.00     0.167 HD
ATOM     45  C   UNL     1      -3.851  -9.133  13.089  1.00  0.00     0.037 A 
ATOM     46  C   UNL     1      -7.419 -10.566   7.223  1.00  0.00     0.037 A 
ATOM     47  C   UNL     1      -4.923 -10.078  13.248  1.00  0.00     0.049 A 
ATOM     48  C   UNL     1      -7.748 -11.221   8.536  1.00  0.00     0.074 A 
ATOM     49  C   UNL     1      -5.342 -10.727  14.395  1.00  0.00     0.029 A 
ATOM     50  N   UNL     1      -5.754 -10.503  12.220  1.00  0.00    -0.354 N 
ATOM     51  N   UNL     1      -7.191 -11.049   9.710  1.00  0.00    -0.248 NA
ATOM     52  C   UNL     1      -8.853 -12.189   8.532  1.00  0.00     0.031 C 
ATOM     53  C   UNL     1      -6.404 -11.572  14.056  1.00  0.00     0.029 A 
ATOM     54  C   UNL     1      -6.678 -11.413  12.707  1.00  0.00     0.049 A 
ATOM     55  H   UNL     1      -5.695 -10.203  11.285  1.00  0.00     0.167 HD
ATOM     56  C   UNL     1      -7.898 -11.858  10.590  1.00  0.00     0.074 A 
ATOM     57  C   UNL     1      -8.931 -12.513   9.815  1.00  0.00     0.031 C 
ATOM     58  C   UNL     1      -7.710 -12.039  11.921  1.00  0.00     0.037 A 
BRANCH  45  59
ATOM     59  C   UNL     1      -2.998  -8.807  14.282  1.00  0.00     0.064 A 
ATOM     60  C   UNL     1      -3.044  -7.547  14.899  1.00  0.00     0.173 A 
ATOM     61  C   UNL     1      -2.132  -9.769  14.822  1.00  0.00     0.173 A 
ATOM     62  F   UNL     1      -3.845  -6.586  14.413  1.00  0.00    -0.203 F 
ATOM     63  C   UNL     1      -2.230  -7.251  15.989  1.00  0.00     0.198 A 
ATOM     64  C   UNL     1      -1.343  -9.480  15.933  1.00  0.00     0.198 A 
ATOM     65  F   UNL     1      -2.051 -10.991  14.275  1.00  0.00    -0.203 F 
ATOM     66  F   UNL     1      -2.249  -6.022  16.523  1.00  0.00    -0.200 F 
ATOM     67  C   UNL     1      -1.385  -8.219  16.509  1.00  0.00     0.200 A 
ATOM     68  F   UNL     1      -0.535 -10.421  16.442  1.00  0.00    -0.200 F 
ATOM     69  F   UNL     1      -0.603  -7.934  17.560  1.00  0.00    -0.200 F 
ENDBRANCH  45  59
BRANCH  46  70
ATOM     70  C   UNL     1      -8.177 -10.898   5.990  1.00  0.00     0.064 A 
ATOM     71  C   UNL     1      -9.516 -10.508   5.844  1.00  0.00     0.173 A 
ATOM     72  C   UNL     1      -7.583 -11.602   4.933  1.00  0.00     0.173 A 
ATOM     73  F   UNL     1     -10.132  -9.848   6.835  1.00  0.00    -0.203 F 
ATOM     74  C   UNL     1     -10.238 -10.828   4.696  1.00  0.00     0.198 A 
ATOM     75  C   UNL     1      -8.298 -11.898   3.774  1.00  0.00     0.198 A 
ATOM     76  F   UNL     1      -6.302 -11.990   5.019  1.00  0.00    -0.203 F 
ATOM     77  F   UNL     1     -11.528 -10.479   4.601  1.00  0.00    -0.200 F 
ATOM     78  C   UNL     1      -9.627 -11.517   3.660  1.00  0.00     0.200 A 
ATOM     79  F   UNL     1      -7.700 -12.551   2.768  1.00  0.00    -0.200 F 
ATOM     80  F   UNL     1     -10.320 -11.820   2.554  1.00  0.00    -0.200 F 
ENDBRANCH  46  70
BRANCH  58  81
ATOM     81  C   UNL     1      -8.675 -12.941  12.633  1.00  0.00     0.064 A 
ATOM     82  C   UNL     1      -8.655 -14.332  12.457  1.00  0.00     0.173 A 
ATOM     83  C   UNL     1      -9.612 -12.404  13.529  1.00  0.00     0.173 A 
ATOM     84  F   UNL     1      -7.787 -14.892  11.600  1.00  0.00    -0.203 F 
ATOM     85  C   UNL     1      -9.557 -15.151  13.132  1.00  0.00     0.198 A 
ATOM     86  C   UNL     1     -10.492 -13.228  14.225  1.00  0.00     0.198 A 
ATOM     87  F   UNL     1      -9.667 -11.080  13.738  1.00  0.00    -0.203 F 
ATOM     88  F   UNL     1      -9.553 -16.473  12.912  1.00  0.00    -0.200 F 
ATOM     89  C   UNL     1     -10.469 -14.599  14.019  1.00  0.00     0.200 A 
ATOM     90  F   UNL     1     -11.364 -12.695  15.091  1.00  0.00    -0.200 F 
ATOM     91  F   UNL     1     -11.334 -15.389  14.671  1.00  0.00    -0.200 F 
ENDBRANCH  58  81
ENDBRANCH  32  33
ENDBRANCH  24  27
ENDBRANCH  22  23
ENDBRANCH  21  22
ENDBRANCH   1  21
TORSDOF 13
