REMARK SMILES C[N@@H+](CCS(C)(=O)=O)Cc1oc2ccccc2c1C(=O)NCCCNC(=O)c1ccc(-c2c3nc(c(-c4c(F)c(F)c(F)c(F)c4F)c4ccc([nH]4)c(-c4c(F)c(F)c(F)c(F)c4F)c4nc(c(-c5c(F)c(F)c(F)c(F)c5F)c5ccc2[nH]5)C=C4)C=C3)cc1
REMARK SMILES IDX 19 1 20 2 21 3 18 5 10 6 11 7 12 8 17 9 13 10 16 11 14 12
REMARK SMILES IDX 15 13 9 14 2 15 1 16 3 18 4 19 5 20 6 21 7 22 8 23 22 24
REMARK SMILES IDX 23 25 24 26 25 27 26 28 27 30 28 31 29 32 90 33 30 34 89 35
REMARK SMILES IDX 31 36 32 37 33 38 83 39 34 40 88 41 82 42 84 43 35 44 87 45
REMARK SMILES IDX 81 46 80 47 36 49 68 50 48 51 67 52 49 53 52 54 66 55 85 56
REMARK SMILES IDX 50 57 51 58 65 60 86 61 53 62 37 63 38 64 46 65 39 66 40 67
REMARK SMILES IDX 44 68 47 69 41 70 42 71 45 72 43 73 69 74 70 75 78 76 71 77
REMARK SMILES IDX 72 78 76 79 79 80 73 81 74 82 77 83 75 84 54 85 55 86 63 87
REMARK SMILES IDX 56 88 57 89 61 90 64 91 58 92 59 93 62 94 60 95
REMARK H PARENT 21 4 2 17 25 29 84 48 52 59
REMARK Flexibility Score: inf
ROOT
ATOM      1  C   UNL     1       2.046   1.311  -2.280  1.00  0.00     0.255 C 
ATOM      2  O   UNL     1       2.940   1.185  -1.445  1.00  0.00    -0.269 OA
ATOM      3  N   UNL     1       1.361   2.503  -2.296  1.00  0.00    -0.352 N 
ATOM      4  H   UNL     1       1.530   3.109  -1.538  1.00  0.00     0.163 HD
ENDROOT
BRANCH   1   5
ATOM      5  C   UNL     1       1.634   0.217  -3.140  1.00  0.00     0.095 A 
ATOM      6  C   UNL     1       1.502  -1.083  -2.658  1.00  0.00     0.172 A 
ATOM      7  O   UNL     1       1.083  -1.902  -3.658  1.00  0.00    -0.454 OA
ATOM      8  C   UNL     1       0.827  -1.148  -4.746  1.00  0.00     0.135 A 
ATOM      9  C   UNL     1       1.226   0.162  -4.528  1.00  0.00     0.034 A 
ATOM     10  C   UNL     1       0.212  -1.617  -5.905  1.00  0.00     0.048 A 
ATOM     11  C   UNL     1       1.090   1.048  -5.622  1.00  0.00     0.013 A 
ATOM     12  C   UNL     1      -0.056  -0.675  -6.898  1.00  0.00     0.004 A 
ATOM     13  C   UNL     1       0.390   0.637  -6.767  1.00  0.00     0.001 A 
BRANCH   6  14
ATOM     14  C   UNL     1       1.696  -1.768  -1.340  1.00  0.00     0.339 C 
BRANCH  14  15
ATOM     15  N   UNL     1       0.716  -1.499  -0.279  1.00  0.00    -0.330 N 
ATOM     16  C   UNL     1       0.846  -0.235   0.414  1.00  0.00     0.333 C 
ATOM     17  H   UNL     1       1.067  -2.164   0.410  1.00  0.00     0.348 HD
BRANCH  15  18
ATOM     18  C   UNL     1      -0.634  -2.047  -0.401  1.00  0.00     0.278 C 
BRANCH  18  19
ATOM     19  C   UNL     1      -1.525  -1.573  -1.545  1.00  0.00     0.197 C 
BRANCH  19  20
ATOM     20  S   UNL     1      -1.846  -2.848  -2.771  1.00  0.00     0.152 S 
ATOM     21  C   UNL     1      -3.103  -3.860  -2.049  1.00  0.00     0.158 C 
ATOM     22  O   UNL     1      -2.455  -2.201  -3.923  1.00  0.00    -0.229 OA
ATOM     23  O   UNL     1      -0.700  -3.716  -2.920  1.00  0.00    -0.229 OA
ENDBRANCH  19  20
ENDBRANCH  18  19
ENDBRANCH  15  18
ENDBRANCH  14  15
ENDBRANCH   6  14
ENDBRANCH   1   5
BRANCH   3  24
ATOM     24  C   UNL     1       0.423   2.975  -3.285  1.00  0.00     0.118 C 
BRANCH  24  25
ATOM     25  C   UNL     1      -0.577   4.011  -2.832  1.00  0.00     0.042 C 
BRANCH  25  26
ATOM     26  C   UNL     1       0.017   5.189  -2.091  1.00  0.00     0.118 C 
BRANCH  26  27
ATOM     27  N   UNL     1       1.071   5.885  -2.820  1.00  0.00    -0.352 N 
ATOM     28  C   UNL     1       1.101   7.135  -3.394  1.00  0.00     0.251 C 
ATOM     29  H   UNL     1       1.906   5.372  -2.919  1.00  0.00     0.163 HD
ATOM     30  O   UNL     1       2.067   7.477  -4.069  1.00  0.00    -0.269 OA
BRANCH  28  31
ATOM     31  C   UNL     1      -0.051   8.048  -3.242  1.00  0.00     0.039 A 
ATOM     32  C   UNL     1      -0.481   8.796  -4.340  1.00  0.00     0.014 A 
ATOM     33  C   UNL     1      -0.734   8.134  -2.032  1.00  0.00     0.014 A 
ATOM     34  C   UNL     1      -1.657   9.543  -4.246  1.00  0.00     0.010 A 
ATOM     35  C   UNL     1      -1.979   8.741  -1.989  1.00  0.00     0.010 A 
ATOM     36  C   UNL     1      -2.447   9.473  -3.087  1.00  0.00    -0.014 A 
BRANCH  36  37
ATOM     37  C   UNL     1      -3.750  10.175  -2.982  1.00  0.00     0.031 A 
ATOM     38  C   UNL     1      -3.977  11.172  -1.878  1.00  0.00     0.074 A 
ATOM     39  C   UNL     1      -4.756   9.850  -3.817  1.00  0.00     0.049 A 
ATOM     40  N   UNL     1      -5.065  11.825  -1.559  1.00  0.00    -0.248 NA
ATOM     41  C   UNL     1      -2.840  11.434  -0.980  1.00  0.00     0.031 C 
ATOM     42  C   UNL     1      -4.685   8.843  -4.877  1.00  0.00     0.029 A 
ATOM     43  N   UNL     1      -6.041  10.326  -3.897  1.00  0.00    -0.354 N 
ATOM     44  C   UNL     1      -4.749  12.546  -0.415  1.00  0.00     0.074 A 
ATOM     45  C   UNL     1      -3.398  12.187  -0.047  1.00  0.00     0.031 C 
ATOM     46  C   UNL     1      -5.861   8.800  -5.522  1.00  0.00     0.029 A 
ATOM     47  C   UNL     1      -6.783   9.741  -4.893  1.00  0.00     0.049 A 
ATOM     48  H   UNL     1      -6.397  11.020  -3.297  1.00  0.00     0.167 HD
ATOM     49  C   UNL     1      -5.503  13.451   0.251  1.00  0.00     0.037 A 
ATOM     50  C   UNL     1      -8.065   9.935  -5.254  1.00  0.00     0.037 A 
ATOM     51  C   UNL     1      -6.835  13.824  -0.142  1.00  0.00     0.049 A 
ATOM     52  C   UNL     1      -8.883  10.958  -4.515  1.00  0.00     0.074 A 
ATOM     53  C   UNL     1      -7.658  14.791   0.406  1.00  0.00     0.029 A 
ATOM     54  N   UNL     1      -7.544  13.234  -1.180  1.00  0.00    -0.354 N 
ATOM     55  N   UNL     1      -8.545  11.705  -3.492  1.00  0.00    -0.248 NA
ATOM     56  C   UNL     1     -10.258  11.172  -4.987  1.00  0.00     0.031 C 
ATOM     57  C   UNL     1      -8.890  14.739  -0.256  1.00  0.00     0.029 A 
ATOM     58  C   UNL     1      -8.810  13.790  -1.264  1.00  0.00     0.049 A 
ATOM     59  H   UNL     1      -7.198  12.525  -1.768  1.00  0.00     0.167 HD
ATOM     60  C   UNL     1      -9.652  12.493  -3.209  1.00  0.00     0.074 A 
ATOM     61  C   UNL     1     -10.668  12.143  -4.182  1.00  0.00     0.031 C 
ATOM     62  C   UNL     1      -9.813  13.423  -2.235  1.00  0.00     0.037 A 
BRANCH  49  63
ATOM     63  C   UNL     1      -4.900  14.085   1.475  1.00  0.00     0.064 A 
ATOM     64  C   UNL     1      -3.775  14.924   1.403  1.00  0.00     0.173 A 
ATOM     65  C   UNL     1      -5.447  13.838   2.743  1.00  0.00     0.173 A 
ATOM     66  F   UNL     1      -3.203  15.187   0.218  1.00  0.00    -0.203 F 
ATOM     67  C   UNL     1      -3.189  15.443   2.555  1.00  0.00     0.198 A 
ATOM     68  C   UNL     1      -4.883  14.393   3.890  1.00  0.00     0.198 A 
ATOM     69  F   UNL     1      -6.524  13.050   2.875  1.00  0.00    -0.203 F 
ATOM     70  F   UNL     1      -2.067  16.170   2.464  1.00  0.00    -0.200 F 
ATOM     71  C   UNL     1      -3.746  15.181   3.797  1.00  0.00     0.200 A 
ATOM     72  F   UNL     1      -5.433  14.152   5.088  1.00  0.00    -0.200 F 
ATOM     73  F   UNL     1      -3.179  15.676   4.905  1.00  0.00    -0.200 F 
ENDBRANCH  49  63
BRANCH  50  74
ATOM     74  C   UNL     1      -8.631   9.161  -6.390  1.00  0.00     0.064 A 
ATOM     75  C   UNL     1      -8.917   9.778  -7.615  1.00  0.00     0.173 A 
ATOM     76  C   UNL     1      -8.854   7.779  -6.288  1.00  0.00     0.173 A 
ATOM     77  F   UNL     1      -8.737  11.100  -7.757  1.00  0.00    -0.203 F 
ATOM     78  C   UNL     1      -9.412   9.046  -8.692  1.00  0.00     0.198 A 
ATOM     79  C   UNL     1      -9.321   7.043  -7.375  1.00  0.00     0.198 A 
ATOM     80  F   UNL     1      -8.587   7.139  -5.140  1.00  0.00    -0.203 F 
ATOM     81  F   UNL     1      -9.706   9.666  -9.843  1.00  0.00    -0.200 F 
ATOM     82  C   UNL     1      -9.604   7.677  -8.575  1.00  0.00     0.200 A 
ATOM     83  F   UNL     1      -9.486   5.718  -7.262  1.00  0.00    -0.200 F 
ATOM     84  F   UNL     1     -10.062   6.970  -9.617  1.00  0.00    -0.200 F 
ENDBRANCH  50  74
BRANCH  62  85
ATOM     85  C   UNL     1     -11.127  14.148  -2.184  1.00  0.00     0.064 A 
ATOM     86  C   UNL     1     -12.311  13.507  -1.789  1.00  0.00     0.173 A 
ATOM     87  C   UNL     1     -11.193  15.517  -2.489  1.00  0.00     0.173 A 
ATOM     88  F   UNL     1     -12.305  12.197  -1.499  1.00  0.00    -0.203 F 
ATOM     89  C   UNL     1     -13.516  14.203  -1.729  1.00  0.00     0.198 A 
ATOM     90  C   UNL     1     -12.392  16.217  -2.393  1.00  0.00     0.198 A 
ATOM     91  F   UNL     1     -10.089  16.180  -2.864  1.00  0.00    -0.203 F 
ATOM     92  F   UNL     1     -14.643  13.558  -1.400  1.00  0.00    -0.200 F 
ATOM     93  C   UNL     1     -13.553  15.558  -2.022  1.00  0.00     0.200 A 
ATOM     94  F   UNL     1     -12.422  17.530  -2.658  1.00  0.00    -0.200 F 
ATOM     95  F   UNL     1     -14.712  16.228  -1.953  1.00  0.00    -0.200 F 
ENDBRANCH  62  85
ENDBRANCH  36  37
ENDBRANCH  28  31
ENDBRANCH  26  27
ENDBRANCH  25  26
ENDBRANCH  24  25
ENDBRANCH   3  24
TORSDOF 15
