REMARK SMILES CCC(CC)([NH2+]Cc1ccc(I)cc1)C(=O)NCCCNC(=O)c1ccc(-c2c3nc(c(-c4c(F)c(F)c(F)c(F)c4F)c4ccc([nH]4)c(-c4c(F)c(F)c(F)c(F)c4F)c4nc(c(-c5c(F)c(F)c(F)c(F)c5F)c5ccc2[nH]5)C=C4)C=C3)cc1
REMARK SMILES IDX 18 1 17 2 15 3 16 4 3 6 2 7 1 8 4 9 5 10 6 11 7 14 8 15 9 16
REMARK SMILES IDX 14 17 10 18 13 19 11 20 12 21 19 22 20 23 21 24 22 25 23 27
REMARK SMILES IDX 24 28 25 29 86 30 26 31 85 32 27 33 28 34 29 35 79 36 30 37
REMARK SMILES IDX 84 38 78 39 80 40 31 41 83 42 77 43 76 44 32 46 64 47 44 48
REMARK SMILES IDX 63 49 45 50 48 51 62 52 81 53 46 54 47 55 61 57 82 58 49 59
REMARK SMILES IDX 33 60 34 61 42 62 35 63 36 64 40 65 43 66 37 67 38 68 41 69
REMARK SMILES IDX 39 70 65 71 66 72 74 73 67 74 68 75 72 76 75 77 69 78 70 79
REMARK SMILES IDX 73 80 71 81 50 82 51 83 59 84 52 85 53 86 57 87 60 88 54 89
REMARK SMILES IDX 55 90 58 91 56 92
REMARK H PARENT 17 5 6 12 6 13 21 26 80 45 48 56
REMARK Flexibility Score: inf
ROOT
ATOM      1  C   UNL     1       3.046   3.996   1.907  1.00  0.00     0.118 C 
ENDROOT
BRANCH   1   2
ATOM      2  N   UNL     1       3.184   2.555   1.902  1.00  0.00    -0.351 N 
ATOM      3  C   UNL     1       2.282   1.555   2.093  1.00  0.00     0.281 C 
ATOM      4  O   UNL     1       2.783   0.538   2.595  1.00  0.00    -0.268 OA
ATOM      5  H   UNL     1       4.101   2.241   1.728  1.00  0.00     0.163 HD
BRANCH   3   6
ATOM      6  C   UNL     1       0.762   1.606   1.659  1.00  0.00     0.175 C 
BRANCH   6   7
ATOM      7  C   UNL     1       0.354   0.083   1.485  1.00  0.00     0.076 C 
ATOM      8  C   UNL     1       1.030  -0.668   0.335  1.00  0.00     0.011 C 
ENDBRANCH   6   7
BRANCH   6   9
ATOM      9  C   UNL     1       0.538   2.334   0.307  1.00  0.00     0.076 C 
ATOM     10  C   UNL     1      -0.825   2.107  -0.358  1.00  0.00     0.011 C 
ENDBRANCH   6   9
BRANCH   6  11
ATOM     11  N   UNL     1      -0.153   2.041   2.755  1.00  0.00    -0.330 N 
ATOM     12  H   UNL     1      -0.097   1.309   3.463  1.00  0.00     0.347 HD
ATOM     13  H   UNL     1      -1.010   2.208   2.227  1.00  0.00     0.347 HD
BRANCH  11  14
ATOM     14  C   UNL     1      -0.040   3.297   3.483  1.00  0.00     0.298 C 
BRANCH  14  15
ATOM     15  C   UNL     1      -0.382   4.584   2.759  1.00  0.00     0.006 A 
ATOM     16  C   UNL     1       0.272   5.771   3.126  1.00  0.00     0.010 A 
ATOM     17  C   UNL     1      -1.331   4.663   1.737  1.00  0.00     0.010 A 
ATOM     18  C   UNL     1       0.172   6.925   2.343  1.00  0.00     0.015 A 
ATOM     19  C   UNL     1      -1.437   5.810   0.942  1.00  0.00     0.015 A 
ATOM     20  C   UNL     1      -0.649   6.922   1.221  1.00  0.00     0.013 A 
ATOM     21  I   UNL     1      -0.683   8.566  -0.045  1.00  0.00    -0.044 I 
ENDBRANCH  14  15
ENDBRANCH  11  14
ENDBRANCH   6  11
ENDBRANCH   3   6
ENDBRANCH   1   2
BRANCH   1  22
ATOM     22  C   UNL     1       3.421   4.551   3.283  1.00  0.00     0.042 C 
BRANCH  22  23
ATOM     23  C   UNL     1       4.920   4.656   3.524  1.00  0.00     0.118 C 
BRANCH  23  24
ATOM     24  N   UNL     1       5.465   5.866   2.927  1.00  0.00    -0.352 N 
ATOM     25  C   UNL     1       5.815   7.071   3.487  1.00  0.00     0.251 C 
ATOM     26  H   UNL     1       5.607   5.812   1.954  1.00  0.00     0.163 HD
ATOM     27  O   UNL     1       5.972   8.039   2.748  1.00  0.00    -0.269 OA
BRANCH  25  28
ATOM     28  C   UNL     1       6.004   7.240   4.951  1.00  0.00     0.039 A 
ATOM     29  C   UNL     1       5.732   8.492   5.520  1.00  0.00     0.014 A 
ATOM     30  C   UNL     1       6.532   6.231   5.758  1.00  0.00     0.014 A 
ATOM     31  C   UNL     1       5.954   8.714   6.884  1.00  0.00     0.010 A 
ATOM     32  C   UNL     1       6.662   6.421   7.134  1.00  0.00     0.010 A 
ATOM     33  C   UNL     1       6.400   7.672   7.711  1.00  0.00    -0.014 A 
BRANCH  33  34
ATOM     34  C   UNL     1       6.644   7.881   9.164  1.00  0.00     0.031 A 
ATOM     35  C   UNL     1       8.028   7.699   9.732  1.00  0.00     0.074 A 
ATOM     36  C   UNL     1       5.618   8.175   9.985  1.00  0.00     0.049 A 
ATOM     37  N   UNL     1       8.428   7.745  10.979  1.00  0.00    -0.248 NA
ATOM     38  C   UNL     1       9.102   7.395   8.774  1.00  0.00     0.031 C 
ATOM     39  C   UNL     1       4.223   8.335   9.572  1.00  0.00     0.029 A 
ATOM     40  N   UNL     1       5.588   8.382  11.342  1.00  0.00    -0.354 N 
ATOM     41  C   UNL     1       9.785   7.446  10.955  1.00  0.00     0.074 A 
ATOM     42  C   UNL     1      10.132   7.173   9.577  1.00  0.00     0.031 C 
ATOM     43  C   UNL     1       3.478   8.637  10.647  1.00  0.00     0.029 A 
ATOM     44  C   UNL     1       4.333   8.656  11.830  1.00  0.00     0.049 A 
ATOM     45  H   UNL     1       6.389   8.339  11.912  1.00  0.00     0.167 HD
ATOM     46  C   UNL     1      10.668   7.423  11.982  1.00  0.00     0.037 A 
ATOM     47  C   UNL     1       3.919   8.892  13.089  1.00  0.00     0.037 A 
ATOM     48  C   UNL     1      10.334   7.741  13.345  1.00  0.00     0.049 A 
ATOM     49  C   UNL     1       4.923   8.887  14.209  1.00  0.00     0.074 A 
ATOM     50  C   UNL     1      11.169   7.811  14.446  1.00  0.00     0.029 A 
ATOM     51  N   UNL     1       9.057   8.050  13.792  1.00  0.00    -0.354 N 
ATOM     52  N   UNL     1       6.213   8.658  14.164  1.00  0.00    -0.248 NA
ATOM     53  C   UNL     1       4.415   9.184  15.556  1.00  0.00     0.031 C 
ATOM     54  C   UNL     1      10.393   8.129  15.566  1.00  0.00     0.029 A 
ATOM     55  C   UNL     1       9.081   8.299  15.155  1.00  0.00     0.049 A 
ATOM     56  H   UNL     1       8.254   8.086  13.225  1.00  0.00     0.167 HD
ATOM     57  C   UNL     1       6.674   8.807  15.464  1.00  0.00     0.074 A 
ATOM     58  C   UNL     1       5.528   9.163  16.275  1.00  0.00     0.031 C 
ATOM     59  C   UNL     1       7.933   8.662  15.944  1.00  0.00     0.037 A 
BRANCH  46  60
ATOM     60  C   UNL     1      12.089   7.050  11.669  1.00  0.00     0.064 A 
ATOM     61  C   UNL     1      12.931   7.904  10.940  1.00  0.00     0.173 A 
ATOM     62  C   UNL     1      12.626   5.839  12.130  1.00  0.00     0.173 A 
ATOM     63  F   UNL     1      12.464   9.069  10.466  1.00  0.00    -0.203 F 
ATOM     64  C   UNL     1      14.246   7.545  10.657  1.00  0.00     0.198 A 
ATOM     65  C   UNL     1      13.951   5.496  11.871  1.00  0.00     0.198 A 
ATOM     66  F   UNL     1      11.867   4.988  12.838  1.00  0.00    -0.203 F 
ATOM     67  F   UNL     1      15.015   8.354   9.914  1.00  0.00    -0.200 F 
ATOM     68  C   UNL     1      14.757   6.345  11.128  1.00  0.00     0.200 A 
ATOM     69  F   UNL     1      14.447   4.342  12.338  1.00  0.00    -0.200 F 
ATOM     70  F   UNL     1      16.025   6.003  10.859  1.00  0.00    -0.200 F 
ENDBRANCH  46  60
BRANCH  47  71
ATOM     71  C   UNL     1       2.486   9.185  13.355  1.00  0.00     0.064 A 
ATOM     72  C   UNL     1       2.075  10.473  13.725  1.00  0.00     0.173 A 
ATOM     73  C   UNL     1       1.503   8.192  13.245  1.00  0.00     0.173 A 
ATOM     74  F   UNL     1       2.982  11.451  13.864  1.00  0.00    -0.203 F 
ATOM     75  C   UNL     1       0.737  10.752  13.994  1.00  0.00     0.198 A 
ATOM     76  C   UNL     1       0.161   8.478  13.488  1.00  0.00     0.198 A 
ATOM     77  F   UNL     1       1.845   6.945  12.889  1.00  0.00    -0.203 F 
ATOM     78  F   UNL     1       0.377  11.981  14.387  1.00  0.00    -0.200 F 
ATOM     79  C   UNL     1      -0.220   9.756  13.869  1.00  0.00     0.200 A 
ATOM     80  F   UNL     1      -0.762   7.517  13.353  1.00  0.00    -0.200 F 
ATOM     81  F   UNL     1      -1.508  10.026  14.123  1.00  0.00    -0.200 F 
ENDBRANCH  47  71
BRANCH  59  82
ATOM     82  C   UNL     1       8.144   8.924  17.407  1.00  0.00     0.064 A 
ATOM     83  C   UNL     1       7.694   8.028  18.387  1.00  0.00     0.173 A 
ATOM     84  C   UNL     1       8.836  10.069  17.829  1.00  0.00     0.173 A 
ATOM     85  F   UNL     1       7.014   6.927  18.034  1.00  0.00    -0.203 F 
ATOM     86  C   UNL     1       7.906   8.283  19.739  1.00  0.00     0.198 A 
ATOM     87  C   UNL     1       9.071  10.306  19.180  1.00  0.00     0.198 A 
ATOM     88  F   UNL     1       9.293  10.954  16.930  1.00  0.00    -0.203 F 
ATOM     89  F   UNL     1       7.425   7.437  20.661  1.00  0.00    -0.200 F 
ATOM     90  C   UNL     1       8.599   9.418  20.134  1.00  0.00     0.200 A 
ATOM     91  F   UNL     1       9.751  11.397  19.559  1.00  0.00    -0.200 F 
ATOM     92  F   UNL     1       8.806   9.658  21.436  1.00  0.00    -0.200 F 
ENDBRANCH  59  82
ENDBRANCH  33  34
ENDBRANCH  25  28
ENDBRANCH  23  24
ENDBRANCH  22  23
ENDBRANCH   1  22
TORSDOF 15
