REMARK SMILES CCN1C(NCCCNC(=O)c2ccc(-c3c4nc(c(-c5c(F)c(F)c(F)c(F)c5F)c5ccc([nH]5)c(-c5c(F)c(F)c(F)c(F)c5F)c5nc(c(-c6c(F)c(F)c(F)c(F)c6F)c6ccc3[nH]6)C=C5)C=C4)cc2)=[NH+]C(O)=C2C1=[NH+]C1=C(C(=O)c3ccccc31)[C@H]2c1ccc(C(=O)[O-])cc1
REMARK SMILES IDX 7 1 6 2 5 3 3 4 4 5 79 6 75 7 78 8 80 9 76 11 91 13 81 14
REMARK SMILES IDX 82 16 90 17 83 18 85 19 89 20 84 21 86 22 88 23 87 24 2 25
REMARK SMILES IDX 1 26 77 27 92 29 93 30 100 31 94 32 99 33 95 34 96 35 97 36
REMARK SMILES IDX 98 37 8 38 9 39 10 40 11 42 12 43 13 44 74 45 14 46 73 47
REMARK SMILES IDX 15 48 16 49 17 50 67 51 18 52 72 53 66 54 68 55 19 56 71 57
REMARK SMILES IDX 65 58 64 59 20 61 52 62 32 63 51 64 33 65 36 66 50 67 69 68
REMARK SMILES IDX 34 69 35 70 49 72 70 73 37 74 21 75 22 76 30 77 23 78 24 79
REMARK SMILES IDX 28 80 31 81 25 82 26 83 29 84 27 85 53 86 54 87 62 88 55 89
REMARK SMILES IDX 56 90 60 91 63 92 57 93 58 94 61 95 59 96 38 97 39 98 47 99
REMARK SMILES IDX 40 100 41 101 45 102 48 103 42 104 43 105 46 106 44 107
REMARK H PARENT 5 10 75 12 80 15 77 28 9 41 68 60 36 71
REMARK Flexibility Score: inf
ROOT
ATOM      1  C   UNL     1       6.085   1.028  -1.806  1.00  0.00     0.059 C 
ENDROOT
BRANCH   1   2
ATOM      2  C   UNL     1       5.368  -0.199  -1.273  1.00  0.00     0.199 C 
BRANCH   2   3
ATOM      3  N   UNL     1       4.070  -0.257  -1.912  1.00  0.00    -0.270 N 
ATOM      4  N   UNL     1       3.636  -2.406  -2.660  1.00  0.00    -0.171 N 
ATOM      5  C   UNL     1       3.917  -1.084  -2.969  1.00  0.00     0.389 C 
ATOM      6  C   UNL     1       3.837  -3.223  -3.788  1.00  0.00     0.295 C 
ATOM      7  N   UNL     1       4.045  -0.644  -4.195  1.00  0.00    -0.207 N 
ATOM      8  C   UNL     1       3.005  -2.677  -4.923  1.00  0.00     0.130 C 
ATOM      9  N   UNL     1       4.705  -4.199  -4.030  1.00  0.00    -0.239 N 
ATOM     10  H   UNL     1       3.320   0.291  -1.585  1.00  0.00     0.260 HD
ATOM     11  C   UNL     1       3.720  -1.564  -5.180  1.00  0.00     0.265 C 
ATOM     12  H   UNL     1       4.348   0.270  -4.402  1.00  0.00     0.271 HD
ATOM     13  C   UNL     1       2.355  -3.826  -5.610  1.00  0.00     0.103 C 
ATOM     14  C   UNL     1       4.577  -4.821  -5.291  1.00  0.00     0.141 C 
ATOM     15  H   UNL     1       5.389  -4.470  -3.376  1.00  0.00     0.312 HD
ATOM     16  C   UNL     1       3.437  -4.721  -6.001  1.00  0.00     0.060 C 
ATOM     17  C   UNL     1       5.322  -5.935  -5.907  1.00  0.00     0.033 A 
ATOM     18  C   UNL     1       3.263  -5.814  -6.942  1.00  0.00     0.195 C 
ATOM     19  C   UNL     1       4.478  -6.586  -6.822  1.00  0.00     0.034 A 
ATOM     20  C   UNL     1       6.627  -6.382  -5.841  1.00  0.00     0.013 A 
ATOM     21  O   UNL     1       2.298  -6.042  -7.627  1.00  0.00    -0.289 OA
ATOM     22  C   UNL     1       4.784  -7.710  -7.562  1.00  0.00     0.013 A 
ATOM     23  C   UNL     1       7.008  -7.482  -6.648  1.00  0.00     0.001 A 
ATOM     24  C   UNL     1       6.086  -8.163  -7.470  1.00  0.00     0.001 A 
BRANCH   4  25
ATOM     25  C   UNL     1       2.297  -2.604  -2.004  1.00  0.00     0.246 C 
ATOM     26  C   UNL     1       1.967  -1.776  -0.770  1.00  0.00     0.055 C 
ENDBRANCH   4  25
BRANCH  11  27
ATOM     27  O   UNL     1       4.483  -1.480  -6.316  1.00  0.00    -0.483 OA
ATOM     28  H   UNL     1       4.979  -0.704  -6.492  1.00  0.00     0.296 HD
ENDBRANCH  11  27
BRANCH  13  29
ATOM     29  C   UNL     1       1.389  -4.556  -4.627  1.00  0.00    -0.035 A 
ATOM     30  C   UNL     1       1.842  -5.607  -3.784  1.00  0.00     0.005 A 
ATOM     31  C   UNL     1       0.083  -4.095  -4.438  1.00  0.00     0.005 A 
ATOM     32  C   UNL     1       1.052  -6.149  -2.779  1.00  0.00     0.010 A 
ATOM     33  C   UNL     1      -0.726  -4.656  -3.435  1.00  0.00     0.010 A 
ATOM     34  C   UNL     1      -0.240  -5.676  -2.603  1.00  0.00    -0.003 A 
BRANCH  34  35
ATOM     35  C   UNL     1      -1.031  -6.287  -1.514  1.00  0.00     0.071 C 
ATOM     36  O   UNL     1      -0.616  -7.080  -0.689  1.00  0.00    -0.545 OA
ATOM     37  O   UNL     1      -2.313  -5.892  -1.521  1.00  0.00    -0.545 OA
ENDBRANCH  34  35
ENDBRANCH  13  29
ENDBRANCH   2   3
ENDBRANCH   1   2
BRANCH   1  38
ATOM     38  C   UNL     1       5.487   2.282  -1.191  1.00  0.00     0.119 C 
BRANCH  38  39
ATOM     39  N   UNL     1       5.895   2.413   0.204  1.00  0.00    -0.352 N 
ATOM     40  C   UNL     1       6.928   3.175   0.696  1.00  0.00     0.251 C 
ATOM     41  H   UNL     1       5.373   1.902   0.864  1.00  0.00     0.163 HD
ATOM     42  O   UNL     1       7.431   2.949   1.787  1.00  0.00    -0.269 OA
BRANCH  40  43
ATOM     43  C   UNL     1       7.415   4.261  -0.167  1.00  0.00     0.039 A 
ATOM     44  C   UNL     1       6.468   5.085  -0.781  1.00  0.00     0.014 A 
ATOM     45  C   UNL     1       8.767   4.341  -0.494  1.00  0.00     0.014 A 
ATOM     46  C   UNL     1       6.840   5.821  -1.888  1.00  0.00     0.010 A 
ATOM     47  C   UNL     1       9.158   5.204  -1.516  1.00  0.00     0.010 A 
ATOM     48  C   UNL     1       8.190   5.906  -2.257  1.00  0.00    -0.014 A 
BRANCH  48  49
ATOM     49  C   UNL     1       8.576   6.748  -3.412  1.00  0.00     0.031 A 
ATOM     50  C   UNL     1       9.296   6.158  -4.589  1.00  0.00     0.074 A 
ATOM     51  C   UNL     1       8.261   8.056  -3.388  1.00  0.00     0.049 A 
ATOM     52  N   UNL     1       9.839   6.765  -5.613  1.00  0.00    -0.248 NA
ATOM     53  C   UNL     1       9.440   4.694  -4.616  1.00  0.00     0.031 C 
ATOM     54  C   UNL     1       7.525   8.727  -2.313  1.00  0.00     0.029 A 
ATOM     55  N   UNL     1       8.516   9.055  -4.289  1.00  0.00    -0.354 N 
ATOM     56  C   UNL     1      10.426   5.768  -6.380  1.00  0.00     0.074 A 
ATOM     57  C   UNL     1      10.186   4.514  -5.697  1.00  0.00     0.031 C 
ATOM     58  C   UNL     1       7.361  10.016  -2.630  1.00  0.00     0.029 A 
ATOM     59  C   UNL     1       8.071  10.283  -3.873  1.00  0.00     0.049 A 
ATOM     60  H   UNL     1       8.973   8.906  -5.148  1.00  0.00     0.167 HD
ATOM     61  C   UNL     1      11.104   5.898  -7.546  1.00  0.00     0.037 A 
ATOM     62  C   UNL     1       8.260  11.505  -4.399  1.00  0.00     0.037 A 
ATOM     63  C   UNL     1      11.304   7.156  -8.222  1.00  0.00     0.049 A 
ATOM     64  C   UNL     1       9.057  11.627  -5.661  1.00  0.00     0.074 A 
ATOM     65  C   UNL     1      11.942   7.396  -9.426  1.00  0.00     0.029 A 
ATOM     66  N   UNL     1      10.871   8.389  -7.748  1.00  0.00    -0.354 N 
ATOM     67  N   UNL     1       9.623  10.685  -6.375  1.00  0.00    -0.248 NA
ATOM     68  C   UNL     1       9.245  12.982  -6.187  1.00  0.00     0.031 C 
ATOM     69  C   UNL     1      11.956   8.778  -9.646  1.00  0.00     0.029 A 
ATOM     70  C   UNL     1      11.263   9.397  -8.617  1.00  0.00     0.049 A 
ATOM     71  H   UNL     1      10.361   8.526  -6.918  1.00  0.00     0.167 HD
ATOM     72  C   UNL     1      10.234  11.329  -7.439  1.00  0.00     0.074 A 
ATOM     73  C   UNL     1       9.935  12.741  -7.293  1.00  0.00     0.031 C 
ATOM     74  C   UNL     1      10.980  10.801  -8.441  1.00  0.00     0.037 A 
BRANCH  61  75
ATOM     75  C   UNL     1      11.715   4.662  -8.147  1.00  0.00     0.064 A 
ATOM     76  C   UNL     1      10.938   3.629  -8.691  1.00  0.00     0.173 A 
ATOM     77  C   UNL     1      13.112   4.531  -8.216  1.00  0.00     0.173 A 
ATOM     78  F   UNL     1       9.599   3.692  -8.640  1.00  0.00    -0.203 F 
ATOM     79  C   UNL     1      11.534   2.503  -9.257  1.00  0.00     0.198 A 
ATOM     80  C   UNL     1      13.704   3.421  -8.814  1.00  0.00     0.198 A 
ATOM     81  F   UNL     1      13.907   5.489  -7.714  1.00  0.00    -0.203 F 
ATOM     82  F   UNL     1      10.769   1.506  -9.724  1.00  0.00    -0.200 F 
ATOM     83  C   UNL     1      12.915   2.404  -9.327  1.00  0.00     0.200 A 
ATOM     84  F   UNL     1      15.040   3.337  -8.893  1.00  0.00    -0.200 F 
ATOM     85  F   UNL     1      13.486   1.326  -9.882  1.00  0.00    -0.200 F 
ENDBRANCH  61  75
BRANCH  62  86
ATOM     86  C   UNL     1       7.695  12.684  -3.698  1.00  0.00     0.064 A 
ATOM     87  C   UNL     1       6.610  13.384  -4.236  1.00  0.00     0.173 A 
ATOM     88  C   UNL     1       8.168  13.075  -2.435  1.00  0.00     0.173 A 
ATOM     89  F   UNL     1       6.133  13.055  -5.445  1.00  0.00    -0.203 F 
ATOM     90  C   UNL     1       6.013  14.429  -3.534  1.00  0.00     0.198 A 
ATOM     91  C   UNL     1       7.549  14.096  -1.720  1.00  0.00     0.198 A 
ATOM     92  F   UNL     1       9.197  12.425  -1.871  1.00  0.00    -0.203 F 
ATOM     93  F   UNL     1       4.985  15.095  -4.077  1.00  0.00    -0.200 F 
ATOM     94  C   UNL     1       6.473  14.774  -2.271  1.00  0.00     0.200 A 
ATOM     95  F   UNL     1       7.979  14.406  -0.489  1.00  0.00    -0.200 F 
ATOM     96  F   UNL     1       5.876  15.756  -1.584  1.00  0.00    -0.200 F 
ENDBRANCH  62  86
BRANCH  74  97
ATOM     97  C   UNL     1      11.527  11.764  -9.457  1.00  0.00     0.064 A 
ATOM     98  C   UNL     1      12.523  12.694  -9.124  1.00  0.00     0.173 A 
ATOM     99  C   UNL     1      11.061  11.748 -10.781  1.00  0.00     0.173 A 
ATOM    100  F   UNL     1      12.992  12.762  -7.869  1.00  0.00    -0.203 F 
ATOM    101  C   UNL     1      13.004  13.598 -10.068  1.00  0.00     0.198 A 
ATOM    102  C   UNL     1      11.573  12.626 -11.732  1.00  0.00     0.198 A 
ATOM    103  F   UNL     1      10.115  10.874 -11.156  1.00  0.00    -0.203 F 
ATOM    104  F   UNL     1      13.905  14.522  -9.708  1.00  0.00    -0.200 F 
ATOM    105  C   UNL     1      12.534  13.559 -11.371  1.00  0.00     0.200 A 
ATOM    106  F   UNL     1      11.132  12.574 -12.996  1.00  0.00    -0.200 F 
ATOM    107  F   UNL     1      13.000  14.427 -12.279  1.00  0.00    -0.200 F 
ENDBRANCH  74  97
ENDBRANCH  48  49
ENDBRANCH  40  43
ENDBRANCH  38  39
ENDBRANCH   1  38
TORSDOF 13
