REMARK SMILES C[C@@](COc1ccccc1)(NC(=O)CN1CSCC1=O)C(=O)NCCCNC(=O)c1ccc(-c2c3nc(c(-c4c(F)c(F)c(F)c(F)c4F)c4ccc([nH]4)c(-c4c(F)c(F)c(F)c(F)c4F)c4nc(c(-c5c(F)c(F)c(F)c(F)c5F)c5ccc2[nH]5)C=C4)C=C3)cc1
REMARK SMILES IDX 24 1 23 2 21 3 22 4 2 6 1 7 3 8 4 9 5 10 6 11 10 12 7 13
REMARK SMILES IDX 9 14 8 15 11 16 12 17 13 19 14 20 15 21 16 22 19 23 17 24
REMARK SMILES IDX 18 25 20 26 25 27 26 28 27 29 28 30 29 32 30 33 31 34 92 35
REMARK SMILES IDX 32 36 91 37 33 38 34 39 35 40 85 41 36 42 90 43 84 44 86 45
REMARK SMILES IDX 37 46 89 47 83 48 82 49 38 51 70 52 50 53 69 54 51 55 54 56
REMARK SMILES IDX 68 57 87 58 52 59 53 60 67 62 88 63 55 64 39 65 40 66 48 67
REMARK SMILES IDX 41 68 42 69 46 70 49 71 43 72 44 73 47 74 45 75 71 76 72 77
REMARK SMILES IDX 80 78 73 79 74 80 78 81 81 82 75 83 76 84 79 85 77 86 56 87
REMARK SMILES IDX 57 88 65 89 58 90 59 91 63 92 66 93 60 94 61 95 64 96 62 97
REMARK H PARENT 23 5 11 18 27 31 86 50 54 61
REMARK Flexibility Score: inf
ROOT
ATOM      1  C   UNL     1      -0.136   3.914   2.592  1.00  0.00     0.117 C 
ENDROOT
BRANCH   1   2
ATOM      2  N   UNL     1       0.932   2.972   2.881  1.00  0.00    -0.354 N 
ATOM      3  C   UNL     1       1.416   1.901   2.193  1.00  0.00     0.249 C 
ATOM      4  O   UNL     1       2.554   1.525   2.497  1.00  0.00    -0.272 OA
ATOM      5  H   UNL     1       1.392   3.140   3.735  1.00  0.00     0.163 HD
BRANCH   3   6
ATOM      6  C   UNL     1       0.682   1.287   0.978  1.00  0.00     0.150 C 
ATOM      7  C   UNL     1       1.252  -0.118   0.685  1.00  0.00     0.049 C 
BRANCH   6   8
ATOM      8  C   UNL     1       1.018   2.222  -0.232  1.00  0.00     0.267 C 
BRANCH   8   9
ATOM      9  O   UNL     1       0.037   2.075  -1.284  1.00  0.00    -0.491 OA
BRANCH   9  10
ATOM     10  C   UNL     1       0.518   1.320  -2.316  1.00  0.00     0.119 A 
ATOM     11  C   UNL     1       1.367   1.878  -3.268  1.00  0.00     0.046 A 
ATOM     12  C   UNL     1       0.104  -0.005  -2.422  1.00  0.00     0.046 A 
ATOM     13  C   UNL     1       1.868   1.074  -4.292  1.00  0.00     0.004 A 
ATOM     14  C   UNL     1       0.628  -0.814  -3.427  1.00  0.00     0.004 A 
ATOM     15  C   UNL     1       1.515  -0.275  -4.359  1.00  0.00     0.000 A 
ENDBRANCH   9  10
ENDBRANCH   8   9
ENDBRANCH   6   8
BRANCH   6  16
ATOM     16  N   UNL     1      -0.796   1.211   1.119  1.00  0.00    -0.338 N 
ATOM     17  C   UNL     1      -1.619   0.550   1.973  1.00  0.00     0.240 C 
ATOM     18  H   UNL     1      -1.278   1.754   0.454  1.00  0.00     0.164 HD
ATOM     19  O   UNL     1      -2.793   0.398   1.618  1.00  0.00    -0.273 OA
BRANCH  17  20
ATOM     20  C   UNL     1      -1.196   0.146   3.385  1.00  0.00     0.220 C 
BRANCH  20  21
ATOM     21  N   UNL     1      -0.183  -0.878   3.514  1.00  0.00    -0.323 N 
ATOM     22  C   UNL     1      -0.431  -2.198   3.000  1.00  0.00     0.190 C 
ATOM     23  C   UNL     1       0.918  -0.700   4.334  1.00  0.00     0.233 C 
ATOM     24  S   UNL     1       0.965  -3.227   3.469  1.00  0.00    -0.130 SA
ATOM     25  C   UNL     1       1.860  -1.879   4.281  1.00  0.00     0.171 C 
ATOM     26  O   UNL     1       1.121   0.305   5.001  1.00  0.00    -0.274 OA
ENDBRANCH  20  21
ENDBRANCH  17  20
ENDBRANCH   6  16
ENDBRANCH   3   6
ENDBRANCH   1   2
BRANCH   1  27
ATOM     27  C   UNL     1      -1.336   3.828   3.528  1.00  0.00     0.042 C 
BRANCH  27  28
ATOM     28  C   UNL     1      -1.002   3.707   5.010  1.00  0.00     0.118 C 
BRANCH  28  29
ATOM     29  N   UNL     1      -0.364   4.898   5.545  1.00  0.00    -0.352 N 
ATOM     30  C   UNL     1      -0.816   5.806   6.468  1.00  0.00     0.251 C 
ATOM     31  H   UNL     1       0.534   5.082   5.187  1.00  0.00     0.163 HD
ATOM     32  O   UNL     1      -0.184   6.842   6.658  1.00  0.00    -0.269 OA
BRANCH  30  33
ATOM     33  C   UNL     1      -2.070   5.569   7.217  1.00  0.00     0.039 A 
ATOM     34  C   UNL     1      -2.952   6.638   7.394  1.00  0.00     0.014 A 
ATOM     35  C   UNL     1      -2.365   4.324   7.781  1.00  0.00     0.014 A 
ATOM     36  C   UNL     1      -4.152   6.446   8.084  1.00  0.00     0.010 A 
ATOM     37  C   UNL     1      -3.596   4.114   8.400  1.00  0.00     0.010 A 
ATOM     38  C   UNL     1      -4.500   5.174   8.566  1.00  0.00    -0.014 A 
BRANCH  38  39
ATOM     39  C   UNL     1      -5.798   4.947   9.254  1.00  0.00     0.031 A 
ATOM     40  C   UNL     1      -5.832   4.540  10.701  1.00  0.00     0.074 A 
ATOM     41  C   UNL     1      -6.949   5.067   8.563  1.00  0.00     0.049 A 
ATOM     42  N   UNL     1      -6.863   4.261  11.460  1.00  0.00    -0.248 NA
ATOM     43  C   UNL     1      -4.535   4.405  11.380  1.00  0.00     0.031 C 
ATOM     44  C   UNL     1      -7.050   5.416   7.146  1.00  0.00     0.029 A 
ATOM     45  N   UNL     1      -8.253   4.902   8.959  1.00  0.00    -0.354 N 
ATOM     46  C   UNL     1      -6.338   3.907  12.696  1.00  0.00     0.074 A 
ATOM     47  C   UNL     1      -4.898   3.953  12.572  1.00  0.00     0.031 C 
ATOM     48  C   UNL     1      -8.346   5.465   6.797  1.00  0.00     0.029 A 
ATOM     49  C   UNL     1      -9.165   5.113   7.954  1.00  0.00     0.049 A 
ATOM     50  H   UNL     1      -8.511   4.655   9.877  1.00  0.00     0.167 HD
ATOM     51  C   UNL     1      -6.997   3.596  13.839  1.00  0.00     0.037 A 
ATOM     52  C   UNL     1     -10.509   5.028   7.961  1.00  0.00     0.037 A 
ATOM     53  C   UNL     1      -8.432   3.570  13.966  1.00  0.00     0.049 A 
ATOM     54  C   UNL     1     -11.217   4.664   9.238  1.00  0.00     0.074 A 
ATOM     55  C   UNL     1      -9.194   3.322  15.095  1.00  0.00     0.029 A 
ATOM     56  N   UNL     1      -9.322   3.793  12.925  1.00  0.00    -0.354 N 
ATOM     57  N   UNL     1     -10.712   4.400  10.418  1.00  0.00    -0.248 NA
ATOM     58  C   UNL     1     -12.684   4.594   9.184  1.00  0.00     0.031 C 
ATOM     59  C   UNL     1     -10.543   3.344  14.726  1.00  0.00     0.029 A 
ATOM     60  C   UNL     1     -10.625   3.663  13.381  1.00  0.00     0.049 A 
ATOM     61  H   UNL     1      -9.066   4.012  12.000  1.00  0.00     0.167 HD
ATOM     62  C   UNL     1     -11.796   4.162  11.253  1.00  0.00     0.074 A 
ATOM     63  C   UNL     1     -12.987   4.327  10.446  1.00  0.00     0.031 C 
ATOM     64  C   UNL     1     -11.803   3.836  12.569  1.00  0.00     0.037 A 
BRANCH  51  65
ATOM     65  C   UNL     1      -6.170   3.256  15.046  1.00  0.00     0.064 A 
ATOM     66  C   UNL     1      -5.398   4.224  15.708  1.00  0.00     0.173 A 
ATOM     67  C   UNL     1      -6.169   1.952  15.565  1.00  0.00     0.173 A 
ATOM     68  F   UNL     1      -5.356   5.484  15.248  1.00  0.00    -0.203 F 
ATOM     69  C   UNL     1      -4.631   3.892  16.822  1.00  0.00     0.198 A 
ATOM     70  C   UNL     1      -5.427   1.631  16.699  1.00  0.00     0.198 A 
ATOM     71  F   UNL     1      -6.895   0.989  14.977  1.00  0.00    -0.203 F 
ATOM     72  F   UNL     1      -3.860   4.821  17.403  1.00  0.00    -0.200 F 
ATOM     73  C   UNL     1      -4.651   2.598  17.320  1.00  0.00     0.200 A 
ATOM     74  F   UNL     1      -5.460   0.384  17.188  1.00  0.00    -0.200 F 
ATOM     75  F   UNL     1      -3.917   2.281  18.395  1.00  0.00    -0.200 F 
ENDBRANCH  51  65
BRANCH  52  76
ATOM     76  C   UNL     1     -11.275   5.318   6.721  1.00  0.00     0.064 A 
ATOM     77  C   UNL     1     -12.072   6.467   6.621  1.00  0.00     0.173 A 
ATOM     78  C   UNL     1     -11.228   4.459   5.614  1.00  0.00     0.173 A 
ATOM     79  F   UNL     1     -12.167   7.309   7.661  1.00  0.00    -0.203 F 
ATOM     80  C   UNL     1     -12.806   6.737   5.468  1.00  0.00     0.198 A 
ATOM     81  C   UNL     1     -11.939   4.744   4.450  1.00  0.00     0.198 A 
ATOM     82  F   UNL     1     -10.477   3.348   5.657  1.00  0.00    -0.203 F 
ATOM     83  F   UNL     1     -13.594   7.819   5.415  1.00  0.00    -0.200 F 
ATOM     84  C   UNL     1     -12.733   5.879   4.381  1.00  0.00     0.200 A 
ATOM     85  F   UNL     1     -11.855   3.920   3.397  1.00  0.00    -0.200 F 
ATOM     86  F   UNL     1     -13.434   6.141   3.269  1.00  0.00    -0.200 F 
ENDBRANCH  52  76
BRANCH  64  87
ATOM     87  C   UNL     1     -13.141   3.671  13.231  1.00  0.00     0.064 A 
ATOM     88  C   UNL     1     -13.972   2.575  12.956  1.00  0.00     0.173 A 
ATOM     89  C   UNL     1     -13.580   4.605  14.183  1.00  0.00     0.173 A 
ATOM     90  F   UNL     1     -13.605   1.662  12.044  1.00  0.00    -0.203 F 
ATOM     91  C   UNL     1     -15.204   2.434  13.589  1.00  0.00     0.198 A 
ATOM     92  C   UNL     1     -14.798   4.444  14.837  1.00  0.00     0.198 A 
ATOM     93  F   UNL     1     -12.821   5.669  14.488  1.00  0.00    -0.203 F 
ATOM     94  F   UNL     1     -16.003   1.406  13.274  1.00  0.00    -0.200 F 
ATOM     95  C   UNL     1     -15.613   3.364  14.534  1.00  0.00     0.200 A 
ATOM     96  F   UNL     1     -15.185   5.336  15.760  1.00  0.00    -0.200 F 
ATOM     97  F   UNL     1     -16.796   3.223  15.147  1.00  0.00    -0.200 F 
ENDBRANCH  64  87
ENDBRANCH  38  39
ENDBRANCH  30  33
ENDBRANCH  28  29
ENDBRANCH  27  28
ENDBRANCH   1  27
TORSDOF 16
