REMARK SMILES Cc1n[nH]c(C(=O)N[C@@H](CC(C)C)C(=O)NCCCNC(=O)c2ccc(-c3c4nc(c(-c5c(F)c(F)c(F)c(F)c5F)c5ccc([nH]5)c(-c5c(F)c(F)c(F)c(F)c5F)c5nc(c(-c6c(F)c(F)c(F)c(F)c6F)c6ccc3[nH]6)C=C5)C=C4)cc2)n1
REMARK SMILES IDX 18 1 17 2 16 3 14 4 15 5 9 7 8 8 6 9 7 10 5 12 1 13 2 14
REMARK SMILES IDX 3 15 86 16 4 17 10 19 11 20 12 21 13 22 19 23 20 24 21 25
REMARK SMILES IDX 22 27 23 28 24 29 85 30 25 31 84 32 26 33 27 34 28 35 78 36
REMARK SMILES IDX 29 37 83 38 77 39 79 40 30 41 82 42 76 43 75 44 31 46 63 47
REMARK SMILES IDX 43 48 62 49 44 50 47 51 61 52 80 53 45 54 46 55 60 57 81 58
REMARK SMILES IDX 48 59 32 60 33 61 41 62 34 63 35 64 39 65 42 66 36 67 37 68
REMARK SMILES IDX 40 69 38 70 64 71 65 72 73 73 66 74 67 75 71 76 74 77 68 78
REMARK SMILES IDX 69 79 72 80 70 81 49 82 50 83 58 84 51 85 52 86 56 87 59 88
REMARK SMILES IDX 53 89 54 90 57 91 55 92
REMARK H PARENT 16 6 8 11 4 18 20 26 79 45 47 56
REMARK Flexibility Score: inf
ROOT
ATOM      1  C   UNL     1       0.806   5.982  -7.412  1.00  0.00     0.042 C 
ENDROOT
BRANCH   1   2
ATOM      2  C   UNL     1      -0.059   4.738  -7.292  1.00  0.00     0.117 C 
BRANCH   2   3
ATOM      3  N   UNL     1       0.646   3.470  -7.235  1.00  0.00    -0.354 N 
ATOM      4  C   UNL     1       0.247   2.284  -6.682  1.00  0.00     0.242 C 
ATOM      5  O   UNL     1       0.804   1.255  -7.081  1.00  0.00    -0.273 OA
ATOM      6  H   UNL     1       1.538   3.463  -7.653  1.00  0.00     0.163 HD
BRANCH   4   7
ATOM      7  C   UNL     1      -0.882   2.179  -5.629  1.00  0.00     0.172 C 
BRANCH   7   8
ATOM      8  N   UNL     1      -0.628   3.111  -4.528  1.00  0.00    -0.338 N 
ATOM      9  C   UNL     1       0.028   3.006  -3.324  1.00  0.00     0.289 C 
ATOM     10  O   UNL     1       0.363   4.104  -2.863  1.00  0.00    -0.266 OA
ATOM     11  H   UNL     1      -1.010   4.005  -4.683  1.00  0.00     0.164 HD
BRANCH   9  12
ATOM     12  C   UNL     1       0.259   1.760  -2.612  1.00  0.00     0.214 A 
ATOM     13  C   UNL     1       1.180  -0.042   0.308  1.00  0.00     0.092 C 
ATOM     14  C   UNL     1       0.737   0.424  -1.021  1.00  0.00     0.148 A 
ATOM     15  N   UNL     1       0.238  -0.392  -1.950  1.00  0.00    -0.159 NA
ATOM     16  N   UNL     1       0.784   1.737  -1.394  1.00  0.00    -0.207 NA
ATOM     17  N   UNL     1      -0.043   0.470  -2.941  1.00  0.00    -0.255 N 
ATOM     18  H   UNL     1      -0.426   0.202  -3.807  1.00  0.00     0.192 HD
ENDBRANCH   9  12
ENDBRANCH   7   8
BRANCH   7  19
ATOM     19  C   UNL     1      -2.361   2.173  -6.090  1.00  0.00     0.038 C 
BRANCH  19  20
ATOM     20  C   UNL     1      -2.837   3.111  -7.215  1.00  0.00    -0.015 C 
ATOM     21  C   UNL     1      -2.444   2.604  -8.607  1.00  0.00     0.007 C 
ATOM     22  C   UNL     1      -4.358   3.298  -7.184  1.00  0.00     0.007 C 
ENDBRANCH  19  20
ENDBRANCH   7  19
ENDBRANCH   4   7
ENDBRANCH   2   3
ENDBRANCH   1   2
BRANCH   1  23
ATOM     23  C   UNL     1       1.335   6.171  -8.821  1.00  0.00     0.118 C 
BRANCH  23  24
ATOM     24  N   UNL     1       0.296   6.449  -9.824  1.00  0.00    -0.352 N 
ATOM     25  C   UNL     1       0.492   6.670 -11.179  1.00  0.00     0.251 C 
ATOM     26  H   UNL     1      -0.633   6.482  -9.501  1.00  0.00     0.163 HD
ATOM     27  O   UNL     1      -0.373   7.152 -11.899  1.00  0.00    -0.269 OA
BRANCH  25  28
ATOM     28  C   UNL     1       1.800   6.283 -11.723  1.00  0.00     0.039 A 
ATOM     29  C   UNL     1       2.647   7.210 -12.331  1.00  0.00     0.014 A 
ATOM     30  C   UNL     1       2.239   5.013 -11.365  1.00  0.00     0.014 A 
ATOM     31  C   UNL     1       3.994   6.884 -12.458  1.00  0.00     0.010 A 
ATOM     32  C   UNL     1       3.587   4.794 -11.293  1.00  0.00     0.010 A 
ATOM     33  C   UNL     1       4.468   5.691 -11.885  1.00  0.00    -0.014 A 
BRANCH  33  34
ATOM     34  C   UNL     1       5.900   5.424 -11.770  1.00  0.00     0.031 A 
ATOM     35  C   UNL     1       6.689   6.546 -11.191  1.00  0.00     0.074 A 
ATOM     36  C   UNL     1       6.436   4.198 -11.973  1.00  0.00     0.049 A 
ATOM     37  N   UNL     1       7.504   7.328 -11.816  1.00  0.00    -0.248 NA
ATOM     38  C   UNL     1       6.441   6.952  -9.797  1.00  0.00     0.031 C 
ATOM     39  C   UNL     1       5.728   2.932 -12.219  1.00  0.00     0.029 A 
ATOM     40  N   UNL     1       7.738   3.796 -11.908  1.00  0.00    -0.354 N 
ATOM     41  C   UNL     1       8.060   8.160 -10.845  1.00  0.00     0.074 A 
ATOM     42  C   UNL     1       7.224   8.029  -9.683  1.00  0.00     0.031 C 
ATOM     43  C   UNL     1       6.564   1.890 -12.030  1.00  0.00     0.029 A 
ATOM     44  C   UNL     1       7.905   2.415 -11.877  1.00  0.00     0.049 A 
ATOM     45  H   UNL     1       8.493   4.427 -11.886  1.00  0.00     0.167 HD
ATOM     46  C   UNL     1       9.332   8.627 -10.999  1.00  0.00     0.037 A 
ATOM     47  C   UNL     1       9.067   1.731 -11.772  1.00  0.00     0.037 A 
ATOM     48  C   UNL     1       9.793   8.374 -12.341  1.00  0.00     0.049 A 
ATOM     49  C   UNL     1      10.148   2.633 -12.219  1.00  0.00     0.074 A 
ATOM     50  C   UNL     1       9.601   8.918 -13.590  1.00  0.00     0.029 A 
ATOM     51  N   UNL     1      10.282   7.107 -12.514  1.00  0.00    -0.354 N 
ATOM     52  N   UNL     1      10.258   3.058 -13.448  1.00  0.00    -0.248 NA
ATOM     53  C   UNL     1      10.908   3.381 -11.225  1.00  0.00     0.031 C 
ATOM     54  C   UNL     1       9.847   7.865 -14.524  1.00  0.00     0.029 A 
ATOM     55  C   UNL     1      10.234   6.724 -13.825  1.00  0.00     0.049 A 
ATOM     56  H   UNL     1      10.625   6.542 -11.784  1.00  0.00     0.167 HD
ATOM     57  C   UNL     1      10.731   4.348 -13.318  1.00  0.00     0.074 A 
ATOM     58  C   UNL     1      11.279   4.427 -11.969  1.00  0.00     0.031 C 
ATOM     59  C   UNL     1      10.332   5.326 -14.180  1.00  0.00     0.037 A 
BRANCH  46  60
ATOM     60  C   UNL     1      10.346   8.825  -9.885  1.00  0.00     0.064 A 
ATOM     61  C   UNL     1      11.612   9.365 -10.208  1.00  0.00     0.173 A 
ATOM     62  C   UNL     1      10.261   8.212  -8.618  1.00  0.00     0.173 A 
ATOM     63  F   UNL     1      11.819   9.963 -11.392  1.00  0.00    -0.203 F 
ATOM     64  C   UNL     1      12.719   9.225  -9.364  1.00  0.00     0.198 A 
ATOM     65  C   UNL     1      11.357   8.116  -7.758  1.00  0.00     0.198 A 
ATOM     66  F   UNL     1       9.160   7.579  -8.202  1.00  0.00    -0.203 F 
ATOM     67  F   UNL     1      13.925   9.644  -9.769  1.00  0.00    -0.200 F 
ATOM     68  C   UNL     1      12.591   8.592  -8.142  1.00  0.00     0.200 A 
ATOM     69  F   UNL     1      11.218   7.478  -6.586  1.00  0.00    -0.200 F 
ATOM     70  F   UNL     1      13.660   8.399  -7.357  1.00  0.00    -0.200 F 
ENDBRANCH  46  60
BRANCH  47  71
ATOM     71  C   UNL     1       9.320   0.435 -11.109  1.00  0.00     0.064 A 
ATOM     72  C   UNL     1      10.428  -0.357 -11.443  1.00  0.00     0.173 A 
ATOM     73  C   UNL     1       8.632   0.094  -9.929  1.00  0.00     0.173 A 
ATOM     74  F   UNL     1      11.154  -0.072 -12.534  1.00  0.00    -0.203 F 
ATOM     75  C   UNL     1      10.846  -1.410 -10.624  1.00  0.00     0.198 A 
ATOM     76  C   UNL     1       9.050  -0.956  -9.111  1.00  0.00     0.198 A 
ATOM     77  F   UNL     1       7.601   0.839  -9.502  1.00  0.00    -0.203 F 
ATOM     78  F   UNL     1      11.947  -2.107 -10.941  1.00  0.00    -0.200 F 
ATOM     79  C   UNL     1      10.167  -1.699  -9.451  1.00  0.00     0.200 A 
ATOM     80  F   UNL     1       8.409  -1.199  -7.960  1.00  0.00    -0.200 F 
ATOM     81  F   UNL     1      10.610  -2.660  -8.630  1.00  0.00    -0.200 F 
ENDBRANCH  47  71
BRANCH  59  82
ATOM     82  C   UNL     1       9.825   4.902 -15.523  1.00  0.00     0.064 A 
ATOM     83  C   UNL     1       8.620   4.216 -15.744  1.00  0.00     0.173 A 
ATOM     84  C   UNL     1      10.566   5.290 -16.646  1.00  0.00     0.173 A 
ATOM     85  F   UNL     1       7.823   3.875 -14.725  1.00  0.00    -0.203 F 
ATOM     86  C   UNL     1       8.195   3.908 -17.036  1.00  0.00     0.198 A 
ATOM     87  C   UNL     1      10.124   5.012 -17.934  1.00  0.00     0.198 A 
ATOM     88  F   UNL     1      11.706   5.981 -16.491  1.00  0.00    -0.203 F 
ATOM     89  F   UNL     1       7.047   3.241 -17.226  1.00  0.00    -0.200 F 
ATOM     90  C   UNL     1       8.944   4.313 -18.129  1.00  0.00     0.200 A 
ATOM     91  F   UNL     1      10.833   5.442 -18.987  1.00  0.00    -0.200 F 
ATOM     92  F   UNL     1       8.520   4.048 -19.373  1.00  0.00    -0.200 F 
ENDBRANCH  59  82
ENDBRANCH  33  34
ENDBRANCH  25  28
ENDBRANCH  23  24
ENDBRANCH   1  23
TORSDOF 14
