REMARK SMILES CCCC[C@@H](C(=O)NCCCNC(=O)c1ccc(-c2c3nc(c(-c4c(F)c(F)c(F)c(F)c4F)c4ccc([nH]4)c(-c4c(F)c(F)c(F)c(F)c4F)c4nc(c(-c5c(F)c(F)c(F)c(F)c5F)c5ccc2[nH]5)C=C4)C=C3)cc1)C1(O)Cc2ccccc2C1
REMARK SMILES IDX 9 1 8 2 6 3 7 4 5 6 4 7 3 8 2 9 1 10 78 11 80 12 87 13 81 14
REMARK SMILES IDX 86 15 82 16 85 17 83 18 84 19 79 20 10 22 11 23 12 24 13 25
REMARK SMILES IDX 14 27 15 28 16 29 77 30 17 31 76 32 18 33 19 34 20 35 70 36
REMARK SMILES IDX 21 37 75 38 69 39 71 40 22 41 74 42 68 43 67 44 23 46 55 47
REMARK SMILES IDX 35 48 54 49 36 50 39 51 53 52 72 53 37 54 38 55 52 57 73 58
REMARK SMILES IDX 40 59 24 60 25 61 33 62 26 63 27 64 31 65 34 66 28 67 29 68
REMARK SMILES IDX 32 69 30 70 56 71 57 72 65 73 58 74 59 75 63 76 66 77 60 78
REMARK SMILES IDX 61 79 64 80 62 81 41 82 42 83 50 84 43 85 44 86 48 87 51 88
REMARK SMILES IDX 45 89 46 90 49 91 47 92
REMARK H PARENT 8 5 79 21 12 26 71 45 39 56
REMARK Flexibility Score: inf
ROOT
ATOM      1  C   UNL     1      -1.076   0.660   3.508  1.00  0.00     0.117 C 
ENDROOT
BRANCH   1   2
ATOM      2  N   UNL     1      -1.782   1.897   3.298  1.00  0.00    -0.356 N 
ATOM      3  C   UNL     1      -1.988   2.662   2.202  1.00  0.00     0.226 C 
ATOM      4  O   UNL     1      -3.005   3.357   2.312  1.00  0.00    -0.275 OA
ATOM      5  H   UNL     1      -2.198   2.257   4.114  1.00  0.00     0.163 HD
BRANCH   3   6
ATOM      6  C   UNL     1      -1.201   2.587   0.870  1.00  0.00     0.111 C 
BRANCH   6   7
ATOM      7  C   UNL     1       0.329   2.233   0.876  1.00  0.00     0.016 C 
BRANCH   7   8
ATOM      8  C   UNL     1       1.059   0.907   1.085  1.00  0.00     0.001 C 
BRANCH   8   9
ATOM      9  C   UNL     1       0.551  -0.353   0.410  1.00  0.00    -0.003 C 
ATOM     10  C   UNL     1       1.153  -0.544  -0.969  1.00  0.00     0.004 C 
ENDBRANCH   8   9
ENDBRANCH   7   8
ENDBRANCH   6   7
BRANCH   6  11
ATOM     11  C   UNL     1      -1.314   4.000   0.032  1.00  0.00     0.084 C 
ATOM     12  C   UNL     1      -2.478   5.066   0.239  1.00  0.00     0.072 C 
ATOM     13  C   UNL     1      -0.096   4.923   0.336  1.00  0.00     0.072 C 
ATOM     14  C   UNL     1      -1.940   5.911   1.369  1.00  0.00    -0.042 A 
ATOM     15  C   UNL     1      -0.601   5.584   1.571  1.00  0.00    -0.042 A 
ATOM     16  C   UNL     1      -2.591   6.768   2.231  1.00  0.00     0.004 A 
ATOM     17  C   UNL     1      -0.019   5.748   2.810  1.00  0.00     0.004 A 
ATOM     18  C   UNL     1      -1.964   7.057   3.446  1.00  0.00     0.000 A 
ATOM     19  C   UNL     1      -0.732   6.464   3.771  1.00  0.00     0.000 A 
BRANCH  11  20
ATOM     20  O   UNL     1      -1.308   3.647  -1.365  1.00  0.00    -0.388 OA
ATOM     21  H   UNL     1      -2.065   3.072  -1.557  1.00  0.00     0.211 HD
ENDBRANCH  11  20
ENDBRANCH   6  11
ENDBRANCH   3   6
ENDBRANCH   1   2
BRANCH   1  22
ATOM     22  C   UNL     1       0.202   0.863   4.313  1.00  0.00     0.042 C 
BRANCH  22  23
ATOM     23  C   UNL     1      -0.016   1.027   5.807  1.00  0.00     0.118 C 
BRANCH  23  24
ATOM     24  N   UNL     1      -0.476  -0.207   6.429  1.00  0.00    -0.352 N 
ATOM     25  C   UNL     1       0.171  -1.106   7.234  1.00  0.00     0.251 C 
ATOM     26  H   UNL     1      -1.415  -0.434   6.239  1.00  0.00     0.163 HD
ATOM     27  O   UNL     1      -0.346  -2.212   7.428  1.00  0.00    -0.269 OA
BRANCH  25  28
ATOM     28  C   UNL     1       1.468  -0.793   7.873  1.00  0.00     0.039 A 
ATOM     29  C   UNL     1       2.381  -1.830   8.098  1.00  0.00     0.014 A 
ATOM     30  C   UNL     1       1.772   0.494   8.322  1.00  0.00     0.014 A 
ATOM     31  C   UNL     1       3.602  -1.567   8.726  1.00  0.00     0.010 A 
ATOM     32  C   UNL     1       3.030   0.777   8.844  1.00  0.00     0.010 A 
ATOM     33  C   UNL     1       3.950  -0.254   9.079  1.00  0.00    -0.014 A 
BRANCH  33  34
ATOM     34  C   UNL     1       5.247   0.058   9.733  1.00  0.00     0.031 A 
ATOM     35  C   UNL     1       5.270   0.669  11.110  1.00  0.00     0.074 A 
ATOM     36  C   UNL     1       6.399  -0.151   9.069  1.00  0.00     0.049 A 
ATOM     37  N   UNL     1       6.291   1.076  11.822  1.00  0.00    -0.248 NA
ATOM     38  C   UNL     1       3.967   0.883  11.760  1.00  0.00     0.031 C 
ATOM     39  C   UNL     1       6.507  -0.693   7.714  1.00  0.00     0.029 A 
ATOM     40  N   UNL     1       7.701   0.074   9.441  1.00  0.00    -0.354 N 
ATOM     41  C   UNL     1       5.752   1.608  12.986  1.00  0.00     0.074 A 
ATOM     42  C   UNL     1       4.314   1.538  12.856  1.00  0.00     0.031 C 
ATOM     43  C   UNL     1       7.803  -0.792   7.382  1.00  0.00     0.029 A 
ATOM     44  C   UNL     1       8.616  -0.281   8.480  1.00  0.00     0.049 A 
ATOM     45  H   UNL     1       7.955   0.453  10.313  1.00  0.00     0.167 HD
ATOM     46  C   UNL     1       6.396   2.084  14.079  1.00  0.00     0.037 A 
ATOM     47  C   UNL     1       9.960  -0.200   8.486  1.00  0.00     0.037 A 
ATOM     48  C   UNL     1       7.829   2.129  14.211  1.00  0.00     0.049 A 
ATOM     49  C   UNL     1      10.655   0.346   9.704  1.00  0.00     0.074 A 
ATOM     50  C   UNL     1       8.585   2.538  15.295  1.00  0.00     0.029 A 
ATOM     51  N   UNL     1       8.724   1.754  13.218  1.00  0.00    -0.354 N 
ATOM     52  N   UNL     1      10.138   0.783  10.827  1.00  0.00    -0.248 NA
ATOM     53  C   UNL     1      12.122   0.402   9.657  1.00  0.00     0.031 C 
ATOM     54  C   UNL     1       9.936   2.464  14.938  1.00  0.00     0.029 A 
ATOM     55  C   UNL     1      10.025   1.948  13.655  1.00  0.00     0.049 A 
ATOM     56  H   UNL     1       8.471   1.401  12.334  1.00  0.00     0.167 HD
ATOM     57  C   UNL     1      11.213   1.137  11.631  1.00  0.00     0.074 A 
ATOM     58  C   UNL     1      12.412   0.849  10.871  1.00  0.00     0.031 C 
ATOM     59  C   UNL     1      11.208   1.651  12.886  1.00  0.00     0.037 A 
BRANCH  46  60
ATOM     60  C   UNL     1       5.551   2.597  15.213  1.00  0.00     0.064 A 
ATOM     61  C   UNL     1       4.734   1.743  15.972  1.00  0.00     0.173 A 
ATOM     62  C   UNL     1       5.561   3.959  15.552  1.00  0.00     0.173 A 
ATOM     63  F   UNL     1       4.677   0.433  15.687  1.00  0.00    -0.203 F 
ATOM     64  C   UNL     1       3.926   2.239  16.992  1.00  0.00     0.198 A 
ATOM     65  C   UNL     1       4.781   4.445  16.598  1.00  0.00     0.198 A 
ATOM     66  F   UNL     1       6.328   4.821  14.868  1.00  0.00    -0.203 F 
ATOM     67  F   UNL     1       3.102   1.414  17.653  1.00  0.00    -0.200 F 
ATOM     68  C   UNL     1       3.954   3.588  17.308  1.00  0.00     0.200 A 
ATOM     69  F   UNL     1       4.821   5.748  16.912  1.00  0.00    -0.200 F 
ATOM     70  F   UNL     1       3.176   4.065  18.290  1.00  0.00    -0.200 F 
ENDBRANCH  46  60
BRANCH  47  71
ATOM     71  C   UNL     1      10.735  -0.684   7.313  1.00  0.00     0.064 A 
ATOM     72  C   UNL     1      11.525  -1.840   7.403  1.00  0.00     0.173 A 
ATOM     73  C   UNL     1      10.694  -0.018   6.080  1.00  0.00     0.173 A 
ATOM     74  F   UNL     1      11.611  -2.502   8.566  1.00  0.00    -0.203 F 
ATOM     75  C   UNL     1      12.255  -2.300   6.310  1.00  0.00     0.198 A 
ATOM     76  C   UNL     1      11.401  -0.496   4.979  1.00  0.00     0.198 A 
ATOM     77  F   UNL     1       9.949   1.088   5.938  1.00  0.00    -0.203 F 
ATOM     78  F   UNL     1      13.034  -3.384   6.436  1.00  0.00    -0.200 F 
ATOM     79  C   UNL     1      12.187  -1.633   5.096  1.00  0.00     0.200 A 
ATOM     80  F   UNL     1      11.319   0.142   3.803  1.00  0.00    -0.200 F 
ATOM     81  F   UNL     1      12.882  -2.081   4.043  1.00  0.00    -0.200 F 
ENDBRANCH  47  71
BRANCH  59  82
ATOM     82  C   UNL     1      12.541   1.900  13.533  1.00  0.00     0.064 A 
ATOM     83  C   UNL     1      13.393   2.927  13.101  1.00  0.00     0.173 A 
ATOM     84  C   UNL     1      12.953   1.122  14.626  1.00  0.00     0.173 A 
ATOM     85  F   UNL     1      13.053   3.691  12.052  1.00  0.00    -0.203 F 
ATOM     86  C   UNL     1      14.621   3.146  13.721  1.00  0.00     0.198 A 
ATOM     87  C   UNL     1      14.164   1.366  15.265  1.00  0.00     0.198 A 
ATOM     88  F   UNL     1      12.172   0.131  15.084  1.00  0.00    -0.203 F 
ATOM     89  F   UNL     1      15.442   4.097  13.257  1.00  0.00    -0.200 F 
ATOM     90  C   UNL     1      15.001   2.372  14.806  1.00  0.00     0.200 A 
ATOM     91  F   UNL     1      14.522   0.628  16.325  1.00  0.00    -0.200 F 
ATOM     92  F   UNL     1      16.180   2.590  15.406  1.00  0.00    -0.200 F 
ENDBRANCH  59  82
ENDBRANCH  33  34
ENDBRANCH  25  28
ENDBRANCH  23  24
ENDBRANCH  22  23
ENDBRANCH   1  22
TORSDOF 15
