REMARK SMILES O=C(NCCCNC(=O)[C@@]1(Cl)C=CC=C(c2ccccc2)[C@H]1Cl)c1ccc(-c2c3nc(c(-c4c(F)c(F)c(F)c(F)c4F)c4ccc([nH]4)c(-c4c(F)c(F)c(F)c(F)c4F)c4nc(c(-c5c(F)c(F)c(F)c(F)c5F)c5ccc2[nH]5)C=C4)C=C3)cc1
REMARK SMILES IDX 4 1 3 2 1 3 2 4 24 6 25 7 86 8 26 9 85 10 27 11 28 12 29 13
REMARK SMILES IDX 79 14 30 15 84 16 78 17 80 18 31 19 83 20 77 21 76 22 32 24
REMARK SMILES IDX 64 25 44 26 63 27 45 28 48 29 62 30 81 31 46 32 47 33 61 35
REMARK SMILES IDX 82 36 49 37 33 38 34 39 42 40 35 41 36 42 40 43 43 44 37 45
REMARK SMILES IDX 38 46 41 47 39 48 65 49 66 50 74 51 67 52 68 53 72 54 75 55
REMARK SMILES IDX 69 56 70 57 73 58 71 59 50 60 51 61 59 62 52 63 53 64 57 65
REMARK SMILES IDX 60 66 54 67 55 68 58 69 56 70 5 71 6 72 7 73 8 74 9 76 10 77
REMARK SMILES IDX 11 78 12 79 22 80 13 81 15 82 23 83 14 84 16 85 17 86 21 87
REMARK SMILES IDX 18 88 20 89 19 90
REMARK H PARENT 3 5 80 23 48 34 7 75
REMARK Flexibility Score: inf
ROOT
ATOM      1  C   UNL     1       4.332  -0.961  -1.024  1.00  0.00     0.118 C 
ENDROOT
BRANCH   1   2
ATOM      2  N   UNL     1       2.934  -0.568  -0.936  1.00  0.00    -0.352 N 
ATOM      3  O   UNL     1       1.039   0.189   0.011  1.00  0.00    -0.269 OA
ATOM      4  C   UNL     1       2.260   0.128   0.041  1.00  0.00     0.251 C 
ATOM      5  H   UNL     1       2.380  -0.845  -1.701  1.00  0.00     0.163 HD
BRANCH   4   6
ATOM      6  C   UNL     1       3.002   0.780   1.143  1.00  0.00     0.039 A 
ATOM      7  C   UNL     1       4.186   1.476   0.901  1.00  0.00     0.014 A 
ATOM      8  C   UNL     1       2.488   0.714   2.442  1.00  0.00     0.014 A 
ATOM      9  C   UNL     1       4.946   1.939   1.968  1.00  0.00     0.010 A 
ATOM     10  C   UNL     1       3.201   1.278   3.505  1.00  0.00     0.010 A 
ATOM     11  C   UNL     1       4.460   1.856   3.283  1.00  0.00    -0.014 A 
BRANCH  11  12
ATOM     12  C   UNL     1       5.276   2.417   4.391  1.00  0.00     0.031 A 
ATOM     13  C   UNL     1       5.817   1.536   5.483  1.00  0.00     0.074 A 
ATOM     14  C   UNL     1       5.570   3.732   4.377  1.00  0.00     0.049 A 
ATOM     15  N   UNL     1       6.591   1.853   6.492  1.00  0.00    -0.248 NA
ATOM     16  C   UNL     1       5.434   0.116   5.449  1.00  0.00     0.031 C 
ATOM     17  C   UNL     1       5.090   4.689   3.378  1.00  0.00     0.029 A 
ATOM     18  N   UNL     1       6.363   4.485   5.204  1.00  0.00    -0.354 N 
ATOM     19  C   UNL     1       6.763   0.684   7.224  1.00  0.00     0.074 A 
ATOM     20  C   UNL     1       5.995  -0.346   6.558  1.00  0.00     0.031 C 
ATOM     21  C   UNL     1       5.650   5.885   3.610  1.00  0.00     0.029 A 
ATOM     22  C   UNL     1       6.475   5.796   4.809  1.00  0.00     0.049 A 
ATOM     23  H   UNL     1       6.809   4.122   6.003  1.00  0.00     0.167 HD
ATOM     24  C   UNL     1       7.502   0.490   8.344  1.00  0.00     0.037 A 
ATOM     25  C   UNL     1       7.162   6.816   5.353  1.00  0.00     0.037 A 
ATOM     26  C   UNL     1       8.290   1.513   8.984  1.00  0.00     0.049 A 
ATOM     27  C   UNL     1       7.971   6.570   6.594  1.00  0.00     0.074 A 
ATOM     28  C   UNL     1       9.111   1.402  10.094  1.00  0.00     0.029 A 
ATOM     29  N   UNL     1       8.353   2.836   8.572  1.00  0.00    -0.354 N 
ATOM     30  N   UNL     1       8.157   5.452   7.252  1.00  0.00    -0.248 NA
ATOM     31  C   UNL     1       8.663   7.730   7.169  1.00  0.00     0.031 C 
ATOM     32  C   UNL     1       9.633   2.668  10.381  1.00  0.00     0.029 A 
ATOM     33  C   UNL     1       9.181   3.557   9.420  1.00  0.00     0.049 A 
ATOM     34  H   UNL     1       7.881   3.208   7.793  1.00  0.00     0.167 HD
ATOM     35  C   UNL     1       9.003   5.767   8.305  1.00  0.00     0.074 A 
ATOM     36  C   UNL     1       9.309   7.178   8.186  1.00  0.00     0.031 C 
ATOM     37  C   UNL     1       9.479   4.960   9.285  1.00  0.00     0.037 A 
BRANCH  24  38
ATOM     38  C   UNL     1       7.479  -0.877   8.967  1.00  0.00     0.064 A 
ATOM     39  C   UNL     1       8.118  -1.975   8.371  1.00  0.00     0.173 A 
ATOM     40  C   UNL     1       6.845  -1.080  10.203  1.00  0.00     0.173 A 
ATOM     41  F   UNL     1       8.730  -1.838   7.185  1.00  0.00    -0.203 F 
ATOM     42  C   UNL     1       8.100  -3.230   8.976  1.00  0.00     0.198 A 
ATOM     43  C   UNL     1       6.854  -2.329  10.818  1.00  0.00     0.198 A 
ATOM     44  F   UNL     1       6.225  -0.063  10.820  1.00  0.00    -0.203 F 
ATOM     45  F   UNL     1       8.679  -4.274   8.367  1.00  0.00    -0.200 F 
ATOM     46  C   UNL     1       7.474  -3.404  10.202  1.00  0.00     0.200 A 
ATOM     47  F   UNL     1       6.259  -2.492  12.009  1.00  0.00    -0.200 F 
ATOM     48  F   UNL     1       7.465  -4.611  10.786  1.00  0.00    -0.200 F 
ENDBRANCH  24  38
BRANCH  25  49
ATOM     49  C   UNL     1       7.123   8.157   4.715  1.00  0.00     0.064 A 
ATOM     50  C   UNL     1       8.260   8.694   4.096  1.00  0.00     0.173 A 
ATOM     51  C   UNL     1       5.948   8.922   4.699  1.00  0.00     0.173 A 
ATOM     52  F   UNL     1       9.412   8.007   4.102  1.00  0.00    -0.203 F 
ATOM     53  C   UNL     1       8.227   9.951   3.498  1.00  0.00     0.198 A 
ATOM     54  C   UNL     1       5.907  10.166   4.074  1.00  0.00     0.198 A 
ATOM     55  F   UNL     1       4.831   8.451   5.274  1.00  0.00    -0.203 F 
ATOM     56  F   UNL     1       9.338  10.459   2.949  1.00  0.00    -0.200 F 
ATOM     57  C   UNL     1       7.049  10.683   3.481  1.00  0.00     0.200 A 
ATOM     58  F   UNL     1       4.763  10.862   4.045  1.00  0.00    -0.200 F 
ATOM     59  F   UNL     1       7.015  11.889   2.898  1.00  0.00    -0.200 F 
ENDBRANCH  25  49
BRANCH  37  60
ATOM     60  C   UNL     1      10.412   5.582  10.282  1.00  0.00     0.064 A 
ATOM     61  C   UNL     1       9.957   6.487  11.252  1.00  0.00     0.173 A 
ATOM     62  C   UNL     1      11.777   5.255  10.275  1.00  0.00     0.173 A 
ATOM     63  F   UNL     1       8.665   6.844  11.288  1.00  0.00    -0.203 F 
ATOM     64  C   UNL     1      10.841   7.068  12.158  1.00  0.00     0.198 A 
ATOM     65  C   UNL     1      12.652   5.815  11.201  1.00  0.00     0.198 A 
ATOM     66  F   UNL     1      12.261   4.390   9.371  1.00  0.00    -0.203 F 
ATOM     67  F   UNL     1      10.395   7.973  13.039  1.00  0.00    -0.200 F 
ATOM     68  C   UNL     1      12.185   6.727  12.135  1.00  0.00     0.200 A 
ATOM     69  F   UNL     1      13.948   5.476  11.186  1.00  0.00    -0.200 F 
ATOM     70  F   UNL     1      13.034   7.287  13.008  1.00  0.00    -0.200 F 
ENDBRANCH  37  60
ENDBRANCH  11  12
ENDBRANCH   4   6
ENDBRANCH   1   2
BRANCH   1  71
ATOM     71  C   UNL     1       4.544  -2.450  -0.791  1.00  0.00     0.042 C 
BRANCH  71  72
ATOM     72  C   UNL     1       3.947  -3.344  -1.873  1.00  0.00     0.117 C 
BRANCH  72  73
ATOM     73  N   UNL     1       4.364  -2.985  -3.220  1.00  0.00    -0.354 N 
ATOM     74  C   UNL     1       5.283  -3.497  -4.093  1.00  0.00     0.247 C 
ATOM     75  H   UNL     1       3.881  -2.206  -3.579  1.00  0.00     0.163 HD
ATOM     76  O   UNL     1       5.154  -3.062  -5.247  1.00  0.00    -0.273 OA
BRANCH  74  77
ATOM     77  C   UNL     1       6.284  -4.641  -3.758  1.00  0.00     0.161 C 
ATOM     78  Cl  UNL     1       6.834  -4.566  -2.038  1.00  0.00    -0.102 Cl
ATOM     79  C   UNL     1       5.459  -5.908  -3.912  1.00  0.00     0.008 C 
ATOM     80  C   UNL     1       7.598  -4.639  -4.627  1.00  0.00     0.146 C 
ATOM     81  C   UNL     1       5.698  -6.832  -4.852  1.00  0.00    -0.002 C 
ATOM     82  C   UNL     1       7.702  -5.721  -5.694  1.00  0.00    -0.020 C 
ATOM     83  Cl  UNL     1       8.073  -3.016  -5.259  1.00  0.00    -0.115 Cl
ATOM     84  C   UNL     1       6.805  -6.723  -5.765  1.00  0.00     0.006 C 
BRANCH  82  85
ATOM     85  C   UNL     1       8.912  -5.783  -6.545  1.00  0.00    -0.021 A 
ATOM     86  C   UNL     1       8.804  -5.880  -7.938  1.00  0.00     0.008 A 
ATOM     87  C   UNL     1      10.193  -5.721  -5.973  1.00  0.00     0.008 A 
ATOM     88  C   UNL     1       9.949  -5.894  -8.740  1.00  0.00     0.001 A 
ATOM     89  C   UNL     1      11.336  -5.729  -6.774  1.00  0.00     0.001 A 
ATOM     90  C   UNL     1      11.213  -5.811  -8.158  1.00  0.00     0.000 A 
ENDBRANCH  82  85
ENDBRANCH  74  77
ENDBRANCH  72  73
ENDBRANCH  71  72
ENDBRANCH   1  71
TORSDOF 11
