REMARK SMILES O=C(CCn1ccnc1)N[C@H]1C=C[C@@H](C(=O)NCCCNC(=O)c2ccc(-c3c4nc(c(-c5c(F)c(F)c(F)c(F)c5F)c5ccc([nH]5)c(-c5c(F)c(F)c(F)c(F)c5F)c5nc(c(-c6c(F)c(F)c(F)c(F)c6F)c6ccc3[nH]6)C=C5)C=C4)cc2)C1
REMARK SMILES IDX 18 1 17 2 15 3 16 4 14 6 11 7 12 8 87 9 13 10 10 11 1 12
REMARK SMILES IDX 2 13 3 15 4 16 5 17 6 18 9 19 7 20 8 21 19 22 20 23 21 24
REMARK SMILES IDX 22 25 23 27 24 28 25 29 86 30 26 31 85 32 27 33 28 34 29 35
REMARK SMILES IDX 79 36 30 37 84 38 78 39 80 40 31 41 83 42 77 43 76 44 32 46
REMARK SMILES IDX 64 47 44 48 63 49 45 50 48 51 62 52 81 53 46 54 47 55 61 57
REMARK SMILES IDX 82 58 49 59 33 60 34 61 42 62 35 63 36 64 40 65 43 66 37 67
REMARK SMILES IDX 38 68 41 69 39 70 65 71 66 72 74 73 67 74 68 75 72 76 75 77
REMARK SMILES IDX 69 78 70 79 73 80 71 81 50 82 51 83 59 84 52 85 53 86 57 87
REMARK SMILES IDX 60 88 54 89 55 90 58 91 56 92
REMARK H PARENT 17 5 10 14 21 26 80 45 48 56
REMARK Flexibility Score: inf
ROOT
ATOM      1  C   UNL     1       0.622   2.864   0.771  1.00  0.00     0.117 C 
ENDROOT
BRANCH   1   2
ATOM      2  N   UNL     1       0.532   4.151   0.106  1.00  0.00    -0.356 N 
ATOM      3  C   UNL     1       0.554   4.468  -1.218  1.00  0.00     0.227 C 
ATOM      4  O   UNL     1       0.352   5.652  -1.508  1.00  0.00    -0.274 OA
ATOM      5  H   UNL     1       0.439   4.921   0.712  1.00  0.00     0.163 HD
BRANCH   3   6
ATOM      6  C   UNL     1       0.824   3.442  -2.328  1.00  0.00     0.103 C 
ATOM      7  C   UNL     1       1.893   1.214  -2.374  1.00  0.00     0.106 C 
ATOM      8  C   UNL     1       0.409   1.130  -2.421  1.00  0.00    -0.006 C 
ATOM      9  C   UNL     1       2.175   2.724  -2.233  1.00  0.00     0.047 C 
ATOM     10  C   UNL     1      -0.176   2.333  -2.404  1.00  0.00    -0.016 C 
BRANCH   7  11
ATOM     11  N   UNL     1       2.545   0.455  -1.312  1.00  0.00    -0.350 N 
ATOM     12  O   UNL     1       0.798  -0.469  -0.126  1.00  0.00    -0.275 OA
ATOM     13  C   UNL     1       2.000  -0.281  -0.290  1.00  0.00     0.222 C 
ATOM     14  H   UNL     1       3.529   0.473  -1.333  1.00  0.00     0.164 HD
BRANCH  13  15
ATOM     15  C   UNL     1       2.985  -0.779   0.762  1.00  0.00     0.122 C 
BRANCH  15  16
ATOM     16  C   UNL     1       4.019  -1.779   0.273  1.00  0.00     0.133 C 
BRANCH  16  17
ATOM     17  N   UNL     1       5.098  -1.223  -0.522  1.00  0.00    -0.337 N 
ATOM     18  C   UNL     1       5.673   0.016  -0.420  1.00  0.00     0.107 A 
ATOM     19  C   UNL     1       5.689  -1.860  -1.576  1.00  0.00     0.199 A 
ATOM     20  C   UNL     1       6.500   0.113  -1.515  1.00  0.00     0.130 A 
ATOM     21  N   UNL     1       6.505  -1.059  -2.220  1.00  0.00    -0.245 NA
ENDBRANCH  16  17
ENDBRANCH  15  16
ENDBRANCH  13  15
ENDBRANCH   7  11
ENDBRANCH   3   6
ENDBRANCH   1   2
BRANCH   1  22
ATOM     22  C   UNL     1       1.962   2.646   1.474  1.00  0.00     0.042 C 
BRANCH  22  23
ATOM     23  C   UNL     1       2.074   3.395   2.783  1.00  0.00     0.118 C 
BRANCH  23  24
ATOM     24  N   UNL     1       1.215   2.823   3.825  1.00  0.00    -0.352 N 
ATOM     25  C   UNL     1       1.052   3.257   5.124  1.00  0.00     0.251 C 
ATOM     26  H   UNL     1       0.690   2.032   3.565  1.00  0.00     0.163 HD
ATOM     27  O   UNL     1       0.589   2.518   5.989  1.00  0.00    -0.269 OA
BRANCH  25  28
ATOM     28  C   UNL     1       1.466   4.628   5.454  1.00  0.00     0.039 A 
ATOM     29  C   UNL     1       2.173   4.917   6.622  1.00  0.00     0.014 A 
ATOM     30  C   UNL     1       1.210   5.615   4.510  1.00  0.00     0.014 A 
ATOM     31  C   UNL     1       2.706   6.194   6.775  1.00  0.00     0.010 A 
ATOM     32  C   UNL     1       1.907   6.790   4.565  1.00  0.00     0.010 A 
ATOM     33  C   UNL     1       2.600   7.118   5.722  1.00  0.00    -0.014 A 
BRANCH  33  34
ATOM     34  C   UNL     1       3.297   8.399   5.773  1.00  0.00     0.031 A 
ATOM     35  C   UNL     1       4.741   8.307   6.120  1.00  0.00     0.074 A 
ATOM     36  C   UNL     1       2.747   9.556   5.344  1.00  0.00     0.049 A 
ATOM     37  N   UNL     1       5.324   8.764   7.179  1.00  0.00    -0.248 NA
ATOM     38  C   UNL     1       5.624   7.508   5.254  1.00  0.00     0.031 C 
ATOM     39  C   UNL     1       1.448   9.766   4.691  1.00  0.00     0.029 A 
ATOM     40  N   UNL     1       3.295  10.802   5.309  1.00  0.00    -0.354 N 
ATOM     41  C   UNL     1       6.679   8.487   7.024  1.00  0.00     0.074 A 
ATOM     42  C   UNL     1       6.780   7.569   5.920  1.00  0.00     0.031 C 
ATOM     43  C   UNL     1       1.418  10.986   4.113  1.00  0.00     0.029 A 
ATOM     44  C   UNL     1       2.606  11.712   4.516  1.00  0.00     0.049 A 
ATOM     45  H   UNL     1       4.111  11.039   5.806  1.00  0.00     0.167 HD
ATOM     46  C   UNL     1       7.617   9.242   7.661  1.00  0.00     0.037 A 
ATOM     47  C   UNL     1       2.991  12.972   4.199  1.00  0.00     0.037 A 
ATOM     48  C   UNL     1       7.031   9.983   8.751  1.00  0.00     0.049 A 
ATOM     49  C   UNL     1       3.992  13.387   5.210  1.00  0.00     0.074 A 
ATOM     50  C   UNL     1       6.341   9.643   9.899  1.00  0.00     0.029 A 
ATOM     51  N   UNL     1       6.779  11.319   8.556  1.00  0.00    -0.354 N 
ATOM     52  N   UNL     1       3.712  13.597   6.465  1.00  0.00    -0.248 NA
ATOM     53  C   UNL     1       5.393  13.136   4.914  1.00  0.00     0.031 C 
ATOM     54  C   UNL     1       5.332  10.644  10.035  1.00  0.00     0.029 A 
ATOM     55  C   UNL     1       5.510  11.572   9.009  1.00  0.00     0.049 A 
ATOM     56  H   UNL     1       7.397  11.976   8.162  1.00  0.00     0.167 HD
ATOM     57  C   UNL     1       4.789  13.063   7.155  1.00  0.00     0.074 A 
ATOM     58  C   UNL     1       5.836  12.892   6.150  1.00  0.00     0.031 C 
ATOM     59  C   UNL     1       4.629  12.545   8.408  1.00  0.00     0.037 A 
BRANCH  46  60
ATOM     60  C   UNL     1       8.951   9.626   7.060  1.00  0.00     0.064 A 
ATOM     61  C   UNL     1       9.874  10.342   7.850  1.00  0.00     0.173 A 
ATOM     62  C   UNL     1       9.228   9.607   5.675  1.00  0.00     0.173 A 
ATOM     63  F   UNL     1       9.706  10.439   9.178  1.00  0.00    -0.203 F 
ATOM     64  C   UNL     1      10.929  11.064   7.285  1.00  0.00     0.198 A 
ATOM     65  C   UNL     1      10.313  10.284   5.121  1.00  0.00     0.198 A 
ATOM     66  F   UNL     1       8.405   9.039   4.787  1.00  0.00    -0.203 F 
ATOM     67  F   UNL     1      11.692  11.844   8.062  1.00  0.00    -0.200 F 
ATOM     68  C   UNL     1      11.142  11.042   5.919  1.00  0.00     0.200 A 
ATOM     69  F   UNL     1      10.491  10.264   3.792  1.00  0.00    -0.200 F 
ATOM     70  F   UNL     1      12.107  11.787   5.367  1.00  0.00    -0.200 F 
ENDBRANCH  46  60
BRANCH  47  71
ATOM     71  C   UNL     1       2.776  13.721   2.940  1.00  0.00     0.064 A 
ATOM     72  C   UNL     1       2.998  15.107   2.882  1.00  0.00     0.173 A 
ATOM     73  C   UNL     1       2.640  13.056   1.706  1.00  0.00     0.173 A 
ATOM     74  F   UNL     1       3.176  15.809   4.010  1.00  0.00    -0.203 F 
ATOM     75  C   UNL     1       3.122  15.780   1.662  1.00  0.00     0.198 A 
ATOM     76  C   UNL     1       2.757  13.730   0.489  1.00  0.00     0.198 A 
ATOM     77  F   UNL     1       2.494  11.725   1.654  1.00  0.00    -0.203 F 
ATOM     78  F   UNL     1       3.411  17.089   1.648  1.00  0.00    -0.200 F 
ATOM     79  C   UNL     1       3.016  15.088   0.467  1.00  0.00     0.200 A 
ATOM     80  F   UNL     1       2.688  13.044  -0.661  1.00  0.00    -0.200 F 
ATOM     81  F   UNL     1       3.207  15.719  -0.700  1.00  0.00    -0.200 F 
ENDBRANCH  47  71
BRANCH  59  82
ATOM     82  C   UNL     1       3.338  12.835   9.125  1.00  0.00     0.064 A 
ATOM     83  C   UNL     1       2.069  12.424   8.678  1.00  0.00     0.173 A 
ATOM     84  C   UNL     1       3.405  13.454  10.380  1.00  0.00     0.173 A 
ATOM     85  F   UNL     1       1.925  11.737   7.540  1.00  0.00    -0.203 F 
ATOM     86  C   UNL     1       0.921  12.670   9.431  1.00  0.00     0.198 A 
ATOM     87  C   UNL     1       2.263  13.664  11.147  1.00  0.00     0.198 A 
ATOM     88  F   UNL     1       4.594  13.820  10.885  1.00  0.00    -0.203 F 
ATOM     89  F   UNL     1      -0.280  12.286   8.972  1.00  0.00    -0.200 F 
ATOM     90  C   UNL     1       1.020  13.285  10.667  1.00  0.00     0.200 A 
ATOM     91  F   UNL     1       2.371  14.215  12.364  1.00  0.00    -0.200 F 
ATOM     92  F   UNL     1      -0.078  13.490  11.408  1.00  0.00    -0.200 F 
ENDBRANCH  59  82
ENDBRANCH  33  34
ENDBRANCH  25  28
ENDBRANCH  23  24
ENDBRANCH  22  23
ENDBRANCH   1  22
TORSDOF 14
