REMARK SMILES C[C@H](C(=O)NCCCNC(=O)c1ccc(-c2c3nc(c(-c4c(F)c(F)c(F)c(F)c4F)c4ccc([nH]4)c(-c4c(F)c(F)c(F)c(F)c4F)c4nc(c(-c5c(F)c(F)c(F)c(F)c5F)c5ccc2[nH]5)C=C4)C=C3)cc1)N1C(=O)C[C@](C)(c2ccccc2)C1=O
REMARK SMILES IDX 7 1 6 2 5 3 3 4 4 5 2 7 1 8 75 9 76 10 87 11 77 12 78 13
REMARK SMILES IDX 79 14 88 15 80 16 81 17 82 18 86 19 83 20 85 21 84 22 8 23
REMARK SMILES IDX 9 24 10 25 11 27 12 28 13 29 74 30 14 31 73 32 15 33 16 34
REMARK SMILES IDX 17 35 67 36 18 37 72 38 66 39 68 40 19 41 71 42 65 43 64 44
REMARK SMILES IDX 20 46 52 47 32 48 51 49 33 50 36 51 50 52 69 53 34 54 35 55
REMARK SMILES IDX 49 57 70 58 37 59 21 60 22 61 30 62 23 63 24 64 28 65 31 66
REMARK SMILES IDX 25 67 26 68 29 69 27 70 53 71 54 72 62 73 55 74 56 75 60 76
REMARK SMILES IDX 63 77 57 78 58 79 61 80 59 81 38 82 39 83 47 84 40 85 41 86
REMARK SMILES IDX 45 87 48 88 42 89 43 90 46 91 44 92
REMARK H PARENT 5 6 9 26 68 45 36 56
REMARK Flexibility Score: inf
ROOT
ATOM      1  C   UNL     1      -0.206   3.350  -0.148  1.00  0.00     0.042 C 
ENDROOT
BRANCH   1   2
ATOM      2  C   UNL     1       0.981   2.470  -0.532  1.00  0.00     0.117 C 
BRANCH   2   3
ATOM      3  N   UNL     1       1.048   1.290   0.319  1.00  0.00    -0.354 N 
ATOM      4  C   UNL     1       0.625   0.010   0.091  1.00  0.00     0.243 C 
ATOM      5  O   UNL     1       0.514  -0.726   1.073  1.00  0.00    -0.273 OA
ATOM      6  H   UNL     1       1.463   1.438   1.199  1.00  0.00     0.163 HD
BRANCH   4   7
ATOM      7  C   UNL     1       0.283  -0.462  -1.333  1.00  0.00     0.179 C 
ATOM      8  C   UNL     1       1.038  -1.762  -1.622  1.00  0.00     0.042 C 
BRANCH   7   9
ATOM      9  N   UNL     1      -1.163  -0.556  -1.553  1.00  0.00    -0.269 N 
ATOM     10  C   UNL     1      -1.937  -1.677  -1.470  1.00  0.00     0.231 C 
ATOM     11  C   UNL     1      -1.896   0.530  -1.929  1.00  0.00     0.240 C 
ATOM     12  O   UNL     1      -1.627  -2.771  -1.033  1.00  0.00    -0.274 OA
ATOM     13  C   UNL     1      -3.263  -1.394  -2.131  1.00  0.00     0.122 C 
ATOM     14  C   UNL     1      -3.354   0.136  -2.134  1.00  0.00     0.081 C 
ATOM     15  O   UNL     1      -1.451   1.654  -2.121  1.00  0.00    -0.273 OA
ATOM     16  C   UNL     1      -4.142   0.590  -0.889  1.00  0.00     0.027 C 
BRANCH  14  17
ATOM     17  C   UNL     1      -3.840   0.728  -3.462  1.00  0.00    -0.032 A 
ATOM     18  C   UNL     1      -4.975   1.547  -3.560  1.00  0.00     0.005 A 
ATOM     19  C   UNL     1      -3.048   0.570  -4.621  1.00  0.00     0.005 A 
ATOM     20  C   UNL     1      -5.275   2.220  -4.749  1.00  0.00     0.000 A 
ATOM     21  C   UNL     1      -3.342   1.252  -5.803  1.00  0.00     0.000 A 
ATOM     22  C   UNL     1      -4.452   2.085  -5.863  1.00  0.00     0.000 A 
ENDBRANCH  14  17
ENDBRANCH   7   9
ENDBRANCH   4   7
ENDBRANCH   2   3
ENDBRANCH   1   2
BRANCH   1  23
ATOM     23  C   UNL     1      -0.033   4.077   1.176  1.00  0.00     0.118 C 
BRANCH  23  24
ATOM     24  N   UNL     1       0.978   5.120   1.114  1.00  0.00    -0.352 N 
ATOM     25  C   UNL     1       0.866   6.475   1.296  1.00  0.00     0.251 C 
ATOM     26  H   UNL     1       1.887   4.803   0.909  1.00  0.00     0.163 HD
ATOM     27  O   UNL     1       1.815   7.200   1.007  1.00  0.00    -0.269 OA
BRANCH  25  28
ATOM     28  C   UNL     1      -0.384   7.077   1.815  1.00  0.00     0.039 A 
ATOM     29  C   UNL     1      -0.793   8.310   1.300  1.00  0.00     0.014 A 
ATOM     30  C   UNL     1      -1.133   6.467   2.824  1.00  0.00     0.014 A 
ATOM     31  C   UNL     1      -1.973   8.900   1.758  1.00  0.00     0.010 A 
ATOM     32  C   UNL     1      -2.360   7.004   3.207  1.00  0.00     0.010 A 
ATOM     33  C   UNL     1      -2.787   8.235   2.691  1.00  0.00    -0.014 A 
BRANCH  33  34
ATOM     34  C   UNL     1      -4.073   8.828   3.142  1.00  0.00     0.031 A 
ATOM     35  C   UNL     1      -4.282   9.187   4.588  1.00  0.00     0.074 A 
ATOM     36  C   UNL     1      -5.069   9.012   2.252  1.00  0.00     0.049 A 
ATOM     37  N   UNL     1      -5.342   9.690   5.173  1.00  0.00    -0.248 NA
ATOM     38  C   UNL     1      -3.164   8.921   5.507  1.00  0.00     0.031 C 
ATOM     39  C   UNL     1      -5.011   8.656   0.834  1.00  0.00     0.029 A 
ATOM     40  N   UNL     1      -6.325   9.542   2.409  1.00  0.00    -0.354 N 
ATOM     41  C   UNL     1      -5.017   9.796   6.519  1.00  0.00     0.074 A 
ATOM     42  C   UNL     1      -3.691   9.240   6.679  1.00  0.00     0.031 C 
ATOM     43  C   UNL     1      -6.165   9.004   0.245  1.00  0.00     0.029 A 
ATOM     44  C   UNL     1      -7.061   9.569   1.249  1.00  0.00     0.049 A 
ATOM     45  H   UNL     1      -6.667   9.872   3.271  1.00  0.00     0.167 HD
ATOM     46  C   UNL     1      -5.743  10.338   7.527  1.00  0.00     0.037 A 
ATOM     47  C   UNL     1      -8.318   9.995   1.022  1.00  0.00     0.037 A 
ATOM     48  C   UNL     1      -7.059  10.900   7.363  1.00  0.00     0.049 A 
ATOM     49  C   UNL     1      -9.110  10.578   2.161  1.00  0.00     0.074 A 
ATOM     50  C   UNL     1      -7.862  11.508   8.311  1.00  0.00     0.029 A 
ATOM     51  N   UNL     1      -7.766  10.920   6.169  1.00  0.00    -0.354 N 
ATOM     52  N   UNL     1      -8.765  10.736   3.416  1.00  0.00    -0.248 NA
ATOM     53  C   UNL     1     -10.465  11.052   1.849  1.00  0.00     0.031 C 
ATOM     54  C   UNL     1      -9.076  11.848   7.705  1.00  0.00     0.029 A 
ATOM     55  C   UNL     1      -9.005  11.510   6.363  1.00  0.00     0.049 A 
ATOM     56  H   UNL     1      -7.437  10.567   5.311  1.00  0.00     0.167 HD
ATOM     57  C   UNL     1      -9.844  11.352   4.035  1.00  0.00     0.074 A 
ATOM     58  C   UNL     1     -10.848  11.559   3.011  1.00  0.00     0.031 C 
ATOM     59  C   UNL     1      -9.993  11.713   5.333  1.00  0.00     0.037 A 
BRANCH  46  60
ATOM     60  C   UNL     1      -5.126  10.355   8.897  1.00  0.00     0.064 A 
ATOM     61  C   UNL     1      -4.014  11.160   9.193  1.00  0.00     0.173 A 
ATOM     62  C   UNL     1      -5.671   9.587   9.937  1.00  0.00     0.173 A 
ATOM     63  F   UNL     1      -3.446  11.906   8.233  1.00  0.00    -0.203 F 
ATOM     64  C   UNL     1      -3.453  11.170  10.467  1.00  0.00     0.198 A 
ATOM     65  C   UNL     1      -5.128   9.627  11.220  1.00  0.00     0.198 A 
ATOM     66  F   UNL     1      -6.737   8.804   9.714  1.00  0.00    -0.203 F 
ATOM     67  F   UNL     1      -2.359  11.905  10.709  1.00  0.00    -0.200 F 
ATOM     68  C   UNL     1      -4.015  10.411  11.481  1.00  0.00     0.200 A 
ATOM     69  F   UNL     1      -5.683   8.904  12.203  1.00  0.00    -0.200 F 
ATOM     70  F   UNL     1      -3.479  10.428  12.710  1.00  0.00    -0.200 F 
ENDBRANCH  46  60
BRANCH  47  71
ATOM     71  C   UNL     1      -8.900   9.900  -0.344  1.00  0.00     0.064 A 
ATOM     72  C   UNL     1      -9.194  11.051  -1.088  1.00  0.00     0.173 A 
ATOM     73  C   UNL     1      -9.189   8.657  -0.927  1.00  0.00     0.173 A 
ATOM     74  F   UNL     1      -8.955  12.264  -0.568  1.00  0.00    -0.203 F 
ATOM     75  C   UNL     1      -9.781  10.964  -2.349  1.00  0.00     0.198 A 
ATOM     76  C   UNL     1      -9.743   8.570  -2.202  1.00  0.00     0.198 A 
ATOM     77  F   UNL     1      -8.921   7.524  -0.261  1.00  0.00    -0.203 F 
ATOM     78  F   UNL     1     -10.104  12.082  -3.014  1.00  0.00    -0.200 F 
ATOM     79  C   UNL     1     -10.049   9.723  -2.908  1.00  0.00     0.200 A 
ATOM     80  F   UNL     1      -9.984   7.369  -2.745  1.00  0.00    -0.200 F 
ATOM     81  F   UNL     1     -10.611   9.639  -4.121  1.00  0.00    -0.200 F 
ENDBRANCH  47  71
BRANCH  59  82
ATOM     82  C   UNL     1     -11.273  12.402   5.713  1.00  0.00     0.064 A 
ATOM     83  C   UNL     1     -12.502  11.726   5.730  1.00  0.00     0.173 A 
ATOM     84  C   UNL     1     -11.265  13.755   6.090  1.00  0.00     0.173 A 
ATOM     85  F   UNL     1     -12.568  10.436   5.365  1.00  0.00    -0.203 F 
ATOM     86  C   UNL     1     -13.679  12.386   6.073  1.00  0.00     0.198 A 
ATOM     87  C   UNL     1     -12.437  14.402   6.469  1.00  0.00     0.198 A 
ATOM     88  F   UNL     1     -10.116  14.447   6.101  1.00  0.00    -0.203 F 
ATOM     89  F   UNL     1     -14.849  11.736   6.022  1.00  0.00    -0.200 F 
ATOM     90  C   UNL     1     -13.645  13.721   6.449  1.00  0.00     0.200 A 
ATOM     91  F   UNL     1     -12.399  15.687   6.848  1.00  0.00    -0.200 F 
ATOM     92  F   UNL     1     -14.778  14.353   6.784  1.00  0.00    -0.200 F 
ENDBRANCH  59  82
ENDBRANCH  33  34
ENDBRANCH  25  28
ENDBRANCH  23  24
ENDBRANCH   1  23
TORSDOF 12
