REMARK SMILES CCc1cccc(C)c1Nc1ccccc1CC(=O)NCCCNC(=O)c1ccc(-c2c3nc(c(-c4c(F)c(F)c(F)c(F)c4F)c4ccc([nH]4)c(-c4c(F)c(F)c(F)c(F)c4F)c4nc(c(-c5c(F)c(F)c(F)c(F)c5F)c5ccc2[nH]5)C=C4)C=C3)cc1
REMARK SMILES IDX 21 1 20 2 18 3 19 4 17 6 16 7 11 8 12 9 13 10 15 11 14 12
REMARK SMILES IDX 10 13 9 15 3 16 4 17 5 18 7 19 6 20 8 21 2 22 1 23 22 24
REMARK SMILES IDX 23 25 24 26 25 27 26 29 27 30 28 31 89 32 29 33 88 34 30 35
REMARK SMILES IDX 31 36 32 37 82 38 33 39 87 40 81 41 83 42 34 43 86 44 80 45
REMARK SMILES IDX 79 46 35 48 67 49 47 50 66 51 48 52 51 53 65 54 84 55 49 56
REMARK SMILES IDX 50 57 64 59 85 60 52 61 36 62 37 63 45 64 38 65 39 66 43 67
REMARK SMILES IDX 46 68 40 69 41 70 44 71 42 72 68 73 69 74 77 75 70 76 71 77
REMARK SMILES IDX 75 78 78 79 72 80 73 81 76 82 74 83 53 84 54 85 62 86 55 87
REMARK SMILES IDX 56 88 60 89 63 90 57 91 58 92 61 93 59 94
REMARK H PARENT 20 5 10 14 24 28 83 47 51 58
REMARK Flexibility Score: inf
ROOT
ATOM      1  C   UNL     1       1.489   7.250   1.571  1.00  0.00     0.117 C 
ENDROOT
BRANCH   1   2
ATOM      2  N   UNL     1       1.343   5.989   2.275  1.00  0.00    -0.356 N 
ATOM      3  C   UNL     1       1.943   4.779   2.061  1.00  0.00     0.224 C 
ATOM      4  O   UNL     1       1.926   3.974   2.997  1.00  0.00    -0.275 OA
ATOM      5  H   UNL     1       0.710   6.007   3.029  1.00  0.00     0.163 HD
BRANCH   3   6
ATOM      6  C   UNL     1       2.705   4.473   0.784  1.00  0.00     0.137 C 
BRANCH   6   7
ATOM      7  C   UNL     1       1.897   4.410  -0.496  1.00  0.00    -0.015 A 
ATOM      8  C   UNL     1       0.972   3.383  -0.786  1.00  0.00     0.042 A 
ATOM      9  C   UNL     1       0.318   3.385  -2.030  1.00  0.00     0.026 A 
ATOM     10  C   UNL     1       0.525   4.403  -2.959  1.00  0.00     0.002 A 
ATOM     11  C   UNL     1       2.124   5.409  -1.467  1.00  0.00     0.006 A 
ATOM     12  C   UNL     1       1.432   5.416  -2.677  1.00  0.00     0.000 A 
BRANCH   8  13
ATOM     13  N   UNL     1       0.795   2.251   0.034  1.00  0.00    -0.355 N 
ATOM     14  H   UNL     1       1.309   1.464  -0.257  1.00  0.00     0.167 HD
BRANCH  13  15
ATOM     15  C   UNL     1       0.018   2.033   1.195  1.00  0.00     0.045 A 
ATOM     16  C   UNL     1       0.173   0.821   1.916  1.00  0.00    -0.024 A 
ATOM     17  C   UNL     1      -0.327   0.746   3.235  1.00  0.00     0.006 A 
ATOM     18  C   UNL     1      -1.077   1.775   3.786  1.00  0.00     0.001 A 
ATOM     19  C   UNL     1      -0.936   2.963   1.673  1.00  0.00    -0.027 A 
ATOM     20  C   UNL     1      -1.427   2.851   2.987  1.00  0.00     0.005 A 
ATOM     21  C   UNL     1      -1.484   4.079   0.834  1.00  0.00     0.046 C 
BRANCH  16  22
ATOM     22  C   UNL     1       0.823  -0.459   1.412  1.00  0.00     0.034 C 
ATOM     23  C   UNL     1       0.907  -0.723  -0.088  1.00  0.00     0.009 C 
ENDBRANCH  16  22
ENDBRANCH  13  15
ENDBRANCH   8  13
ENDBRANCH   6   7
ENDBRANCH   3   6
ENDBRANCH   1   2
BRANCH   1  24
ATOM     24  C   UNL     1       0.361   7.570   0.595  1.00  0.00     0.042 C 
BRANCH  24  25
ATOM     25  C   UNL     1      -1.015   7.737   1.233  1.00  0.00     0.118 C 
BRANCH  25  26
ATOM     26  N   UNL     1      -1.523   9.105   1.198  1.00  0.00    -0.352 N 
ATOM     27  C   UNL     1      -2.758   9.594   1.587  1.00  0.00     0.251 C 
ATOM     28  H   UNL     1      -0.896   9.777   0.846  1.00  0.00     0.163 HD
ATOM     29  O   UNL     1      -3.000  10.788   1.512  1.00  0.00    -0.269 OA
BRANCH  27  30
ATOM     30  C   UNL     1      -3.739   8.677   2.213  1.00  0.00     0.039 A 
ATOM     31  C   UNL     1      -4.314   9.061   3.431  1.00  0.00     0.014 A 
ATOM     32  C   UNL     1      -3.976   7.405   1.696  1.00  0.00     0.014 A 
ATOM     33  C   UNL     1      -4.918   8.099   4.237  1.00  0.00     0.010 A 
ATOM     34  C   UNL     1      -4.506   6.433   2.523  1.00  0.00     0.010 A 
ATOM     35  C   UNL     1      -4.902   6.768   3.821  1.00  0.00    -0.014 A 
BRANCH  35  36
ATOM     36  C   UNL     1      -5.173   5.654   4.719  1.00  0.00     0.031 A 
ATOM     37  C   UNL     1      -6.497   5.003   4.739  1.00  0.00     0.074 A 
ATOM     38  C   UNL     1      -4.173   5.199   5.507  1.00  0.00     0.049 A 
ATOM     39  N   UNL     1      -6.926   4.275   5.714  1.00  0.00    -0.248 NA
ATOM     40  C   UNL     1      -7.494   5.200   3.691  1.00  0.00     0.031 C 
ATOM     41  C   UNL     1      -4.135   3.954   6.269  1.00  0.00     0.029 A 
ATOM     42  N   UNL     1      -3.047   5.916   5.955  1.00  0.00    -0.354 N 
ATOM     43  C   UNL     1      -8.099   3.683   5.310  1.00  0.00     0.074 A 
ATOM     44  C   UNL     1      -8.479   4.405   4.123  1.00  0.00     0.031 C 
ATOM     45  C   UNL     1      -3.265   4.094   7.282  1.00  0.00     0.029 A 
ATOM     46  C   UNL     1      -2.837   5.482   7.285  1.00  0.00     0.049 A 
ATOM     47  H   UNL     1      -2.520   6.578   5.452  1.00  0.00     0.167 HD
ATOM     48  C   UNL     1      -8.518   2.558   5.957  1.00  0.00     0.037 A 
ATOM     49  C   UNL     1      -2.953   6.330   8.348  1.00  0.00     0.037 A 
ATOM     50  C   UNL     1      -7.780   2.380   7.210  1.00  0.00     0.049 A 
ATOM     51  C   UNL     1      -3.956   5.888   9.384  1.00  0.00     0.074 A 
ATOM     52  C   UNL     1      -6.763   1.527   7.599  1.00  0.00     0.029 A 
ATOM     53  N   UNL     1      -7.892   3.346   8.207  1.00  0.00    -0.354 N 
ATOM     54  N   UNL     1      -4.921   5.045   9.143  1.00  0.00    -0.248 NA
ATOM     55  C   UNL     1      -3.977   6.386  10.757  1.00  0.00     0.031 C 
ATOM     56  C   UNL     1      -6.200   2.042   8.797  1.00  0.00     0.029 A 
ATOM     57  C   UNL     1      -6.907   3.178   9.158  1.00  0.00     0.049 A 
ATOM     58  H   UNL     1      -8.579   4.051   8.230  1.00  0.00     0.167 HD
ATOM     59  C   UNL     1      -5.685   4.895  10.269  1.00  0.00     0.074 A 
ATOM     60  C   UNL     1      -5.045   5.742  11.258  1.00  0.00     0.031 C 
ATOM     61  C   UNL     1      -6.790   4.093  10.284  1.00  0.00     0.037 A 
BRANCH  48  62
ATOM     62  C   UNL     1      -9.431   1.482   5.385  1.00  0.00     0.064 A 
ATOM     63  C   UNL     1      -9.695   0.310   6.134  1.00  0.00     0.173 A 
ATOM     64  C   UNL     1      -9.960   1.459   4.076  1.00  0.00     0.173 A 
ATOM     65  F   UNL     1      -9.277   0.184   7.401  1.00  0.00    -0.203 F 
ATOM     66  C   UNL     1     -10.381  -0.791   5.604  1.00  0.00     0.198 A 
ATOM     67  C   UNL     1     -10.681   0.376   3.563  1.00  0.00     0.198 A 
ATOM     68  F   UNL     1      -9.772   2.452   3.206  1.00  0.00    -0.203 F 
ATOM     69  F   UNL     1     -10.542  -1.896   6.345  1.00  0.00    -0.200 F 
ATOM     70  C   UNL     1     -10.876  -0.757   4.318  1.00  0.00     0.200 A 
ATOM     71  F   UNL     1     -11.159   0.436   2.311  1.00  0.00    -0.200 F 
ATOM     72  F   UNL     1     -11.526  -1.810   3.804  1.00  0.00    -0.200 F 
ENDBRANCH  48  62
BRANCH  49  73
ATOM     73  C   UNL     1      -2.650   7.745   8.011  1.00  0.00     0.064 A 
ATOM     74  C   UNL     1      -1.349   8.066   7.579  1.00  0.00     0.173 A 
ATOM     75  C   UNL     1      -3.667   8.669   7.744  1.00  0.00     0.173 A 
ATOM     76  F   UNL     1      -0.337   7.214   7.813  1.00  0.00    -0.203 F 
ATOM     77  C   UNL     1      -1.100   9.198   6.807  1.00  0.00     0.198 A 
ATOM     78  C   UNL     1      -3.410   9.812   6.984  1.00  0.00     0.198 A 
ATOM     79  F   UNL     1      -4.930   8.415   8.115  1.00  0.00    -0.203 F 
ATOM     80  F   UNL     1       0.127   9.413   6.310  1.00  0.00    -0.200 F 
ATOM     81  C   UNL     1      -2.138  10.055   6.486  1.00  0.00     0.200 A 
ATOM     82  F   UNL     1      -4.419  10.630   6.650  1.00  0.00    -0.200 F 
ATOM     83  F   UNL     1      -1.922  11.092   5.664  1.00  0.00    -0.200 F 
ENDBRANCH  49  73
BRANCH  61  84
ATOM     84  C   UNL     1      -7.816   4.034  11.388  1.00  0.00     0.064 A 
ATOM     85  C   UNL     1      -8.153   5.127  12.204  1.00  0.00     0.173 A 
ATOM     86  C   UNL     1      -8.615   2.878  11.558  1.00  0.00     0.173 A 
ATOM     87  F   UNL     1      -7.549   6.315  12.060  1.00  0.00    -0.203 F 
ATOM     88  C   UNL     1      -9.169   5.051  13.161  1.00  0.00     0.198 A 
ATOM     89  C   UNL     1      -9.664   2.823  12.475  1.00  0.00     0.198 A 
ATOM     90  F   UNL     1      -8.414   1.776  10.820  1.00  0.00    -0.203 F 
ATOM     91  F   UNL     1      -9.426   6.109  13.943  1.00  0.00    -0.200 F 
ATOM     92  C   UNL     1      -9.931   3.904  13.288  1.00  0.00     0.200 A 
ATOM     93  F   UNL     1     -10.426   1.723  12.551  1.00  0.00    -0.200 F 
ATOM     94  F   UNL     1     -10.934   3.851  14.175  1.00  0.00    -0.200 F 
ENDBRANCH  61  84
ENDBRANCH  35  36
ENDBRANCH  27  30
ENDBRANCH  25  26
ENDBRANCH  24  25
ENDBRANCH   1  24
TORSDOF 14
