REMARK SMILES O=C(CCNC(=O)CSc1nc2[nH]cnc2c(=O)[nH]1)NCCCNC(=O)c1ccc(-c2c3nc(c(-c4c(F)c(F)c(F)c(F)c4F)c4ccc([nH]4)c(-c4c(F)c(F)c(F)c(F)c4F)c4nc(c(-c5c(F)c(F)c(F)c(F)c5F)c5ccc2[nH]5)C=C4)C=C3)cc1
REMARK SMILES IDX 1 1 2 2 20 3 3 5 4 6 5 7 6 8 7 10 8 11 9 12 10 13 11 14
REMARK SMILES IDX 19 15 12 16 17 17 13 19 16 20 18 21 14 22 15 24 21 25 22 26
REMARK SMILES IDX 23 27 24 28 25 29 26 31 27 32 28 33 89 34 29 35 88 36 30 37
REMARK SMILES IDX 31 38 32 39 82 40 33 41 87 42 81 43 83 44 34 45 86 46 80 47
REMARK SMILES IDX 79 48 35 50 67 51 47 52 66 53 48 54 51 55 65 56 84 57 49 58
REMARK SMILES IDX 50 59 64 61 85 62 52 63 36 64 37 65 45 66 38 67 39 68 43 69
REMARK SMILES IDX 46 70 40 71 41 72 44 73 42 74 68 75 69 76 77 77 70 78 71 79
REMARK SMILES IDX 75 80 78 81 72 82 73 83 76 84 74 85 53 86 54 87 62 88 55 89
REMARK SMILES IDX 56 90 60 91 63 92 57 93 58 94 61 95 59 96
REMARK H PARENT 20 4 5 9 19 18 13 23 24 30 83 49 51 60
REMARK Flexibility Score: inf
ROOT
ATOM      1  O   UNL     1       0.953  -0.286   0.047  1.00  0.00    -0.275 OA
ATOM      2  C   UNL     1       2.163  -0.092   0.079  1.00  0.00     0.221 C 
ATOM      3  N   UNL     1       2.840   0.702  -0.820  1.00  0.00    -0.356 N 
ATOM      4  H   UNL     1       3.797   0.875  -0.670  1.00  0.00     0.163 HD
ENDROOT
BRANCH   2   5
ATOM      5  C   UNL     1       3.057  -0.749   1.107  1.00  0.00     0.121 C 
BRANCH   5   6
ATOM      6  C   UNL     1       3.868  -1.876   0.467  1.00  0.00     0.125 C 
BRANCH   6   7
ATOM      7  N   UNL     1       4.979  -1.355  -0.322  1.00  0.00    -0.355 N 
ATOM      8  C   UNL     1       6.282  -1.171   0.039  1.00  0.00     0.230 C 
ATOM      9  H   UNL     1       4.758  -1.101  -1.247  1.00  0.00     0.163 HD
ATOM     10  O   UNL     1       6.984  -0.442  -0.663  1.00  0.00    -0.274 OA
BRANCH   8  11
ATOM     11  C   UNL     1       6.860  -1.911   1.227  1.00  0.00     0.178 C 
BRANCH  11  12
ATOM     12  S   UNL     1       6.385  -1.219   2.822  1.00  0.00    -0.078 SA
BRANCH  12  13
ATOM     13  C   UNL     1       6.897   0.428   2.644  1.00  0.00     0.170 A 
ATOM     14  N   UNL     1       6.018   1.373   2.484  1.00  0.00    -0.204 NA
ATOM     15  N   UNL     1       8.258   0.602   2.769  1.00  0.00    -0.299 N 
ATOM     16  C   UNL     1       6.592   2.598   2.482  1.00  0.00     0.165 A 
ATOM     17  C   UNL     1       8.876   1.842   2.748  1.00  0.00     0.279 A 
ATOM     18  H   UNL     1       8.822  -0.198   2.880  1.00  0.00     0.172 HD
ATOM     19  N   UNL     1       5.933   3.790   2.437  1.00  0.00    -0.329 N 
ATOM     20  C   UNL     1       7.924   2.925   2.599  1.00  0.00     0.172 A 
ATOM     21  O   UNL     1      10.090   1.965   2.872  1.00  0.00    -0.267 OA
ATOM     22  C   UNL     1       6.882   4.777   2.521  1.00  0.00     0.199 A 
ATOM     23  H   UNL     1       4.960   3.919   2.359  1.00  0.00     0.169 HD
ATOM     24  N   UNL     1       8.102   4.285   2.606  1.00  0.00    -0.229 NA
ENDBRANCH  12  13
ENDBRANCH  11  12
ENDBRANCH   8  11
ENDBRANCH   6   7
ENDBRANCH   5   6
ENDBRANCH   2   5
BRANCH   3  25
ATOM     25  C   UNL     1       2.197   1.293  -1.978  1.00  0.00     0.117 C 
BRANCH  25  26
ATOM     26  C   UNL     1       2.498   2.779  -2.113  1.00  0.00     0.042 C 
BRANCH  26  27
ATOM     27  C   UNL     1       3.970   3.110  -2.329  1.00  0.00     0.118 C 
BRANCH  27  28
ATOM     28  N   UNL     1       4.492   2.622  -3.597  1.00  0.00    -0.352 N 
ATOM     29  C   UNL     1       5.164   3.293  -4.590  1.00  0.00     0.251 C 
ATOM     30  H   UNL     1       4.339   1.665  -3.770  1.00  0.00     0.163 HD
ATOM     31  O   UNL     1       5.400   2.726  -5.653  1.00  0.00    -0.269 OA
BRANCH  29  32
ATOM     32  C   UNL     1       5.574   4.703  -4.404  1.00  0.00     0.039 A 
ATOM     33  C   UNL     1       5.414   5.593  -5.470  1.00  0.00     0.014 A 
ATOM     34  C   UNL     1       6.127   5.151  -3.202  1.00  0.00     0.014 A 
ATOM     35  C   UNL     1       5.747   6.940  -5.310  1.00  0.00     0.010 A 
ATOM     36  C   UNL     1       6.377   6.509  -3.015  1.00  0.00     0.010 A 
ATOM     37  C   UNL     1       6.198   7.419  -4.069  1.00  0.00    -0.014 A 
BRANCH  37  38
ATOM     38  C   UNL     1       6.500   8.860  -3.864  1.00  0.00     0.031 A 
ATOM     39  C   UNL     1       7.897   9.300  -3.517  1.00  0.00     0.074 A 
ATOM     40  C   UNL     1       5.510   9.771  -3.940  1.00  0.00     0.049 A 
ATOM     41  N   UNL     1       8.345  10.501  -3.247  1.00  0.00    -0.248 NA
ATOM     42  C   UNL     1       8.921   8.247  -3.436  1.00  0.00     0.031 C 
ATOM     43  C   UNL     1       4.106   9.473  -4.228  1.00  0.00     0.029 A 
ATOM     44  N   UNL     1       5.531  11.135  -3.773  1.00  0.00    -0.354 N 
ATOM     45  C   UNL     1       9.694  10.343  -2.953  1.00  0.00     0.074 A 
ATOM     46  C   UNL     1       9.977   8.926  -3.017  1.00  0.00     0.031 C 
ATOM     47  C   UNL     1       3.407  10.619  -4.244  1.00  0.00     0.029 A 
ATOM     48  C   UNL     1       4.301  11.728  -3.925  1.00  0.00     0.049 A 
ATOM     49  H   UNL     1       6.350  11.639  -3.564  1.00  0.00     0.167 HD
ATOM     50  C   UNL     1      10.619  11.295  -2.679  1.00  0.00     0.037 A 
ATOM     51  C   UNL     1       3.933  13.019  -3.811  1.00  0.00     0.037 A 
ATOM     52  C   UNL     1      10.340  12.707  -2.635  1.00  0.00     0.049 A 
ATOM     53  C   UNL     1       4.976  14.055  -3.485  1.00  0.00     0.074 A 
ATOM     54  C   UNL     1      11.219  13.753  -2.420  1.00  0.00     0.029 A 
ATOM     55  N   UNL     1       9.082  13.269  -2.801  1.00  0.00    -0.354 N 
ATOM     56  N   UNL     1       6.262  13.902  -3.280  1.00  0.00    -0.248 NA
ATOM     57  C   UNL     1       4.517  15.448  -3.383  1.00  0.00     0.031 C 
ATOM     58  C   UNL     1      10.486  14.944  -2.399  1.00  0.00     0.029 A 
ATOM     59  C   UNL     1       9.159  14.647  -2.666  1.00  0.00     0.049 A 
ATOM     60  H   UNL     1       8.258  12.764  -2.987  1.00  0.00     0.167 HD
ATOM     61  C   UNL     1       6.769  15.175  -3.059  1.00  0.00     0.074 A 
ATOM     62  C   UNL     1       5.655  16.093  -3.170  1.00  0.00     0.031 C 
ATOM     63  C   UNL     1       8.044  15.551  -2.789  1.00  0.00     0.037 A 
BRANCH  50  64
ATOM     64  C   UNL     1      12.025  10.839  -2.406  1.00  0.00     0.064 A 
ATOM     65  C   UNL     1      12.828  10.280  -3.413  1.00  0.00     0.173 A 
ATOM     66  C   UNL     1      12.590  10.997  -1.132  1.00  0.00     0.173 A 
ATOM     67  F   UNL     1      12.335  10.100  -4.648  1.00  0.00    -0.203 F 
ATOM     68  C   UNL     1      14.130   9.865  -3.145  1.00  0.00     0.198 A 
ATOM     69  C   UNL     1      13.905  10.614  -0.877  1.00  0.00     0.198 A 
ATOM     70  F   UNL     1      11.873  11.536  -0.135  1.00  0.00    -0.203 F 
ATOM     71  F   UNL     1      14.858   9.285  -4.110  1.00  0.00    -0.200 F 
ATOM     72  C   UNL     1      14.670  10.039  -1.880  1.00  0.00     0.200 A 
ATOM     73  F   UNL     1      14.432  10.802   0.341  1.00  0.00    -0.200 F 
ATOM     74  F   UNL     1      15.927   9.650  -1.628  1.00  0.00    -0.200 F 
ENDBRANCH  50  64
BRANCH  51  75
ATOM     75  C   UNL     1       2.515  13.412  -4.025  1.00  0.00     0.064 A 
ATOM     76  C   UNL     1       2.141  14.192  -5.129  1.00  0.00     0.173 A 
ATOM     77  C   UNL     1       1.508  13.033  -3.126  1.00  0.00     0.173 A 
ATOM     78  F   UNL     1       3.070  14.599  -6.007  1.00  0.00    -0.203 F 
ATOM     79  C   UNL     1       0.821  14.599  -5.311  1.00  0.00     0.198 A 
ATOM     80  C   UNL     1       0.182  13.413  -3.326  1.00  0.00     0.198 A 
ATOM     81  F   UNL     1       1.809  12.283  -2.056  1.00  0.00    -0.203 F 
ATOM     82  F   UNL     1       0.502  15.390  -6.344  1.00  0.00    -0.200 F 
ATOM     83  C   UNL     1      -0.159  14.204  -4.412  1.00  0.00     0.200 A 
ATOM     84  F   UNL     1      -0.764  13.016  -2.464  1.00  0.00    -0.200 F 
ATOM     85  F   UNL     1      -1.429  14.594  -4.588  1.00  0.00    -0.200 F 
ENDBRANCH  51  75
BRANCH  63  86
ATOM     86  C   UNL     1       8.316  17.022  -2.641  1.00  0.00     0.064 A 
ATOM     87  C   UNL     1       7.853  17.753  -1.537  1.00  0.00     0.173 A 
ATOM     88  C   UNL     1       9.085  17.699  -3.600  1.00  0.00     0.173 A 
ATOM     89  F   UNL     1       7.101  17.158  -0.599  1.00  0.00    -0.203 F 
ATOM     90  C   UNL     1       8.126  19.114  -1.415  1.00  0.00     0.198 A 
ATOM     91  C   UNL     1       9.386  19.050  -3.456  1.00  0.00     0.198 A 
ATOM     92  F   UNL     1       9.559  17.046  -4.672  1.00  0.00    -0.203 F 
ATOM     93  F   UNL     1       7.628  19.804  -0.380  1.00  0.00    -0.200 F 
ATOM     94  C   UNL     1       8.899  19.759  -2.369  1.00  0.00     0.200 A 
ATOM     95  F   UNL     1      10.147  19.667  -4.371  1.00  0.00    -0.200 F 
ATOM     96  F   UNL     1       9.167  21.066  -2.244  1.00  0.00    -0.200 F 
ENDBRANCH  63  86
ENDBRANCH  37  38
ENDBRANCH  29  32
ENDBRANCH  27  28
ENDBRANCH  26  27
ENDBRANCH  25  26
ENDBRANCH   3  25
TORSDOF 15
