REMARK SMILES O=C(NCCCNC(=O)[C@H](c1c[nH]c2cc(F)ccc12)[NH+]1CC[NH+](CC(=O)N2CCOCC2)CC1)c1ccc(-c2c3nc(c(-c4c(F)c(F)c(F)c(F)c4F)c4ccc([nH]4)c(-c4c(F)c(F)c(F)c(F)c4F)c4nc(c(-c5c(F)c(F)c(F)c(F)c5F)c5ccc2[nH]5)C=C4)C=C3)cc1
REMARK SMILES IDX 5 1 4 2 3 3 1 4 2 5 36 7 37 8 98 9 38 10 97 11 39 12 40 13
REMARK SMILES IDX 41 14 91 15 42 16 96 17 90 18 92 19 43 20 95 21 89 22 88 23
REMARK SMILES IDX 44 25 76 26 56 27 75 28 57 29 60 30 74 31 93 32 58 33 59 34
REMARK SMILES IDX 73 36 94 37 61 38 45 39 46 40 54 41 47 42 48 43 52 44 55 45
REMARK SMILES IDX 49 46 50 47 53 48 51 49 77 50 78 51 86 52 79 53 80 54 84 55
REMARK SMILES IDX 87 56 81 57 82 58 85 59 83 60 62 61 63 62 71 63 64 64 65 65
REMARK SMILES IDX 69 66 72 67 66 68 67 69 70 70 68 71 6 72 7 73 8 74 9 76
REMARK SMILES IDX 10 77 21 78 22 79 35 80 23 82 34 83 24 84 25 86 26 87 27 88
REMARK SMILES IDX 28 89 29 90 33 91 30 92 32 93 31 94 11 95 12 96 20 97 13 98
REMARK SMILES IDX 14 99 19 100 15 102 18 103 16 104 17 105
REMARK H PARENT 3 6 92 24 60 35 7 75 21 81 24 85 13 101
REMARK Flexibility Score: inf
ROOT
ATOM      1  C   UNL     1       6.606  -0.635  -1.580  1.00  0.00     0.042 C 
ENDROOT
BRANCH   1   2
ATOM      2  C   UNL     1       6.598  -1.366  -0.247  1.00  0.00     0.118 C 
BRANCH   2   3
ATOM      3  N   UNL     1       7.262  -0.585   0.784  1.00  0.00    -0.352 N 
ATOM      4  O   UNL     1       7.445   0.994   2.363  1.00  0.00    -0.269 OA
ATOM      5  C   UNL     1       6.739   0.152   1.817  1.00  0.00     0.251 C 
ATOM      6  H   UNL     1       8.246  -0.584   0.733  1.00  0.00     0.163 HD
BRANCH   5   7
ATOM      7  C   UNL     1       5.355  -0.066   2.302  1.00  0.00     0.039 A 
ATOM      8  C   UNL     1       4.781  -1.339   2.323  1.00  0.00     0.014 A 
ATOM      9  C   UNL     1       4.667   1.010   2.880  1.00  0.00     0.014 A 
ATOM     10  C   UNL     1       3.504  -1.525   2.843  1.00  0.00     0.010 A 
ATOM     11  C   UNL     1       3.424   0.806   3.488  1.00  0.00     0.010 A 
ATOM     12  C   UNL     1       2.839  -0.467   3.481  1.00  0.00    -0.014 A 
BRANCH  12  13
ATOM     13  C   UNL     1       1.617  -0.759   4.270  1.00  0.00     0.031 A 
ATOM     14  C   UNL     1       0.281  -0.203   3.885  1.00  0.00     0.074 A 
ATOM     15  C   UNL     1       1.741  -1.552   5.353  1.00  0.00     0.049 A 
ATOM     16  N   UNL     1      -0.878  -0.371   4.470  1.00  0.00    -0.248 NA
ATOM     17  C   UNL     1       0.238   0.666   2.700  1.00  0.00     0.031 C 
ATOM     18  C   UNL     1       3.004  -2.119   5.837  1.00  0.00     0.029 A 
ATOM     19  N   UNL     1       0.805  -2.037   6.229  1.00  0.00    -0.354 N 
ATOM     20  C   UNL     1      -1.784   0.387   3.743  1.00  0.00     0.074 A 
ATOM     21  C   UNL     1      -1.039   1.027   2.678  1.00  0.00     0.031 C 
ATOM     22  C   UNL     1       2.757  -2.917   6.885  1.00  0.00     0.029 A 
ATOM     23  C   UNL     1       1.331  -2.871   7.185  1.00  0.00     0.049 A 
ATOM     24  H   UNL     1      -0.151  -1.809   6.178  1.00  0.00     0.167 HD
ATOM     25  C   UNL     1      -3.115   0.529   3.950  1.00  0.00     0.037 A 
ATOM     26  C   UNL     1       0.735  -3.520   8.201  1.00  0.00     0.037 A 
ATOM     27  C   UNL     1      -3.848  -0.131   5.001  1.00  0.00     0.049 A 
ATOM     28  C   UNL     1      -0.744  -3.362   8.389  1.00  0.00     0.074 A 
ATOM     29  C   UNL     1      -5.204  -0.081   5.271  1.00  0.00     0.029 A 
ATOM     30  N   UNL     1      -3.281  -0.964   5.956  1.00  0.00    -0.354 N 
ATOM     31  N   UNL     1      -1.594  -2.662   7.678  1.00  0.00    -0.248 NA
ATOM     32  C   UNL     1      -1.346  -4.074   9.523  1.00  0.00     0.031 C 
ATOM     33  C   UNL     1      -5.453  -0.856   6.410  1.00  0.00     0.029 A 
ATOM     34  C   UNL     1      -4.258  -1.420   6.827  1.00  0.00     0.049 A 
ATOM     35  H   UNL     1      -2.326  -1.196   6.007  1.00  0.00     0.167 HD
ATOM     36  C   UNL     1      -2.830  -2.846   8.276  1.00  0.00     0.074 A 
ATOM     37  C   UNL     1      -2.625  -3.748   9.392  1.00  0.00     0.031 C 
ATOM     38  C   UNL     1      -4.027  -2.308   7.937  1.00  0.00     0.037 A 
BRANCH  25  39
ATOM     39  C   UNL     1      -3.867   1.448   3.034  1.00  0.00     0.064 A 
ATOM     40  C   UNL     1      -4.164   1.090   1.711  1.00  0.00     0.173 A 
ATOM     41  C   UNL     1      -4.334   2.687   3.500  1.00  0.00     0.173 A 
ATOM     42  F   UNL     1      -3.727  -0.077   1.214  1.00  0.00    -0.203 F 
ATOM     43  C   UNL     1      -4.886   1.946   0.883  1.00  0.00     0.198 A 
ATOM     44  C   UNL     1      -5.074   3.530   2.676  1.00  0.00     0.198 A 
ATOM     45  F   UNL     1      -4.079   3.075   4.758  1.00  0.00    -0.203 F 
ATOM     46  F   UNL     1      -5.126   1.600  -0.390  1.00  0.00    -0.200 F 
ATOM     47  C   UNL     1      -5.346   3.162   1.367  1.00  0.00     0.200 A 
ATOM     48  F   UNL     1      -5.524   4.702   3.148  1.00  0.00    -0.200 F 
ATOM     49  F   UNL     1      -6.043   3.982   0.570  1.00  0.00    -0.200 F 
ENDBRANCH  25  39
BRANCH  26  50
ATOM     50  C   UNL     1       1.548  -4.373   9.104  1.00  0.00     0.064 A 
ATOM     51  C   UNL     1       1.443  -5.769   9.063  1.00  0.00     0.173 A 
ATOM     52  C   UNL     1       2.477  -3.811   9.992  1.00  0.00     0.173 A 
ATOM     53  F   UNL     1       0.557  -6.350   8.241  1.00  0.00    -0.203 F 
ATOM     54  C   UNL     1       2.235  -6.572   9.881  1.00  0.00     0.198 A 
ATOM     55  C   UNL     1       3.286  -4.616  10.790  1.00  0.00     0.198 A 
ATOM     56  F   UNL     1       2.619  -2.479  10.062  1.00  0.00    -0.203 F 
ATOM     57  F   UNL     1       2.098  -7.905   9.842  1.00  0.00    -0.200 F 
ATOM     58  C   UNL     1       3.162  -5.996  10.737  1.00  0.00     0.200 A 
ATOM     59  F   UNL     1       4.192  -4.055  11.602  1.00  0.00    -0.200 F 
ATOM     60  F   UNL     1       3.934  -6.770  11.512  1.00  0.00    -0.200 F 
ENDBRANCH  26  50
BRANCH  38  61
ATOM     61  C   UNL     1      -5.200  -2.688   8.787  1.00  0.00     0.064 A 
ATOM     62  C   UNL     1      -5.377  -2.145  10.068  1.00  0.00     0.173 A 
ATOM     63  C   UNL     1      -6.167  -3.583   8.308  1.00  0.00     0.173 A 
ATOM     64  F   UNL     1      -4.466  -1.299  10.573  1.00  0.00    -0.203 F 
ATOM     65  C   UNL     1      -6.471  -2.503  10.849  1.00  0.00     0.198 A 
ATOM     66  C   UNL     1      -7.272  -3.922   9.083  1.00  0.00     0.198 A 
ATOM     67  F   UNL     1      -6.041  -4.126   7.088  1.00  0.00    -0.203 F 
ATOM     68  F   UNL     1      -6.599  -2.006  12.087  1.00  0.00    -0.200 F 
ATOM     69  C   UNL     1      -7.420  -3.386  10.355  1.00  0.00     0.200 A 
ATOM     70  F   UNL     1      -8.191  -4.770   8.603  1.00  0.00    -0.200 F 
ATOM     71  F   UNL     1      -8.473  -3.729  11.108  1.00  0.00    -0.200 F 
ENDBRANCH  38  61
ENDBRANCH  12  13
ENDBRANCH   5   7
ENDBRANCH   2   3
ENDBRANCH   1   2
BRANCH   1  72
ATOM     72  C   UNL     1       7.967  -0.635  -2.263  1.00  0.00     0.118 C 
BRANCH  72  73
ATOM     73  N   UNL     1       8.239  -1.885  -2.940  1.00  0.00    -0.351 N 
ATOM     74  C   UNL     1       7.917  -2.363  -4.171  1.00  0.00     0.283 C 
ATOM     75  H   UNL     1       8.763  -2.518  -2.398  1.00  0.00     0.163 HD
ATOM     76  O   UNL     1       8.392  -3.487  -4.410  1.00  0.00    -0.268 OA
BRANCH  74  77
ATOM     77  C   UNL     1       6.985  -1.691  -5.218  1.00  0.00     0.308 C 
BRANCH  77  78
ATOM     78  N   UNL     1       5.665  -2.355  -5.388  1.00  0.00    -0.312 N 
ATOM     79  C   UNL     1       5.252  -3.531  -4.604  1.00  0.00     0.325 C 
ATOM     80  C   UNL     1       4.535  -1.560  -5.803  1.00  0.00     0.325 C 
ATOM     81  H   UNL     1       6.066  -2.809  -6.209  1.00  0.00     0.349 HD
ATOM     82  C   UNL     1       3.710  -3.622  -4.196  1.00  0.00     0.325 C 
ATOM     83  C   UNL     1       3.737  -1.227  -4.540  1.00  0.00     0.325 C 
ATOM     84  N   UNL     1       2.948  -2.357  -4.106  1.00  0.00    -0.318 N 
ATOM     85  H   UNL     1       2.776  -2.269  -3.105  1.00  0.00     0.348 HD
BRANCH  84  86
ATOM     86  C   UNL     1       1.563  -2.341  -4.605  1.00  0.00     0.364 C 
BRANCH  86  87
ATOM     87  C   UNL     1       1.313  -2.662  -6.093  1.00  0.00     0.277 C 
ATOM     88  O   UNL     1       1.262  -3.835  -6.473  1.00  0.00    -0.268 OA
ATOM     89  N   UNL     1       0.977  -1.608  -6.960  1.00  0.00    -0.333 N 
ATOM     90  C   UNL     1       1.824  -0.426  -7.122  1.00  0.00     0.148 C 
ATOM     91  C   UNL     1       0.231  -1.962  -8.168  1.00  0.00     0.148 C 
ATOM     92  C   UNL     1       1.214   0.714  -7.939  1.00  0.00     0.181 C 
ATOM     93  C   UNL     1      -0.400  -0.731  -8.825  1.00  0.00     0.181 C 
ATOM     94  O   UNL     1       0.604   0.242  -9.141  1.00  0.00    -0.378 OA
ENDBRANCH  86  87
ENDBRANCH  84  86
ENDBRANCH  77  78
BRANCH  77  95
ATOM     95  C   UNL     1       6.939  -0.154  -5.293  1.00  0.00     0.044 A 
ATOM     96  C   UNL     1       6.217   0.756  -4.529  1.00  0.00     0.094 A 
ATOM     97  C   UNL     1       7.565   0.650  -6.323  1.00  0.00     0.009 A 
ATOM     98  N   UNL     1       6.378   2.018  -5.025  1.00  0.00    -0.361 N 
ATOM     99  C   UNL     1       7.184   1.982  -6.128  1.00  0.00     0.049 A 
ATOM    100  C   UNL     1       8.394   0.360  -7.430  1.00  0.00     0.014 A 
ATOM    101  H   UNL     1       5.973   2.831  -4.645  1.00  0.00     0.166 HD
ATOM    102  C   UNL     1       7.583   3.029  -6.964  1.00  0.00     0.065 A 
ATOM    103  C   UNL     1       8.808   1.397  -8.277  1.00  0.00     0.040 A 
ATOM    104  C   UNL     1       8.404   2.702  -8.037  1.00  0.00     0.125 A 
ATOM    105  F   UNL     1       8.808   3.677  -8.863  1.00  0.00    -0.207 F 
ENDBRANCH  77  95
ENDBRANCH  74  77
ENDBRANCH  72  73
ENDBRANCH   1  72
TORSDOF 14
