REMARK SMILES Nc1ccc2[nH]cc(C(=O)NCCCNC(=O)c3ccc(-c4c5nc(c(-c6c(F)c(F)c(F)c(F)c6F)c6ccc([nH]6)c(-c6c(F)c(F)c(F)c(F)c6F)c6nc(c(-c7c(F)c(F)c(F)c(F)c7F)c7ccc4[nH]7)C=C6)C=C5)cc3)c2c1
REMARK SMILES IDX 13 1 12 2 11 3 9 4 10 5 8 7 2 8 3 9 82 10 4 11 81 12 5 13
REMARK SMILES IDX 6 14 7 15 1 17 14 20 15 21 16 22 17 24 18 25 19 26 80 27
REMARK SMILES IDX 20 28 79 29 21 30 22 31 23 32 73 33 24 34 78 35 72 36 74 37
REMARK SMILES IDX 25 38 77 39 71 40 70 41 26 43 58 44 38 45 57 46 39 47 42 48
REMARK SMILES IDX 56 49 75 50 40 51 41 52 55 54 76 55 43 56 27 57 28 58 36 59
REMARK SMILES IDX 29 60 30 61 34 62 37 63 31 64 32 65 35 66 33 67 59 68 60 69
REMARK SMILES IDX 68 70 61 71 62 72 66 73 69 74 63 75 64 76 67 77 65 78 44 79
REMARK SMILES IDX 45 80 53 81 46 82 47 83 51 84 54 85 48 86 49 87 52 88 50 89
REMARK H PARENT 11 6 6 16 1 18 1 19 15 23 74 42 42 53
REMARK Flexibility Score: inf
ROOT
ATOM      1  C   UNL     1      -1.296   2.641  -2.332  1.00  0.00     0.042 C 
ENDROOT
BRANCH   1   2
ATOM      2  C   UNL     1      -2.526   1.937  -1.744  1.00  0.00     0.118 C 
BRANCH   2   3
ATOM      3  N   UNL     1      -3.348   1.332  -2.755  1.00  0.00    -0.352 N 
ATOM      4  C   UNL     1      -3.525   0.049  -3.195  1.00  0.00     0.253 C 
ATOM      5  O   UNL     1      -4.499  -0.076  -3.938  1.00  0.00    -0.269 OA
ATOM      6  H   UNL     1      -3.905   1.984  -3.238  1.00  0.00     0.163 HD
BRANCH   4   7
ATOM      7  C   UNL     1      -2.673  -1.117  -2.887  1.00  0.00     0.065 A 
ATOM      8  C   UNL     1       0.616  -1.381  -0.787  1.00  0.00     0.032 A 
ATOM      9  C   UNL     1       0.848  -2.717  -1.073  1.00  0.00     0.027 A 
ATOM     10  C   UNL     1      -0.518  -0.750  -1.330  1.00  0.00     0.036 A 
ATOM     11  C   UNL     1      -0.035  -3.442  -1.870  1.00  0.00     0.029 A 
ATOM     12  C   UNL     1      -1.454  -1.428  -2.154  1.00  0.00     0.014 A 
ATOM     13  C   UNL     1      -1.164  -2.785  -2.378  1.00  0.00     0.046 A 
ATOM     14  N   UNL     1      -2.160  -3.302  -3.159  1.00  0.00    -0.360 N 
ATOM     15  C   UNL     1      -3.059  -2.332  -3.459  1.00  0.00     0.097 A 
ATOM     16  H   UNL     1      -2.217  -4.238  -3.458  1.00  0.00     0.166 HD
BRANCH   8  17
ATOM     17  N   UNL     1       1.484  -0.676   0.029  1.00  0.00    -0.399 N 
ATOM     18  H   UNL     1       2.276  -1.122   0.406  1.00  0.00     0.156 HD
ATOM     19  H   UNL     1       1.309   0.272   0.231  1.00  0.00     0.156 HD
ENDBRANCH   8  17
ENDBRANCH   4   7
ENDBRANCH   2   3
ENDBRANCH   1   2
BRANCH   1  20
ATOM     20  C   UNL     1      -1.545   4.126  -2.620  1.00  0.00     0.118 C 
BRANCH  20  21
ATOM     21  N   UNL     1      -1.980   4.861  -1.445  1.00  0.00    -0.352 N 
ATOM     22  C   UNL     1      -1.387   5.500  -0.396  1.00  0.00     0.251 C 
ATOM     23  H   UNL     1      -2.962   4.912  -1.392  1.00  0.00     0.163 HD
ATOM     24  O   UNL     1      -2.163   6.002   0.424  1.00  0.00    -0.269 OA
BRANCH  22  25
ATOM     25  C   UNL     1       0.073   5.608  -0.139  1.00  0.00     0.039 A 
ATOM     26  C   UNL     1       1.085   5.027  -0.899  1.00  0.00     0.014 A 
ATOM     27  C   UNL     1       0.434   6.335   1.017  1.00  0.00     0.014 A 
ATOM     28  C   UNL     1       2.410   5.104  -0.468  1.00  0.00     0.010 A 
ATOM     29  C   UNL     1       1.755   6.424   1.444  1.00  0.00     0.010 A 
ATOM     30  C   UNL     1       2.742   5.769   0.723  1.00  0.00    -0.014 A 
BRANCH  30  31
ATOM     31  C   UNL     1       4.155   5.856   1.094  1.00  0.00     0.031 A 
ATOM     32  C   UNL     1       4.999   6.526   0.067  1.00  0.00     0.074 A 
ATOM     33  C   UNL     1       4.677   5.446   2.271  1.00  0.00     0.049 A 
ATOM     34  N   UNL     1       5.927   5.990  -0.654  1.00  0.00    -0.248 NA
ATOM     35  C   UNL     1       4.693   7.918  -0.295  1.00  0.00     0.031 C 
ATOM     36  C   UNL     1       3.955   5.042   3.481  1.00  0.00     0.029 A 
ATOM     37  N   UNL     1       5.988   5.369   2.661  1.00  0.00    -0.354 N 
ATOM     38  C   UNL     1       6.451   7.018  -1.436  1.00  0.00     0.074 A 
ATOM     39  C   UNL     1       5.568   8.142  -1.277  1.00  0.00     0.031 C 
ATOM     40  C   UNL     1       4.818   4.976   4.523  1.00  0.00     0.029 A 
ATOM     41  C   UNL     1       6.170   5.171   4.027  1.00  0.00     0.049 A 
ATOM     42  H   UNL     1       6.739   5.446   2.028  1.00  0.00     0.167 HD
ATOM     43  C   UNL     1       7.709   6.922  -1.947  1.00  0.00     0.037 A 
ATOM     44  C   UNL     1       7.348   5.183   4.700  1.00  0.00     0.037 A 
ATOM     45  C   UNL     1       8.188   5.568  -1.889  1.00  0.00     0.049 A 
ATOM     46  C   UNL     1       8.422   4.881   3.729  1.00  0.00     0.074 A 
ATOM     47  C   UNL     1       8.053   4.415  -2.628  1.00  0.00     0.029 A 
ATOM     48  N   UNL     1       8.674   5.213  -0.663  1.00  0.00    -0.354 N 
ATOM     49  N   UNL     1       8.576   3.720   3.160  1.00  0.00    -0.248 NA
ATOM     50  C   UNL     1       9.196   5.976   3.152  1.00  0.00     0.031 C 
ATOM     51  C   UNL     1       8.345   3.333  -1.742  1.00  0.00     0.029 A 
ATOM     52  C   UNL     1       8.682   3.857  -0.498  1.00  0.00     0.049 A 
ATOM     53  H   UNL     1       8.980   5.856   0.018  1.00  0.00     0.167 HD
ATOM     54  C   UNL     1       9.110   4.023   1.927  1.00  0.00     0.074 A 
ATOM     55  C   UNL     1       9.642   5.373   2.048  1.00  0.00     0.031 C 
ATOM     56  C   UNL     1       8.768   3.296   0.829  1.00  0.00     0.037 A 
BRANCH  43  57
ATOM     57  C   UNL     1       8.689   8.074  -2.039  1.00  0.00     0.064 A 
ATOM     58  C   UNL     1       9.938   7.870  -2.666  1.00  0.00     0.173 A 
ATOM     59  C   UNL     1       8.591   9.244  -1.256  1.00  0.00     0.173 A 
ATOM     60  F   UNL     1      10.159   6.776  -3.410  1.00  0.00    -0.203 F 
ATOM     61  C   UNL     1      11.016   8.741  -2.473  1.00  0.00     0.198 A 
ATOM     62  C   UNL     1       9.653  10.135  -1.104  1.00  0.00     0.198 A 
ATOM     63  F   UNL     1       7.511   9.512  -0.513  1.00  0.00    -0.203 F 
ATOM     64  F   UNL     1      12.214   8.447  -2.996  1.00  0.00    -0.200 F 
ATOM     65  C   UNL     1      10.873   9.871  -1.689  1.00  0.00     0.200 A 
ATOM     66  F   UNL     1       9.504  11.210  -0.316  1.00  0.00    -0.200 F 
ATOM     67  F   UNL     1      11.917  10.677  -1.457  1.00  0.00    -0.200 F 
ENDBRANCH  43  57
BRANCH  44  68
ATOM     68  C   UNL     1       7.680   5.662   6.065  1.00  0.00     0.064 A 
ATOM     69  C   UNL     1       8.922   5.350   6.650  1.00  0.00     0.173 A 
ATOM     70  C   UNL     1       6.956   6.712   6.657  1.00  0.00     0.173 A 
ATOM     71  F   UNL     1       9.684   4.372   6.138  1.00  0.00    -0.203 F 
ATOM     72  C   UNL     1       9.447   6.099   7.707  1.00  0.00     0.198 A 
ATOM     73  C   UNL     1       7.479   7.455   7.718  1.00  0.00     0.198 A 
ATOM     74  F   UNL     1       5.781   7.106   6.147  1.00  0.00    -0.203 F 
ATOM     75  F   UNL     1      10.677   5.833   8.170  1.00  0.00    -0.200 F 
ATOM     76  C   UNL     1       8.734   7.166   8.225  1.00  0.00     0.200 A 
ATOM     77  F   UNL     1       6.795   8.505   8.194  1.00  0.00    -0.200 F 
ATOM     78  F   UNL     1       9.274   7.943   9.174  1.00  0.00    -0.200 F 
ENDBRANCH  44  68
BRANCH  56  79
ATOM     79  C   UNL     1       8.291   1.899   1.048  1.00  0.00     0.064 A 
ATOM     80  C   UNL     1       7.073   1.561   1.658  1.00  0.00     0.173 A 
ATOM     81  C   UNL     1       9.081   0.859   0.545  1.00  0.00     0.173 A 
ATOM     82  F   UNL     1       6.236   2.509   2.103  1.00  0.00    -0.203 F 
ATOM     83  C   UNL     1       6.680   0.229   1.780  1.00  0.00     0.198 A 
ATOM     84  C   UNL     1       8.672  -0.466   0.638  1.00  0.00     0.198 A 
ATOM     85  F   UNL     1      10.239   1.135  -0.075  1.00  0.00    -0.203 F 
ATOM     86  F   UNL     1       5.516  -0.079   2.370  1.00  0.00    -0.200 F 
ATOM     87  C   UNL     1       7.476  -0.781   1.262  1.00  0.00     0.200 A 
ATOM     88  F   UNL     1       9.427  -1.434   0.100  1.00  0.00    -0.200 F 
ATOM     89  F   UNL     1       7.079  -2.059   1.341  1.00  0.00    -0.200 F 
ENDBRANCH  56  79
ENDBRANCH  30  31
ENDBRANCH  22  25
ENDBRANCH  20  21
ENDBRANCH   1  20
TORSDOF 11
