REMARK SMILES CC[C@@H](C(=O)NCCCNC(=O)c1ccc(-c2c3nc(c(-c4c(F)c(F)c(F)c(F)c4F)c4ccc([nH]4)c(-c4c(F)c(F)c(F)c(F)c4F)c4nc(c(-c5c(F)c(F)c(F)c(F)c5F)c5ccc2[nH]5)C=C4)C=C3)cc1)c1cc(Br)ccc1F
REMARK SMILES IDX 8 1 7 2 6 3 4 4 5 5 3 7 2 8 1 9 76 10 77 11 82 12 78 13
REMARK SMILES IDX 81 14 83 15 79 16 80 17 9 18 10 19 11 20 12 22 13 23 14 24
REMARK SMILES IDX 75 25 15 26 74 27 16 28 17 29 18 30 68 31 19 32 73 33 67 34
REMARK SMILES IDX 69 35 20 36 72 37 66 38 65 39 21 41 53 42 33 43 52 44 34 45
REMARK SMILES IDX 37 46 51 47 70 48 35 49 36 50 50 52 71 53 38 54 22 55 23 56
REMARK SMILES IDX 31 57 24 58 25 59 29 60 32 61 26 62 27 63 30 64 28 65 54 66
REMARK SMILES IDX 55 67 63 68 56 69 57 70 61 71 64 72 58 73 59 74 62 75 60 76
REMARK SMILES IDX 39 77 40 78 48 79 41 80 42 81 46 82 49 83 43 84 44 85 47 86
REMARK SMILES IDX 45 87
REMARK H PARENT 6 6 10 21 69 40 37 51
REMARK Flexibility Score: inf
ROOT
ATOM      1  C   UNL     1       1.471   1.937   1.694  1.00  0.00     0.042 C 
ENDROOT
BRANCH   1   2
ATOM      2  C   UNL     1       1.984   0.566   2.141  1.00  0.00     0.117 C 
BRANCH   2   3
ATOM      3  N   UNL     1       0.904  -0.257   2.655  1.00  0.00    -0.356 N 
ATOM      4  C   UNL     1       0.251  -1.343   2.161  1.00  0.00     0.227 C 
ATOM      5  O   UNL     1      -0.766  -1.663   2.785  1.00  0.00    -0.274 OA
ATOM      6  H   UNL     1       0.579   0.029   3.540  1.00  0.00     0.163 HD
BRANCH   4   7
ATOM      7  C   UNL     1       0.765  -2.133   0.939  1.00  0.00     0.111 C 
BRANCH   7   8
ATOM      8  C   UNL     1       0.172  -1.676  -0.411  1.00  0.00     0.015 C 
ATOM      9  C   UNL     1       0.684  -0.357  -0.952  1.00  0.00     0.005 C 
ENDBRANCH   7   8
BRANCH   7  10
ATOM     10  C   UNL     1       0.433  -3.630   1.067  1.00  0.00     0.001 A 
ATOM     11  C   UNL     1      -0.899  -4.075   1.188  1.00  0.00     0.023 A 
ATOM     12  C   UNL     1       1.438  -4.598   0.976  1.00  0.00     0.127 A 
ATOM     13  C   UNL     1      -1.200  -5.437   1.227  1.00  0.00     0.018 A 
ATOM     14  C   UNL     1       1.138  -5.961   1.004  1.00  0.00     0.041 A 
ATOM     15  F   UNL     1       2.717  -4.225   0.825  1.00  0.00    -0.207 F 
ATOM     16  Br  UNL     1      -2.999  -5.992   1.394  1.00  0.00    -0.051 Br
ATOM     17  C   UNL     1      -0.185  -6.384   1.131  1.00  0.00     0.019 A 
ENDBRANCH   7  10
ENDBRANCH   4   7
ENDBRANCH   2   3
ENDBRANCH   1   2
BRANCH   1  18
ATOM     18  C   UNL     1       0.852   2.788   2.801  1.00  0.00     0.118 C 
BRANCH  18  19
ATOM     19  N   UNL     1       1.849   3.464   3.617  1.00  0.00    -0.352 N 
ATOM     20  C   UNL     1       2.112   4.803   3.753  1.00  0.00     0.251 C 
ATOM     21  H   UNL     1       2.422   2.870   4.153  1.00  0.00     0.163 HD
ATOM     22  O   UNL     1       3.123   5.161   4.361  1.00  0.00    -0.269 OA
BRANCH  20  23
ATOM     23  C   UNL     1       1.222   5.830   3.160  1.00  0.00     0.039 A 
ATOM     24  C   UNL     1       1.804   6.936   2.531  1.00  0.00     0.014 A 
ATOM     25  C   UNL     1      -0.171   5.740   3.248  1.00  0.00     0.014 A 
ATOM     26  C   UNL     1       0.996   7.907   1.933  1.00  0.00     0.010 A 
ATOM     27  C   UNL     1      -0.975   6.671   2.587  1.00  0.00     0.010 A 
ATOM     28  C   UNL     1      -0.401   7.764   1.921  1.00  0.00    -0.014 A 
BRANCH  28  29
ATOM     29  C   UNL     1      -1.267   8.737   1.203  1.00  0.00     0.031 A 
ATOM     30  C   UNL     1      -2.250   9.590   1.956  1.00  0.00     0.074 A 
ATOM     31  C   UNL     1      -1.210   8.812  -0.141  1.00  0.00     0.049 A 
ATOM     32  N   UNL     1      -3.124  10.451   1.495  1.00  0.00    -0.248 NA
ATOM     33  C   UNL     1      -2.271   9.439   3.418  1.00  0.00     0.031 C 
ATOM     34  C   UNL     1      -0.331   8.011  -0.994  1.00  0.00     0.029 A 
ATOM     35  N   UNL     1      -1.912   9.592  -1.027  1.00  0.00    -0.354 N 
ATOM     36  C   UNL     1      -3.804  10.932   2.606  1.00  0.00     0.074 A 
ATOM     37  C   UNL     1      -3.277  10.232   3.758  1.00  0.00     0.031 C 
ATOM     38  C   UNL     1      -0.528   8.357  -2.276  1.00  0.00     0.029 A 
ATOM     39  C   UNL     1      -1.573   9.375  -2.340  1.00  0.00     0.049 A 
ATOM     40  H   UNL     1      -2.593  10.245  -0.747  1.00  0.00     0.167 HD
ATOM     41  C   UNL     1      -4.765  11.886   2.663  1.00  0.00     0.037 A 
ATOM     42  C   UNL     1      -2.055   9.925  -3.471  1.00  0.00     0.037 A 
ATOM     43  C   UNL     1      -5.274  12.599   1.519  1.00  0.00     0.049 A 
ATOM     44  C   UNL     1      -3.139  10.963  -3.383  1.00  0.00     0.074 A 
ATOM     45  C   UNL     1      -6.190  13.636   1.485  1.00  0.00     0.029 A 
ATOM     46  N   UNL     1      -4.915  12.340   0.204  1.00  0.00    -0.354 N 
ATOM     47  N   UNL     1      -3.722  11.462  -2.321  1.00  0.00    -0.248 NA
ATOM     48  C   UNL     1      -3.634  11.512  -4.654  1.00  0.00     0.031 C 
ATOM     49  C   UNL     1      -6.423  13.972   0.146  1.00  0.00     0.029 A 
ATOM     50  C   UNL     1      -5.618  13.175  -0.652  1.00  0.00     0.049 A 
ATOM     51  H   UNL     1      -4.259  11.663  -0.080  1.00  0.00     0.167 HD
ATOM     52  C   UNL     1      -4.639  12.393  -2.791  1.00  0.00     0.074 A 
ATOM     53  C   UNL     1      -4.522  12.403  -4.235  1.00  0.00     0.031 C 
ATOM     54  C   UNL     1      -5.501  13.167  -2.088  1.00  0.00     0.037 A 
BRANCH  41  55
ATOM     55  C   UNL     1      -5.333  12.215   4.014  1.00  0.00     0.064 A 
ATOM     56  C   UNL     1      -4.577  12.887   4.987  1.00  0.00     0.173 A 
ATOM     57  C   UNL     1      -6.658  11.880   4.330  1.00  0.00     0.173 A 
ATOM     58  F   UNL     1      -3.302  13.223   4.737  1.00  0.00    -0.203 F 
ATOM     59  C   UNL     1      -5.114  13.177   6.238  1.00  0.00     0.198 A 
ATOM     60  C   UNL     1      -7.202  12.198   5.572  1.00  0.00     0.198 A 
ATOM     61  F   UNL     1      -7.429  11.245   3.434  1.00  0.00    -0.203 F 
ATOM     62  F   UNL     1      -4.355  13.771   7.170  1.00  0.00    -0.200 F 
ATOM     63  C   UNL     1      -6.427  12.838   6.528  1.00  0.00     0.200 A 
ATOM     64  F   UNL     1      -8.475  11.882   5.847  1.00  0.00    -0.200 F 
ATOM     65  F   UNL     1      -6.943  13.120   7.732  1.00  0.00    -0.200 F 
ENDBRANCH  41  55
BRANCH  42  66
ATOM     66  C   UNL     1      -1.497   9.515  -4.785  1.00  0.00     0.064 A 
ATOM     67  C   UNL     1      -0.691  10.390  -5.525  1.00  0.00     0.173 A 
ATOM     68  C   UNL     1      -1.740   8.241  -5.318  1.00  0.00     0.173 A 
ATOM     69  F   UNL     1      -0.449  11.627  -5.066  1.00  0.00    -0.203 F 
ATOM     70  C   UNL     1      -0.157  10.010  -6.754  1.00  0.00     0.198 A 
ATOM     71  C   UNL     1      -1.185   7.853  -6.535  1.00  0.00     0.198 A 
ATOM     72  F   UNL     1      -2.503   7.366  -4.646  1.00  0.00    -0.203 F 
ATOM     73  F   UNL     1       0.584  10.878  -7.457  1.00  0.00    -0.200 F 
ATOM     74  C   UNL     1      -0.397   8.739  -7.254  1.00  0.00     0.200 A 
ATOM     75  F   UNL     1      -1.408   6.620  -7.008  1.00  0.00    -0.200 F 
ATOM     76  F   UNL     1       0.126   8.370  -8.431  1.00  0.00    -0.200 F 
ENDBRANCH  42  66
BRANCH  54  77
ATOM     77  C   UNL     1      -6.383  14.096  -2.870  1.00  0.00     0.064 A 
ATOM     78  C   UNL     1      -7.464  13.617  -3.623  1.00  0.00     0.173 A 
ATOM     79  C   UNL     1      -6.169  15.482  -2.835  1.00  0.00     0.173 A 
ATOM     80  F   UNL     1      -7.699  12.298  -3.703  1.00  0.00    -0.203 F 
ATOM     81  C   UNL     1      -8.287  14.490  -4.331  1.00  0.00     0.198 A 
ATOM     82  C   UNL     1      -7.010  16.354  -3.521  1.00  0.00     0.198 A 
ATOM     83  F   UNL     1      -5.150  15.992  -2.126  1.00  0.00    -0.203 F 
ATOM     84  F   UNL     1      -9.288  14.006  -5.079  1.00  0.00    -0.200 F 
ATOM     85  C   UNL     1      -8.064  15.857  -4.273  1.00  0.00     0.200 A 
ATOM     86  F   UNL     1      -6.799  17.676  -3.456  1.00  0.00    -0.200 F 
ATOM     87  F   UNL     1      -8.861  16.697  -4.949  1.00  0.00    -0.200 F 
ENDBRANCH  54  77
ENDBRANCH  28  29
ENDBRANCH  20  23
ENDBRANCH  18  19
ENDBRANCH   1  18
TORSDOF 12
