REMARK SMILES CCC(CC)COc1cc2c(cc1Cl)C=C(C(=O)NCCCNC(=O)c1ccc(-c3c4nc(c(-c5c(F)c(F)c(F)c(F)c5F)c5ccc([nH]5)c(-c5c(F)c(F)c(F)c(F)c5F)c5nc(c(-c6c(F)c(F)c(F)c(F)c6F)c6ccc3[nH]6)C=C5)C=C4)cc1)[C@@H](C(F)(F)F)O2
REMARK SMILES IDX 20 1 19 2 17 3 18 4 16 6 8 7 9 8 13 9 10 10 12 11 14 12
REMARK SMILES IDX 11 13 94 14 15 15 89 16 7 17 6 18 3 19 2 20 1 21 4 22 5 23
REMARK SMILES IDX 90 24 91 25 92 26 93 27 21 28 22 29 23 30 24 31 25 33 26 34
REMARK SMILES IDX 27 35 88 36 28 37 87 38 29 39 30 40 31 41 81 42 32 43 86 44
REMARK SMILES IDX 80 45 82 46 33 47 85 48 79 49 78 50 34 52 66 53 46 54 65 55
REMARK SMILES IDX 47 56 50 57 64 58 83 59 48 60 49 61 63 63 84 64 51 65 35 66
REMARK SMILES IDX 36 67 44 68 37 69 38 70 42 71 45 72 39 73 40 74 43 75 41 76
REMARK SMILES IDX 67 77 68 78 76 79 69 80 70 81 74 82 77 83 71 84 72 85 75 86
REMARK SMILES IDX 73 87 52 88 53 89 61 90 54 91 55 92 59 93 62 94 56 95 57 96
REMARK SMILES IDX 60 97 58 98
REMARK H PARENT 19 5 23 32 82 51 50 62
REMARK Flexibility Score: inf
ROOT
ATOM      1  C   UNL     1      -2.410   3.034   9.143  1.00  0.00     0.118 C 
ENDROOT
BRANCH   1   2
ATOM      2  N   UNL     1      -2.328   1.711   8.548  1.00  0.00    -0.352 N 
ATOM      3  C   UNL     1      -1.794   1.175   7.429  1.00  0.00     0.251 C 
ATOM      4  O   UNL     1      -1.941  -0.044   7.301  1.00  0.00    -0.270 OA
ATOM      5  H   UNL     1      -2.776   1.032   9.102  1.00  0.00     0.163 HD
BRANCH   3   6
ATOM      6  C   UNL     1      -1.077   1.945   6.383  1.00  0.00     0.067 C 
ATOM      7  C   UNL     1       1.237   3.232   2.146  1.00  0.00     0.141 A 
ATOM      8  C   UNL     1       0.227   3.832   2.897  1.00  0.00     0.095 A 
ATOM      9  C   UNL     1       1.882   2.080   2.619  1.00  0.00     0.083 A 
ATOM     10  C   UNL     1      -0.213   3.198   4.050  1.00  0.00     0.131 A 
ATOM     11  C   UNL     1       1.363   1.397   3.719  1.00  0.00     0.036 A 
ATOM     12  Cl  UNL     1       3.265   1.421   1.826  1.00  0.00    -0.080 Cl
ATOM     13  C   UNL     1       0.286   1.940   4.414  1.00  0.00     0.019 A 
ATOM     14  O   UNL     1      -1.152   3.840   4.817  1.00  0.00    -0.475 OA
ATOM     15  C   UNL     1      -0.367   1.220   5.499  1.00  0.00     0.025 C 
ATOM     16  C   UNL     1      -1.111   3.439   6.222  1.00  0.00     0.314 C 
BRANCH   7  17
ATOM     17  O   UNL     1       1.588   3.771   0.937  1.00  0.00    -0.492 OA
BRANCH  17  18
ATOM     18  C   UNL     1       0.588   3.526  -0.081  1.00  0.00     0.233 C 
BRANCH  18  19
ATOM     19  C   UNL     1       0.825   2.175  -0.802  1.00  0.00     0.026 C 
BRANCH  19  20
ATOM     20  C   UNL     1       0.106   1.004  -0.092  1.00  0.00     0.003 C 
ATOM     21  C   UNL     1       0.679  -0.355  -0.469  1.00  0.00     0.004 C 
ENDBRANCH  19  20
BRANCH  19  22
ATOM     22  C   UNL     1       0.445   2.256  -2.297  1.00  0.00     0.003 C 
ATOM     23  C   UNL     1      -1.043   2.403  -2.587  1.00  0.00     0.004 C 
ENDBRANCH  19  22
ENDBRANCH  18  19
ENDBRANCH  17  18
ENDBRANCH   7  17
BRANCH  16  24
ATOM     24  C   UNL     1       0.060   4.128   6.969  1.00  0.00     0.429 C 
ATOM     25  F   UNL     1      -0.229   5.432   7.201  1.00  0.00    -0.167 F 
ATOM     26  F   UNL     1       0.294   3.563   8.180  1.00  0.00    -0.167 F 
ATOM     27  F   UNL     1       1.230   4.085   6.297  1.00  0.00    -0.167 F 
ENDBRANCH  16  24
ENDBRANCH   3   6
ENDBRANCH   1   2
BRANCH   1  28
ATOM     28  C   UNL     1      -3.842   3.540   9.170  1.00  0.00     0.042 C 
BRANCH  28  29
ATOM     29  C   UNL     1      -4.663   2.878  10.267  1.00  0.00     0.118 C 
BRANCH  29  30
ATOM     30  N   UNL     1      -4.229   3.292  11.600  1.00  0.00    -0.352 N 
ATOM     31  C   UNL     1      -4.855   4.089  12.528  1.00  0.00     0.251 C 
ATOM     32  H   UNL     1      -3.351   2.945  11.876  1.00  0.00     0.163 HD
ATOM     33  O   UNL     1      -4.229   4.516  13.494  1.00  0.00    -0.269 OA
BRANCH  31  34
ATOM     34  C   UNL     1      -6.275   4.449  12.349  1.00  0.00     0.039 A 
ATOM     35  C   UNL     1      -7.186   3.498  11.895  1.00  0.00     0.014 A 
ATOM     36  C   UNL     1      -6.697   5.753  12.623  1.00  0.00     0.014 A 
ATOM     37  C   UNL     1      -8.458   3.896  11.512  1.00  0.00     0.010 A 
ATOM     38  C   UNL     1      -8.017   6.123  12.350  1.00  0.00     0.010 A 
ATOM     39  C   UNL     1      -8.892   5.211  11.739  1.00  0.00    -0.014 A 
BRANCH  39  40
ATOM     40  C   UNL     1     -10.263   5.597  11.320  1.00  0.00     0.031 A 
ATOM     41  C   UNL     1     -10.479   6.639  10.259  1.00  0.00     0.074 A 
ATOM     42  C   UNL     1     -11.312   4.931  11.840  1.00  0.00     0.049 A 
ATOM     43  N   UNL     1     -11.603   7.071   9.743  1.00  0.00    -0.248 NA
ATOM     44  C   UNL     1      -9.281   7.286   9.704  1.00  0.00     0.031 C 
ATOM     45  C   UNL     1     -11.219   3.878  12.852  1.00  0.00     0.029 A 
ATOM     46  N   UNL     1     -12.651   5.002  11.557  1.00  0.00    -0.354 N 
ATOM     47  C   UNL     1     -11.249   8.046   8.821  1.00  0.00     0.074 A 
ATOM     48  C   UNL     1      -9.809   8.172   8.872  1.00  0.00     0.031 C 
ATOM     49  C   UNL     1     -12.431   3.340  13.039  1.00  0.00     0.029 A 
ATOM     50  C   UNL     1     -13.400   4.064  12.225  1.00  0.00     0.049 A 
ATOM     51  H   UNL     1     -13.039   5.660  10.935  1.00  0.00     0.167 HD
ATOM     52  C   UNL     1     -12.052   8.760   7.996  1.00  0.00     0.037 A 
ATOM     53  C   UNL     1     -14.722   3.818  12.192  1.00  0.00     0.037 A 
ATOM     54  C   UNL     1     -13.485   8.620   7.942  1.00  0.00     0.049 A 
ATOM     55  C   UNL     1     -15.598   4.672  11.324  1.00  0.00     0.074 A 
ATOM     56  C   UNL     1     -14.391   9.303   7.150  1.00  0.00     0.029 A 
ATOM     57  N   UNL     1     -14.220   7.729   8.712  1.00  0.00    -0.354 N 
ATOM     58  N   UNL     1     -15.256   5.614  10.481  1.00  0.00    -0.248 NA
ATOM     59  C   UNL     1     -17.045   4.444  11.422  1.00  0.00     0.031 C 
ATOM     60  C   UNL     1     -15.677   8.855   7.471  1.00  0.00     0.029 A 
ATOM     61  C   UNL     1     -15.570   7.859   8.428  1.00  0.00     0.049 A 
ATOM     62  H   UNL     1     -13.838   7.098   9.364  1.00  0.00     0.167 HD
ATOM     63  C   UNL     1     -16.441   6.092   9.943  1.00  0.00     0.074 A 
ATOM     64  C   UNL     1     -17.511   5.318  10.540  1.00  0.00     0.031 C 
ATOM     65  C   UNL     1     -16.623   7.087   9.040  1.00  0.00     0.037 A 
BRANCH  52  66
ATOM     66  C   UNL     1     -11.398   9.770   7.097  1.00  0.00     0.064 A 
ATOM     67  C   UNL     1     -10.608   9.381   6.004  1.00  0.00     0.173 A 
ATOM     68  C   UNL     1     -11.580  11.145   7.316  1.00  0.00     0.173 A 
ATOM     69  F   UNL     1     -10.390   8.080   5.758  1.00  0.00    -0.203 F 
ATOM     70  C   UNL     1     -10.001  10.329   5.183  1.00  0.00     0.198 A 
ATOM     71  C   UNL     1     -10.995  12.089   6.476  1.00  0.00     0.198 A 
ATOM     72  F   UNL     1     -12.329  11.573   8.343  1.00  0.00    -0.203 F 
ATOM     73  F   UNL     1      -9.208   9.932   4.178  1.00  0.00    -0.200 F 
ATOM     74  C   UNL     1     -10.200  11.681   5.416  1.00  0.00     0.200 A 
ATOM     75  F   UNL     1     -11.197  13.396   6.696  1.00  0.00    -0.200 F 
ATOM     76  F   UNL     1      -9.616  12.592   4.625  1.00  0.00    -0.200 F 
ENDBRANCH  52  66
BRANCH  53  77
ATOM     77  C   UNL     1     -15.272   2.702  13.000  1.00  0.00     0.064 A 
ATOM     78  C   UNL     1     -15.732   1.532  12.381  1.00  0.00     0.173 A 
ATOM     79  C   UNL     1     -15.279   2.747  14.402  1.00  0.00     0.173 A 
ATOM     80  F   UNL     1     -15.761   1.450  11.043  1.00  0.00    -0.203 F 
ATOM     81  C   UNL     1     -16.167   0.445  13.135  1.00  0.00     0.198 A 
ATOM     82  C   UNL     1     -15.688   1.649  15.155  1.00  0.00     0.198 A 
ATOM     83  F   UNL     1     -14.842   3.842  15.040  1.00  0.00    -0.203 F 
ATOM     84  F   UNL     1     -16.612  -0.659  12.519  1.00  0.00    -0.200 F 
ATOM     85  C   UNL     1     -16.132   0.499  14.521  1.00  0.00     0.200 A 
ATOM     86  F   UNL     1     -15.633   1.698  16.493  1.00  0.00    -0.200 F 
ATOM     87  F   UNL     1     -16.523  -0.559  15.245  1.00  0.00    -0.200 F 
ENDBRANCH  53  77
BRANCH  65  88
ATOM     88  C   UNL     1     -18.034   7.396   8.638  1.00  0.00     0.064 A 
ATOM     89  C   UNL     1     -18.908   8.072   9.501  1.00  0.00     0.173 A 
ATOM     90  C   UNL     1     -18.498   7.065   7.356  1.00  0.00     0.173 A 
ATOM     91  F   UNL     1     -18.515   8.394  10.743  1.00  0.00    -0.203 F 
ATOM     92  C   UNL     1     -20.202   8.392   9.101  1.00  0.00     0.198 A 
ATOM     93  C   UNL     1     -19.783   7.411   6.949  1.00  0.00     0.198 A 
ATOM     94  F   UNL     1     -17.698   6.423   6.492  1.00  0.00    -0.203 F 
ATOM     95  F   UNL     1     -21.033   9.007   9.954  1.00  0.00    -0.200 F 
ATOM     96  C   UNL     1     -20.635   8.070   7.823  1.00  0.00     0.200 A 
ATOM     97  F   UNL     1     -20.196   7.110   5.710  1.00  0.00    -0.200 F 
ATOM     98  F   UNL     1     -21.877   8.391   7.434  1.00  0.00    -0.200 F 
ENDBRANCH  65  88
ENDBRANCH  39  40
ENDBRANCH  31  34
ENDBRANCH  29  30
ENDBRANCH  28  29
ENDBRANCH   1  28
TORSDOF 16
