REMARK SMILES Cn1ccnc1SCC[C@@H]1CCC[C@]1([NH3+])C(=O)NCCCNC(=O)c1ccc(-c2c3nc(c(-c4c(F)c(F)c(F)c(F)c4F)c4ccc([nH]4)c(-c4c(F)c(F)c(F)c(F)c4F)c4nc(c(-c5c(F)c(F)c(F)c(F)c5F)c5ccc2[nH]5)C=C4)C=C3)cc1
REMARK SMILES IDX 19 1 18 2 16 3 17 4 14 6 10 7 11 8 12 9 13 10 9 11 8 12 7 13
REMARK SMILES IDX 6 14 1 15 2 16 3 17 4 18 5 19 15 20 20 24 21 25 22 26 23 27
REMARK SMILES IDX 24 29 25 30 26 31 87 32 27 33 86 34 28 35 29 36 30 37 80 38
REMARK SMILES IDX 31 39 85 40 79 41 81 42 32 43 84 44 78 45 77 46 33 48 65 49
REMARK SMILES IDX 45 50 64 51 46 52 49 53 63 54 82 55 47 56 48 57 62 59 83 60
REMARK SMILES IDX 50 61 34 62 35 63 43 64 36 65 37 66 41 67 44 68 38 69 39 70
REMARK SMILES IDX 42 71 40 72 66 73 67 74 75 75 68 76 69 77 73 78 76 79 70 80
REMARK SMILES IDX 71 81 74 82 72 83 51 84 52 85 60 86 53 87 54 88 58 89 61 90
REMARK SMILES IDX 55 91 56 92 59 93 57 94
REMARK H PARENT 18 5 15 21 15 22 15 23 22 28 81 47 49 58
REMARK Flexibility Score: inf
ROOT
ATOM      1  C   UNL     1       5.412   1.344   0.016  1.00  0.00     0.118 C 
ENDROOT
BRANCH   1   2
ATOM      2  N   UNL     1       5.548   0.554   1.228  1.00  0.00    -0.351 N 
ATOM      3  C   UNL     1       4.695  -0.299   1.861  1.00  0.00     0.281 C 
ATOM      4  O   UNL     1       5.121  -0.813   2.900  1.00  0.00    -0.268 OA
ATOM      5  H   UNL     1       6.419   0.654   1.675  1.00  0.00     0.163 HD
BRANCH   3   6
ATOM      6  C   UNL     1       3.274  -0.636   1.289  1.00  0.00     0.176 C 
ATOM      7  C   UNL     1       2.141   0.331   1.740  1.00  0.00     0.061 C 
ATOM      8  C   UNL     1       1.959  -0.062   3.216  1.00  0.00     0.011 C 
ATOM      9  C   UNL     1       2.102  -1.576   3.246  1.00  0.00     0.008 C 
ATOM     10  C   UNL     1       2.779  -1.962   1.930  1.00  0.00     0.079 C 
BRANCH   7  11
ATOM     11  C   UNL     1       2.263   1.859   1.650  1.00  0.00     0.022 C 
BRANCH  11  12
ATOM     12  C   UNL     1       2.011   2.547   0.306  1.00  0.00     0.079 C 
BRANCH  12  13
ATOM     13  S   UNL     1       0.297   2.817  -0.237  1.00  0.00    -0.088 SA
BRANCH  13  14
ATOM     14  C   UNL     1      -0.452   1.264  -0.245  1.00  0.00     0.167 A 
ATOM     15  C   UNL     1       0.958   0.104  -2.011  1.00  0.00     0.152 C 
ATOM     16  N   UNL     1      -0.085   0.197  -1.023  1.00  0.00    -0.329 N 
ATOM     17  C   UNL     1      -0.930  -0.841  -0.711  1.00  0.00     0.108 A 
ATOM     18  C   UNL     1      -1.832  -0.315   0.182  1.00  0.00     0.132 A 
ATOM     19  N   UNL     1      -1.520   0.986   0.469  1.00  0.00    -0.231 NA
ENDBRANCH  13  14
ENDBRANCH  12  13
ENDBRANCH  11  12
ENDBRANCH   7  11
BRANCH   6  20
ATOM     20  N   UNL     1       3.389  -0.868  -0.170  1.00  0.00    -0.345 N 
ATOM     21  H   UNL     1       2.470  -1.088  -0.553  1.00  0.00     0.345 HD
ATOM     22  H   UNL     1       4.024  -1.647  -0.341  1.00  0.00     0.345 HD
ATOM     23  H   UNL     1       3.753  -0.028  -0.620  1.00  0.00     0.345 HD
ENDBRANCH   6  20
ENDBRANCH   3   6
ENDBRANCH   1   2
BRANCH   1  24
ATOM     24  C   UNL     1       5.557   2.833   0.288  1.00  0.00     0.042 C 
BRANCH  24  25
ATOM     25  C   UNL     1       6.925   3.218   0.816  1.00  0.00     0.118 C 
BRANCH  25  26
ATOM     26  N   UNL     1       7.932   3.242  -0.229  1.00  0.00    -0.352 N 
ATOM     27  C   UNL     1       8.717   4.295  -0.637  1.00  0.00     0.251 C 
ATOM     28  H   UNL     1       8.072   2.393  -0.709  1.00  0.00     0.163 HD
ATOM     29  O   UNL     1       9.369   4.215  -1.669  1.00  0.00    -0.269 OA
BRANCH  27  30
ATOM     30  C   UNL     1       8.740   5.537   0.168  1.00  0.00     0.039 A 
ATOM     31  C   UNL     1       8.683   6.769  -0.486  1.00  0.00     0.014 A 
ATOM     32  C   UNL     1       8.794   5.486   1.564  1.00  0.00     0.014 A 
ATOM     33  C   UNL     1       8.628   7.945   0.264  1.00  0.00     0.010 A 
ATOM     34  C   UNL     1       8.625   6.648   2.307  1.00  0.00     0.010 A 
ATOM     35  C   UNL     1       8.566   7.893   1.667  1.00  0.00    -0.014 A 
BRANCH  35  36
ATOM     36  C   UNL     1       8.479   9.133   2.481  1.00  0.00     0.031 A 
ATOM     37  C   UNL     1       9.573   9.466   3.460  1.00  0.00     0.074 A 
ATOM     38  C   UNL     1       7.401   9.934   2.373  1.00  0.00     0.049 A 
ATOM     39  N   UNL     1       9.666  10.477   4.287  1.00  0.00    -0.248 NA
ATOM     40  C   UNL     1      10.698   8.521   3.545  1.00  0.00     0.031 C 
ATOM     41  C   UNL     1       6.251   9.693   1.501  1.00  0.00     0.029 A 
ATOM     42  N   UNL     1       7.096  11.114   3.006  1.00  0.00    -0.354 N 
ATOM     43  C   UNL     1      10.846  10.279   4.993  1.00  0.00     0.074 A 
ATOM     44  C   UNL     1      11.399   9.019   4.551  1.00  0.00     0.031 C 
ATOM     45  C   UNL     1       5.384  10.710   1.625  1.00  0.00     0.029 A 
ATOM     46  C   UNL     1       5.894  11.653   2.617  1.00  0.00     0.049 A 
ATOM     47  H   UNL     1       7.684  11.534   3.675  1.00  0.00     0.167 HD
ATOM     48  C   UNL     1      11.435  11.091   5.903  1.00  0.00     0.037 A 
ATOM     49  C   UNL     1       5.273  12.778   3.018  1.00  0.00     0.037 A 
ATOM     50  C   UNL     1      10.893  12.356   6.322  1.00  0.00     0.049 A 
ATOM     51  C   UNL     1       5.941  13.657   4.043  1.00  0.00     0.074 A 
ATOM     52  C   UNL     1      11.438  13.281   7.194  1.00  0.00     0.029 A 
ATOM     53  N   UNL     1       9.676  12.872   5.900  1.00  0.00    -0.354 N 
ATOM     54  N   UNL     1       7.094  13.498   4.646  1.00  0.00    -0.248 NA
ATOM     55  C   UNL     1       5.222  14.876   4.437  1.00  0.00     0.031 C 
ATOM     56  C   UNL     1      10.525  14.329   7.345  1.00  0.00     0.029 A 
ATOM     57  C   UNL     1       9.440  14.090   6.516  1.00  0.00     0.049 A 
ATOM     58  H   UNL     1       9.070  12.437   5.257  1.00  0.00     0.167 HD
ATOM     59  C   UNL     1       7.254  14.609   5.463  1.00  0.00     0.074 A 
ATOM     60  C   UNL     1       6.087  15.442   5.267  1.00  0.00     0.031 C 
ATOM     61  C   UNL     1       8.276  14.912   6.302  1.00  0.00     0.037 A 
BRANCH  48  62
ATOM     62  C   UNL     1      12.733  10.633   6.506  1.00  0.00     0.064 A 
ATOM     63  C   UNL     1      13.909  10.539   5.743  1.00  0.00     0.173 A 
ATOM     64  C   UNL     1      12.812  10.312   7.869  1.00  0.00     0.173 A 
ATOM     65  F   UNL     1      13.888  10.822   4.432  1.00  0.00    -0.203 F 
ATOM     66  C   UNL     1      15.103  10.106   6.314  1.00  0.00     0.198 A 
ATOM     67  C   UNL     1      14.016   9.915   8.445  1.00  0.00     0.198 A 
ATOM     68  F   UNL     1      11.722  10.389   8.647  1.00  0.00    -0.203 F 
ATOM     69  F   UNL     1      16.196   9.966   5.552  1.00  0.00    -0.200 F 
ATOM     70  C   UNL     1      15.157   9.802   7.666  1.00  0.00     0.200 A 
ATOM     71  F   UNL     1      14.071   9.636   9.755  1.00  0.00    -0.200 F 
ATOM     72  F   UNL     1      16.309   9.393   8.216  1.00  0.00    -0.200 F 
ENDBRANCH  48  62
BRANCH  49  73
ATOM     73  C   UNL     1       3.959  13.154   2.432  1.00  0.00     0.064 A 
ATOM     74  C   UNL     1       3.833  14.280   1.605  1.00  0.00     0.173 A 
ATOM     75  C   UNL     1       2.801  12.405   2.691  1.00  0.00     0.173 A 
ATOM     76  F   UNL     1       4.906  15.040   1.342  1.00  0.00    -0.203 F 
ATOM     77  C   UNL     1       2.597  14.655   1.081  1.00  0.00     0.198 A 
ATOM     78  C   UNL     1       1.573  12.763   2.140  1.00  0.00     0.198 A 
ATOM     79  F   UNL     1       2.867  11.316   3.470  1.00  0.00    -0.203 F 
ATOM     80  F   UNL     1       2.498  15.765   0.337  1.00  0.00    -0.200 F 
ATOM     81  C   UNL     1       1.469  13.893   1.344  1.00  0.00     0.200 A 
ATOM     82  F   UNL     1       0.488  12.014   2.383  1.00  0.00    -0.200 F 
ATOM     83  F   UNL     1       0.282  14.253   0.837  1.00  0.00    -0.200 F 
ENDBRANCH  49  73
BRANCH  61  84
ATOM     84  C   UNL     1       8.201  16.219   7.039  1.00  0.00     0.064 A 
ATOM     85  C   UNL     1       7.274  16.436   8.069  1.00  0.00     0.173 A 
ATOM     86  C   UNL     1       9.100  17.254   6.737  1.00  0.00     0.173 A 
ATOM     87  F   UNL     1       6.384  15.484   8.389  1.00  0.00    -0.203 F 
ATOM     88  C   UNL     1       7.231  17.650   8.749  1.00  0.00     0.198 A 
ATOM     89  C   UNL     1       9.078  18.453   7.443  1.00  0.00     0.198 A 
ATOM     90  F   UNL     1      10.013  17.096   5.766  1.00  0.00    -0.203 F 
ATOM     91  F   UNL     1       6.302  17.854   9.694  1.00  0.00    -0.200 F 
ATOM     92  C   UNL     1       8.138  18.654   8.442  1.00  0.00     0.200 A 
ATOM     93  F   UNL     1       9.967  19.414   7.157  1.00  0.00    -0.200 F 
ATOM     94  F   UNL     1       8.101  19.818   9.105  1.00  0.00    -0.200 F 
ENDBRANCH  61  84
ENDBRANCH  35  36
ENDBRANCH  27  30
ENDBRANCH  25  26
ENDBRANCH  24  25
ENDBRANCH   1  24
TORSDOF 15
