REMARK SMILES CC1=C(C)C[C@@H](C(=O)NCCCNC(=O)c2ccc(-c3c4nc(c(-c5c(F)c(F)c(F)c(F)c5F)c5ccc([nH]5)c(-c5c(F)c(F)c(F)c(F)c5F)c5nc(c(-c6c(F)c(F)c(F)c(F)c6F)c6ccc3[nH]6)C=C5)C=C4)cc2)[C@@H](C(=O)NCC[NH+]2CCOCC2)C1
REMARK SMILES IDX 10 1 9 2 7 3 8 4 6 6 1 7 2 8 3 9 91 10 4 11 5 12 79 13 80 14
REMARK SMILES IDX 81 15 82 16 83 18 84 19 85 20 86 21 90 22 87 24 89 25 88 26
REMARK SMILES IDX 11 27 12 28 13 29 14 30 15 32 16 33 17 34 78 35 18 36 77 37
REMARK SMILES IDX 19 38 20 39 21 40 71 41 22 42 76 43 70 44 72 45 23 46 75 47
REMARK SMILES IDX 69 48 68 49 24 51 56 52 36 53 55 54 37 55 40 56 54 57 73 58
REMARK SMILES IDX 38 59 39 60 53 62 74 63 41 64 25 65 26 66 34 67 27 68 28 69
REMARK SMILES IDX 32 70 35 71 29 72 30 73 33 74 31 75 57 76 58 77 66 78 59 79
REMARK SMILES IDX 60 80 64 81 67 82 61 83 62 84 65 85 63 86 42 87 43 88 51 89
REMARK SMILES IDX 44 90 45 91 49 92 52 93 46 94 47 95 50 96 48 97
REMARK H PARENT 9 5 82 17 85 23 13 31 72 50 40 61
REMARK Flexibility Score: inf
ROOT
ATOM      1  C   UNL     1      -2.158  -3.332   0.348  1.00  0.00     0.117 C 
ENDROOT
BRANCH   1   2
ATOM      2  N   UNL     1      -2.269  -4.090  -0.884  1.00  0.00    -0.356 N 
ATOM      3  C   UNL     1      -1.444  -4.237  -1.953  1.00  0.00     0.224 C 
ATOM      4  O   UNL     1      -1.813  -5.053  -2.807  1.00  0.00    -0.275 OA
ATOM      5  H   UNL     1      -3.108  -4.599  -0.961  1.00  0.00     0.163 HD
BRANCH   3   6
ATOM      6  C   UNL     1      -0.111  -3.498  -2.140  1.00  0.00     0.095 C 
ATOM      7  C   UNL     1       1.629   0.084  -0.158  1.00  0.00     0.039 C 
ATOM      8  C   UNL     1       1.214  -1.196  -0.832  1.00  0.00    -0.074 C 
ATOM      9  C   UNL     1       1.235  -2.398  -0.222  1.00  0.00    -0.074 C 
ATOM     10  C   UNL     1       0.877  -1.099  -2.298  1.00  0.00     0.045 C 
ATOM     11  C   UNL     1       1.706  -2.631   1.189  1.00  0.00     0.039 C 
ATOM     12  C   UNL     1       0.856  -3.662  -0.960  1.00  0.00     0.045 C 
ATOM     13  C   UNL     1      -0.168  -2.099  -2.790  1.00  0.00     0.095 C 
BRANCH  13  14
ATOM     14  C   UNL     1      -1.563  -1.557  -3.044  1.00  0.00     0.224 C 
ATOM     15  O   UNL     1      -2.257  -2.062  -3.935  1.00  0.00    -0.275 OA
ATOM     16  N   UNL     1      -2.130  -0.540  -2.377  1.00  0.00    -0.350 N 
ATOM     17  H   UNL     1      -3.003  -0.309  -2.769  1.00  0.00     0.163 HD
BRANCH  16  18
ATOM     18  C   UNL     1      -1.827   0.325  -1.238  1.00  0.00     0.177 C 
BRANCH  18  19
ATOM     19  C   UNL     1      -2.958   1.385  -1.050  1.00  0.00     0.283 C 
BRANCH  19  20
ATOM     20  N   UNL     1      -4.137   0.955  -1.776  1.00  0.00    -0.330 N 
ATOM     21  C   UNL     1      -5.189   0.245  -1.073  1.00  0.00     0.291 C 
ATOM     22  C   UNL     1      -4.673   1.759  -2.867  1.00  0.00     0.291 C 
ATOM     23  H   UNL     1      -3.580   0.242  -2.248  1.00  0.00     0.348 HD
ATOM     24  C   UNL     1      -5.818  -0.731  -2.082  1.00  0.00     0.221 C 
ATOM     25  C   UNL     1      -5.383   0.795  -3.845  1.00  0.00     0.221 C 
ATOM     26  O   UNL     1      -6.382  -0.007  -3.187  1.00  0.00    -0.370 OA
ENDBRANCH  19  20
ENDBRANCH  18  19
ENDBRANCH  16  18
ENDBRANCH  13  14
ENDBRANCH   3   6
ENDBRANCH   1   2
BRANCH   1  27
ATOM     27  C   UNL     1      -3.353  -2.406   0.561  1.00  0.00     0.042 C 
BRANCH  27  28
ATOM     28  C   UNL     1      -4.644  -3.077   1.032  1.00  0.00     0.118 C 
BRANCH  28  29
ATOM     29  N   UNL     1      -4.913  -2.840   2.445  1.00  0.00    -0.352 N 
ATOM     30  C   UNL     1      -5.579  -1.856   3.133  1.00  0.00     0.251 C 
ATOM     31  H   UNL     1      -4.536  -3.535   3.031  1.00  0.00     0.163 HD
ATOM     32  O   UNL     1      -5.463  -1.853   4.363  1.00  0.00    -0.269 OA
BRANCH  30  33
ATOM     33  C   UNL     1      -6.402  -0.783   2.507  1.00  0.00     0.039 A 
ATOM     34  C   UNL     1      -6.437   0.464   3.152  1.00  0.00     0.014 A 
ATOM     35  C   UNL     1      -7.237  -0.972   1.406  1.00  0.00     0.014 A 
ATOM     36  C   UNL     1      -7.258   1.504   2.687  1.00  0.00     0.010 A 
ATOM     37  C   UNL     1      -8.010   0.095   0.899  1.00  0.00     0.010 A 
ATOM     38  C   UNL     1      -8.038   1.351   1.531  1.00  0.00    -0.014 A 
BRANCH  38  39
ATOM     39  C   UNL     1      -8.882   2.484   1.018  1.00  0.00     0.031 A 
ATOM     40  C   UNL     1     -10.382   2.345   0.874  1.00  0.00     0.074 A 
ATOM     41  C   UNL     1      -8.323   3.664   0.670  1.00  0.00     0.049 A 
ATOM     42  N   UNL     1     -11.260   3.217   0.433  1.00  0.00    -0.248 NA
ATOM     43  C   UNL     1     -10.971   1.054   1.255  1.00  0.00     0.031 C 
ATOM     44  C   UNL     1      -6.893   3.970   0.708  1.00  0.00     0.029 A 
ATOM     45  N   UNL     1      -8.896   4.836   0.222  1.00  0.00    -0.354 N 
ATOM     46  C   UNL     1     -12.490   2.571   0.453  1.00  0.00     0.074 A 
ATOM     47  C   UNL     1     -12.241   1.221   0.915  1.00  0.00     0.031 C 
ATOM     48  C   UNL     1      -6.705   5.251   0.348  1.00  0.00     0.029 A 
ATOM     49  C   UNL     1      -7.994   5.852   0.009  1.00  0.00     0.049 A 
ATOM     50  H   UNL     1      -9.863   4.936   0.069  1.00  0.00     0.167 HD
ATOM     51  C   UNL     1     -13.720   3.050   0.140  1.00  0.00     0.037 A 
ATOM     52  C   UNL     1      -8.170   7.121  -0.411  1.00  0.00     0.037 A 
ATOM     53  C   UNL     1     -14.011   4.401  -0.265  1.00  0.00     0.049 A 
ATOM     54  C   UNL     1      -9.548   7.633  -0.744  1.00  0.00     0.074 A 
ATOM     55  C   UNL     1     -15.247   4.976  -0.517  1.00  0.00     0.029 A 
ATOM     56  N   UNL     1     -13.065   5.389  -0.474  1.00  0.00    -0.354 N 
ATOM     57  N   UNL     1     -10.701   7.021  -0.662  1.00  0.00    -0.248 NA
ATOM     58  C   UNL     1      -9.642   9.019  -1.235  1.00  0.00     0.031 C 
ATOM     59  C   UNL     1     -15.046   6.303  -0.913  1.00  0.00     0.029 A 
ATOM     60  C   UNL     1     -13.687   6.563  -0.872  1.00  0.00     0.049 A 
ATOM     61  H   UNL     1     -12.094   5.275  -0.357  1.00  0.00     0.167 HD
ATOM     62  C   UNL     1     -11.655   7.947  -1.069  1.00  0.00     0.074 A 
ATOM     63  C   UNL     1     -10.950   9.170  -1.382  1.00  0.00     0.031 C 
ATOM     64  C   UNL     1     -12.995   7.787  -1.177  1.00  0.00     0.037 A 
BRANCH  51  65
ATOM     65  C   UNL     1     -14.877   2.096   0.231  1.00  0.00     0.064 A 
ATOM     66  C   UNL     1     -15.388   1.681   1.469  1.00  0.00     0.173 A 
ATOM     67  C   UNL     1     -15.515   1.641  -0.933  1.00  0.00     0.173 A 
ATOM     68  F   UNL     1     -14.809   2.087   2.609  1.00  0.00    -0.203 F 
ATOM     69  C   UNL     1     -16.480   0.819   1.538  1.00  0.00     0.198 A 
ATOM     70  C   UNL     1     -16.623   0.801  -0.859  1.00  0.00     0.198 A 
ATOM     71  F   UNL     1     -15.073   2.022  -2.140  1.00  0.00    -0.203 F 
ATOM     72  F   UNL     1     -16.926   0.401   2.731  1.00  0.00    -0.200 F 
ATOM     73  C   UNL     1     -17.099   0.385   0.376  1.00  0.00     0.200 A 
ATOM     74  F   UNL     1     -17.231   0.395  -1.982  1.00  0.00    -0.200 F 
ATOM     75  F   UNL     1     -18.155  -0.438   0.445  1.00  0.00    -0.200 F 
ENDBRANCH  51  65
BRANCH  52  76
ATOM     76  C   UNL     1      -7.001   8.031  -0.538  1.00  0.00     0.064 A 
ATOM     77  C   UNL     1      -6.831   9.108   0.345  1.00  0.00     0.173 A 
ATOM     78  C   UNL     1      -6.058   7.870  -1.562  1.00  0.00     0.173 A 
ATOM     79  F   UNL     1      -7.726   9.320   1.321  1.00  0.00    -0.203 F 
ATOM     80  C   UNL     1      -5.771   9.999   0.198  1.00  0.00     0.198 A 
ATOM     81  C   UNL     1      -4.983   8.748  -1.693  1.00  0.00     0.198 A 
ATOM     82  F   UNL     1      -6.178   6.859  -2.433  1.00  0.00    -0.203 F 
ATOM     83  F   UNL     1      -5.659  11.047   1.025  1.00  0.00    -0.200 F 
ATOM     84  C   UNL     1      -4.845   9.816  -0.819  1.00  0.00     0.200 A 
ATOM     85  F   UNL     1      -4.085   8.562  -2.670  1.00  0.00    -0.200 F 
ATOM     86  F   UNL     1      -3.826  10.673  -0.962  1.00  0.00    -0.200 F 
ENDBRANCH  52  76
BRANCH  64  87
ATOM     87  C   UNL     1     -13.806   8.967  -1.631  1.00  0.00     0.064 A 
ATOM     88  C   UNL     1     -13.790   9.399  -2.966  1.00  0.00     0.173 A 
ATOM     89  C   UNL     1     -14.640   9.649  -0.732  1.00  0.00     0.173 A 
ATOM     90  F   UNL     1     -12.996   8.793  -3.861  1.00  0.00    -0.203 F 
ATOM     91  C   UNL     1     -14.566  10.480  -3.379  1.00  0.00     0.198 A 
ATOM     92  C   UNL     1     -15.433  10.714  -1.154  1.00  0.00     0.198 A 
ATOM     93  F   UNL     1     -14.696   9.275   0.555  1.00  0.00    -0.203 F 
ATOM     94  F   UNL     1     -14.505  10.899  -4.651  1.00  0.00    -0.200 F 
ATOM     95  C   UNL     1     -15.391  11.132  -2.475  1.00  0.00     0.200 A 
ATOM     96  F   UNL     1     -16.237  11.337  -0.281  1.00  0.00    -0.200 F 
ATOM     97  F   UNL     1     -16.142  12.167  -2.877  1.00  0.00    -0.200 F 
ENDBRANCH  64  87
ENDBRANCH  38  39
ENDBRANCH  30  33
ENDBRANCH  28  29
ENDBRANCH  27  28
ENDBRANCH   1  27
TORSDOF 14
