REMARK SMILES O=C(NCCCNC(=O)c1ccc(-c2c3nc(c(-c4c(F)c(F)c(F)c(F)c4F)c4ccc([nH]4)c(-c4c(F)c(F)c(F)c(F)c4F)c4nc(c(-c5c(F)c(F)c(F)c(F)c5F)c5ccc2[nH]5)C=C4)C=C3)cc1)C1=Cc2c(ccc(Cl)c2-c2ccccc2)O[C@H]1C(F)(F)F
REMARK SMILES IDX 5 1 4 2 3 3 1 4 2 5 73 7 74 8 89 9 75 10 88 11 76 12 81 13
REMARK SMILES IDX 77 14 79 15 78 16 80 17 90 18 91 19 92 20 93 21 82 22 83 23
REMARK SMILES IDX 87 24 84 25 86 26 85 27 6 28 7 29 8 30 9 32 10 33 11 34
REMARK SMILES IDX 72 35 12 36 71 37 13 38 14 39 15 40 65 41 16 42 70 43 64 44
REMARK SMILES IDX 66 45 17 46 69 47 63 48 62 49 18 51 50 52 30 53 49 54 31 55
REMARK SMILES IDX 34 56 48 57 67 58 32 59 33 60 47 62 68 63 35 64 19 65 20 66
REMARK SMILES IDX 28 67 21 68 22 69 26 70 29 71 23 72 24 73 27 74 25 75 51 76
REMARK SMILES IDX 52 77 60 78 53 79 54 80 58 81 61 82 55 83 56 84 59 85 57 86
REMARK SMILES IDX 36 87 37 88 45 89 38 90 39 91 43 92 46 93 40 94 41 95 44 96
REMARK SMILES IDX 42 97
REMARK H PARENT 3 6 7 31 66 50 34 61
REMARK Flexibility Score: inf
ROOT
ATOM      1  C   UNL     1       4.068   2.817  -1.450  1.00  0.00     0.042 C 
ENDROOT
BRANCH   1   2
ATOM      2  C   UNL     1       3.874   1.432  -0.854  1.00  0.00     0.118 C 
BRANCH   2   3
ATOM      3  N   UNL     1       2.522   0.909  -0.941  1.00  0.00    -0.352 N 
ATOM      4  O   UNL     1       0.887  -0.629  -0.853  1.00  0.00    -0.270 OA
ATOM      5  C   UNL     1       2.076  -0.362  -0.706  1.00  0.00     0.251 C 
ATOM      6  H   UNL     1       1.832   1.559  -1.206  1.00  0.00     0.163 HD
BRANCH   5   7
ATOM      7  C   UNL     1       3.010  -1.423  -0.272  1.00  0.00     0.067 C 
ATOM      8  C   UNL     1       3.299  -1.482   1.035  1.00  0.00     0.026 C 
ATOM      9  C   UNL     1       3.978  -2.016  -1.252  1.00  0.00     0.314 C 
ATOM     10  C   UNL     1       4.646  -0.893   1.267  1.00  0.00     0.027 A 
ATOM     11  O   UNL     1       5.380  -1.774  -0.883  1.00  0.00    -0.475 OA
ATOM     12  C   UNL     1       5.615  -1.055   0.264  1.00  0.00     0.128 A 
ATOM     13  C   UNL     1       4.852  -0.036   2.378  1.00  0.00     0.011 A 
ATOM     14  C   UNL     1       6.819  -0.367   0.355  1.00  0.00     0.049 A 
ATOM     15  C   UNL     1       6.061   0.673   2.431  1.00  0.00     0.049 A 
ATOM     16  C   UNL     1       7.032   0.509   1.426  1.00  0.00     0.025 A 
ATOM     17  Cl  UNL     1       6.383   1.820   3.680  1.00  0.00    -0.084 Cl
BRANCH   9  18
ATOM     18  C   UNL     1       3.715  -3.523  -1.457  1.00  0.00     0.429 C 
ATOM     19  F   UNL     1       2.853  -4.043  -0.551  1.00  0.00    -0.167 F 
ATOM     20  F   UNL     1       3.193  -3.760  -2.685  1.00  0.00    -0.167 F 
ATOM     21  F   UNL     1       4.854  -4.252  -1.365  1.00  0.00    -0.167 F 
ENDBRANCH   9  18
BRANCH  13  22
ATOM     22  C   UNL     1       3.715   0.145   3.304  1.00  0.00    -0.016 A 
ATOM     23  C   UNL     1       2.817   1.208   3.110  1.00  0.00     0.009 A 
ATOM     24  C   UNL     1       3.333  -0.912   4.147  1.00  0.00     0.009 A 
ATOM     25  C   UNL     1       1.531   1.158   3.649  1.00  0.00     0.001 A 
ATOM     26  C   UNL     1       2.042  -0.965   4.675  1.00  0.00     0.001 A 
ATOM     27  C   UNL     1       1.135   0.057   4.404  1.00  0.00     0.000 A 
ENDBRANCH  13  22
ENDBRANCH   5   7
ENDBRANCH   2   3
ENDBRANCH   1   2
BRANCH   1  28
ATOM     28  C   UNL     1       3.551   3.930  -0.545  1.00  0.00     0.118 C 
BRANCH  28  29
ATOM     29  N   UNL     1       4.407   4.212   0.608  1.00  0.00    -0.352 N 
ATOM     30  C   UNL     1       5.410   5.131   0.833  1.00  0.00     0.251 C 
ATOM     31  H   UNL     1       4.231   3.626   1.379  1.00  0.00     0.163 HD
ATOM     32  O   UNL     1       6.027   5.103   1.889  1.00  0.00    -0.269 OA
BRANCH  30  33
ATOM     33  C   UNL     1       5.804   6.108  -0.206  1.00  0.00     0.039 A 
ATOM     34  C   UNL     1       7.164   6.384  -0.397  1.00  0.00     0.014 A 
ATOM     35  C   UNL     1       4.860   6.741  -1.004  1.00  0.00     0.014 A 
ATOM     36  C   UNL     1       7.572   7.171  -1.478  1.00  0.00     0.010 A 
ATOM     37  C   UNL     1       5.267   7.409  -2.150  1.00  0.00     0.010 A 
ATOM     38  C   UNL     1       6.630   7.616  -2.415  1.00  0.00    -0.014 A 
BRANCH  38  39
ATOM     39  C   UNL     1       7.005   8.282  -3.692  1.00  0.00     0.031 A 
ATOM     40  C   UNL     1       6.389   9.609  -4.042  1.00  0.00     0.074 A 
ATOM     41  C   UNL     1       7.760   7.629  -4.598  1.00  0.00     0.049 A 
ATOM     42  N   UNL     1       6.319  10.215  -5.199  1.00  0.00    -0.248 NA
ATOM     43  C   UNL     1       5.705  10.319  -2.949  1.00  0.00     0.031 C 
ATOM     44  C   UNL     1       8.388   6.321  -4.404  1.00  0.00     0.029 A 
ATOM     45  N   UNL     1       8.102   7.969  -5.885  1.00  0.00    -0.354 N 
ATOM     46  C   UNL     1       5.531  11.338  -4.986  1.00  0.00     0.074 A 
ATOM     47  C   UNL     1       5.112  11.307  -3.602  1.00  0.00     0.031 C 
ATOM     48  C   UNL     1       9.056   5.980  -5.518  1.00  0.00     0.029 A 
ATOM     49  C   UNL     1       8.851   7.012  -6.527  1.00  0.00     0.049 A 
ATOM     50  H   UNL     1       7.836   8.818  -6.306  1.00  0.00     0.167 HD
ATOM     51  C   UNL     1       5.201  12.316  -5.863  1.00  0.00     0.037 A 
ATOM     52  C   UNL     1       9.300   6.961  -7.795  1.00  0.00     0.037 A 
ATOM     53  C   UNL     1       5.684  12.378  -7.216  1.00  0.00     0.049 A 
ATOM     54  C   UNL     1       8.956   8.081  -8.739  1.00  0.00     0.074 A 
ATOM     55  C   UNL     1       5.471  13.361  -8.166  1.00  0.00     0.029 A 
ATOM     56  N   UNL     1       6.499  11.422  -7.804  1.00  0.00    -0.354 N 
ATOM     57  N   UNL     1       8.226   9.148  -8.525  1.00  0.00    -0.248 NA
ATOM     58  C   UNL     1       9.494   7.986 -10.104  1.00  0.00     0.031 C 
ATOM     59  C   UNL     1       6.139  12.988  -9.337  1.00  0.00     0.029 A 
ATOM     60  C   UNL     1       6.799  11.792  -9.104  1.00  0.00     0.049 A 
ATOM     61  H   UNL     1       6.817  10.601  -7.362  1.00  0.00     0.167 HD
ATOM     62  C   UNL     1       8.245   9.867  -9.711  1.00  0.00     0.074 A 
ATOM     63  C   UNL     1       9.061   9.117 -10.643  1.00  0.00     0.031 C 
ATOM     64  C   UNL     1       7.639  11.044 -10.003  1.00  0.00     0.037 A 
BRANCH  51  65
ATOM     65  C   UNL     1       4.282  13.401  -5.379  1.00  0.00     0.064 A 
ATOM     66  C   UNL     1       4.691  14.340  -4.419  1.00  0.00     0.173 A 
ATOM     67  C   UNL     1       2.979  13.510  -5.888  1.00  0.00     0.173 A 
ATOM     68  F   UNL     1       5.922  14.272  -3.890  1.00  0.00    -0.203 F 
ATOM     69  C   UNL     1       3.816  15.320  -3.956  1.00  0.00     0.198 A 
ATOM     70  C   UNL     1       2.119  14.513  -5.448  1.00  0.00     0.198 A 
ATOM     71  F   UNL     1       2.538  12.644  -6.813  1.00  0.00    -0.203 F 
ATOM     72  F   UNL     1       4.210  16.163  -2.992  1.00  0.00    -0.200 F 
ATOM     73  C   UNL     1       2.534  15.409  -4.475  1.00  0.00     0.200 A 
ATOM     74  F   UNL     1       0.883  14.607  -5.960  1.00  0.00    -0.200 F 
ATOM     75  F   UNL     1       1.694  16.354  -4.029  1.00  0.00    -0.200 F 
ENDBRANCH  51  65
BRANCH  52  76
ATOM     76  C   UNL     1      10.147   5.823  -8.240  1.00  0.00     0.064 A 
ATOM     77  C   UNL     1      11.513   6.012  -8.494  1.00  0.00     0.173 A 
ATOM     78  C   UNL     1       9.622   4.535  -8.416  1.00  0.00     0.173 A 
ATOM     79  F   UNL     1      12.055   7.231  -8.358  1.00  0.00    -0.203 F 
ATOM     80  C   UNL     1      12.318   4.960  -8.924  1.00  0.00     0.198 A 
ATOM     81  C   UNL     1      10.435   3.478  -8.821  1.00  0.00     0.198 A 
ATOM     82  F   UNL     1       8.324   4.300  -8.178  1.00  0.00    -0.203 F 
ATOM     83  F   UNL     1      13.611   5.179  -9.198  1.00  0.00    -0.200 F 
ATOM     84  C   UNL     1      11.780   3.692  -9.082  1.00  0.00     0.200 A 
ATOM     85  F   UNL     1       9.915   2.250  -8.959  1.00  0.00    -0.200 F 
ATOM     86  F   UNL     1      12.556   2.679  -9.491  1.00  0.00    -0.200 F 
ENDBRANCH  52  76
BRANCH  64  87
ATOM     87  C   UNL     1       7.883  11.626 -11.362  1.00  0.00     0.064 A 
ATOM     88  C   UNL     1       7.261  11.109 -12.507  1.00  0.00     0.173 A 
ATOM     89  C   UNL     1       8.700  12.758 -11.507  1.00  0.00     0.173 A 
ATOM     90  F   UNL     1       6.485  10.018 -12.419  1.00  0.00    -0.203 F 
ATOM     91  C   UNL     1       7.458  11.699 -13.752  1.00  0.00     0.198 A 
ATOM     92  C   UNL     1       8.874  13.359 -12.749  1.00  0.00     0.198 A 
ATOM     93  F   UNL     1       9.312  13.290 -10.439  1.00  0.00    -0.203 F 
ATOM     94  F   UNL     1       6.879  11.171 -14.840  1.00  0.00    -0.200 F 
ATOM     95  C   UNL     1       8.255  12.828 -13.871  1.00  0.00     0.200 A 
ATOM     96  F   UNL     1       9.635  14.456 -12.860  1.00  0.00    -0.200 F 
ATOM     97  F   UNL     1       8.431  13.402 -15.069  1.00  0.00    -0.200 F 
ENDBRANCH  64  87
ENDBRANCH  38  39
ENDBRANCH  30  33
ENDBRANCH  28  29
ENDBRANCH   1  28
TORSDOF 12
