REMARK SMILES Cc1ccc2[nH]cc([C@@H](C(=O)NCCCNC(=O)c3ccc(-c4c5nc(c(-c6c(F)c(F)c(F)c(F)c6F)c6ccc([nH]6)c(-c6c(F)c(F)c(F)c(F)c6F)c6nc(c(-c7c(F)c(F)c(F)c(F)c7F)c7ccc4[nH]7)C=C6)C=C5)cc3)[NH+]3CCN(c4cccc(Cl)c4)CC3)c2c1
REMARK SMILES IDX 14 1 13 2 12 3 10 4 11 5 9 7 8 8 1 9 2 10 3 11 96 12 4 13
REMARK SMILES IDX 95 14 5 15 6 16 7 17 82 19 83 20 94 21 84 23 93 24 85 25
REMARK SMILES IDX 86 26 87 27 92 28 88 29 90 30 89 31 91 32 15 33 16 34 17 35
REMARK SMILES IDX 18 37 19 38 20 39 81 40 21 41 80 42 22 43 23 44 24 45 74 46
REMARK SMILES IDX 25 47 79 48 73 49 75 50 26 51 78 52 72 53 71 54 27 56 59 57
REMARK SMILES IDX 39 58 58 59 40 60 43 61 57 62 76 63 41 64 42 65 56 67 77 68
REMARK SMILES IDX 44 69 28 70 29 71 37 72 30 73 31 74 35 75 38 76 32 77 33 78
REMARK SMILES IDX 36 79 34 80 60 81 61 82 69 83 62 84 63 85 67 86 70 87 64 88
REMARK SMILES IDX 65 89 68 90 66 91 45 92 46 93 54 94 47 95 48 96 52 97 55 98
REMARK SMILES IDX 49 99 50 100 53 101 51 102
REMARK H PARENT 12 6 6 18 82 22 16 36 75 55 43 66
REMARK Flexibility Score: inf
ROOT
ATOM      1  C   UNL     1      -0.597  -1.491   3.579  1.00  0.00     0.042 C 
ENDROOT
BRANCH   1   2
ATOM      2  C   UNL     1      -0.605  -2.858   2.900  1.00  0.00     0.118 C 
BRANCH   2   3
ATOM      3  N   UNL     1      -1.945  -3.314   2.582  1.00  0.00    -0.351 N 
ATOM      4  C   UNL     1      -2.655  -3.217   1.411  1.00  0.00     0.283 C 
ATOM      5  O   UNL     1      -3.811  -3.650   1.459  1.00  0.00    -0.268 OA
ATOM      6  H   UNL     1      -2.418  -3.762   3.320  1.00  0.00     0.163 HD
BRANCH   4   7
ATOM      7  C   UNL     1      -1.976  -2.627   0.131  1.00  0.00     0.307 C 
BRANCH   7   8
ATOM      8  C   UNL     1      -1.702  -1.150   0.256  1.00  0.00     0.044 A 
ATOM      9  C   UNL     1       3.379  -0.631  -0.261  1.00  0.00     0.044 C 
ATOM     10  C   UNL     1       1.982  -0.099  -0.127  1.00  0.00    -0.050 A 
ATOM     11  C   UNL     1       1.749   1.270   0.024  1.00  0.00     0.005 A 
ATOM     12  C   UNL     1       0.898  -0.994  -0.110  1.00  0.00     0.014 A 
ATOM     13  C   UNL     1       0.459   1.772   0.226  1.00  0.00     0.027 A 
ATOM     14  C   UNL     1      -0.412  -0.518   0.120  1.00  0.00     0.009 A 
ATOM     15  C   UNL     1      -0.593   0.853   0.298  1.00  0.00     0.046 A 
ATOM     16  N   UNL     1      -1.927   1.056   0.553  1.00  0.00    -0.361 N 
ATOM     17  C   UNL     1      -2.583  -0.143   0.611  1.00  0.00     0.094 A 
ATOM     18  H   UNL     1      -2.350   1.936   0.676  1.00  0.00     0.166 HD
ENDBRANCH   7   8
BRANCH   7  19
ATOM     19  N   UNL     1      -2.671  -3.007  -1.124  1.00  0.00    -0.318 N 
ATOM     20  C   UNL     1      -4.069  -2.595  -1.321  1.00  0.00     0.284 C 
ATOM     21  C   UNL     1      -1.896  -2.788  -2.359  1.00  0.00     0.284 C 
ATOM     22  H   UNL     1      -2.733  -4.008  -0.940  1.00  0.00     0.349 HD
ATOM     23  C   UNL     1      -4.331  -1.247  -2.027  1.00  0.00     0.178 C 
ATOM     24  C   UNL     1      -2.054  -1.408  -3.042  1.00  0.00     0.178 C 
ATOM     25  N   UNL     1      -3.471  -1.047  -3.199  1.00  0.00    -0.360 N 
BRANCH  25  26
ATOM     26  C   UNL     1      -3.704   0.103  -3.956  1.00  0.00     0.038 A 
ATOM     27  C   UNL     1      -3.845   1.373  -3.377  1.00  0.00     0.026 A 
ATOM     28  C   UNL     1      -3.803  -0.005  -5.347  1.00  0.00     0.046 A 
ATOM     29  C   UNL     1      -4.113   2.500  -4.159  1.00  0.00     0.004 A 
ATOM     30  C   UNL     1      -4.075   1.119  -6.128  1.00  0.00     0.043 A 
ATOM     31  C   UNL     1      -4.236   2.371  -5.539  1.00  0.00     0.020 A 
ATOM     32  Cl  UNL     1      -4.227   0.956  -7.835  1.00  0.00    -0.084 Cl
ENDBRANCH  25  26
ENDBRANCH   7  19
ENDBRANCH   4   7
ENDBRANCH   2   3
ENDBRANCH   1   2
BRANCH   1  33
ATOM     33  C   UNL     1      -1.320  -1.447   4.919  1.00  0.00     0.118 C 
BRANCH  33  34
ATOM     34  N   UNL     1      -0.654  -2.246   5.934  1.00  0.00    -0.352 N 
ATOM     35  C   UNL     1      -0.150  -1.886   7.157  1.00  0.00     0.251 C 
ATOM     36  H   UNL     1      -0.549  -3.198   5.707  1.00  0.00     0.163 HD
ATOM     37  O   UNL     1       0.559  -2.679   7.769  1.00  0.00    -0.269 OA
BRANCH  35  38
ATOM     38  C   UNL     1      -0.435  -0.557   7.747  1.00  0.00     0.039 A 
ATOM     39  C   UNL     1       0.579   0.075   8.473  1.00  0.00     0.014 A 
ATOM     40  C   UNL     1      -1.696   0.040   7.655  1.00  0.00     0.014 A 
ATOM     41  C   UNL     1       0.342   1.313   9.072  1.00  0.00     0.010 A 
ATOM     42  C   UNL     1      -1.910   1.311   8.189  1.00  0.00     0.010 A 
ATOM     43  C   UNL     1      -0.898   1.953   8.917  1.00  0.00    -0.014 A 
BRANCH  43  44
ATOM     44  C   UNL     1      -1.137   3.289   9.522  1.00  0.00     0.031 A 
ATOM     45  C   UNL     1      -2.142   3.463  10.626  1.00  0.00     0.074 A 
ATOM     46  C   UNL     1      -0.462   4.356   9.052  1.00  0.00     0.049 A 
ATOM     47  N   UNL     1      -2.460   4.546  11.292  1.00  0.00    -0.248 NA
ATOM     48  C   UNL     1      -2.911   2.272  11.018  1.00  0.00     0.031 C 
ATOM     49  C   UNL     1       0.489   4.328   7.940  1.00  0.00     0.029 A 
ATOM     50  N   UNL     1      -0.471   5.669   9.451  1.00  0.00    -0.354 N 
ATOM     51  C   UNL     1      -3.470   4.170  12.167  1.00  0.00     0.074 A 
ATOM     52  C   UNL     1      -3.750   2.773  11.914  1.00  0.00     0.031 C 
ATOM     53  C   UNL     1       0.995   5.559   7.766  1.00  0.00     0.029 A 
ATOM     54  C   UNL     1       0.390   6.465   8.737  1.00  0.00     0.049 A 
ATOM     55  H   UNL     1      -1.041   6.007  10.179  1.00  0.00     0.167 HD
ATOM     56  C   UNL     1      -4.092   4.915  13.113  1.00  0.00     0.037 A 
ATOM     57  C   UNL     1       0.669   7.776   8.860  1.00  0.00     0.037 A 
ATOM     58  C   UNL     1      -3.790   6.297  13.384  1.00  0.00     0.049 A 
ATOM     59  C   UNL     1       0.002   8.571   9.948  1.00  0.00     0.074 A 
ATOM     60  C   UNL     1      -4.312   7.119  14.367  1.00  0.00     0.029 A 
ATOM     61  N   UNL     1      -2.884   7.061  12.664  1.00  0.00    -0.354 N 
ATOM     62  N   UNL     1      -0.888   8.183  10.828  1.00  0.00    -0.248 NA
ATOM     63  C   UNL     1       0.392   9.982  10.070  1.00  0.00     0.031 C 
ATOM     64  C   UNL     1      -3.752   8.393  14.216  1.00  0.00     0.029 A 
ATOM     65  C   UNL     1      -2.845   8.351  13.170  1.00  0.00     0.049 A 
ATOM     66  H   UNL     1      -2.347   6.735  11.905  1.00  0.00     0.167 HD
ATOM     67  C   UNL     1      -1.145   9.290  11.625  1.00  0.00     0.074 A 
ATOM     68  C   UNL     1      -0.306  10.362  11.132  1.00  0.00     0.031 C 
ATOM     69  C   UNL     1      -2.000   9.406  12.671  1.00  0.00     0.037 A 
BRANCH  56  70
ATOM     70  C   UNL     1      -5.160   4.247  13.930  1.00  0.00     0.064 A 
ATOM     71  C   UNL     1      -4.853   3.260  14.880  1.00  0.00     0.173 A 
ATOM     72  C   UNL     1      -6.505   4.620  13.785  1.00  0.00     0.173 A 
ATOM     73  F   UNL     1      -3.584   2.860  15.050  1.00  0.00    -0.203 F 
ATOM     74  C   UNL     1      -5.855   2.648  15.628  1.00  0.00     0.198 A 
ATOM     75  C   UNL     1      -7.502   4.027  14.557  1.00  0.00     0.198 A 
ATOM     76  F   UNL     1      -6.854   5.563  12.897  1.00  0.00    -0.203 F 
ATOM     77  F   UNL     1      -5.543   1.672  16.491  1.00  0.00    -0.200 F 
ATOM     78  C   UNL     1      -7.177   3.036  15.471  1.00  0.00     0.200 A 
ATOM     79  F   UNL     1      -8.777   4.412  14.413  1.00  0.00    -0.200 F 
ATOM     80  F   UNL     1      -8.140   2.449  16.196  1.00  0.00    -0.200 F 
ENDBRANCH  56  70
BRANCH  57  81
ATOM     81  C   UNL     1       1.671   8.400   7.958  1.00  0.00     0.064 A 
ATOM     82  C   UNL     1       2.934   8.775   8.436  1.00  0.00     0.173 A 
ATOM     83  C   UNL     1       1.395   8.612   6.600  1.00  0.00     0.173 A 
ATOM     84  F   UNL     1       3.237   8.607   9.731  1.00  0.00    -0.203 F 
ATOM     85  C   UNL     1       3.880   9.351   7.591  1.00  0.00     0.198 A 
ATOM     86  C   UNL     1       2.351   9.165   5.751  1.00  0.00     0.198 A 
ATOM     87  F   UNL     1       0.204   8.261   6.094  1.00  0.00    -0.203 F 
ATOM     88  F   UNL     1       5.068   9.732   8.080  1.00  0.00    -0.200 F 
ATOM     89  C   UNL     1       3.590   9.539   6.248  1.00  0.00     0.200 A 
ATOM     90  F   UNL     1       2.073   9.330   4.450  1.00  0.00    -0.200 F 
ATOM     91  F   UNL     1       4.504  10.084   5.433  1.00  0.00    -0.200 F 
ENDBRANCH  57  81
BRANCH  69  92
ATOM     92  C   UNL     1      -2.046  10.732  13.373  1.00  0.00     0.064 A 
ATOM     93  C   UNL     1      -2.638  11.857  12.781  1.00  0.00     0.173 A 
ATOM     94  C   UNL     1      -1.517  10.869  14.665  1.00  0.00     0.173 A 
ATOM     95  F   UNL     1      -3.145  11.781  11.542  1.00  0.00    -0.203 F 
ATOM     96  C   UNL     1      -2.673  13.080  13.447  1.00  0.00     0.198 A 
ATOM     97  C   UNL     1      -1.578  12.085  15.338  1.00  0.00     0.198 A 
ATOM     98  F   UNL     1      -0.946   9.820  15.276  1.00  0.00    -0.203 F 
ATOM     99  F   UNL     1      -3.198  14.155  12.844  1.00  0.00    -0.200 F 
ATOM    100  C   UNL     1      -2.148  13.191  14.727  1.00  0.00     0.200 A 
ATOM    101  F   UNL     1      -1.081  12.188  16.579  1.00  0.00    -0.200 F 
ATOM    102  F   UNL     1      -2.184  14.368  15.367  1.00  0.00    -0.200 F 
ENDBRANCH  69  92
ENDBRANCH  43  44
ENDBRANCH  35  38
ENDBRANCH  33  34
ENDBRANCH   1  33
TORSDOF 13
