REMARK SMILES C[C@@H](CC(=O)NCCCNC(=O)c1ccc(-c2c3nc(c(-c4c(F)c(F)c(F)c(F)c4F)c4ccc([nH]4)c(-c4c(F)c(F)c(F)c(F)c4F)c4nc(c(-c5c(F)c(F)c(F)c(F)c5F)c5ccc2[nH]5)C=C4)C=C3)cc1)CC(=O)NC[C@@]1(C)CCCO1
REMARK SMILES IDX 4 1 5 2 6 3 3 5 2 6 1 7 76 8 77 9 78 10 79 11 80 13 81 14
REMARK SMILES IDX 82 15 83 16 86 17 84 18 85 19 7 20 8 21 9 22 10 23 11 24
REMARK SMILES IDX 12 26 13 27 14 28 75 29 15 30 74 31 16 32 17 33 18 34 68 35
REMARK SMILES IDX 19 36 73 37 67 38 69 39 20 40 72 41 66 42 65 43 21 45 53 46
REMARK SMILES IDX 33 47 52 48 34 49 37 50 51 51 70 52 35 53 36 54 50 56 71 57
REMARK SMILES IDX 38 58 22 59 23 60 31 61 24 62 25 63 29 64 32 65 26 66 27 67
REMARK SMILES IDX 30 68 28 69 54 70 55 71 63 72 56 73 57 74 61 75 64 76 58 77
REMARK SMILES IDX 59 78 62 79 60 80 39 81 40 82 48 83 41 84 42 85 46 86 49 87
REMARK SMILES IDX 43 88 44 89 47 90 45 91
REMARK H PARENT 6 4 79 12 10 25 69 44 37 55
REMARK Flexibility Score: inf
ROOT
ATOM      1  C   UNL     1       0.103  -2.489  -2.009  1.00  0.00     0.220 C 
ATOM      2  O   UNL     1      -1.000  -2.915  -2.356  1.00  0.00    -0.275 OA
ATOM      3  N   UNL     1       0.761  -3.168  -1.032  1.00  0.00    -0.356 N 
ATOM      4  H   UNL     1       0.334  -4.016  -0.774  1.00  0.00     0.163 HD
ENDROOT
BRANCH   1   5
ATOM      5  C   UNL     1       0.699  -1.261  -2.669  1.00  0.00     0.103 C 
BRANCH   5   6
ATOM      6  C   UNL     1       0.342   0.120  -2.078  1.00  0.00     0.004 C 
ATOM      7  C   UNL     1       1.586   0.734  -1.442  1.00  0.00     0.009 C 
BRANCH   6   8
ATOM      8  C   UNL     1      -0.879   0.137  -1.137  1.00  0.00     0.103 C 
BRANCH   8   9
ATOM      9  C   UNL     1      -1.155   1.525  -0.576  1.00  0.00     0.220 C 
ATOM     10  O   UNL     1      -1.661   2.402  -1.280  1.00  0.00    -0.275 OA
ATOM     11  N   UNL     1      -0.788   1.858   0.696  1.00  0.00    -0.353 N 
ATOM     12  H   UNL     1      -0.810   2.822   0.894  1.00  0.00     0.163 HD
BRANCH  11  13
ATOM     13  C   UNL     1      -0.368   1.015   1.806  1.00  0.00     0.151 C 
BRANCH  13  14
ATOM     14  C   UNL     1       0.857   1.512   2.608  1.00  0.00     0.083 C 
ATOM     15  C   UNL     1       2.162   1.445   1.807  1.00  0.00     0.044 C 
ATOM     16  C   UNL     1       0.650   2.893   3.221  1.00  0.00     0.039 C 
ATOM     17  O   UNL     1       1.033   0.639   3.749  1.00  0.00    -0.373 OA
ATOM     18  C   UNL     1       1.582   2.868   4.410  1.00  0.00     0.031 C 
ATOM     19  C   UNL     1       1.559   1.413   4.840  1.00  0.00     0.161 C 
ENDBRANCH  13  14
ENDBRANCH  11  13
ENDBRANCH   8   9
ENDBRANCH   6   8
ENDBRANCH   5   6
ENDBRANCH   1   5
BRANCH   3  20
ATOM     20  C   UNL     1       1.982  -2.871  -0.299  1.00  0.00     0.117 C 
BRANCH  20  21
ATOM     21  C   UNL     1       1.677  -2.381   1.116  1.00  0.00     0.042 C 
BRANCH  21  22
ATOM     22  C   UNL     1       1.010  -3.400   2.042  1.00  0.00     0.118 C 
BRANCH  22  23
ATOM     23  N   UNL     1       1.980  -4.220   2.747  1.00  0.00    -0.352 N 
ATOM     24  C   UNL     1       2.207  -4.393   4.091  1.00  0.00     0.251 C 
ATOM     25  H   UNL     1       2.576  -4.742   2.162  1.00  0.00     0.163 HD
ATOM     26  O   UNL     1       3.228  -4.987   4.436  1.00  0.00    -0.269 OA
BRANCH  24  27
ATOM     27  C   UNL     1       1.278  -3.893   5.143  1.00  0.00     0.039 A 
ATOM     28  C   UNL     1       1.829  -3.505   6.372  1.00  0.00     0.014 A 
ATOM     29  C   UNL     1      -0.113  -3.902   5.002  1.00  0.00     0.014 A 
ATOM     30  C   UNL     1       1.004  -3.110   7.433  1.00  0.00     0.010 A 
ATOM     31  C   UNL     1      -0.935  -3.446   6.042  1.00  0.00     0.010 A 
ATOM     32  C   UNL     1      -0.389  -3.062   7.277  1.00  0.00    -0.014 A 
BRANCH  32  33
ATOM     33  C   UNL     1      -1.269  -2.640   8.405  1.00  0.00     0.031 A 
ATOM     34  C   UNL     1      -2.225  -3.616   9.042  1.00  0.00     0.074 A 
ATOM     35  C   UNL     1      -1.229  -1.371   8.856  1.00  0.00     0.049 A 
ATOM     36  N   UNL     1      -3.083  -3.423  10.015  1.00  0.00    -0.248 NA
ATOM     37  C   UNL     1      -2.229  -4.984   8.506  1.00  0.00     0.031 C 
ATOM     38  C   UNL     1      -0.374  -0.313   8.318  1.00  0.00     0.029 A 
ATOM     39  N   UNL     1      -1.924  -0.753   9.868  1.00  0.00    -0.354 N 
ATOM     40  C   UNL     1      -3.736  -4.636  10.195  1.00  0.00     0.074 A 
ATOM     41  C   UNL     1      -3.206  -5.548   9.203  1.00  0.00     0.031 C 
ATOM     42  C   UNL     1      -0.577   0.815   9.018  1.00  0.00     0.029 A 
ATOM     43  C   UNL     1      -1.599   0.571  10.033  1.00  0.00     0.049 A 
ATOM     44  H   UNL     1      -2.593  -1.217  10.422  1.00  0.00     0.167 HD
ATOM     45  C   UNL     1      -4.677  -4.969  11.113  1.00  0.00     0.037 A 
ATOM     46  C   UNL     1      -2.070   1.488  10.901  1.00  0.00     0.037 A 
ATOM     47  C   UNL     1      -5.189  -4.079  12.123  1.00  0.00     0.049 A 
ATOM     48  C   UNL     1      -3.116   1.093  11.909  1.00  0.00     0.074 A 
ATOM     49  C   UNL     1      -6.105  -4.347  13.127  1.00  0.00     0.029 A 
ATOM     50  N   UNL     1      -4.829  -2.747  12.259  1.00  0.00    -0.354 N 
ATOM     51  N   UNL     1      -3.685  -0.071  12.099  1.00  0.00    -0.248 NA
ATOM     52  C   UNL     1      -3.580   2.144  12.828  1.00  0.00     0.031 C 
ATOM     53  C   UNL     1      -6.327  -3.169  13.847  1.00  0.00     0.029 A 
ATOM     54  C   UNL     1      -5.517  -2.177  13.320  1.00  0.00     0.049 A 
ATOM     55  H   UNL     1      -4.181  -2.276  11.688  1.00  0.00     0.167 HD
ATOM     56  C   UNL     1      -4.551   0.098  13.171  1.00  0.00     0.074 A 
ATOM     57  C   UNL     1      -4.423   1.474  13.601  1.00  0.00     0.031 C 
ATOM     58  C   UNL     1      -5.379  -0.808  13.746  1.00  0.00     0.037 A 
BRANCH  45  59
ATOM     59  C   UNL     1      -5.220  -6.369  11.073  1.00  0.00     0.064 A 
ATOM     60  C   UNL     1      -4.448  -7.467  11.481  1.00  0.00     0.173 A 
ATOM     61  C   UNL     1      -6.541  -6.610  10.667  1.00  0.00     0.173 A 
ATOM     62  F   UNL     1      -3.176  -7.290  11.870  1.00  0.00    -0.203 F 
ATOM     63  C   UNL     1      -4.970  -8.757  11.459  1.00  0.00     0.198 A 
ATOM     64  C   UNL     1      -7.069  -7.898  10.672  1.00  0.00     0.198 A 
ATOM     65  F   UNL     1      -7.325  -5.593  10.277  1.00  0.00    -0.203 F 
ATOM     66  F   UNL     1      -4.200  -9.796  11.813  1.00  0.00    -0.200 F 
ATOM     67  C   UNL     1      -6.281  -8.971  11.061  1.00  0.00     0.200 A 
ATOM     68  F   UNL     1      -8.340  -8.102  10.301  1.00  0.00    -0.200 F 
ATOM     69  F   UNL     1      -6.784 -10.213  11.047  1.00  0.00    -0.200 F 
ENDBRANCH  45  59
BRANCH  46  70
ATOM     70  C   UNL     1      -1.536   2.874  10.874  1.00  0.00     0.064 A 
ATOM     71  C   UNL     1      -0.718   3.348  11.910  1.00  0.00     0.173 A 
ATOM     72  C   UNL     1      -1.835   3.752   9.823  1.00  0.00     0.173 A 
ATOM     73  F   UNL     1      -0.424   2.552  12.948  1.00  0.00    -0.203 F 
ATOM     74  C   UNL     1      -0.234   4.654  11.903  1.00  0.00     0.198 A 
ATOM     75  C   UNL     1      -1.329   5.049   9.804  1.00  0.00     0.198 A 
ATOM     76  F   UNL     1      -2.610   3.344   8.807  1.00  0.00    -0.203 F 
ATOM     77  F   UNL     1       0.512   5.095  12.924  1.00  0.00    -0.200 F 
ATOM     78  C   UNL     1      -0.534   5.502  10.847  1.00  0.00     0.200 A 
ATOM     79  F   UNL     1      -1.609   5.860   8.775  1.00  0.00    -0.200 F 
ATOM     80  F   UNL     1      -0.063   6.756  10.837  1.00  0.00    -0.200 F 
ENDBRANCH  46  70
BRANCH  58  81
ATOM     81  C   UNL     1      -6.189  -0.351  14.924  1.00  0.00     0.064 A 
ATOM     82  C   UNL     1      -7.284   0.513  14.772  1.00  0.00     0.173 A 
ATOM     83  C   UNL     1      -5.885  -0.806  16.216  1.00  0.00     0.173 A 
ATOM     84  F   UNL     1      -7.605   0.989  13.559  1.00  0.00    -0.203 F 
ATOM     85  C   UNL     1      -8.027   0.926  15.874  1.00  0.00     0.198 A 
ATOM     86  C   UNL     1      -6.647  -0.412  17.312  1.00  0.00     0.198 A 
ATOM     87  F   UNL     1      -4.852  -1.638  16.414  1.00  0.00    -0.203 F 
ATOM     88  F   UNL     1      -9.040   1.790  15.712  1.00  0.00    -0.200 F 
ATOM     89  C   UNL     1      -7.713   0.459  17.142  1.00  0.00     0.200 A 
ATOM     90  F   UNL     1      -6.348  -0.872  18.535  1.00  0.00    -0.200 F 
ATOM     91  F   UNL     1      -8.431   0.856  18.201  1.00  0.00    -0.200 F 
ENDBRANCH  58  81
ENDBRANCH  32  33
ENDBRANCH  24  27
ENDBRANCH  22  23
ENDBRANCH  21  22
ENDBRANCH  20  21
ENDBRANCH   3  20
TORSDOF 15
