REMARK SMILES O=C(CC1(NC(=O)[C@]2(C(F)(F)F)CC[NH2+]C2)CCC1)NCCCNC(=O)c1ccc(-c2c3nc(c(-c4c(F)c(F)c(F)c(F)c4F)c4ccc([nH]4)c(-c4c(F)c(F)c(F)c(F)c4F)c4nc(c(-c5c(F)c(F)c(F)c(F)c5F)c5ccc2[nH]5)C=C4)C=C3)cc1
REMARK SMILES IDX 21 1 20 2 1 3 2 4 3 6 4 7 17 8 19 9 18 10 5 11 6 12 7 14
REMARK SMILES IDX 8 15 13 16 16 17 14 18 15 19 9 22 10 23 11 24 12 25 22 26
REMARK SMILES IDX 23 27 24 28 25 29 26 31 27 32 28 33 89 34 29 35 88 36 30 37
REMARK SMILES IDX 31 38 32 39 82 40 33 41 87 42 81 43 83 44 34 45 86 46 80 47
REMARK SMILES IDX 79 48 35 50 67 51 47 52 66 53 48 54 51 55 65 56 84 57 49 58
REMARK SMILES IDX 50 59 64 61 85 62 52 63 36 64 37 65 45 66 38 67 39 68 43 69
REMARK SMILES IDX 46 70 40 71 41 72 44 73 42 74 68 75 69 76 77 77 70 78 71 79
REMARK SMILES IDX 75 80 78 81 72 82 73 83 76 84 74 85 53 86 54 87 62 88 55 89
REMARK SMILES IDX 56 90 60 91 63 92 57 93 58 94 61 95 59 96
REMARK H PARENT 20 5 5 13 15 20 15 21 24 30 83 49 51 60
REMARK Flexibility Score: inf
ROOT
ATOM      1  C   UNL     1       1.811  -0.049   2.720  1.00  0.00     0.117 C 
ENDROOT
BRANCH   1   2
ATOM      2  N   UNL     1       2.225   0.230   1.364  1.00  0.00    -0.356 N 
ATOM      3  O   UNL     1       0.760   1.950   0.934  1.00  0.00    -0.275 OA
ATOM      4  C   UNL     1       1.637   1.186   0.563  1.00  0.00     0.222 C 
ATOM      5  H   UNL     1       2.969  -0.294   0.990  1.00  0.00     0.163 HD
BRANCH   4   6
ATOM      6  C   UNL     1       2.103   1.099  -0.879  1.00  0.00     0.128 C 
BRANCH   6   7
ATOM      7  C   UNL     1       3.535   1.525  -1.200  1.00  0.00     0.049 C 
ATOM      8  C   UNL     1       3.542   3.063  -1.513  1.00  0.00     0.029 C 
ATOM      9  C   UNL     1       4.541   1.861  -0.037  1.00  0.00     0.029 C 
ATOM     10  C   UNL     1       4.817   3.226  -0.681  1.00  0.00     0.005 C 
BRANCH   7  11
ATOM     11  N   UNL     1       4.243   0.767  -2.312  1.00  0.00    -0.349 N 
ATOM     12  C   UNL     1       4.307  -0.499  -2.838  1.00  0.00     0.241 C 
ATOM     13  H   UNL     1       4.841   1.372  -2.809  1.00  0.00     0.164 HD
ATOM     14  O   UNL     1       5.251  -0.682  -3.618  1.00  0.00    -0.274 OA
BRANCH  12  15
ATOM     15  C   UNL     1       3.324  -1.634  -2.574  1.00  0.00     0.197 C 
ATOM     16  C   UNL     1       3.573  -2.890  -3.434  1.00  0.00     0.094 C 
ATOM     17  C   UNL     1       1.928  -1.217  -3.059  1.00  0.00     0.287 C 
ATOM     18  C   UNL     1       2.811  -2.648  -4.715  1.00  0.00     0.262 C 
ATOM     19  N   UNL     1       1.595  -1.966  -4.284  1.00  0.00    -0.345 N 
ATOM     20  H   UNL     1       0.862  -2.647  -4.090  1.00  0.00     0.346 HD
ATOM     21  H   UNL     1       1.255  -1.337  -5.012  1.00  0.00     0.346 HD
BRANCH  15  22
ATOM     22  C   UNL     1       3.479  -2.067  -1.134  1.00  0.00     0.408 C 
ATOM     23  F   UNL     1       4.537  -2.898  -0.968  1.00  0.00    -0.170 F 
ATOM     24  F   UNL     1       3.678  -1.063  -0.258  1.00  0.00    -0.170 F 
ATOM     25  F   UNL     1       2.386  -2.740  -0.700  1.00  0.00    -0.170 F 
ENDBRANCH  15  22
ENDBRANCH  12  15
ENDBRANCH   7  11
ENDBRANCH   6   7
ENDBRANCH   4   6
ENDBRANCH   1   2
BRANCH   1  26
ATOM     26  C   UNL     1       2.287  -1.424   3.190  1.00  0.00     0.042 C 
BRANCH  26  27
ATOM     27  C   UNL     1       3.802  -1.584   3.327  1.00  0.00     0.118 C 
BRANCH  27  28
ATOM     28  N   UNL     1       4.391  -0.665   4.287  1.00  0.00    -0.352 N 
ATOM     29  C   UNL     1       5.073  -0.884   5.458  1.00  0.00     0.251 C 
ATOM     30  H   UNL     1       4.282   0.285   4.055  1.00  0.00     0.163 HD
ATOM     31  O   UNL     1       5.340   0.078   6.175  1.00  0.00    -0.269 OA
BRANCH  29  32
ATOM     32  C   UNL     1       5.475  -2.242   5.895  1.00  0.00     0.039 A 
ATOM     33  C   UNL     1       5.401  -2.541   7.261  1.00  0.00     0.014 A 
ATOM     34  C   UNL     1       5.979  -3.200   5.012  1.00  0.00     0.014 A 
ATOM     35  C   UNL     1       5.767  -3.807   7.726  1.00  0.00     0.010 A 
ATOM     36  C   UNL     1       6.275  -4.489   5.467  1.00  0.00     0.010 A 
ATOM     37  C   UNL     1       6.168  -4.809   6.829  1.00  0.00    -0.014 A 
BRANCH  37  38
ATOM     38  C   UNL     1       6.433  -6.194   7.309  1.00  0.00     0.031 A 
ATOM     39  C   UNL     1       7.802  -6.809   7.200  1.00  0.00     0.074 A 
ATOM     40  C   UNL     1       5.417  -6.920   7.816  1.00  0.00     0.049 A 
ATOM     41  N   UNL     1       8.204  -8.004   7.562  1.00  0.00    -0.248 NA
ATOM     42  C   UNL     1       8.854  -5.986   6.587  1.00  0.00     0.031 C 
ATOM     43  C   UNL     1       4.031  -6.463   7.931  1.00  0.00     0.029 A 
ATOM     44  N   UNL     1       5.388  -8.195   8.327  1.00  0.00    -0.354 N 
ATOM     45  C   UNL     1       9.547  -8.076   7.216  1.00  0.00     0.074 A 
ATOM     46  C   UNL     1       9.880  -6.825   6.568  1.00  0.00     0.031 C 
ATOM     47  C   UNL     1       3.295  -7.428   8.505  1.00  0.00     0.029 A 
ATOM     48  C   UNL     1       4.145  -8.586   8.762  1.00  0.00     0.049 A 
ATOM     49  H   UNL     1       6.184  -8.773   8.377  1.00  0.00     0.167 HD
ATOM     50  C   UNL     1      10.428  -9.084   7.437  1.00  0.00     0.037 A 
ATOM     51  C   UNL     1       3.732  -9.747   9.305  1.00  0.00     0.037 A 
ATOM     52  C   UNL     1      10.100 -10.325   8.092  1.00  0.00     0.049 A 
ATOM     53  C   UNL     1       4.729 -10.851   9.532  1.00  0.00     0.074 A 
ATOM     54  C   UNL     1      10.937 -11.383   8.408  1.00  0.00     0.029 A 
ATOM     55  N   UNL     1       8.831 -10.682   8.526  1.00  0.00    -0.354 N 
ATOM     56  N   UNL     1       6.012 -10.877   9.267  1.00  0.00    -0.248 NA
ATOM     57  C   UNL     1       4.219 -12.084  10.147  1.00  0.00     0.031 C 
ATOM     58  C   UNL     1      10.166 -12.400   8.981  1.00  0.00     0.029 A 
ATOM     59  C   UNL     1       8.859 -11.953   9.083  1.00  0.00     0.049 A 
ATOM     60  H   UNL     1       8.029 -10.117   8.449  1.00  0.00     0.167 HD
ATOM     61  C   UNL     1       6.468 -12.111   9.710  1.00  0.00     0.074 A 
ATOM     62  C   UNL     1       5.327 -12.797  10.279  1.00  0.00     0.031 C 
ATOM     63  C   UNL     1       7.720 -12.630   9.649  1.00  0.00     0.037 A 
BRANCH  50  64
ATOM     64  C   UNL     1      11.842  -8.889   6.965  1.00  0.00     0.064 A 
ATOM     65  C   UNL     1      12.701  -7.960   7.573  1.00  0.00     0.173 A 
ATOM     66  C   UNL     1      12.362  -9.675   5.925  1.00  0.00     0.173 A 
ATOM     67  F   UNL     1      12.255  -7.177   8.567  1.00  0.00    -0.203 F 
ATOM     68  C   UNL     1      14.015  -7.804   7.138  1.00  0.00     0.198 A 
ATOM     69  C   UNL     1      13.686  -9.540   5.514  1.00  0.00     0.198 A 
ATOM     70  F   UNL     1      11.589 -10.585   5.313  1.00  0.00    -0.203 F 
ATOM     71  F   UNL     1      14.800  -6.876   7.702  1.00  0.00    -0.200 F 
ATOM     72  C   UNL     1      14.509  -8.599   6.115  1.00  0.00     0.200 A 
ATOM     73  F   UNL     1      14.166 -10.321   4.537  1.00  0.00    -0.200 F 
ATOM     74  F   UNL     1      15.776  -8.455   5.704  1.00  0.00    -0.200 F 
ENDBRANCH  50  64
BRANCH  51  75
ATOM     75  C   UNL     1       2.308  -9.918   9.697  1.00  0.00     0.064 A 
ATOM     76  C   UNL     1       1.937 -10.017  11.045  1.00  0.00     0.173 A 
ATOM     77  C   UNL     1       1.291  -9.996   8.734  1.00  0.00     0.173 A 
ATOM     78  F   UNL     1       2.876  -9.969  12.002  1.00  0.00    -0.203 F 
ATOM     79  C   UNL     1       0.608 -10.211  11.415  1.00  0.00     0.198 A 
ATOM     80  C   UNL     1      -0.042 -10.158   9.106  1.00  0.00     0.198 A 
ATOM     81  F   UNL     1       1.591  -9.901   7.430  1.00  0.00    -0.203 F 
ATOM     82  F   UNL     1       0.289 -10.356  12.708  1.00  0.00    -0.200 F 
ATOM     83  C   UNL     1      -0.381 -10.275  10.445  1.00  0.00     0.200 A 
ATOM     84  F   UNL     1      -0.996 -10.202   8.167  1.00  0.00    -0.200 F 
ATOM     85  F   UNL     1      -1.659 -10.459  10.801  1.00  0.00    -0.200 F 
ENDBRANCH  51  75
BRANCH  63  86
ATOM     86  C   UNL     1       7.928 -13.992  10.251  1.00  0.00     0.064 A 
ATOM     87  C   UNL     1       7.381 -15.148   9.674  1.00  0.00     0.173 A 
ATOM     88  C   UNL     1       8.693 -14.141  11.418  1.00  0.00     0.173 A 
ATOM     89  F   UNL     1       6.630 -15.061   8.566  1.00  0.00    -0.203 F 
ATOM     90  C   UNL     1       7.557 -16.396  10.268  1.00  0.00     0.198 A 
ATOM     91  C   UNL     1       8.896 -15.395  11.988  1.00  0.00     0.198 A 
ATOM     92  F   UNL     1       9.246 -13.071  12.007  1.00  0.00    -0.203 F 
ATOM     93  F   UNL     1       6.968 -17.477   9.736  1.00  0.00    -0.200 F 
ATOM     94  C   UNL     1       8.318 -16.520  11.420  1.00  0.00     0.200 A 
ATOM     95  F   UNL     1       9.645 -15.514  13.093  1.00  0.00    -0.200 F 
ATOM     96  F   UNL     1       8.484 -17.721  11.990  1.00  0.00    -0.200 F 
ENDBRANCH  63  86
ENDBRANCH  37  38
ENDBRANCH  29  32
ENDBRANCH  27  28
ENDBRANCH  26  27
ENDBRANCH   1  26
TORSDOF 14
