REMARK SMILES CC(C)C[C@@H](C(=O)NCCCNC(=O)c1ccc(-c2c3nc(c(-c4c(F)c(F)c(F)c(F)c4F)c4ccc([nH]4)c(-c4c(F)c(F)c(F)c(F)c4F)c4nc(c(-c5c(F)c(F)c(F)c(F)c5F)c5ccc2[nH]5)C=C4)C=C3)cc1)[C@@H]1CCC[C@@H](C)C1
REMARK SMILES IDX 10 1 9 2 8 3 6 4 7 5 5 7 4 8 2 9 1 10 3 11 78 12 79 13 84 14
REMARK SMILES IDX 80 15 82 16 81 17 83 18 11 19 12 20 13 21 14 23 15 24 16 25
REMARK SMILES IDX 77 26 17 27 76 28 18 29 19 30 20 31 70 32 21 33 75 34 69 35
REMARK SMILES IDX 71 36 22 37 74 38 68 39 67 40 23 42 55 43 35 44 54 45 36 46
REMARK SMILES IDX 39 47 53 48 72 49 37 50 38 51 52 53 73 54 40 55 24 56 25 57
REMARK SMILES IDX 33 58 26 59 27 60 31 61 34 62 28 63 29 64 32 65 30 66 56 67
REMARK SMILES IDX 57 68 65 69 58 70 59 71 63 72 66 73 60 74 61 75 64 76 62 77
REMARK SMILES IDX 41 78 42 79 50 80 43 81 44 82 48 83 51 84 45 85 46 86 49 87
REMARK SMILES IDX 47 88
REMARK H PARENT 8 6 12 22 71 41 39 52
REMARK Flexibility Score: inf
ROOT
ATOM      1  C   UNL     1       2.331   3.904   0.592  1.00  0.00     0.042 C 
ENDROOT
BRANCH   1   2
ATOM      2  C   UNL     1       1.168   3.202   1.304  1.00  0.00     0.117 C 
BRANCH   2   3
ATOM      3  N   UNL     1      -0.157   3.532   0.808  1.00  0.00    -0.356 N 
ATOM      4  C   UNL     1      -1.266   2.823   0.500  1.00  0.00     0.223 C 
ATOM      5  O   UNL     1      -2.298   3.502   0.403  1.00  0.00    -0.275 OA
ATOM      6  H   UNL     1      -0.275   4.499   0.662  1.00  0.00     0.163 HD
BRANCH   4   7
ATOM      7  C   UNL     1      -1.333   1.319   0.209  1.00  0.00     0.082 C 
BRANCH   7   8
ATOM      8  C   UNL     1      -0.542   0.443   1.205  1.00  0.00     0.016 C 
BRANCH   8   9
ATOM      9  C   UNL     1      -1.152  -0.942   1.533  1.00  0.00    -0.017 C 
ATOM     10  C   UNL     1      -0.863  -2.002   0.469  1.00  0.00     0.007 C 
ATOM     11  C   UNL     1      -0.592  -1.438   2.873  1.00  0.00     0.007 C 
ENDBRANCH   8   9
ENDBRANCH   7   8
BRANCH   7  12
ATOM     12  C   UNL     1      -1.274   0.936  -1.308  1.00  0.00     0.002 C 
ATOM     13  C   UNL     1       0.095   0.550  -1.888  1.00  0.00     0.004 C 
ATOM     14  C   UNL     1      -2.004   1.918  -2.259  1.00  0.00     0.007 C 
ATOM     15  C   UNL     1       0.927   1.738  -2.340  1.00  0.00     0.001 C 
ATOM     16  C   UNL     1      -1.150   3.101  -2.744  1.00  0.00    -0.014 C 
ATOM     17  C   UNL     1       0.176   2.615  -3.333  1.00  0.00     0.003 C 
ATOM     18  C   UNL     1      -1.917   3.940  -3.766  1.00  0.00     0.007 C 
ENDBRANCH   7  12
ENDBRANCH   4   7
ENDBRANCH   2   3
ENDBRANCH   1   2
BRANCH   1  19
ATOM     19  C   UNL     1       2.084   5.351   0.161  1.00  0.00     0.118 C 
BRANCH  19  20
ATOM     20  N   UNL     1       3.035   6.264   0.768  1.00  0.00    -0.352 N 
ATOM     21  C   UNL     1       4.144   6.893   0.270  1.00  0.00     0.251 C 
ATOM     22  H   UNL     1       2.849   6.468   1.713  1.00  0.00     0.163 HD
ATOM     23  O   UNL     1       4.889   7.478   1.054  1.00  0.00    -0.269 OA
BRANCH  21  24
ATOM     24  C   UNL     1       4.484   6.896  -1.173  1.00  0.00     0.039 A 
ATOM     25  C   UNL     1       5.840   6.819  -1.518  1.00  0.00     0.014 A 
ATOM     26  C   UNL     1       3.534   7.121  -2.175  1.00  0.00     0.014 A 
ATOM     27  C   UNL     1       6.244   6.959  -2.848  1.00  0.00     0.010 A 
ATOM     28  C   UNL     1       3.933   7.221  -3.513  1.00  0.00     0.010 A 
ATOM     29  C   UNL     1       5.293   7.169  -3.856  1.00  0.00    -0.014 A 
BRANCH  29  30
ATOM     30  C   UNL     1       5.730   7.428  -5.250  1.00  0.00     0.031 A 
ATOM     31  C   UNL     1       5.697   8.829  -5.797  1.00  0.00     0.074 A 
ATOM     32  C   UNL     1       6.168   6.420  -6.025  1.00  0.00     0.049 A 
ATOM     33  N   UNL     1       6.028   9.260  -6.989  1.00  0.00    -0.248 NA
ATOM     34  C   UNL     1       5.223   9.882  -4.887  1.00  0.00     0.031 C 
ATOM     35  C   UNL     1       6.244   5.016  -5.625  1.00  0.00     0.029 A 
ATOM     36  N   UNL     1       6.634   6.428  -7.316  1.00  0.00    -0.354 N 
ATOM     37  C   UNL     1       5.779  10.625  -6.979  1.00  0.00     0.074 A 
ATOM     38  C   UNL     1       5.264  10.954  -5.667  1.00  0.00     0.031 C 
ATOM     39  C   UNL     1       6.743   4.298  -6.646  1.00  0.00     0.029 A 
ATOM     40  C   UNL     1       7.010   5.190  -7.772  1.00  0.00     0.049 A 
ATOM     41  H   UNL     1       6.694   7.245  -7.863  1.00  0.00     0.167 HD
ATOM     42  C   UNL     1       5.967  11.527  -7.971  1.00  0.00     0.037 A 
ATOM     43  C   UNL     1       7.515   4.818  -8.963  1.00  0.00     0.037 A 
ATOM     44  C   UNL     1       6.517  11.227  -9.264  1.00  0.00     0.049 A 
ATOM     45  C   UNL     1       7.754   5.845 -10.033  1.00  0.00     0.074 A 
ATOM     46  C   UNL     1       6.775  12.089 -10.316  1.00  0.00     0.029 A 
ATOM     47  N   UNL     1       6.906   9.963  -9.677  1.00  0.00    -0.354 N 
ATOM     48  N   UNL     1       7.527   7.134 -10.004  1.00  0.00    -0.248 NA
ATOM     49  C   UNL     1       8.323   5.361 -11.301  1.00  0.00     0.031 C 
ATOM     50  C   UNL     1       7.315  11.344 -11.372  1.00  0.00     0.029 A 
ATOM     51  C   UNL     1       7.400  10.021 -10.969  1.00  0.00     0.049 A 
ATOM     52  H   UNL     1       6.840   9.146  -9.133  1.00  0.00     0.167 HD
ATOM     53  C   UNL     1       7.931   7.618 -11.240  1.00  0.00     0.074 A 
ATOM     54  C   UNL     1       8.424   6.486 -11.997  1.00  0.00     0.031 C 
ATOM     55  C   UNL     1       7.894   8.889 -11.704  1.00  0.00     0.037 A 
BRANCH  42  56
ATOM     56  C   UNL     1       5.566  12.939  -7.691  1.00  0.00     0.064 A 
ATOM     57  C   UNL     1       6.420  13.816  -7.009  1.00  0.00     0.173 A 
ATOM     58  C   UNL     1       4.329  13.426  -8.136  1.00  0.00     0.173 A 
ATOM     59  F   UNL     1       7.606  13.385  -6.555  1.00  0.00    -0.203 F 
ATOM     60  C   UNL     1       6.044  15.134  -6.772  1.00  0.00     0.198 A 
ATOM     61  C   UNL     1       3.960  14.748  -7.905  1.00  0.00     0.198 A 
ATOM     62  F   UNL     1       3.481  12.619  -8.790  1.00  0.00    -0.203 F 
ATOM     63  F   UNL     1       6.864  15.954  -6.100  1.00  0.00    -0.200 F 
ATOM     64  C   UNL     1       4.816  15.600  -7.223  1.00  0.00     0.200 A 
ATOM     65  F   UNL     1       2.775  15.197  -8.339  1.00  0.00    -0.200 F 
ATOM     66  F   UNL     1       4.456  16.870  -6.993  1.00  0.00    -0.200 F 
ENDBRANCH  42  56
BRANCH  43  67
ATOM     67  C   UNL     1       7.853   3.396  -9.201  1.00  0.00     0.064 A 
ATOM     68  C   UNL     1       9.174   2.946  -9.088  1.00  0.00     0.173 A 
ATOM     69  C   UNL     1       6.863   2.466  -9.543  1.00  0.00     0.173 A 
ATOM     70  F   UNL     1      10.152   3.812  -8.783  1.00  0.00    -0.203 F 
ATOM     71  C   UNL     1       9.496   1.611  -9.313  1.00  0.00     0.198 A 
ATOM     72  C   UNL     1       7.185   1.129  -9.759  1.00  0.00     0.198 A 
ATOM     73  F   UNL     1       5.587   2.859  -9.667  1.00  0.00    -0.203 F 
ATOM     74  F   UNL     1      10.769   1.205  -9.218  1.00  0.00    -0.200 F 
ATOM     75  C   UNL     1       8.501   0.703  -9.646  1.00  0.00     0.200 A 
ATOM     76  F   UNL     1       6.223   0.254 -10.082  1.00  0.00    -0.200 F 
ATOM     77  F   UNL     1       8.811  -0.583  -9.864  1.00  0.00    -0.200 F 
ENDBRANCH  43  67
BRANCH  55  78
ATOM     78  C   UNL     1       8.412   9.127 -13.086  1.00  0.00     0.064 A 
ATOM     79  C   UNL     1       7.595   8.928 -14.207  1.00  0.00     0.173 A 
ATOM     80  C   UNL     1       9.716   9.598 -13.289  1.00  0.00     0.173 A 
ATOM     81  F   UNL     1       6.344   8.466 -14.057  1.00  0.00    -0.203 F 
ATOM     82  C   UNL     1       8.070   9.188 -15.489  1.00  0.00     0.198 A 
ATOM     83  C   UNL     1      10.185   9.864 -14.572  1.00  0.00     0.198 A 
ATOM     84  F   UNL     1      10.531   9.799 -12.243  1.00  0.00    -0.203 F 
ATOM     85  F   UNL     1       7.280   8.977 -16.551  1.00  0.00    -0.200 F 
ATOM     86  C   UNL     1       9.363   9.659 -15.670  1.00  0.00     0.200 A 
ATOM     87  F   UNL     1      11.435  10.316 -14.747  1.00  0.00    -0.200 F 
ATOM     88  F   UNL     1       9.819   9.908 -16.905  1.00  0.00    -0.200 F 
ENDBRANCH  55  78
ENDBRANCH  29  30
ENDBRANCH  21  24
ENDBRANCH  19  20
ENDBRANCH   1  19
TORSDOF 13
