REMARK SMILES C[NH2+][C@@]1(C(=O)NCCCNC(=O)c2ccc(-c3c4nc(c(-c5c(F)c(F)c(F)c(F)c5F)c5ccc([nH]5)c(-c5c(F)c(F)c(F)c(F)c5F)c5nc(c(-c6c(F)c(F)c(F)c(F)c6F)c6ccc3[nH]6)C=C5)C=C4)cc2)CCC[C@@H](Oc2cc(F)cc(F)c2)C1
REMARK SMILES IDX 8 1 7 2 6 3 4 4 5 5 3 7 76 8 89 9 77 10 79 11 78 12 2 13
REMARK SMILES IDX 1 14 80 17 81 18 82 19 88 20 83 21 86 22 84 23 85 24 87 25
REMARK SMILES IDX 9 26 10 27 11 28 12 30 13 31 14 32 75 33 15 34 74 35 16 36
REMARK SMILES IDX 17 37 18 38 68 39 19 40 73 41 67 42 69 43 20 44 72 45 66 46
REMARK SMILES IDX 65 47 21 49 53 50 33 51 52 52 34 53 37 54 51 55 70 56 35 57
REMARK SMILES IDX 36 58 50 60 71 61 38 62 22 63 23 64 31 65 24 66 25 67 29 68
REMARK SMILES IDX 32 69 26 70 27 71 30 72 28 73 54 74 55 75 63 76 56 77 57 78
REMARK SMILES IDX 61 79 64 80 58 81 59 82 62 83 60 84 39 85 40 86 48 87 41 88
REMARK SMILES IDX 42 89 46 90 49 91 43 92 44 93 47 94 45 95
REMARK H PARENT 6 6 2 15 2 16 10 29 69 48 37 59
REMARK Flexibility Score: inf
ROOT
ATOM      1  C   UNL     1      -4.897  -0.025  -0.180  1.00  0.00     0.042 C 
ENDROOT
BRANCH   1   2
ATOM      2  C   UNL     1      -4.044  -1.283  -0.165  1.00  0.00     0.118 C 
BRANCH   2   3
ATOM      3  N   UNL     1      -2.767  -1.108  -0.813  1.00  0.00    -0.351 N 
ATOM      4  C   UNL     1      -1.487  -1.259  -0.396  1.00  0.00     0.281 C 
ATOM      5  O   UNL     1      -0.719  -1.556  -1.327  1.00  0.00    -0.268 OA
ATOM      6  H   UNL     1      -2.841  -0.820  -1.752  1.00  0.00     0.163 HD
BRANCH   4   7
ATOM      7  C   UNL     1      -0.932  -1.107   1.090  1.00  0.00     0.178 C 
ATOM      8  C   UNL     1      -1.235  -2.343   1.976  1.00  0.00     0.079 C 
ATOM      9  C   UNL     1      -1.286   0.198   1.827  1.00  0.00     0.124 C 
ATOM     10  C   UNL     1      -2.519  -2.344   2.806  1.00  0.00     0.011 C 
ATOM     11  C   UNL     1      -2.648   0.208   2.506  1.00  0.00     0.180 C 
ATOM     12  C   UNL     1      -2.907  -0.996   3.415  1.00  0.00     0.046 C 
BRANCH   7  13
ATOM     13  N   UNL     1       0.582  -1.151   0.974  1.00  0.00    -0.336 N 
ATOM     14  C   UNL     1       1.220  -0.043   0.262  1.00  0.00     0.331 C 
ATOM     15  H   UNL     1       0.964  -1.171   1.920  1.00  0.00     0.346 HD
ATOM     16  H   UNL     1       0.784  -1.980   0.416  1.00  0.00     0.346 HD
ENDBRANCH   7  13
BRANCH  11  17
ATOM     17  O   UNL     1      -2.994   1.500   3.039  1.00  0.00    -0.490 OA
BRANCH  17  18
ATOM     18  C   UNL     1      -2.626   1.765   4.322  1.00  0.00     0.125 A 
ATOM     19  C   UNL     1      -3.637   1.869   5.276  1.00  0.00     0.085 A 
ATOM     20  C   UNL     1      -1.309   2.051   4.661  1.00  0.00     0.085 A 
ATOM     21  C   UNL     1      -3.304   2.199   6.585  1.00  0.00     0.129 A 
ATOM     22  C   UNL     1      -1.001   2.371   5.979  1.00  0.00     0.129 A 
ATOM     23  F   UNL     1      -4.273   2.291   7.506  1.00  0.00    -0.207 F 
ATOM     24  C   UNL     1      -1.988   2.440   6.952  1.00  0.00     0.078 A 
ATOM     25  F   UNL     1       0.271   2.629   6.309  1.00  0.00    -0.207 F 
ENDBRANCH  17  18
ENDBRANCH  11  17
ENDBRANCH   4   7
ENDBRANCH   2   3
ENDBRANCH   1   2
BRANCH   1  26
ATOM     26  C   UNL     1      -5.716   0.118  -1.445  1.00  0.00     0.118 C 
BRANCH  26  27
ATOM     27  N   UNL     1      -6.746  -0.911  -1.548  1.00  0.00    -0.352 N 
ATOM     28  C   UNL     1      -8.110  -0.812  -1.454  1.00  0.00     0.251 C 
ATOM     29  H   UNL     1      -6.407  -1.821  -1.710  1.00  0.00     0.163 HD
ATOM     30  O   UNL     1      -8.787  -1.831  -1.315  1.00  0.00    -0.269 OA
BRANCH  28  31
ATOM     31  C   UNL     1      -8.767   0.509  -1.507  1.00  0.00     0.039 A 
ATOM     32  C   UNL     1      -9.899   0.747  -0.723  1.00  0.00     0.014 A 
ATOM     33  C   UNL     1      -8.274   1.512  -2.342  1.00  0.00     0.014 A 
ATOM     34  C   UNL     1     -10.491   2.010  -0.734  1.00  0.00     0.010 A 
ATOM     35  C   UNL     1      -8.777   2.800  -2.248  1.00  0.00     0.010 A 
ATOM     36  C   UNL     1      -9.910   3.058  -1.467  1.00  0.00    -0.014 A 
BRANCH  36  37
ATOM     37  C   UNL     1     -10.491   4.422  -1.476  1.00  0.00     0.031 A 
ATOM     38  C   UNL     1     -10.938   5.031  -2.778  1.00  0.00     0.074 A 
ATOM     39  C   UNL     1     -10.547   5.132  -0.333  1.00  0.00     0.049 A 
ATOM     40  N   UNL     1     -11.386   6.237  -3.019  1.00  0.00    -0.248 NA
ATOM     41  C   UNL     1     -10.830   4.186  -3.980  1.00  0.00     0.031 C 
ATOM     42  C   UNL     1     -10.086   4.667   0.977  1.00  0.00     0.029 A 
ATOM     43  N   UNL     1     -11.007   6.401  -0.090  1.00  0.00    -0.354 N 
ATOM     44  C   UNL     1     -11.586   6.296  -4.393  1.00  0.00     0.074 A 
ATOM     45  C   UNL     1     -11.144   5.036  -4.944  1.00  0.00     0.031 C 
ATOM     46  C   UNL     1     -10.320   5.623   1.891  1.00  0.00     0.029 A 
ATOM     47  C   UNL     1     -10.902   6.783   1.225  1.00  0.00     0.049 A 
ATOM     48  H   UNL     1     -11.378   6.983  -0.793  1.00  0.00     0.167 HD
ATOM     49  C   UNL     1     -12.124   7.299  -5.125  1.00  0.00     0.037 A 
ATOM     50  C   UNL     1     -11.233   7.944   1.821  1.00  0.00     0.037 A 
ATOM     51  C   UNL     1     -12.598   8.534  -4.560  1.00  0.00     0.049 A 
ATOM     52  C   UNL     1     -11.834   9.042   0.984  1.00  0.00     0.074 A 
ATOM     53  C   UNL     1     -13.220   9.591  -5.198  1.00  0.00     0.029 A 
ATOM     54  N   UNL     1     -12.500   8.874  -3.218  1.00  0.00    -0.354 N 
ATOM     55  N   UNL     1     -12.088   9.059  -0.302  1.00  0.00    -0.248 NA
ATOM     56  C   UNL     1     -12.200  10.280   1.684  1.00  0.00     0.031 C 
ATOM     57  C   UNL     1     -13.450  10.595  -4.252  1.00  0.00     0.029 A 
ATOM     58  C   UNL     1     -13.030  10.136  -3.013  1.00  0.00     0.049 A 
ATOM     59  H   UNL     1     -12.112   8.302  -2.517  1.00  0.00     0.167 HD
ATOM     60  C   UNL     1     -12.674  10.291  -0.559  1.00  0.00     0.074 A 
ATOM     61  C   UNL     1     -12.752  10.987   0.708  1.00  0.00     0.031 C 
ATOM     62  C   UNL     1     -13.109  10.803  -1.737  1.00  0.00     0.037 A 
BRANCH  49  63
ATOM     63  C   UNL     1     -12.239   7.098  -6.609  1.00  0.00     0.064 A 
ATOM     64  C   UNL     1     -13.116   6.151  -7.162  1.00  0.00     0.173 A 
ATOM     65  C   UNL     1     -11.486   7.885  -7.494  1.00  0.00     0.173 A 
ATOM     66  F   UNL     1     -13.848   5.362  -6.362  1.00  0.00    -0.203 F 
ATOM     67  C   UNL     1     -13.211   5.979  -8.540  1.00  0.00     0.198 A 
ATOM     68  C   UNL     1     -11.611   7.735  -8.873  1.00  0.00     0.198 A 
ATOM     69  F   UNL     1     -10.634   8.807  -7.022  1.00  0.00    -0.203 F 
ATOM     70  F   UNL     1     -14.014   5.029  -9.040  1.00  0.00    -0.200 F 
ATOM     71  C   UNL     1     -12.466   6.777  -9.394  1.00  0.00     0.200 A 
ATOM     72  F   UNL     1     -10.900   8.517  -9.698  1.00  0.00    -0.200 F 
ATOM     73  F   UNL     1     -12.568   6.617 -10.721  1.00  0.00    -0.200 F 
ENDBRANCH  49  63
BRANCH  50  74
ATOM     74  C   UNL     1     -11.032   8.117   3.284  1.00  0.00     0.064 A 
ATOM     75  C   UNL     1     -12.126   8.234   4.153  1.00  0.00     0.173 A 
ATOM     76  C   UNL     1      -9.747   8.180   3.844  1.00  0.00     0.173 A 
ATOM     77  F   UNL     1     -13.375   8.197   3.666  1.00  0.00    -0.203 F 
ATOM     78  C   UNL     1     -11.944   8.438   5.520  1.00  0.00     0.198 A 
ATOM     79  C   UNL     1      -9.566   8.349   5.215  1.00  0.00     0.198 A 
ATOM     80  F   UNL     1      -8.666   8.064   3.060  1.00  0.00    -0.203 F 
ATOM     81  F   UNL     1     -13.007   8.602   6.318  1.00  0.00    -0.200 F 
ATOM     82  C   UNL     1     -10.664   8.490   6.051  1.00  0.00     0.200 A 
ATOM     83  F   UNL     1      -8.328   8.382   5.726  1.00  0.00    -0.200 F 
ATOM     84  F   UNL     1     -10.489   8.684   7.365  1.00  0.00    -0.200 F 
ENDBRANCH  50  74
BRANCH  62  85
ATOM     85  C   UNL     1     -13.750  12.159  -1.704  1.00  0.00     0.064 A 
ATOM     86  C   UNL     1     -13.006  13.323  -1.466  1.00  0.00     0.173 A 
ATOM     87  C   UNL     1     -15.123  12.297  -1.961  1.00  0.00     0.173 A 
ATOM     88  F   UNL     1     -11.693  13.243  -1.202  1.00  0.00    -0.203 F 
ATOM     89  C   UNL     1     -13.618  14.574  -1.457  1.00  0.00     0.198 A 
ATOM     90  C   UNL     1     -15.725  13.552  -1.988  1.00  0.00     0.198 A 
ATOM     91  F   UNL     1     -15.878  11.216  -2.205  1.00  0.00    -0.203 F 
ATOM     92  F   UNL     1     -12.897  15.668  -1.175  1.00  0.00    -0.200 F 
ATOM     93  C   UNL     1     -14.974  14.688  -1.727  1.00  0.00     0.200 A 
ATOM     94  F   UNL     1     -17.030  13.661  -2.267  1.00  0.00    -0.200 F 
ATOM     95  F   UNL     1     -15.559  15.893  -1.729  1.00  0.00    -0.200 F 
ENDBRANCH  62  85
ENDBRANCH  36  37
ENDBRANCH  28  31
ENDBRANCH  26  27
ENDBRANCH   1  26
TORSDOF 13
