REMARK SMILES CC1(C)[C@H](C(=O)NCCCNC(=O)c2ccc(-c3c4nc(c(-c5c(F)c(F)c(F)c(F)c5F)c5ccc([nH]5)c(-c5c(F)c(F)c(F)c(F)c5F)c5nc(c(-c6c(F)c(F)c(F)c(F)c6F)c6ccc3[nH]6)C=C5)C=C4)cc2)[C@H]1C(=O)Nc1ccccc1C(=O)Nc1nccs1
REMARK SMILES IDX 8 1 7 2 5 3 6 4 4 6 1 7 2 8 3 9 77 10 78 11 79 12 80 13
REMARK SMILES IDX 81 15 82 16 86 17 83 18 85 19 84 20 87 21 88 22 89 23 90 25
REMARK SMILES IDX 91 26 94 27 92 28 93 29 9 30 10 31 11 32 12 33 13 35 14 36
REMARK SMILES IDX 15 37 76 38 16 39 75 40 17 41 18 42 19 43 69 44 20 45 74 46
REMARK SMILES IDX 68 47 70 48 21 49 73 50 67 51 66 52 22 54 54 55 34 56 53 57
REMARK SMILES IDX 35 58 38 59 52 60 71 61 36 62 37 63 51 65 72 66 39 67 23 68
REMARK SMILES IDX 24 69 32 70 25 71 26 72 30 73 33 74 27 75 28 76 31 77 29 78
REMARK SMILES IDX 55 79 56 80 64 81 57 82 58 83 62 84 65 85 59 86 60 87 63 88
REMARK SMILES IDX 61 89 40 90 41 91 49 92 42 93 43 94 47 95 50 96 44 97 45 98
REMARK SMILES IDX 48 99 46 100
REMARK H PARENT 7 5 80 14 89 24 11 34 70 53 38 64
REMARK Flexibility Score: inf
ROOT
ATOM      1  C   UNL     1      -1.684   3.244  -0.203  1.00  0.00     0.117 C 
ENDROOT
BRANCH   1   2
ATOM      2  N   UNL     1      -2.117   2.518  -1.366  1.00  0.00    -0.356 N 
ATOM      3  C   UNL     1      -1.647   1.378  -1.941  1.00  0.00     0.224 C 
ATOM      4  O   UNL     1      -1.915   1.203  -3.119  1.00  0.00    -0.275 OA
ATOM      5  H   UNL     1      -2.889   2.916  -1.828  1.00  0.00     0.163 HD
BRANCH   3   6
ATOM      6  C   UNL     1      -0.961   0.291  -1.230  1.00  0.00     0.098 C 
ATOM      7  C   UNL     1       1.245  -0.849  -1.390  1.00  0.00     0.013 C 
ATOM      8  C   UNL     1       0.402   0.157  -0.643  1.00  0.00    -0.011 C 
ATOM      9  C   UNL     1       1.289   1.292  -0.157  1.00  0.00     0.013 C 
ATOM     10  C   UNL     1      -0.848  -0.009   0.250  1.00  0.00     0.098 C 
BRANCH  10  11
ATOM     11  C   UNL     1      -1.985  -0.879   0.622  1.00  0.00     0.228 C 
ATOM     12  O   UNL     1      -3.008  -0.315   1.015  1.00  0.00    -0.274 OA
ATOM     13  N   UNL     1      -2.029  -2.226   0.480  1.00  0.00    -0.325 N 
ATOM     14  H   UNL     1      -2.919  -2.612   0.650  1.00  0.00     0.169 HD
BRANCH  13  15
ATOM     15  C   UNL     1      -1.066  -3.173   0.142  1.00  0.00     0.054 A 
ATOM     16  C   UNL     1      -1.557  -4.135  -0.762  1.00  0.00     0.027 A 
ATOM     17  C   UNL     1       0.272  -3.220   0.560  1.00  0.00     0.063 A 
ATOM     18  C   UNL     1      -0.697  -5.002  -1.423  1.00  0.00     0.002 A 
ATOM     19  C   UNL     1       1.130  -4.099  -0.138  1.00  0.00     0.016 A 
ATOM     20  C   UNL     1       0.659  -4.950  -1.144  1.00  0.00     0.001 A 
BRANCH  17  21
ATOM     21  C   UNL     1       0.935  -2.391   1.623  1.00  0.00     0.259 C 
ATOM     22  O   UNL     1       2.139  -2.138   1.507  1.00  0.00    -0.269 OA
ATOM     23  N   UNL     1       0.298  -1.822   2.691  1.00  0.00    -0.298 N 
ATOM     24  H   UNL     1       0.736  -1.030   3.081  1.00  0.00     0.172 HD
BRANCH  23  25
ATOM     25  C   UNL     1      -0.861  -2.209   3.284  1.00  0.00     0.189 A 
ATOM     26  N   UNL     1      -1.545  -3.313   3.134  1.00  0.00    -0.229 NA
ATOM     27  S   UNL     1      -1.505  -1.039   4.350  1.00  0.00    -0.105 S 
ATOM     28  C   UNL     1      -2.725  -3.201   3.845  1.00  0.00     0.125 A 
ATOM     29  C   UNL     1      -2.910  -2.009   4.515  1.00  0.00     0.088 A 
ENDBRANCH  23  25
ENDBRANCH  17  21
ENDBRANCH  13  15
ENDBRANCH  10  11
ENDBRANCH   3   6
ENDBRANCH   1   2
BRANCH   1  30
ATOM     30  C   UNL     1      -0.502   4.134  -0.562  1.00  0.00     0.042 C 
BRANCH  30  31
ATOM     31  C   UNL     1      -0.865   5.244  -1.533  1.00  0.00     0.118 C 
BRANCH  31  32
ATOM     32  N   UNL     1      -1.748   6.225  -0.925  1.00  0.00    -0.352 N 
ATOM     33  C   UNL     1      -1.508   7.539  -0.619  1.00  0.00     0.251 C 
ATOM     34  H   UNL     1      -2.649   5.899  -0.702  1.00  0.00     0.163 HD
ATOM     35  O   UNL     1      -2.274   8.146   0.122  1.00  0.00    -0.269 OA
BRANCH  33  36
ATOM     36  C   UNL     1      -0.318   8.220  -1.172  1.00  0.00     0.039 A 
ATOM     37  C   UNL     1       0.395   9.103  -0.358  1.00  0.00     0.014 A 
ATOM     38  C   UNL     1       0.083   8.006  -2.494  1.00  0.00     0.014 A 
ATOM     39  C   UNL     1       1.536   9.733  -0.856  1.00  0.00     0.010 A 
ATOM     40  C   UNL     1       1.274   8.553  -2.954  1.00  0.00     0.010 A 
ATOM     41  C   UNL     1       2.001   9.440  -2.148  1.00  0.00    -0.014 A 
BRANCH  41  42
ATOM     42  C   UNL     1       3.221  10.081  -2.697  1.00  0.00     0.031 A 
ATOM     43  C   UNL     1       3.116  10.959  -3.914  1.00  0.00     0.074 A 
ATOM     44  C   UNL     1       4.421   9.828  -2.140  1.00  0.00     0.049 A 
ATOM     45  N   UNL     1       4.067  11.532  -4.608  1.00  0.00    -0.248 NA
ATOM     46  C   UNL     1       1.763  11.204  -4.440  1.00  0.00     0.031 C 
ATOM     47  C   UNL     1       4.653   8.966  -0.979  1.00  0.00     0.029 A 
ATOM     48  N   UNL     1       5.676  10.265  -2.483  1.00  0.00    -0.354 N 
ATOM     49  C   UNL     1       3.428  12.188  -5.652  1.00  0.00     0.074 A 
ATOM     50  C   UNL     1       2.018  11.893  -5.542  1.00  0.00     0.031 C 
ATOM     51  C   UNL     1       5.964   8.957  -0.692  1.00  0.00     0.029 A 
ATOM     52  C   UNL     1       6.672   9.773  -1.674  1.00  0.00     0.049 A 
ATOM     53  H   UNL     1       5.847  10.875  -3.237  1.00  0.00     0.167 HD
ATOM     54  C   UNL     1       3.966  12.991  -6.600  1.00  0.00     0.037 A 
ATOM     55  C   UNL     1       8.005   9.952  -1.730  1.00  0.00     0.037 A 
ATOM     56  C   UNL     1       5.368  13.303  -6.689  1.00  0.00     0.049 A 
ATOM     57  C   UNL     1       8.579  10.827  -2.814  1.00  0.00     0.074 A 
ATOM     58  C   UNL     1       6.011  14.133  -7.589  1.00  0.00     0.029 A 
ATOM     59  N   UNL     1       6.342  12.797  -5.842  1.00  0.00    -0.354 N 
ATOM     60  N   UNL     1       7.959  11.486  -3.763  1.00  0.00    -0.248 NA
ATOM     61  C   UNL     1      10.039  10.987  -2.831  1.00  0.00     0.031 C 
ATOM     62  C   UNL     1       7.381  14.096  -7.315  1.00  0.00     0.029 A 
ATOM     63  C   UNL     1       7.585  13.287  -6.208  1.00  0.00     0.049 A 
ATOM     64  H   UNL     1       6.176  12.182  -5.092  1.00  0.00     0.167 HD
ATOM     65  C   UNL     1       8.946  12.169  -4.461  1.00  0.00     0.074 A 
ATOM     66  C   UNL     1      10.204  11.854  -3.820  1.00  0.00     0.031 C 
ATOM     67  C   UNL     1       8.822  12.984  -5.537  1.00  0.00     0.037 A 
BRANCH  54  68
ATOM     68  C   UNL     1       3.036  13.602  -7.608  1.00  0.00     0.064 A 
ATOM     69  C   UNL     1       2.114  14.597  -7.246  1.00  0.00     0.173 A 
ATOM     70  C   UNL     1       3.100  13.229  -8.959  1.00  0.00     0.173 A 
ATOM     71  F   UNL     1       2.004  14.982  -5.965  1.00  0.00    -0.203 F 
ATOM     72  C   UNL     1       1.276  15.177  -8.194  1.00  0.00     0.198 A 
ATOM     73  C   UNL     1       2.283  13.835  -9.909  1.00  0.00     0.198 A 
ATOM     74  F   UNL     1       3.966  12.287  -9.360  1.00  0.00    -0.203 F 
ATOM     75  F   UNL     1       0.373  16.093  -7.816  1.00  0.00    -0.200 F 
ATOM     76  C   UNL     1       1.367  14.803  -9.526  1.00  0.00     0.200 A 
ATOM     77  F   UNL     1       2.383  13.483 -11.199  1.00  0.00    -0.200 F 
ATOM     78  F   UNL     1       0.570  15.373 -10.440  1.00  0.00    -0.200 F 
ENDBRANCH  54  68
BRANCH  55  79
ATOM     79  C   UNL     1       8.895   9.307  -0.728  1.00  0.00     0.064 A 
ATOM     80  C   UNL     1       9.616  10.077   0.196  1.00  0.00     0.173 A 
ATOM     81  C   UNL     1       9.072   7.916  -0.692  1.00  0.00     0.173 A 
ATOM     82  F   UNL     1       9.496  11.413   0.191  1.00  0.00    -0.203 F 
ATOM     83  C   UNL     1      10.507   9.486   1.089  1.00  0.00     0.198 A 
ATOM     84  C   UNL     1       9.937   7.322   0.225  1.00  0.00     0.198 A 
ATOM     85  F   UNL     1       8.401   7.130  -1.548  1.00  0.00    -0.203 F 
ATOM     86  F   UNL     1      11.231  10.253   1.915  1.00  0.00    -0.200 F 
ATOM     87  C   UNL     1      10.664   8.109   1.105  1.00  0.00     0.200 A 
ATOM     88  F   UNL     1      10.074   5.990   0.248  1.00  0.00    -0.200 F 
ATOM     89  F   UNL     1      11.525   7.540   1.961  1.00  0.00    -0.200 F 
ENDBRANCH  55  79
BRANCH  67  90
ATOM     90  C   UNL     1      10.069  13.643  -6.052  1.00  0.00     0.064 A 
ATOM     91  C   UNL     1      11.064  12.920  -6.725  1.00  0.00     0.173 A 
ATOM     92  C   UNL     1      10.242  15.029  -5.912  1.00  0.00     0.173 A 
ATOM     93  F   UNL     1      10.952  11.591  -6.872  1.00  0.00    -0.203 F 
ATOM     94  C   UNL     1      12.200  13.557  -7.218  1.00  0.00     0.198 A 
ATOM     95  C   UNL     1      11.363  15.667  -6.435  1.00  0.00     0.198 A 
ATOM     96  F   UNL     1       9.315  15.767  -5.284  1.00  0.00    -0.203 F 
ATOM     97  F   UNL     1      13.162  12.840  -7.815  1.00  0.00    -0.200 F 
ATOM     98  C   UNL     1      12.344  14.930  -7.080  1.00  0.00     0.200 A 
ATOM     99  F   UNL     1      11.491  16.996  -6.317  1.00  0.00    -0.200 F 
ATOM    100  F   UNL     1      13.432  15.543  -7.566  1.00  0.00    -0.200 F 
ENDBRANCH  67  90
ENDBRANCH  41  42
ENDBRANCH  33  36
ENDBRANCH  31  32
ENDBRANCH  30  31
ENDBRANCH   1  30
TORSDOF 14
