REMARK SMILES C[NH+]1CCC(NC(=O)N[C@H]2C=C[C@H](C(=O)NCCCNC(=O)c3ccc(-c4c5nc(c(-c6c(F)c(F)c(F)c(F)c6F)c6ccc([nH]6)c(-c6c(F)c(F)c(F)c(F)c6F)c6nc(c(-c7c(F)c(F)c(F)c(F)c7F)c7ccc4[nH]7)C=C6)C=C5)cc3)C2)CC1
REMARK SMILES IDX 18 1 17 2 16 3 14 4 15 5 13 7 10 8 11 9 86 10 12 11 9 12
REMARK SMILES IDX 6 13 7 14 8 16 5 18 1 19 2 20 3 21 88 22 4 24 87 25 19 26
REMARK SMILES IDX 20 27 21 28 22 30 23 31 24 32 85 33 25 34 84 35 26 36 27 37
REMARK SMILES IDX 28 38 78 39 29 40 83 41 77 42 79 43 30 44 82 45 76 46 75 47
REMARK SMILES IDX 31 49 63 50 43 51 62 52 44 53 47 54 61 55 80 56 45 57 46 58
REMARK SMILES IDX 60 60 81 61 48 62 32 63 33 64 41 65 34 66 35 67 39 68 42 69
REMARK SMILES IDX 36 70 37 71 40 72 38 73 64 74 65 75 73 76 66 77 67 78 71 79
REMARK SMILES IDX 74 80 68 81 69 82 72 83 70 84 49 85 50 86 58 87 51 88 52 89
REMARK SMILES IDX 56 90 59 91 53 92 54 93 57 94 55 95
REMARK H PARENT 16 6 6 15 9 17 2 23 20 29 79 48 47 59
REMARK Flexibility Score: inf
ROOT
ATOM      1  C   UNL     1      -2.659   2.259  -1.012  1.00  0.00     0.042 C 
ENDROOT
BRANCH   1   2
ATOM      2  C   UNL     1      -2.522   1.110  -2.013  1.00  0.00     0.117 C 
BRANCH   2   3
ATOM      3  N   UNL     1      -1.893   1.514  -3.261  1.00  0.00    -0.356 N 
ATOM      4  C   UNL     1      -0.596   1.323  -3.675  1.00  0.00     0.227 C 
ATOM      5  O   UNL     1      -0.294   1.622  -4.829  1.00  0.00    -0.274 OA
ATOM      6  H   UNL     1      -2.476   1.989  -3.897  1.00  0.00     0.163 HD
BRANCH   4   7
ATOM      7  C   UNL     1       0.403   0.734  -2.682  1.00  0.00     0.103 C 
ATOM      8  C   UNL     1       2.774   0.153  -2.974  1.00  0.00     0.107 C 
ATOM      9  C   UNL     1       1.913  -1.058  -2.987  1.00  0.00    -0.006 C 
ATOM     10  C   UNL     1       1.821   1.334  -2.773  1.00  0.00     0.047 C 
ATOM     11  C   UNL     1       0.615  -0.741  -2.893  1.00  0.00    -0.016 C 
BRANCH   8  12
ATOM     12  N   UNL     1       3.919   0.040  -2.083  1.00  0.00    -0.332 N 
ATOM     13  N   UNL     1       3.421  -0.068   0.244  1.00  0.00    -0.335 N 
ATOM     14  C   UNL     1       4.253  -0.023  -0.796  1.00  0.00     0.315 C 
ATOM     15  H   UNL     1       3.887  -0.024   1.110  1.00  0.00     0.165 HD
ATOM     16  O   UNL     1       5.462  -0.036  -0.540  1.00  0.00    -0.249 OA
ATOM     17  H   UNL     1       4.739  -0.007  -2.626  1.00  0.00     0.165 HD
BRANCH  13  18
ATOM     18  C   UNL     1       1.988  -0.168   0.381  1.00  0.00     0.095 C 
ATOM     19  C   UNL     1      -2.039  -0.613   1.641  1.00  0.00     0.332 C 
ATOM     20  N   UNL     1      -0.576  -0.551   1.708  1.00  0.00    -0.337 N 
ATOM     21  C   UNL     1      -0.095   0.793   1.371  1.00  0.00     0.264 C 
ATOM     22  C   UNL     1       0.009  -1.604   0.865  1.00  0.00     0.264 C 
ATOM     23  H   UNL     1      -0.270  -0.729   2.665  1.00  0.00     0.347 HD
ATOM     24  C   UNL     1       1.430   0.889   1.329  1.00  0.00     0.086 C 
ATOM     25  C   UNL     1       1.538  -1.549   0.843  1.00  0.00     0.086 C 
ENDBRANCH  13  18
ENDBRANCH   8  12
ENDBRANCH   4   7
ENDBRANCH   2   3
ENDBRANCH   1   2
BRANCH   1  26
ATOM     26  C   UNL     1      -4.028   2.931  -1.028  1.00  0.00     0.118 C 
BRANCH  26  27
ATOM     27  N   UNL     1      -5.093   2.050  -0.561  1.00  0.00    -0.352 N 
ATOM     28  C   UNL     1      -6.225   2.317   0.169  1.00  0.00     0.251 C 
ATOM     29  H   UNL     1      -4.981   1.104  -0.812  1.00  0.00     0.163 HD
ATOM     30  O   UNL     1      -6.935   1.378   0.524  1.00  0.00    -0.269 OA
BRANCH  28  31
ATOM     31  C   UNL     1      -6.584   3.698   0.571  1.00  0.00     0.039 A 
ATOM     32  C   UNL     1      -7.210   3.890   1.809  1.00  0.00     0.014 A 
ATOM     33  C   UNL     1      -6.339   4.799  -0.251  1.00  0.00     0.014 A 
ATOM     34  C   UNL     1      -7.523   5.180   2.248  1.00  0.00     0.010 A 
ATOM     35  C   UNL     1      -6.573   6.089   0.221  1.00  0.00     0.010 A 
ATOM     36  C   UNL     1      -7.168   6.294   1.473  1.00  0.00    -0.014 A 
BRANCH  36  37
ATOM     37  C   UNL     1      -7.407   7.682   1.946  1.00  0.00     0.031 A 
ATOM     38  C   UNL     1      -8.319   8.596   1.175  1.00  0.00     0.074 A 
ATOM     39  C   UNL     1      -6.735   8.147   3.016  1.00  0.00     0.049 A 
ATOM     40  N   UNL     1      -8.564   9.870   1.355  1.00  0.00    -0.248 NA
ATOM     41  C   UNL     1      -9.021   8.007   0.025  1.00  0.00     0.031 C 
ATOM     42  C   UNL     1      -5.787   7.375   3.820  1.00  0.00     0.029 A 
ATOM     43  N   UNL     1      -6.736   9.387   3.604  1.00  0.00    -0.354 N 
ATOM     44  C   UNL     1      -9.423  10.238   0.328  1.00  0.00     0.074 A 
ATOM     45  C   UNL     1      -9.615   9.067  -0.501  1.00  0.00     0.031 C 
ATOM     46  C   UNL     1      -5.317   8.150   4.811  1.00  0.00     0.029 A 
ATOM     47  C   UNL     1      -5.899   9.483   4.688  1.00  0.00     0.049 A 
ATOM     48  H   UNL     1      -7.284  10.138   3.279  1.00  0.00     0.167 HD
ATOM     49  C   UNL     1     -10.017  11.436   0.109  1.00  0.00     0.037 A 
ATOM     50  C   UNL     1      -5.627  10.530   5.490  1.00  0.00     0.037 A 
ATOM     51  C   UNL     1      -9.851  12.587   0.957  1.00  0.00     0.049 A 
ATOM     52  C   UNL     1      -6.305  11.847   5.233  1.00  0.00     0.074 A 
ATOM     53  C   UNL     1     -10.459  13.826   0.861  1.00  0.00     0.029 A 
ATOM     54  N   UNL     1      -9.015  12.637   2.063  1.00  0.00    -0.354 N 
ATOM     55  N   UNL     1      -7.161  12.168   4.294  1.00  0.00    -0.248 NA
ATOM     56  C   UNL     1      -5.981  12.947   6.152  1.00  0.00     0.031 C 
ATOM     57  C   UNL     1      -9.961  14.639   1.886  1.00  0.00     0.029 A 
ATOM     58  C   UNL     1      -9.078  13.891   2.648  1.00  0.00     0.049 A 
ATOM     59  H   UNL     1      -8.459  11.890   2.385  1.00  0.00     0.167 HD
ATOM     60  C   UNL     1      -7.500  13.494   4.522  1.00  0.00     0.074 A 
ATOM     61  C   UNL     1      -6.765  13.916   5.697  1.00  0.00     0.031 C 
ATOM     62  C   UNL     1      -8.344  14.291   3.822  1.00  0.00     0.037 A 
BRANCH  49  63
ATOM     63  C   UNL     1     -10.902  11.556  -1.099  1.00  0.00     0.064 A 
ATOM     64  C   UNL     1     -12.131  10.881  -1.182  1.00  0.00     0.173 A 
ATOM     65  C   UNL     1     -10.524  12.360  -2.184  1.00  0.00     0.173 A 
ATOM     66  F   UNL     1     -12.535  10.089  -0.177  1.00  0.00    -0.203 F 
ATOM     67  C   UNL     1     -12.925  10.973  -2.322  1.00  0.00     0.198 A 
ATOM     68  C   UNL     1     -11.336  12.476  -3.310  1.00  0.00     0.198 A 
ATOM     69  F   UNL     1      -9.363  13.033  -2.156  1.00  0.00    -0.203 F 
ATOM     70  F   UNL     1     -14.062  10.268  -2.403  1.00  0.00    -0.200 F 
ATOM     71  C   UNL     1     -12.530  11.774  -3.382  1.00  0.00     0.200 A 
ATOM     72  F   UNL     1     -10.959  13.260  -4.329  1.00  0.00    -0.200 F 
ATOM     73  F   UNL     1     -13.294  11.859  -4.480  1.00  0.00    -0.200 F 
ENDBRANCH  49  63
BRANCH  50  74
ATOM     74  C   UNL     1      -4.699  10.359   6.637  1.00  0.00     0.064 A 
ATOM     75  C   UNL     1      -5.185  10.347   7.951  1.00  0.00     0.173 A 
ATOM     76  C   UNL     1      -3.320  10.186   6.448  1.00  0.00     0.173 A 
ATOM     77  F   UNL     1      -6.494  10.528   8.181  1.00  0.00    -0.203 F 
ATOM     78  C   UNL     1      -4.326  10.182   9.035  1.00  0.00     0.198 A 
ATOM     79  C   UNL     1      -2.465   9.996   7.532  1.00  0.00     0.198 A 
ATOM     80  F   UNL     1      -2.807  10.184   5.209  1.00  0.00    -0.203 F 
ATOM     81  F   UNL     1      -4.813  10.210  10.283  1.00  0.00    -0.200 F 
ATOM     82  C   UNL     1      -2.968  10.000   8.825  1.00  0.00     0.200 A 
ATOM     83  F   UNL     1      -1.155   9.807   7.324  1.00  0.00    -0.200 F 
ATOM     84  F   UNL     1      -2.143   9.833   9.867  1.00  0.00    -0.200 F 
ENDBRANCH  50  74
BRANCH  62  85
ATOM     85  C   UNL     1      -8.547  15.689   4.329  1.00  0.00     0.064 A 
ATOM     86  C   UNL     1      -7.556  16.671   4.194  1.00  0.00     0.173 A 
ATOM     87  C   UNL     1      -9.765  16.058   4.920  1.00  0.00     0.173 A 
ATOM     88  F   UNL     1      -6.369  16.362   3.651  1.00  0.00    -0.203 F 
ATOM     89  C   UNL     1      -7.768  17.968   4.654  1.00  0.00     0.198 A 
ATOM     90  C   UNL     1      -9.984  17.363   5.353  1.00  0.00     0.198 A 
ATOM     91  F   UNL     1     -10.746  15.156   5.067  1.00  0.00    -0.203 F 
ATOM     92  F   UNL     1      -6.791  18.880   4.555  1.00  0.00    -0.200 F 
ATOM     93  C   UNL     1      -8.983  18.315   5.225  1.00  0.00     0.200 A 
ATOM     94  F   UNL     1     -11.163  17.699   5.894  1.00  0.00    -0.200 F 
ATOM     95  F   UNL     1      -9.188  19.566   5.660  1.00  0.00    -0.200 F 
ENDBRANCH  62  85
ENDBRANCH  36  37
ENDBRANCH  28  31
ENDBRANCH  26  27
ENDBRANCH   1  26
TORSDOF 12
