REMARK SMILES C[C@H](Cc1ccc2c(c1)OCCCO2)C(=O)NCCCNC(=O)c1ccc(-c2c3nc(c(-c4c(F)c(F)c(F)c(F)c4F)c4ccc([nH]4)c(-c4c(F)c(F)c(F)c(F)c4F)c4nc(c(-c5c(F)c(F)c(F)c(F)c5F)c5ccc2[nH]5)C=C4)C=C3)cc1
REMARK SMILES IDX 15 1 16 2 17 3 2 5 1 6 3 7 4 8 5 9 9 10 6 11 8 12 7 13 10 14
REMARK SMILES IDX 11 15 14 17 13 18 12 19 18 21 19 22 20 23 21 24 22 25 23 27
REMARK SMILES IDX 24 28 25 29 86 30 26 31 85 32 27 33 28 34 29 35 79 36 30 37
REMARK SMILES IDX 84 38 78 39 80 40 31 41 83 42 77 43 76 44 32 46 64 47 44 48
REMARK SMILES IDX 63 49 45 50 48 51 62 52 81 53 46 54 47 55 61 57 82 58 49 59
REMARK SMILES IDX 33 60 34 61 42 62 35 63 36 64 40 65 43 66 37 67 38 68 41 69
REMARK SMILES IDX 39 70 65 71 66 72 74 73 67 74 68 75 72 76 75 77 69 78 70 79
REMARK SMILES IDX 73 80 71 81 50 82 51 83 59 84 52 85 53 86 57 87 60 88 54 89
REMARK SMILES IDX 55 90 58 91 56 92
REMARK H PARENT 17 4 21 26 80 45 48 56
REMARK Flexibility Score: 80.00
ROOT
ATOM      1  C   UNL     1      -0.719  -0.478  -1.620  1.00  0.00     0.223 C 
ATOM      2  O   UNL     1      -0.809   0.340  -2.546  1.00  0.00    -0.275 OA
ATOM      3  N   UNL     1      -1.896  -0.957  -1.157  1.00  0.00    -0.356 N 
ATOM      4  H   UNL     1      -2.655  -0.739  -1.745  1.00  0.00     0.163 HD
ENDROOT
BRANCH   1   5
ATOM      5  C   UNL     1       0.671  -0.907  -1.145  1.00  0.00     0.079 C 
ATOM      6  C   UNL     1       0.975  -2.364  -1.464  1.00  0.00     0.018 C 
BRANCH   5   7
ATOM      7  C   UNL     1       1.187  -0.329   0.194  1.00  0.00     0.048 C 
BRANCH   7   8
ATOM      8  C   UNL     1       0.879  -0.927   1.548  1.00  0.00    -0.043 A 
ATOM      9  C   UNL     1       0.843  -0.076   2.666  1.00  0.00     0.008 A 
ATOM     10  C   UNL     1       0.589  -2.276   1.758  1.00  0.00     0.054 A 
ATOM     11  C   UNL     1       0.391  -0.540   3.907  1.00  0.00     0.051 A 
ATOM     12  C   UNL     1       0.068  -2.733   2.978  1.00  0.00     0.161 A 
ATOM     13  C   UNL     1      -0.035  -1.862   4.061  1.00  0.00     0.161 A 
BRANCH  12  14
ATOM     14  O   UNL     1      -0.538  -3.957   2.881  1.00  0.00    -0.490 OA
BRANCH  14  15
ATOM     15  C   UNL     1      -0.227  -4.878   3.914  1.00  0.00     0.233 CG0
ATOM     16  G   UNL     1      -0.939  -4.554   5.212  1.00  0.00     0.000 G0
ENDBRANCH  14  15
ENDBRANCH  12  14
BRANCH  13  17
ATOM     17  O   UNL     1      -0.687  -2.123   5.233  1.00  0.00    -0.490 OA
BRANCH  17  18
ATOM     18  C   UNL     1      -0.306  -3.340   5.864  1.00  0.00     0.233 C 
BRANCH  18  19
ATOM     19  C   UNL     1      -0.939  -4.554   5.212  1.00  0.00     0.083 CG0
ATOM     20  G   UNL     1      -0.227  -4.878   3.914  1.00  0.00     0.000 G0
ENDBRANCH  18  19
ENDBRANCH  17  18
ENDBRANCH  13  17
ENDBRANCH   7   8
ENDBRANCH   5   7
ENDBRANCH   1   5
BRANCH   3  21
ATOM     21  C   UNL     1      -2.291  -1.722   0.015  1.00  0.00     0.117 C 
BRANCH  21  22
ATOM     22  C   UNL     1      -2.532  -0.785   1.189  1.00  0.00     0.042 C 
BRANCH  22  23
ATOM     23  C   UNL     1      -3.747  -1.051   2.061  1.00  0.00     0.118 C 
BRANCH  23  24
ATOM     24  N   UNL     1      -3.888  -2.388   2.606  1.00  0.00    -0.352 N 
ATOM     25  C   UNL     1      -4.314  -2.821   3.844  1.00  0.00     0.251 C 
ATOM     26  H   UNL     1      -3.636  -3.110   1.986  1.00  0.00     0.163 HD
ATOM     27  O   UNL     1      -4.459  -4.032   4.021  1.00  0.00    -0.269 OA
BRANCH  25  28
ATOM     28  C   UNL     1      -4.548  -1.897   4.991  1.00  0.00     0.039 A 
ATOM     29  C   UNL     1      -5.000  -0.589   4.844  1.00  0.00     0.014 A 
ATOM     30  C   UNL     1      -4.306  -2.376   6.288  1.00  0.00     0.014 A 
ATOM     31  C   UNL     1      -4.999   0.284   5.932  1.00  0.00     0.010 A 
ATOM     32  C   UNL     1      -4.423  -1.532   7.402  1.00  0.00     0.010 A 
ATOM     33  C   UNL     1      -4.718  -0.174   7.228  1.00  0.00    -0.014 A 
BRANCH  33  34
ATOM     34  C   UNL     1      -4.771   0.784   8.367  1.00  0.00     0.031 A 
ATOM     35  C   UNL     1      -3.546   1.091   9.189  1.00  0.00     0.074 A 
ATOM     36  C   UNL     1      -5.923   1.440   8.619  1.00  0.00     0.049 A 
ATOM     37  N   UNL     1      -3.408   1.944  10.175  1.00  0.00    -0.248 NA
ATOM     38  C   UNL     1      -2.320   0.343   8.874  1.00  0.00     0.031 C 
ATOM     39  C   UNL     1      -7.181   1.229   7.901  1.00  0.00     0.029 A 
ATOM     40  N   UNL     1      -6.216   2.441   9.512  1.00  0.00    -0.354 N 
ATOM     41  C   UNL     1      -2.093   1.824  10.605  1.00  0.00     0.074 A 
ATOM     42  C   UNL     1      -1.479   0.792   9.797  1.00  0.00     0.031 C 
ATOM     43  C   UNL     1      -8.085   2.124   8.324  1.00  0.00     0.029 A 
ATOM     44  C   UNL     1      -7.495   2.928   9.389  1.00  0.00     0.049 A 
ATOM     45  H   UNL     1      -5.572   2.777  10.177  1.00  0.00     0.167 HD
ATOM     46  C   UNL     1      -1.452   2.523  11.573  1.00  0.00     0.037 A 
ATOM     47  C   UNL     1      -8.130   3.910  10.058  1.00  0.00     0.037 A 
ATOM     48  C   UNL     1      -2.050   3.574  12.355  1.00  0.00     0.049 A 
ATOM     49  C   UNL     1      -7.401   4.651  11.141  1.00  0.00     0.074 A 
ATOM     50  C   UNL     1      -1.466   4.358  13.336  1.00  0.00     0.029 A 
ATOM     51  N   UNL     1      -3.367   3.994  12.242  1.00  0.00    -0.354 N 
ATOM     52  N   UNL     1      -6.155   4.531  11.527  1.00  0.00    -0.248 NA
ATOM     53  C   UNL     1      -8.170   5.653  11.892  1.00  0.00     0.031 C 
ATOM     54  C   UNL     1      -2.439   5.224  13.844  1.00  0.00     0.029 A 
ATOM     55  C   UNL     1      -3.619   5.011  13.150  1.00  0.00     0.049 A 
ATOM     56  H   UNL     1      -4.026   3.624  11.610  1.00  0.00     0.167 HD
ATOM     57  C   UNL     1      -5.987   5.442  12.559  1.00  0.00     0.074 A 
ATOM     58  C   UNL     1      -7.253   6.127  12.725  1.00  0.00     0.031 C 
ATOM     59  C   UNL     1      -4.884   5.681  13.308  1.00  0.00     0.037 A 
BRANCH  46  60
ATOM     60  C   UNL     1      -0.015   2.184  11.851  1.00  0.00     0.064 A 
ATOM     61  C   UNL     1       1.010   2.555  10.968  1.00  0.00     0.173 A 
ATOM     62  C   UNL     1       0.348   1.554  13.051  1.00  0.00     0.173 A 
ATOM     63  F   UNL     1       0.714   3.153   9.804  1.00  0.00    -0.203 F 
ATOM     64  C   UNL     1       2.344   2.295  11.270  1.00  0.00     0.198 A 
ATOM     65  C   UNL     1       1.685   1.319  13.361  1.00  0.00     0.198 A 
ATOM     66  F   UNL     1      -0.593   1.188  13.935  1.00  0.00    -0.203 F 
ATOM     67  F   UNL     1       3.305   2.632  10.398  1.00  0.00    -0.200 F 
ATOM     68  C   UNL     1       2.682   1.686  12.470  1.00  0.00     0.200 A 
ATOM     69  F   UNL     1       2.010   0.743  14.527  1.00  0.00    -0.200 F 
ATOM     70  F   UNL     1       3.967   1.451  12.765  1.00  0.00    -0.200 F 
ENDBRANCH  46  60
BRANCH  47  71
ATOM     71  C   UNL     1      -9.532   4.250   9.704  1.00  0.00     0.064 A 
ATOM     72  C   UNL     1      -9.839   5.461   9.069  1.00  0.00     0.173 A 
ATOM     73  C   UNL     1     -10.585   3.360   9.960  1.00  0.00     0.173 A 
ATOM     74  F   UNL     1      -8.869   6.353   8.823  1.00  0.00    -0.203 F 
ATOM     75  C   UNL     1     -11.148   5.769   8.704  1.00  0.00     0.198 A 
ATOM     76  C   UNL     1     -11.889   3.656   9.569  1.00  0.00     0.198 A 
ATOM     77  F   UNL     1     -10.342   2.187  10.563  1.00  0.00    -0.203 F 
ATOM     78  F   UNL     1     -11.420   6.945   8.122  1.00  0.00    -0.200 F 
ATOM     79  C   UNL     1     -12.170   4.862   8.945  1.00  0.00     0.200 A 
ATOM     80  F   UNL     1     -12.869   2.770   9.788  1.00  0.00    -0.200 F 
ATOM     81  F   UNL     1     -13.425   5.151   8.577  1.00  0.00    -0.200 F 
ENDBRANCH  47  71
BRANCH  59  82
ATOM     82  C   UNL     1      -4.989   6.726  14.378  1.00  0.00     0.064 A 
ATOM     83  C   UNL     1      -5.684   6.479  15.571  1.00  0.00     0.173 A 
ATOM     84  C   UNL     1      -4.335   7.959  14.239  1.00  0.00     0.173 A 
ATOM     85  F   UNL     1      -6.337   5.320  15.744  1.00  0.00    -0.203 F 
ATOM     86  C   UNL     1      -5.729   7.435  16.582  1.00  0.00     0.198 A 
ATOM     87  C   UNL     1      -4.362   8.902  15.262  1.00  0.00     0.198 A 
ATOM     88  F   UNL     1      -3.653   8.240  13.118  1.00  0.00    -0.203 F 
ATOM     89  F   UNL     1      -6.425   7.191  17.701  1.00  0.00    -0.200 F 
ATOM     90  C   UNL     1      -5.062   8.641  16.430  1.00  0.00     0.200 A 
ATOM     91  F   UNL     1      -3.707  10.063  15.119  1.00  0.00    -0.200 F 
ATOM     92  F   UNL     1      -5.095   9.554  17.411  1.00  0.00    -0.200 F 
ENDBRANCH  59  82
ENDBRANCH  33  34
ENDBRANCH  25  28
ENDBRANCH  23  24
ENDBRANCH  22  23
ENDBRANCH  21  22
ENDBRANCH   3  21
TORSDOF 12
