REMARK SMILES CCCC[C@H](C(=O)NCCCNC(=O)c1ccc(-c2c3nc(c(-c4c(F)c(F)c(F)c(F)c4F)c4ccc([nH]4)c(-c4c(F)c(F)c(F)c(F)c4F)c4nc(c(-c5c(F)c(F)c(F)c(F)c5F)c5ccc2[nH]5)C=C4)C=C3)cc1)N1C(=O)/C(=C/c2ccc(C)cc2)SC1=S
REMARK SMILES IDX 9 1 8 2 6 3 7 4 5 6 4 7 3 8 2 9 1 10 78 11 79 12 91 13 80 14
REMARK SMILES IDX 81 15 90 16 92 17 82 18 83 19 84 20 89 21 85 22 88 23 86 24
REMARK SMILES IDX 87 25 10 26 11 27 12 28 13 29 14 31 15 32 16 33 77 34 17 35
REMARK SMILES IDX 76 36 18 37 19 38 20 39 70 40 21 41 75 42 69 43 71 44 22 45
REMARK SMILES IDX 74 46 68 47 67 48 23 50 55 51 35 52 54 53 36 54 39 55 53 56
REMARK SMILES IDX 72 57 37 58 38 59 52 61 73 62 40 63 24 64 25 65 33 66 26 67
REMARK SMILES IDX 27 68 31 69 34 70 28 71 29 72 32 73 30 74 56 75 57 76 65 77
REMARK SMILES IDX 58 78 59 79 63 80 66 81 60 82 61 83 64 84 62 85 41 86 42 87
REMARK SMILES IDX 50 88 43 89 44 90 48 91 51 92 45 93 46 94 49 95 47 96
REMARK H PARENT 8 5 12 30 71 49 39 60
REMARK Flexibility Score: inf
ROOT
ATOM      1  C   UNL     1       0.248   1.756   1.659  1.00  0.00     0.117 C 
ENDROOT
BRANCH   1   2
ATOM      2  N   UNL     1       0.770   1.946   0.319  1.00  0.00    -0.354 N 
ATOM      3  C   UNL     1       0.186   2.538  -0.765  1.00  0.00     0.243 C 
ATOM      4  O   UNL     1       0.886   2.662  -1.775  1.00  0.00    -0.273 OA
ATOM      5  H   UNL     1       1.678   1.598   0.169  1.00  0.00     0.163 HD
BRANCH   3   6
ATOM      6  C   UNL     1      -1.291   3.015  -0.720  1.00  0.00     0.181 C 
BRANCH   6   7
ATOM      7  C   UNL     1      -1.617   4.015   0.411  1.00  0.00     0.036 C 
BRANCH   7   8
ATOM      8  C   UNL     1      -0.600   5.069   0.911  1.00  0.00     0.002 C 
BRANCH   8   9
ATOM      9  C   UNL     1       0.586   5.472   0.029  1.00  0.00    -0.003 C 
ATOM     10  C   UNL     1       0.734   6.981  -0.110  1.00  0.00     0.004 C 
ENDBRANCH   8   9
ENDBRANCH   7   8
ENDBRANCH   6   7
BRANCH   6  11
ATOM     11  N   UNL     1      -1.715   3.361  -2.115  1.00  0.00    -0.280 N 
ATOM     12  C   UNL     1      -1.871   2.280  -2.992  1.00  0.00     0.266 C 
ATOM     13  C   UNL     1      -1.943   4.595  -2.690  1.00  0.00     0.149 C 
ATOM     14  O   UNL     1      -1.856   1.095  -2.680  1.00  0.00    -0.268 OA
ATOM     15  C   UNL     1      -2.140   2.752  -4.380  1.00  0.00     0.081 C 
ATOM     16  S   UNL     1      -1.981   4.457  -4.436  1.00  0.00    -0.054 SA
ATOM     17  S   UNL     1      -2.300   6.081  -2.031  1.00  0.00    -0.052 S 
ATOM     18  C   UNL     1      -2.529   1.966  -5.397  1.00  0.00     0.029 C 
BRANCH  18  19
ATOM     19  C   UNL     1      -2.909   2.505  -6.714  1.00  0.00    -0.024 A 
ATOM     20  C   UNL     1      -4.258   2.535  -7.083  1.00  0.00     0.008 A 
ATOM     21  C   UNL     1      -1.961   3.108  -7.550  1.00  0.00     0.008 A 
ATOM     22  C   UNL     1      -4.658   3.212  -8.241  1.00  0.00     0.004 A 
ATOM     23  C   UNL     1      -2.363   3.793  -8.700  1.00  0.00     0.004 A 
ATOM     24  C   UNL     1      -3.717   3.873  -9.040  1.00  0.00    -0.051 A 
ATOM     25  C   UNL     1      -4.165   4.660 -10.236  1.00  0.00     0.044 C 
ENDBRANCH  18  19
ENDBRANCH   6  11
ENDBRANCH   3   6
ENDBRANCH   1   2
BRANCH   1  26
ATOM     26  C   UNL     1       0.863   0.577   2.392  1.00  0.00     0.042 C 
BRANCH  26  27
ATOM     27  C   UNL     1       2.361   0.690   2.639  1.00  0.00     0.118 C 
BRANCH  27  28
ATOM     28  N   UNL     1       2.733   1.742   3.578  1.00  0.00    -0.352 N 
ATOM     29  C   UNL     1       3.363   1.663   4.800  1.00  0.00     0.251 C 
ATOM     30  H   UNL     1       2.496   2.654   3.293  1.00  0.00     0.163 HD
ATOM     31  O   UNL     1       3.494   2.671   5.489  1.00  0.00    -0.269 OA
BRANCH  29  32
ATOM     32  C   UNL     1       3.842   0.359   5.309  1.00  0.00     0.039 A 
ATOM     33  C   UNL     1       3.598   0.017   6.642  1.00  0.00     0.014 A 
ATOM     34  C   UNL     1       4.499  -0.541   4.470  1.00  0.00     0.014 A 
ATOM     35  C   UNL     1       3.915  -1.266   7.098  1.00  0.00     0.010 A 
ATOM     36  C   UNL     1       4.706  -1.849   4.889  1.00  0.00     0.010 A 
ATOM     37  C   UNL     1       4.417  -2.229   6.208  1.00  0.00    -0.014 A 
BRANCH  37  38
ATOM     38  C   UNL     1       4.654  -3.636   6.625  1.00  0.00     0.031 A 
ATOM     39  C   UNL     1       6.033  -4.228   6.525  1.00  0.00     0.074 A 
ATOM     40  C   UNL     1       3.617  -4.407   7.009  1.00  0.00     0.049 A 
ATOM     41  N   UNL     1       6.427  -5.459   6.736  1.00  0.00    -0.248 NA
ATOM     42  C   UNL     1       7.108  -3.322   6.091  1.00  0.00     0.031 C 
ATOM     43  C   UNL     1       2.223  -3.971   7.100  1.00  0.00     0.029 A 
ATOM     44  N   UNL     1       3.576  -5.726   7.386  1.00  0.00    -0.354 N 
ATOM     45  C   UNL     1       7.783  -5.476   6.438  1.00  0.00     0.074 A 
ATOM     46  C   UNL     1       8.129  -4.154   5.963  1.00  0.00     0.031 C 
ATOM     47  C   UNL     1       1.471  -4.990   7.545  1.00  0.00     0.029 A 
ATOM     48  C   UNL     1       2.319  -6.163   7.728  1.00  0.00     0.049 A 
ATOM     49  H   UNL     1       4.372  -6.305   7.410  1.00  0.00     0.167 HD
ATOM     50  C   UNL     1       8.670  -6.490   6.579  1.00  0.00     0.037 A 
ATOM     51  C   UNL     1       1.899  -7.374   8.142  1.00  0.00     0.037 A 
ATOM     52  C   UNL     1       8.330  -7.796   7.078  1.00  0.00     0.049 A 
ATOM     53  C   UNL     1       2.899  -8.491   8.276  1.00  0.00     0.074 A 
ATOM     54  C   UNL     1       9.161  -8.877   7.309  1.00  0.00     0.029 A 
ATOM     55  N   UNL     1       7.047  -8.196   7.425  1.00  0.00    -0.354 N 
ATOM     56  N   UNL     1       4.190  -8.479   8.051  1.00  0.00    -0.248 NA
ATOM     57  C   UNL     1       2.380  -9.790   8.724  1.00  0.00     0.031 C 
ATOM     58  C   UNL     1       8.374  -9.945   7.755  1.00  0.00     0.029 A 
ATOM     59  C   UNL     1       7.061  -9.514   7.851  1.00  0.00     0.049 A 
ATOM     60  H   UNL     1       6.245  -7.627   7.375  1.00  0.00     0.167 HD
ATOM     61  C   UNL     1       4.644  -9.753   8.364  1.00  0.00     0.074 A 
ATOM     62  C   UNL     1       3.490 -10.510   8.803  1.00  0.00     0.031 C 
ATOM     63  C   UNL     1       5.904 -10.249   8.297  1.00  0.00     0.037 A 
BRANCH  50  64
ATOM     64  C   UNL     1      10.095  -6.213   6.189  1.00  0.00     0.064 A 
ATOM     65  C   UNL     1      10.895  -5.313   6.912  1.00  0.00     0.173 A 
ATOM     66  C   UNL     1      10.668  -6.847   5.077  1.00  0.00     0.173 A 
ATOM     67  F   UNL     1      10.393  -4.669   7.977  1.00  0.00    -0.203 F 
ATOM     68  C   UNL     1      12.195  -5.021   6.508  1.00  0.00     0.198 A 
ATOM     69  C   UNL     1      11.982  -6.581   4.697  1.00  0.00     0.198 A 
ATOM     70  F   UNL     1       9.954  -7.722   4.353  1.00  0.00    -0.203 F 
ATOM     71  F   UNL     1      12.910  -4.103   7.171  1.00  0.00    -0.200 F 
ATOM     72  C   UNL     1      12.739  -5.659   5.403  1.00  0.00     0.200 A 
ATOM     73  F   UNL     1      12.511  -7.208   3.637  1.00  0.00    -0.200 F 
ATOM     74  F   UNL     1      13.988  -5.374   5.012  1.00  0.00    -0.200 F 
ENDBRANCH  50  64
BRANCH  51  75
ATOM     75  C   UNL     1       0.475  -7.580   8.511  1.00  0.00     0.064 A 
ATOM     76  C   UNL     1       0.108  -7.772   9.851  1.00  0.00     0.173 A 
ATOM     77  C   UNL     1      -0.545  -7.586   7.549  1.00  0.00     0.173 A 
ATOM     78  F   UNL     1       1.050  -7.794  10.806  1.00  0.00    -0.203 F 
ATOM     79  C   UNL     1      -1.222  -7.977  10.212  1.00  0.00     0.198 A 
ATOM     80  C   UNL     1      -1.878  -7.765   7.914  1.00  0.00     0.198 A 
ATOM     81  F   UNL     1      -0.247  -7.402   6.254  1.00  0.00    -0.203 F 
ATOM     82  F   UNL     1      -1.539  -8.197  11.495  1.00  0.00    -0.200 F 
ATOM     83  C   UNL     1      -2.215  -7.967   9.244  1.00  0.00     0.200 A 
ATOM     84  F   UNL     1      -2.836  -7.741   6.978  1.00  0.00    -0.200 F 
ATOM     85  F   UNL     1      -3.494  -8.158   9.593  1.00  0.00    -0.200 F 
ENDBRANCH  51  75
BRANCH  63  86
ATOM     86  C   UNL     1       6.111 -11.665   8.752  1.00  0.00     0.064 A 
ATOM     87  C   UNL     1       5.653 -12.757   8.002  1.00  0.00     0.173 A 
ATOM     88  C   UNL     1       6.811 -11.930   9.940  1.00  0.00     0.173 A 
ATOM     89  F   UNL     1       4.964 -12.556   6.868  1.00  0.00    -0.203 F 
ATOM     90  C   UNL     1       5.867 -14.063   8.436  1.00  0.00     0.198 A 
ATOM     91  C   UNL     1       7.050 -13.237  10.354  1.00  0.00     0.198 A 
ATOM     92  F   UNL     1       7.275 -10.920  10.691  1.00  0.00    -0.203 F 
ATOM     93  F   UNL     1       5.378 -15.091   7.728  1.00  0.00    -0.200 F 
ATOM     94  C   UNL     1       6.571 -14.302   9.607  1.00  0.00     0.200 A 
ATOM     95  F   UNL     1       7.743 -13.465  11.478  1.00  0.00    -0.200 F 
ATOM     96  F   UNL     1       6.783 -15.559  10.018  1.00  0.00    -0.200 F 
ENDBRANCH  63  86
ENDBRANCH  37  38
ENDBRANCH  29  32
ENDBRANCH  27  28
ENDBRANCH  26  27
ENDBRANCH   1  26
TORSDOF 15
