REMARK SMILES Cn1c(C[NH+](C)C)nnc1[C@@H]1CCC[N@@H+](Cc2ccccc2C(=O)NCCCNC(=O)c2ccc(-c3c4nc(c(-c5c(F)c(F)c(F)c(F)c5F)c5ccc([nH]5)c(-c5c(F)c(F)c(F)c(F)c5F)c5nc(c(-c6c(F)c(F)c(F)c(F)c6F)c6ccc3[nH]6)C=C5)C=C4)cc2)C1
REMARK SMILES IDX 23 1 24 2 25 3 22 5 17 6 18 7 19 8 21 9 20 10 16 11 15 12
REMARK SMILES IDX 11 13 12 14 95 15 13 16 14 17 10 19 3 20 8 21 2 22 9 23 1 24
REMARK SMILES IDX 4 25 5 26 6 27 7 28 26 30 27 31 28 32 29 33 30 34 31 36
REMARK SMILES IDX 32 37 33 38 94 39 34 40 93 41 35 42 36 43 37 44 87 45 38 46
REMARK SMILES IDX 92 47 86 48 88 49 39 50 91 51 85 52 84 53 40 55 72 56 52 57
REMARK SMILES IDX 71 58 53 59 56 60 70 61 89 62 54 63 55 64 69 66 90 67 57 68
REMARK SMILES IDX 41 69 42 70 50 71 43 72 44 73 48 74 51 75 45 76 46 77 49 78
REMARK SMILES IDX 47 79 73 80 74 81 82 82 75 83 76 84 80 85 83 86 77 87 78 88
REMARK SMILES IDX 81 89 79 90 58 91 59 92 67 93 60 94 61 95 65 96 68 97 62 98
REMARK SMILES IDX 63 99 66 100 64 101
REMARK H PARENT 25 4 15 18 5 29 29 35 88 54 56 65
REMARK Flexibility Score: inf
ROOT
ATOM      1  C   UNL     1      -4.422   4.761   2.302  1.00  0.00     0.251 C 
ATOM      2  O   UNL     1      -4.131   5.856   2.787  1.00  0.00    -0.269 OA
ATOM      3  N   UNL     1      -4.133   4.574   0.979  1.00  0.00    -0.352 N 
ATOM      4  H   UNL     1      -3.826   5.389   0.520  1.00  0.00     0.163 HD
ENDROOT
BRANCH   1   5
ATOM      5  C   UNL     1      -5.132   3.779   3.161  1.00  0.00     0.048 A 
ATOM      6  C   UNL     1      -4.765   2.449   3.446  1.00  0.00     0.019 A 
ATOM      7  C   UNL     1      -5.589   1.716   4.337  1.00  0.00     0.010 A 
ATOM      8  C   UNL     1      -6.697   2.286   4.964  1.00  0.00     0.001 A 
ATOM      9  C   UNL     1      -6.234   4.350   3.836  1.00  0.00     0.014 A 
ATOM     10  C   UNL     1      -7.010   3.614   4.728  1.00  0.00     0.001 A 
BRANCH   6  11
ATOM     11  C   UNL     1      -3.585   1.702   2.881  1.00  0.00     0.299 C 
BRANCH  11  12
ATOM     12  N   UNL     1      -2.239   2.038   3.321  1.00  0.00    -0.331 N 
ATOM     13  C   UNL     1      -0.160   3.438   3.105  1.00  0.00     0.113 C 
ATOM     14  C   UNL     1       0.296   2.905   4.466  1.00  0.00     0.023 C 
ATOM     15  C   UNL     1      -1.684   3.327   2.922  1.00  0.00     0.274 C 
ATOM     16  C   UNL     1      -0.376   1.592   4.852  1.00  0.00     0.062 C 
ATOM     17  C   UNL     1      -1.899   1.647   4.682  1.00  0.00     0.262 C 
ATOM     18  H   UNL     1      -1.719   1.397   2.722  1.00  0.00     0.348 HD
BRANCH  13  19
ATOM     19  C   UNL     1       0.700   2.944   1.964  1.00  0.00     0.141 A 
ATOM     20  C   UNL     1       1.572   1.884   0.229  1.00  0.00     0.187 A 
ATOM     21  N   UNL     1       2.342   2.914   0.522  1.00  0.00    -0.129 NA
ATOM     22  N   UNL     1       0.545   1.837   1.153  1.00  0.00    -0.313 N 
ATOM     23  N   UNL     1       1.797   3.575   1.586  1.00  0.00    -0.135 NA
ATOM     24  C   UNL     1      -0.477   0.835   1.240  1.00  0.00     0.153 C 
BRANCH  20  25
ATOM     25  C   UNL     1       1.788   0.982  -0.957  1.00  0.00     0.340 C 
BRANCH  25  26
ATOM     26  N   UNL     1       1.101  -0.304  -0.844  1.00  0.00    -0.333 N 
ATOM     27  C   UNL     1       1.971  -1.409  -0.494  1.00  0.00     0.332 C 
ATOM     28  C   UNL     1       0.127  -0.584  -1.876  1.00  0.00     0.332 C 
ATOM     29  H   UNL     1       0.508  -0.189  -0.023  1.00  0.00     0.348 HD
ENDBRANCH  25  26
ENDBRANCH  20  25
ENDBRANCH  13  19
ENDBRANCH  11  12
ENDBRANCH   6  11
ENDBRANCH   1   5
BRANCH   3  30
ATOM     30  C   UNL     1      -4.191   3.408   0.124  1.00  0.00     0.118 C 
BRANCH  30  31
ATOM     31  C   UNL     1      -4.230   3.718  -1.364  1.00  0.00     0.042 C 
BRANCH  31  32
ATOM     32  C   UNL     1      -3.157   4.687  -1.852  1.00  0.00     0.118 C 
BRANCH  32  33
ATOM     33  N   UNL     1      -1.781   4.287  -1.586  1.00  0.00    -0.352 N 
ATOM     34  C   UNL     1      -0.791   3.846  -2.429  1.00  0.00     0.251 C 
ATOM     35  H   UNL     1      -1.516   4.343  -0.639  1.00  0.00     0.163 HD
ATOM     36  O   UNL     1       0.340   3.642  -2.011  1.00  0.00    -0.269 OA
BRANCH  34  37
ATOM     37  C   UNL     1      -1.069   3.555  -3.840  1.00  0.00     0.039 A 
ATOM     38  C   UNL     1      -0.645   2.330  -4.372  1.00  0.00     0.014 A 
ATOM     39  C   UNL     1      -1.701   4.494  -4.647  1.00  0.00     0.014 A 
ATOM     40  C   UNL     1      -0.953   1.996  -5.688  1.00  0.00     0.010 A 
ATOM     41  C   UNL     1      -2.076   4.137  -5.929  1.00  0.00     0.010 A 
ATOM     42  C   UNL     1      -1.704   2.888  -6.457  1.00  0.00    -0.014 A 
BRANCH  42  43
ATOM     43  C   UNL     1      -2.066   2.626  -7.862  1.00  0.00     0.031 A 
ATOM     44  C   UNL     1      -1.510   3.550  -8.899  1.00  0.00     0.074 A 
ATOM     45  C   UNL     1      -3.013   1.719  -8.153  1.00  0.00     0.049 A 
ATOM     46  N   UNL     1      -1.964   3.834 -10.088  1.00  0.00    -0.248 NA
ATOM     47  C   UNL     1      -0.318   4.318  -8.500  1.00  0.00     0.031 C 
ATOM     48  C   UNL     1      -3.615   0.782  -7.204  1.00  0.00     0.029 A 
ATOM     49  N   UNL     1      -3.678   1.482  -9.328  1.00  0.00    -0.354 N 
ATOM     50  C   UNL     1      -1.165   4.872 -10.547  1.00  0.00     0.074 A 
ATOM     51  C   UNL     1      -0.204   5.170  -9.507  1.00  0.00     0.031 C 
ATOM     52  C   UNL     1      -4.581   0.088  -7.828  1.00  0.00     0.029 A 
ATOM     53  C   UNL     1      -4.700   0.574  -9.198  1.00  0.00     0.049 A 
ATOM     54  H   UNL     1      -3.446   1.919 -10.179  1.00  0.00     0.167 HD
ATOM     55  C   UNL     1      -1.246   5.519 -11.732  1.00  0.00     0.037 A 
ATOM     56  C   UNL     1      -5.650   0.218 -10.082  1.00  0.00     0.037 A 
ATOM     57  C   UNL     1      -2.176   5.150 -12.765  1.00  0.00     0.049 A 
ATOM     58  C   UNL     1      -5.660   0.887 -11.430  1.00  0.00     0.074 A 
ATOM     59  C   UNL     1      -2.318   5.676 -14.035  1.00  0.00     0.029 A 
ATOM     60  N   UNL     1      -3.115   4.133 -12.641  1.00  0.00    -0.354 N 
ATOM     61  N   UNL     1      -4.911   1.871 -11.868  1.00  0.00    -0.248 NA
ATOM     62  C   UNL     1      -6.643   0.398 -12.404  1.00  0.00     0.031 C 
ATOM     63  C   UNL     1      -3.353   4.984 -14.676  1.00  0.00     0.029 A 
ATOM     64  C   UNL     1      -3.833   4.007 -13.816  1.00  0.00     0.049 A 
ATOM     65  H   UNL     1      -3.249   3.583 -11.836  1.00  0.00     0.167 HD
ATOM     66  C   UNL     1      -5.315   2.107 -13.173  1.00  0.00     0.074 A 
ATOM     67  C   UNL     1      -6.369   1.153 -13.459  1.00  0.00     0.031 C 
ATOM     68  C   UNL     1      -4.863   3.029 -14.059  1.00  0.00     0.037 A 
BRANCH  55  69
ATOM     69  C   UNL     1      -0.326   6.682 -11.953  1.00  0.00     0.064 A 
ATOM     70  C   UNL     1       1.060   6.516 -12.095  1.00  0.00     0.173 A 
ATOM     71  C   UNL     1      -0.837   7.988 -12.015  1.00  0.00     0.173 A 
ATOM     72  F   UNL     1       1.603   5.291 -12.025  1.00  0.00    -0.203 F 
ATOM     73  C   UNL     1       1.903   7.614 -12.254  1.00  0.00     0.198 A 
ATOM     74  C   UNL     1       0.005   9.081 -12.206  1.00  0.00     0.198 A 
ATOM     75  F   UNL     1      -2.154   8.206 -11.883  1.00  0.00    -0.203 F 
ATOM     76  F   UNL     1       3.229   7.433 -12.326  1.00  0.00    -0.200 F 
ATOM     77  C   UNL     1       1.374   8.894 -12.315  1.00  0.00     0.200 A 
ATOM     78  F   UNL     1      -0.509  10.317 -12.274  1.00  0.00    -0.200 F 
ATOM     79  F   UNL     1       2.186   9.949 -12.469  1.00  0.00    -0.200 F 
ENDBRANCH  55  69
BRANCH  56  80
ATOM     80  C   UNL     1      -6.649  -0.818  -9.719  1.00  0.00     0.064 A 
ATOM     81  C   UNL     1      -6.580  -2.100 -10.280  1.00  0.00     0.173 A 
ATOM     82  C   UNL     1      -7.666  -0.568  -8.786  1.00  0.00     0.173 A 
ATOM     83  F   UNL     1      -5.634  -2.382 -11.187  1.00  0.00    -0.203 F 
ATOM     84  C   UNL     1      -7.497  -3.090  -9.932  1.00  0.00     0.198 A 
ATOM     85  C   UNL     1      -8.569  -1.565  -8.421  1.00  0.00     0.198 A 
ATOM     86  F   UNL     1      -7.768   0.639  -8.210  1.00  0.00    -0.203 F 
ATOM     87  F   UNL     1      -7.425  -4.298 -10.506  1.00  0.00    -0.200 F 
ATOM     88  C   UNL     1      -8.486  -2.824  -8.997  1.00  0.00     0.200 A 
ATOM     89  F   UNL     1      -9.512  -1.310  -7.504  1.00  0.00    -0.200 F 
ATOM     90  F   UNL     1      -9.360  -3.780  -8.653  1.00  0.00    -0.200 F 
ENDBRANCH  56  80
BRANCH  68  91
ATOM     91  C   UNL     1      -5.477   3.012 -15.424  1.00  0.00     0.064 A 
ATOM     92  C   UNL     1      -6.755   3.538 -15.658  1.00  0.00     0.173 A 
ATOM     93  C   UNL     1      -4.755   2.508 -16.515  1.00  0.00     0.173 A 
ATOM     94  F   UNL     1      -7.485   4.016 -14.639  1.00  0.00    -0.203 F 
ATOM     95  C   UNL     1      -7.297   3.542 -16.939  1.00  0.00     0.198 A 
ATOM     96  C   UNL     1      -5.291   2.536 -17.798  1.00  0.00     0.198 A 
ATOM     97  F   UNL     1      -3.526   2.000 -16.336  1.00  0.00    -0.203 F 
ATOM     98  F   UNL     1      -8.534   4.016 -17.139  1.00  0.00    -0.200 F 
ATOM     99  C   UNL     1      -6.562   3.048 -18.008  1.00  0.00     0.200 A 
ATOM    100  F   UNL     1      -4.578   2.066 -18.831  1.00  0.00    -0.200 F 
ATOM    101  F   UNL     1      -7.084   3.060 -19.242  1.00  0.00    -0.200 F 
ENDBRANCH  68  91
ENDBRANCH  42  43
ENDBRANCH  34  37
ENDBRANCH  32  33
ENDBRANCH  31  32
ENDBRANCH  30  31
ENDBRANCH   3  30
TORSDOF 15
