REMARK SMILES CCC[C@H](Nc1cc(C)c(N)c(C(=O)NCCCNC(=O)c2ccc(-c3c4nc(c(-c5c(F)c(F)c(F)c(F)c5F)c5ccc([nH]5)c(-c5c(F)c(F)c(F)c(F)c5F)c5nc(c(-c6c(F)c(F)c(F)c(F)c6F)c6ccc3[nH]6)C=C5)C=C4)cc2)c1)c1cccs1
REMARK SMILES IDX 16 1 15 2 13 3 14 4 12 6 6 7 7 8 85 9 8 10 9 11 10 12 5 13
REMARK SMILES IDX 4 15 3 16 2 17 1 18 86 19 87 20 90 21 88 22 89 23 11 24
REMARK SMILES IDX 17 27 18 28 19 29 20 30 21 32 22 33 23 34 84 35 24 36 83 37
REMARK SMILES IDX 25 38 26 39 27 40 77 41 28 42 82 43 76 44 78 45 29 46 81 47
REMARK SMILES IDX 75 48 74 49 30 51 62 52 42 53 61 54 43 55 46 56 60 57 79 58
REMARK SMILES IDX 44 59 45 60 59 62 80 63 47 64 31 65 32 66 40 67 33 68 34 69
REMARK SMILES IDX 38 70 41 71 35 72 36 73 39 74 37 75 63 76 64 77 72 78 65 79
REMARK SMILES IDX 66 80 70 81 73 82 67 83 68 84 71 85 69 86 48 87 49 88 57 89
REMARK SMILES IDX 50 90 51 91 55 92 58 93 52 94 53 95 56 96 54 97
REMARK H PARENT 15 5 5 14 11 25 11 26 19 31 78 50 46 61
REMARK Flexibility Score: inf
ROOT
ATOM      1  C   UNL     1       3.900  -3.193   3.855  1.00  0.00     0.118 C 
ENDROOT
BRANCH   1   2
ATOM      2  N   UNL     1       3.211  -3.689   5.031  1.00  0.00    -0.352 N 
ATOM      3  C   UNL     1       1.954  -3.518   5.558  1.00  0.00     0.253 C 
ATOM      4  O   UNL     1       1.741  -4.143   6.603  1.00  0.00    -0.269 OA
ATOM      5  H   UNL     1       3.773  -4.287   5.575  1.00  0.00     0.163 HD
BRANCH   3   6
ATOM      6  C   UNL     1       0.869  -2.660   4.968  1.00  0.00     0.065 A 
ATOM      7  C   UNL     1       0.152  -0.796   3.519  1.00  0.00     0.036 A 
ATOM      8  C   UNL     1      -1.147  -0.973   3.978  1.00  0.00     0.031 A 
ATOM      9  C   UNL     1       1.145  -1.624   4.065  1.00  0.00     0.041 A 
ATOM     10  C   UNL     1      -1.480  -1.998   4.883  1.00  0.00    -0.025 A 
ATOM     11  C   UNL     1      -2.924  -2.168   5.276  1.00  0.00     0.046 C 
ATOM     12  C   UNL     1      -0.471  -2.840   5.399  1.00  0.00     0.047 A 
BRANCH   7  13
ATOM     13  N   UNL     1       0.544   0.166   2.605  1.00  0.00    -0.377 N 
ATOM     14  H   UNL     1       1.138  -0.140   1.882  1.00  0.00     0.161 HD
BRANCH  13  15
ATOM     15  C   UNL     1       0.181   1.589   2.584  1.00  0.00     0.119 C 
BRANCH  15  16
ATOM     16  C   UNL     1      -1.295   1.812   2.179  1.00  0.00     0.030 C 
BRANCH  16  17
ATOM     17  C   UNL     1      -1.468   2.672   0.917  1.00  0.00    -0.001 C 
ATOM     18  C   UNL     1      -1.079   1.923  -0.353  1.00  0.00     0.004 C 
ENDBRANCH  16  17
ENDBRANCH  15  16
BRANCH  15  19
ATOM     19  C   UNL     1       0.624   2.457   3.762  1.00  0.00     0.027 A 
ATOM     20  C   UNL     1       0.481   3.830   3.900  1.00  0.00     0.017 A 
ATOM     21  S   UNL     1       1.509   1.819   5.093  1.00  0.00    -0.147 S 
ATOM     22  C   UNL     1       1.068   4.337   5.096  1.00  0.00     0.012 A 
ATOM     23  C   UNL     1       1.654   3.342   5.841  1.00  0.00     0.065 A 
ENDBRANCH  15  19
ENDBRANCH  13  15
ENDBRANCH   7  13
BRANCH  12  24
ATOM     24  N   UNL     1      -0.838  -3.924   6.207  1.00  0.00    -0.398 N 
ATOM     25  H   UNL     1      -1.774  -4.029   6.495  1.00  0.00     0.156 HD
ATOM     26  H   UNL     1      -0.160  -4.581   6.488  1.00  0.00     0.156 HD
ENDBRANCH  12  24
ENDBRANCH   3   6
ENDBRANCH   1   2
BRANCH   1  27
ATOM     27  C   UNL     1       4.789  -1.990   4.192  1.00  0.00     0.042 C 
BRANCH  27  28
ATOM     28  C   UNL     1       6.051  -2.353   4.980  1.00  0.00     0.118 C 
BRANCH  28  29
ATOM     29  N   UNL     1       6.974  -3.153   4.189  1.00  0.00    -0.352 N 
ATOM     30  C   UNL     1       8.305  -2.987   3.914  1.00  0.00     0.251 C 
ATOM     31  H   UNL     1       6.571  -3.953   3.780  1.00  0.00     0.163 HD
ATOM     32  O   UNL     1       8.818  -3.682   3.041  1.00  0.00    -0.269 OA
BRANCH  30  33
ATOM     33  C   UNL     1       9.142  -2.001   4.636  1.00  0.00     0.039 A 
ATOM     34  C   UNL     1      10.161  -1.361   3.920  1.00  0.00     0.014 A 
ATOM     35  C   UNL     1       9.019  -1.776   6.011  1.00  0.00     0.014 A 
ATOM     36  C   UNL     1      11.034  -0.485   4.568  1.00  0.00     0.010 A 
ATOM     37  C   UNL     1       9.862  -0.861   6.651  1.00  0.00     0.010 A 
ATOM     38  C   UNL     1      10.884  -0.217   5.938  1.00  0.00    -0.014 A 
BRANCH  38  39
ATOM     39  C   UNL     1      11.798   0.739   6.613  1.00  0.00     0.031 A 
ATOM     40  C   UNL     1      12.811   0.263   7.615  1.00  0.00     0.074 A 
ATOM     41  C   UNL     1      11.703   2.051   6.326  1.00  0.00     0.049 A 
ATOM     42  N   UNL     1      13.712   0.952   8.272  1.00  0.00    -0.248 NA
ATOM     43  C   UNL     1      12.801  -1.171   7.937  1.00  0.00     0.031 C 
ATOM     44  C   UNL     1      10.728   2.644   5.410  1.00  0.00     0.029 A 
ATOM     45  N   UNL     1      12.438   3.122   6.770  1.00  0.00    -0.354 N 
ATOM     46  C   UNL     1      14.367   0.040   9.089  1.00  0.00     0.074 A 
ATOM     47  C   UNL     1      13.734  -1.245   8.877  1.00  0.00     0.031 C 
ATOM     48  C   UNL     1      10.941   3.967   5.339  1.00  0.00     0.029 A 
ATOM     49  C   UNL     1      12.055   4.318   6.217  1.00  0.00     0.049 A 
ATOM     50  H   UNL     1      13.169   3.040   7.424  1.00  0.00     0.167 HD
ATOM     51  C   UNL     1      15.411   0.252   9.926  1.00  0.00     0.037 A 
ATOM     52  C   UNL     1      12.552   5.557   6.388  1.00  0.00     0.037 A 
ATOM     53  C   UNL     1      16.057   1.525  10.118  1.00  0.00     0.049 A 
ATOM     54  C   UNL     1      13.734   5.758   7.293  1.00  0.00     0.074 A 
ATOM     55  C   UNL     1      17.163   1.826  10.895  1.00  0.00     0.029 A 
ATOM     56  N   UNL     1      15.653   2.711   9.524  1.00  0.00    -0.354 N 
ATOM     57  N   UNL     1      14.391   4.875   8.004  1.00  0.00    -0.248 NA
ATOM     58  C   UNL     1      14.252   7.128   7.409  1.00  0.00     0.031 C 
ATOM     59  C   UNL     1      17.407   3.201  10.798  1.00  0.00     0.029 A 
ATOM     60  C   UNL     1      16.477   3.749   9.931  1.00  0.00     0.049 A 
ATOM     61  H   UNL     1      14.893   2.803   8.905  1.00  0.00     0.167 HD
ATOM     62  C   UNL     1      15.406   5.575   8.639  1.00  0.00     0.074 A 
ATOM     63  C   UNL     1      15.293   6.955   8.212  1.00  0.00     0.031 C 
ATOM     64  C   UNL     1      16.346   5.118   9.502  1.00  0.00     0.037 A 
BRANCH  51  65
ATOM     65  C   UNL     1      15.929  -0.926  10.699  1.00  0.00     0.064 A 
ATOM     66  C   UNL     1      16.660  -1.948  10.075  1.00  0.00     0.173 A 
ATOM     67  C   UNL     1      15.727  -1.014  12.085  1.00  0.00     0.173 A 
ATOM     68  F   UNL     1      16.872  -1.915   8.751  1.00  0.00    -0.203 F 
ATOM     69  C   UNL     1      17.147  -3.029  10.806  1.00  0.00     0.198 A 
ATOM     70  C   UNL     1      16.237  -2.084  12.816  1.00  0.00     0.198 A 
ATOM     71  F   UNL     1      15.041  -0.059  12.730  1.00  0.00    -0.203 F 
ATOM     72  F   UNL     1      17.807  -4.015  10.182  1.00  0.00    -0.200 F 
ATOM     73  C   UNL     1      16.941  -3.093  12.176  1.00  0.00     0.200 A 
ATOM     74  F   UNL     1      16.046  -2.139  14.142  1.00  0.00    -0.200 F 
ATOM     75  F   UNL     1      17.415  -4.131  12.879  1.00  0.00    -0.200 F 
ENDBRANCH  51  65
BRANCH  52  76
ATOM     76  C   UNL     1      11.958   6.696   5.645  1.00  0.00     0.064 A 
ATOM     77  C   UNL     1      12.639   7.285   4.572  1.00  0.00     0.173 A 
ATOM     78  C   UNL     1      10.696   7.206   5.982  1.00  0.00     0.173 A 
ATOM     79  F   UNL     1      13.857   6.842   4.228  1.00  0.00    -0.203 F 
ATOM     80  C   UNL     1      12.085   8.353   3.870  1.00  0.00     0.198 A 
ATOM     81  C   UNL     1      10.134   8.259   5.264  1.00  0.00     0.198 A 
ATOM     82  F   UNL     1      10.004   6.670   6.998  1.00  0.00    -0.203 F 
ATOM     83  F   UNL     1      12.771   8.922   2.869  1.00  0.00    -0.200 F 
ATOM     84  C   UNL     1      10.831   8.835   4.213  1.00  0.00     0.200 A 
ATOM     85  F   UNL     1       8.916   8.714   5.590  1.00  0.00    -0.200 F 
ATOM     86  F   UNL     1      10.296   9.858   3.532  1.00  0.00    -0.200 F 
ENDBRANCH  52  76
BRANCH  64  87
ATOM     87  C   UNL     1      17.329   6.120  10.030  1.00  0.00     0.064 A 
ATOM     88  C   UNL     1      16.956   7.073  10.988  1.00  0.00     0.173 A 
ATOM     89  C   UNL     1      18.659   6.116   9.586  1.00  0.00     0.173 A 
ATOM     90  F   UNL     1      15.690   7.126  11.430  1.00  0.00    -0.203 F 
ATOM     91  C   UNL     1      17.874   8.006  11.463  1.00  0.00     0.198 A 
ATOM     92  C   UNL     1      19.580   7.035  10.081  1.00  0.00     0.198 A 
ATOM     93  F   UNL     1      19.065   5.221   8.672  1.00  0.00    -0.203 F 
ATOM     94  F   UNL     1      17.484   8.939  12.342  1.00  0.00    -0.200 F 
ATOM     95  C   UNL     1      19.185   7.983  11.012  1.00  0.00     0.200 A 
ATOM     96  F   UNL     1      20.849   7.008   9.650  1.00  0.00    -0.200 F 
ATOM     97  F   UNL     1      20.067   8.884  11.469  1.00  0.00    -0.200 F 
ENDBRANCH  64  87
ENDBRANCH  38  39
ENDBRANCH  30  33
ENDBRANCH  28  29
ENDBRANCH  27  28
ENDBRANCH   1  27
TORSDOF 16
