REMARK SMILES O=C(CCN1C(=O)/C(=C2\C(=O)N(Cc3ccc(Cl)cc3)c3ccccc32)SC1=S)NCCCNC(=O)c1ccc(-c2c3nc(c(-c4c(F)c(F)c(F)c(F)c4F)c4ccc([nH]4)c(-c4c(F)c(F)c(F)c(F)c4F)c4nc(c(-c5c(F)c(F)c(F)c(F)c5F)c5ccc2[nH]5)C=C4)C=C3)cc1
REMARK SMILES IDX 31 1 30 2 1 3 2 4 3 6 4 7 5 8 6 9 28 10 7 11 8 12 27 13
REMARK SMILES IDX 29 14 9 15 10 16 26 17 11 18 12 19 21 20 25 21 22 22 24 23
REMARK SMILES IDX 23 24 13 25 14 26 15 27 20 28 16 29 19 30 17 31 18 32 32 33
REMARK SMILES IDX 33 34 34 35 35 36 36 38 37 39 38 40 99 41 39 42 98 43 40 44
REMARK SMILES IDX 41 45 42 46 92 47 43 48 97 49 91 50 93 51 44 52 96 53 90 54
REMARK SMILES IDX 89 55 45 57 77 58 57 59 76 60 58 61 61 62 75 63 94 64 59 65
REMARK SMILES IDX 60 66 74 68 95 69 62 70 46 71 47 72 55 73 48 74 49 75 53 76
REMARK SMILES IDX 56 77 50 78 51 79 54 80 52 81 78 82 79 83 87 84 80 85 81 86
REMARK SMILES IDX 85 87 88 88 82 89 83 90 86 91 84 92 63 93 64 94 72 95 65 96
REMARK SMILES IDX 66 97 70 98 73 99 67 100 68 101 71 102 69 103
REMARK H PARENT 30 5 34 37 93 56 61 67
REMARK Flexibility Score: inf
ROOT
ATOM      1  C   UNL     1       1.694   2.503   0.438  1.00  0.00     0.117 C 
ENDROOT
BRANCH   1   2
ATOM      2  N   UNL     1       2.458   1.334   0.801  1.00  0.00    -0.356 N 
ATOM      3  O   UNL     1       1.127  -0.171  -0.332  1.00  0.00    -0.275 OA
ATOM      4  C   UNL     1       2.163   0.098   0.267  1.00  0.00     0.221 C 
ATOM      5  H   UNL     1       3.202   1.421   1.440  1.00  0.00     0.163 HD
BRANCH   4   6
ATOM      6  C   UNL     1       3.278  -0.912   0.447  1.00  0.00     0.122 C 
BRANCH   6   7
ATOM      7  C   UNL     1       3.914  -1.342  -0.878  1.00  0.00     0.137 C 
BRANCH   7   8
ATOM      8  N   UNL     1       4.891  -0.468  -1.575  1.00  0.00    -0.292 N 
ATOM      9  C   UNL     1       4.880   0.909  -1.489  1.00  0.00     0.267 C 
ATOM     10  C   UNL     1       5.892  -0.962  -2.388  1.00  0.00     0.148 C 
ATOM     11  O   UNL     1       4.600   1.534  -0.478  1.00  0.00    -0.268 OA
ATOM     12  C   UNL     1       5.583   1.542  -2.647  1.00  0.00     0.093 C 
ATOM     13  S   UNL     1       6.718   0.363  -3.200  1.00  0.00    -0.053 SA
ATOM     14  S   UNL     1       6.335  -2.549  -2.649  1.00  0.00    -0.052 S 
ATOM     15  C   UNL     1       5.365   2.764  -3.172  1.00  0.00     0.069 C 
ATOM     16  C   UNL     1       4.216   3.678  -2.790  1.00  0.00     0.260 C 
ATOM     17  C   UNL     1       6.081   3.480  -4.239  1.00  0.00     0.012 A 
ATOM     18  O   UNL     1       3.277   3.374  -2.085  1.00  0.00    -0.269 OA
ATOM     19  N   UNL     1       4.404   4.878  -3.483  1.00  0.00    -0.303 N 
ATOM     20  C   UNL     1       5.406   4.694  -4.450  1.00  0.00     0.052 A 
ATOM     21  C   UNL     1       7.223   3.188  -4.965  1.00  0.00     0.011 A 
ATOM     22  C   UNL     1       5.740   5.524  -5.504  1.00  0.00     0.027 A 
ATOM     23  C   UNL     1       7.635   4.080  -5.956  1.00  0.00     0.001 A 
ATOM     24  C   UNL     1       6.882   5.224  -6.244  1.00  0.00     0.002 A 
BRANCH  19  25
ATOM     25  C   UNL     1       3.604   6.081  -3.258  1.00  0.00     0.161 C 
BRANCH  25  26
ATOM     26  C   UNL     1       4.276   7.371  -2.748  1.00  0.00    -0.028 A 
ATOM     27  C   UNL     1       5.446   7.917  -3.300  1.00  0.00     0.007 A 
ATOM     28  C   UNL     1       3.629   8.153  -1.765  1.00  0.00     0.007 A 
ATOM     29  C   UNL     1       5.946   9.172  -2.921  1.00  0.00     0.021 A 
ATOM     30  C   UNL     1       4.135   9.405  -1.364  1.00  0.00     0.021 A 
ATOM     31  C   UNL     1       5.291   9.911  -1.949  1.00  0.00     0.041 A 
ATOM     32  Cl  UNL     1       5.932  11.426  -1.449  1.00  0.00    -0.084 Cl
ENDBRANCH  25  26
ENDBRANCH  19  25
ENDBRANCH   7   8
ENDBRANCH   6   7
ENDBRANCH   4   6
ENDBRANCH   1   2
BRANCH   1  33
ATOM     33  C   UNL     1       2.198   3.835   1.007  1.00  0.00     0.042 C 
BRANCH  33  34
ATOM     34  C   UNL     1       3.680   4.040   1.332  1.00  0.00     0.118 C 
BRANCH  34  35
ATOM     35  N   UNL     1       4.592   4.081   0.201  1.00  0.00    -0.352 N 
ATOM     36  C   UNL     1       5.695   4.867  -0.051  1.00  0.00     0.251 C 
ATOM     37  H   UNL     1       4.384   3.434  -0.511  1.00  0.00     0.163 HD
ATOM     38  O   UNL     1       6.381   4.757  -1.060  1.00  0.00    -0.269 OA
BRANCH  36  39
ATOM     39  C   UNL     1       6.043   5.887   0.940  1.00  0.00     0.039 A 
ATOM     40  C   UNL     1       6.128   5.499   2.271  1.00  0.00     0.014 A 
ATOM     41  C   UNL     1       6.176   7.224   0.559  1.00  0.00     0.014 A 
ATOM     42  C   UNL     1       6.110   6.472   3.243  1.00  0.00     0.010 A 
ATOM     43  C   UNL     1       6.232   8.209   1.537  1.00  0.00     0.010 A 
ATOM     44  C   UNL     1       6.148   7.830   2.879  1.00  0.00    -0.014 A 
BRANCH  44  45
ATOM     45  C   UNL     1       6.252   8.799   3.976  1.00  0.00     0.031 A 
ATOM     46  C   UNL     1       5.058   9.555   4.448  1.00  0.00     0.074 A 
ATOM     47  C   UNL     1       7.430   8.810   4.622  1.00  0.00     0.049 A 
ATOM     48  N   UNL     1       4.899  10.207   5.568  1.00  0.00    -0.248 NA
ATOM     49  C   UNL     1       3.886   9.585   3.558  1.00  0.00     0.031 C 
ATOM     50  C   UNL     1       8.620   8.075   4.179  1.00  0.00     0.029 A 
ATOM     51  N   UNL     1       7.802   9.379   5.803  1.00  0.00    -0.354 N 
ATOM     52  C   UNL     1       3.608  10.711   5.531  1.00  0.00     0.074 A 
ATOM     53  C   UNL     1       3.036  10.327   4.258  1.00  0.00     0.031 C 
ATOM     54  C   UNL     1       9.565   8.170   5.120  1.00  0.00     0.029 A 
ATOM     55  C   UNL     1       9.061   9.006   6.202  1.00  0.00     0.049 A 
ATOM     56  H   UNL     1       7.229   9.993   6.316  1.00  0.00     0.167 HD
ATOM     57  C   UNL     1       2.975  11.418   6.496  1.00  0.00     0.037 A 
ATOM     58  C   UNL     1       9.723   9.294   7.335  1.00  0.00     0.037 A 
ATOM     59  C   UNL     1       3.603  11.783   7.742  1.00  0.00     0.049 A 
ATOM     60  C   UNL     1       9.000  10.100   8.372  1.00  0.00     0.074 A 
ATOM     61  C   UNL     1       3.071  12.488   8.805  1.00  0.00     0.029 A 
ATOM     62  N   UNL     1       4.916  11.472   8.082  1.00  0.00    -0.354 N 
ATOM     63  N   UNL     1       7.760  10.529   8.362  1.00  0.00    -0.248 NA
ATOM     64  C   UNL     1       9.757  10.462   9.572  1.00  0.00     0.031 C 
ATOM     65  C   UNL     1       4.077  12.653   9.762  1.00  0.00     0.029 A 
ATOM     66  C   UNL     1       5.222  12.001   9.325  1.00  0.00     0.049 A 
ATOM     67  H   UNL     1       5.537  10.953   7.522  1.00  0.00     0.167 HD
ATOM     68  C   UNL     1       7.583  11.214   9.551  1.00  0.00     0.074 A 
ATOM     69  C   UNL     1       8.838  11.110  10.275  1.00  0.00     0.031 C 
ATOM     70  C   UNL     1       6.491  11.880  10.003  1.00  0.00     0.037 A 
BRANCH  57  71
ATOM     71  C   UNL     1       1.556  11.847   6.254  1.00  0.00     0.064 A 
ATOM     72  C   UNL     1       0.500  10.922   6.234  1.00  0.00     0.173 A 
ATOM     73  C   UNL     1       1.232  13.207   6.117  1.00  0.00     0.173 A 
ATOM     74  F   UNL     1       0.750   9.610   6.351  1.00  0.00    -0.203 F 
ATOM     75  C   UNL     1      -0.820  11.340   6.077  1.00  0.00     0.198 A 
ATOM     76  C   UNL     1      -0.091  13.623   5.986  1.00  0.00     0.198 A 
ATOM     77  F   UNL     1       2.199  14.136   6.131  1.00  0.00    -0.203 F 
ATOM     78  F   UNL     1      -1.808  10.435   6.034  1.00  0.00    -0.200 F 
ATOM     79  C   UNL     1      -1.116  12.690   5.964  1.00  0.00     0.200 A 
ATOM     80  F   UNL     1      -0.375  14.930   5.890  1.00  0.00    -0.200 F 
ATOM     81  F   UNL     1      -2.388  13.091   5.831  1.00  0.00    -0.200 F 
ENDBRANCH  57  71
BRANCH  58  82
ATOM     82  C   UNL     1      11.101   8.778   7.521  1.00  0.00     0.064 A 
ATOM     83  C   UNL     1      11.387   7.800   8.482  1.00  0.00     0.173 A 
ATOM     84  C   UNL     1      12.147   9.190   6.679  1.00  0.00     0.173 A 
ATOM     85  F   UNL     1      10.425   7.374   9.312  1.00  0.00    -0.203 F 
ATOM     86  C   UNL     1      12.666   7.256   8.594  1.00  0.00     0.198 A 
ATOM     87  C   UNL     1      13.415   8.623   6.770  1.00  0.00     0.198 A 
ATOM     88  F   UNL     1      11.921  10.111   5.730  1.00  0.00    -0.203 F 
ATOM     89  F   UNL     1      12.919   6.336   9.534  1.00  0.00    -0.200 F 
ATOM     90  C   UNL     1      13.675   7.659   7.731  1.00  0.00     0.200 A 
ATOM     91  F   UNL     1      14.376   8.995   5.913  1.00  0.00    -0.200 F 
ATOM     92  F   UNL     1      14.896   7.116   7.823  1.00  0.00    -0.200 F 
ENDBRANCH  58  82
BRANCH  70  93
ATOM     93  C   UNL     1       6.618  12.558  11.333  1.00  0.00     0.064 A 
ATOM     94  C   UNL     1       7.383  13.723  11.483  1.00  0.00     0.173 A 
ATOM     95  C   UNL     1       5.906  12.084  12.445  1.00  0.00     0.173 A 
ATOM     96  F   UNL     1       8.093  14.203  10.451  1.00  0.00    -0.203 F 
ATOM     97  C   UNL     1       7.441  14.384  12.705  1.00  0.00     0.198 A 
ATOM     98  C   UNL     1       5.940  12.767  13.655  1.00  0.00     0.198 A 
ATOM     99  F   UNL     1       5.154  10.977  12.346  1.00  0.00    -0.203 F 
ATOM    100  F   UNL     1       8.207  15.476  12.838  1.00  0.00    -0.200 F 
ATOM    101  C   UNL     1       6.710  13.913  13.786  1.00  0.00     0.200 A 
ATOM    102  F   UNL     1       5.219  12.322  14.694  1.00  0.00    -0.200 F 
ATOM    103  F   UNL     1       6.749  14.565  14.956  1.00  0.00    -0.200 F 
ENDBRANCH  70  93
ENDBRANCH  44  45
ENDBRANCH  36  39
ENDBRANCH  34  35
ENDBRANCH  33  34
ENDBRANCH   1  33
TORSDOF 14
