REMARK SMILES Nn1c(S[C@@H](C(=O)NCCCNC(=O)c2ccc(-c3c4nc(c(-c5c(F)c(F)c(F)c(F)c5F)c5ccc([nH]5)c(-c5c(F)c(F)c(F)c(F)c5F)c5nc(c(-c6c(F)c(F)c(F)c(F)c6F)c6ccc3[nH]6)C=C5)C=C4)cc2)c2ccccc2)nc2ccc(Br)cc2c1=O
REMARK SMILES IDX 9 1 8 2 6 3 7 4 5 6 4 7 3 8 2 9 92 10 84 11 91 12 93 13
REMARK SMILES IDX 85 14 90 15 86 16 88 17 87 18 89 19 1 20 78 23 79 24 83 25
REMARK SMILES IDX 80 26 82 27 81 28 10 29 11 30 12 31 13 32 14 34 15 35 16 36
REMARK SMILES IDX 77 37 17 38 76 39 18 40 19 41 20 42 70 43 21 44 75 45 69 46
REMARK SMILES IDX 71 47 22 48 74 49 68 50 67 51 23 53 55 54 35 55 54 56 36 57
REMARK SMILES IDX 39 58 53 59 72 60 37 61 38 62 52 64 73 65 40 66 24 67 25 68
REMARK SMILES IDX 33 69 26 70 27 71 31 72 34 73 28 74 29 75 32 76 30 77 56 78
REMARK SMILES IDX 57 79 65 80 58 81 59 82 63 83 66 84 60 85 61 86 64 87 62 88
REMARK SMILES IDX 41 89 42 90 50 91 43 92 44 93 48 94 51 95 45 96 46 97 49 98
REMARK SMILES IDX 47 99
REMARK H PARENT 8 5 1 21 1 22 12 33 71 52 39 63
REMARK Flexibility Score: inf
ROOT
ATOM      1  C   UNL     1       5.069  -0.537   2.080  1.00  0.00     0.117 C 
ENDROOT
BRANCH   1   2
ATOM      2  N   UNL     1       4.492  -0.063   0.829  1.00  0.00    -0.355 N 
ATOM      3  C   UNL     1       3.333   0.611   0.555  1.00  0.00     0.238 C 
ATOM      4  O   UNL     1       3.185   0.948  -0.625  1.00  0.00    -0.273 OA
ATOM      5  H   UNL     1       5.036  -0.266   0.034  1.00  0.00     0.163 HD
BRANCH   3   6
ATOM      6  C   UNL     1       2.270   0.915   1.632  1.00  0.00     0.174 C 
BRANCH   6   7
ATOM      7  S   UNL     1       1.700  -0.577   2.444  1.00  0.00    -0.068 SA
BRANCH   7   8
ATOM      8  C   UNL     1       0.463  -1.458   1.598  1.00  0.00     0.191 A 
ATOM      9  N   UNL     1       0.305  -1.529   0.215  1.00  0.00    -0.202 N 
ATOM     10  C   UNL     1      -0.821  -2.145  -0.356  1.00  0.00     0.280 A 
ATOM     11  N   UNL     1      -0.302  -2.109   2.417  1.00  0.00    -0.222 NA
ATOM     12  C   UNL     1      -1.659  -2.930   0.564  1.00  0.00     0.069 A 
ATOM     13  O   UNL     1      -1.143  -2.085  -1.542  1.00  0.00    -0.267 OA
ATOM     14  C   UNL     1      -1.322  -2.915   1.913  1.00  0.00     0.079 A 
ATOM     15  C   UNL     1      -2.716  -3.715   0.089  1.00  0.00     0.031 A 
ATOM     16  C   UNL     1      -2.027  -3.736   2.795  1.00  0.00     0.030 A 
ATOM     17  C   UNL     1      -3.418  -4.518   0.984  1.00  0.00     0.018 A 
ATOM     18  C   UNL     1      -3.070  -4.543   2.334  1.00  0.00     0.018 A 
ATOM     19  Br  UNL     1      -4.841  -5.593   0.362  1.00  0.00    -0.051 Br
BRANCH   9  20
ATOM     20  N   UNL     1       1.244  -1.055  -0.714  1.00  0.00    -0.334 N 
ATOM     21  H   UNL     1       2.064  -0.609  -0.400  1.00  0.00     0.178 HD
ATOM     22  H   UNL     1       1.083  -1.168  -1.678  1.00  0.00     0.178 HD
ENDBRANCH   9  20
ENDBRANCH   7   8
ENDBRANCH   6   7
BRANCH   6  23
ATOM     23  C   UNL     1       1.264   1.994   1.221  1.00  0.00    -0.025 A 
ATOM     24  C   UNL     1      -0.097   1.778   0.961  1.00  0.00     0.005 A 
ATOM     25  C   UNL     1       1.748   3.309   1.047  1.00  0.00     0.005 A 
ATOM     26  C   UNL     1      -0.925   2.810   0.503  1.00  0.00     0.000 A 
ATOM     27  C   UNL     1       0.919   4.345   0.605  1.00  0.00     0.000 A 
ATOM     28  C   UNL     1      -0.417   4.091   0.321  1.00  0.00     0.000 A 
ENDBRANCH   6  23
ENDBRANCH   3   6
ENDBRANCH   1   2
BRANCH   1  29
ATOM     29  C   UNL     1       4.904  -2.040   2.314  1.00  0.00     0.042 C 
BRANCH  29  30
ATOM     30  C   UNL     1       5.415  -2.946   1.199  1.00  0.00     0.118 C 
BRANCH  30  31
ATOM     31  N   UNL     1       6.866  -3.005   1.116  1.00  0.00    -0.352 N 
ATOM     32  C   UNL     1       7.739  -4.048   1.319  1.00  0.00     0.251 C 
ATOM     33  H   UNL     1       7.296  -2.153   0.874  1.00  0.00     0.163 HD
ATOM     34  O   UNL     1       8.948  -3.824   1.319  1.00  0.00    -0.269 OA
BRANCH  32  35
ATOM     35  C   UNL     1       7.257  -5.426   1.586  1.00  0.00     0.039 A 
ATOM     36  C   UNL     1       6.189  -5.986   0.884  1.00  0.00     0.014 A 
ATOM     37  C   UNL     1       7.912  -6.189   2.561  1.00  0.00     0.014 A 
ATOM     38  C   UNL     1       5.659  -7.213   1.285  1.00  0.00     0.010 A 
ATOM     39  C   UNL     1       7.430  -7.457   2.906  1.00  0.00     0.010 A 
ATOM     40  C   UNL     1       6.257  -7.953   2.318  1.00  0.00    -0.014 A 
BRANCH  40  41
ATOM     41  C   UNL     1       5.610  -9.205   2.802  1.00  0.00     0.031 A 
ATOM     42  C   UNL     1       5.045  -9.278   4.200  1.00  0.00     0.074 A 
ATOM     43  C   UNL     1       5.461 -10.255   1.970  1.00  0.00     0.049 A 
ATOM     44  N   UNL     1       4.407 -10.264   4.784  1.00  0.00    -0.248 NA
ATOM     45  C   UNL     1       5.219  -8.094   5.056  1.00  0.00     0.031 C 
ATOM     46  C   UNL     1       5.953 -10.315   0.594  1.00  0.00     0.029 A 
ATOM     47  N   UNL     1       4.830 -11.461   2.151  1.00  0.00    -0.354 N 
ATOM     48  C   UNL     1       4.119  -9.823   6.070  1.00  0.00     0.074 A 
ATOM     49  C   UNL     1       4.680  -8.497   6.198  1.00  0.00     0.031 C 
ATOM     50  C   UNL     1       5.562 -11.473   0.039  1.00  0.00     0.029 A 
ATOM     51  C   UNL     1       4.833 -12.258   1.032  1.00  0.00     0.049 A 
ATOM     52  H   UNL     1       4.414 -11.730   3.002  1.00  0.00     0.167 HD
ATOM     53  C   UNL     1       3.430 -10.456   7.049  1.00  0.00     0.037 A 
ATOM     54  C   UNL     1       4.313 -13.483   0.827  1.00  0.00     0.037 A 
ATOM     55  C   UNL     1       2.833 -11.758   6.918  1.00  0.00     0.049 A 
ATOM     56  C   UNL     1       3.587 -14.179   1.946  1.00  0.00     0.074 A 
ATOM     57  C   UNL     1       2.079 -12.456   7.846  1.00  0.00     0.029 A 
ATOM     58  N   UNL     1       2.916 -12.556   5.788  1.00  0.00    -0.354 N 
ATOM     59  N   UNL     1       3.305 -13.738   3.147  1.00  0.00    -0.248 NA
ATOM     60  C   UNL     1       3.117 -15.548   1.684  1.00  0.00     0.031 C 
ATOM     61  C   UNL     1       1.736 -13.693   7.291  1.00  0.00     0.029 A 
ATOM     62  C   UNL     1       2.247 -13.749   6.005  1.00  0.00     0.049 A 
ATOM     63  H   UNL     1       3.381 -12.310   4.955  1.00  0.00     0.167 HD
ATOM     64  C   UNL     1       2.623 -14.769   3.780  1.00  0.00     0.074 A 
ATOM     65  C   UNL     1       2.509 -15.848   2.823  1.00  0.00     0.031 C 
ATOM     66  C   UNL     1       2.144 -14.817   5.046  1.00  0.00     0.037 A 
BRANCH  53  67
ATOM     67  C   UNL     1       3.261  -9.750   8.361  1.00  0.00     0.064 A 
ATOM     68  C   UNL     1       2.350  -8.695   8.509  1.00  0.00     0.173 A 
ATOM     69  C   UNL     1       3.947 -10.194   9.501  1.00  0.00     0.173 A 
ATOM     70  F   UNL     1       1.677  -8.229   7.446  1.00  0.00    -0.203 F 
ATOM     71  C   UNL     1       2.135  -8.105   9.752  1.00  0.00     0.198 A 
ATOM     72  C   UNL     1       3.714  -9.617  10.746  1.00  0.00     0.198 A 
ATOM     73  F   UNL     1       4.824 -11.206   9.412  1.00  0.00    -0.203 F 
ATOM     74  F   UNL     1       1.274  -7.085   9.868  1.00  0.00    -0.200 F 
ATOM     75  C   UNL     1       2.809  -8.573  10.871  1.00  0.00     0.200 A 
ATOM     76  F   UNL     1       4.356 -10.078  11.829  1.00  0.00    -0.200 F 
ATOM     77  F   UNL     1       2.586  -8.018  12.070  1.00  0.00    -0.200 F 
ENDBRANCH  53  67
BRANCH  54  78
ATOM     78  C   UNL     1       4.458 -14.137  -0.500  1.00  0.00     0.064 A 
ATOM     79  C   UNL     1       3.348 -14.332  -1.332  1.00  0.00     0.173 A 
ATOM     80  C   UNL     1       5.706 -14.585  -0.958  1.00  0.00     0.173 A 
ATOM     81  F   UNL     1       2.130 -13.944  -0.925  1.00  0.00    -0.203 F 
ATOM     82  C   UNL     1       3.478 -14.959  -2.570  1.00  0.00     0.198 A 
ATOM     83  C   UNL     1       5.839 -15.188  -2.207  1.00  0.00     0.198 A 
ATOM     84  F   UNL     1       6.798 -14.426  -0.196  1.00  0.00    -0.203 F 
ATOM     85  F   UNL     1       2.395 -15.167  -3.330  1.00  0.00    -0.200 F 
ATOM     86  C   UNL     1       4.725 -15.380  -3.009  1.00  0.00     0.200 A 
ATOM     87  F   UNL     1       7.047 -15.584  -2.631  1.00  0.00    -0.200 F 
ATOM     88  F   UNL     1       4.850 -15.978  -4.201  1.00  0.00    -0.200 F 
ENDBRANCH  54  78
BRANCH  66  89
ATOM     89  C   UNL     1       1.457 -16.076   5.481  1.00  0.00     0.064 A 
ATOM     90  C   UNL     1       2.189 -17.234   5.780  1.00  0.00     0.173 A 
ATOM     91  C   UNL     1       0.068 -16.105   5.674  1.00  0.00     0.173 A 
ATOM     92  F   UNL     1       3.518 -17.258   5.599  1.00  0.00    -0.203 F 
ATOM     93  C   UNL     1       1.552 -18.380   6.250  1.00  0.00     0.198 A 
ATOM     94  C   UNL     1      -0.562 -17.244   6.166  1.00  0.00     0.198 A 
ATOM     95  F   UNL     1      -0.674 -15.019   5.409  1.00  0.00    -0.203 F 
ATOM     96  F   UNL     1       2.268 -19.484   6.505  1.00  0.00    -0.200 F 
ATOM     97  C   UNL     1       0.180 -18.381   6.451  1.00  0.00     0.200 A 
ATOM     98  F   UNL     1      -1.886 -17.240   6.373  1.00  0.00    -0.200 F 
ATOM     99  F   UNL     1      -0.428 -19.480   6.919  1.00  0.00    -0.200 F 
ENDBRANCH  66  89
ENDBRANCH  40  41
ENDBRANCH  32  35
ENDBRANCH  30  31
ENDBRANCH  29  30
ENDBRANCH   1  29
TORSDOF 14
