REMARK SMILES CCC(CC)(C(=O)NCCCNC(=O)c1ccc(-c2c3nc(c(-c4c(F)c(F)c(F)c(F)c4F)c4ccc([nH]4)c(-c4c(F)c(F)c(F)c(F)c4F)c4nc(c(-c5c(F)c(F)c(F)c(F)c5F)c5ccc2[nH]5)C=C4)C=C3)cc1)n1nnnc1CC[C@@H]1CCCO1
REMARK SMILES IDX 9 1 8 2 6 3 7 4 3 6 2 7 1 8 4 9 5 10 78 11 79 12 82 13 80 14
REMARK SMILES IDX 81 15 83 16 84 17 85 18 86 19 89 20 87 21 88 22 10 23 11 24
REMARK SMILES IDX 12 25 13 26 14 28 15 29 16 30 77 31 17 32 76 33 18 34 19 35
REMARK SMILES IDX 20 36 70 37 21 38 75 39 69 40 71 41 22 42 74 43 68 44 67 45
REMARK SMILES IDX 23 47 55 48 35 49 54 50 36 51 39 52 53 53 72 54 37 55 38 56
REMARK SMILES IDX 52 58 73 59 40 60 24 61 25 62 33 63 26 64 27 65 31 66 34 67
REMARK SMILES IDX 28 68 29 69 32 70 30 71 56 72 57 73 65 74 58 75 59 76 63 77
REMARK SMILES IDX 66 78 60 79 61 80 64 81 62 82 41 83 42 84 50 85 43 86 44 87
REMARK SMILES IDX 48 88 51 89 45 90 46 91 49 92 47 93
REMARK H PARENT 8 5 12 27 71 46 39 57
REMARK Flexibility Score: inf
ROOT
ATOM      1  C   UNL     1      -2.050   0.337  -3.139  1.00  0.00     0.117 C 
ENDROOT
BRANCH   1   2
ATOM      2  N   UNL     1      -0.838   0.576  -3.895  1.00  0.00    -0.354 N 
ATOM      3  C   UNL     1       0.441   0.124  -3.715  1.00  0.00     0.248 C 
ATOM      4  O   UNL     1       1.144   0.155  -4.731  1.00  0.00    -0.272 OA
ATOM      5  H   UNL     1      -0.954   1.167  -4.674  1.00  0.00     0.163 HD
BRANCH   3   6
ATOM      6  C   UNL     1       0.974  -0.448  -2.364  1.00  0.00     0.144 C 
BRANCH   6   7
ATOM      7  C   UNL     1       0.575   0.483  -1.168  1.00  0.00     0.037 C 
ATOM      8  C   UNL     1       1.094   0.053   0.200  1.00  0.00     0.007 C 
ENDBRANCH   6   7
BRANCH   6   9
ATOM      9  C   UNL     1       0.509  -1.921  -2.201  1.00  0.00     0.037 C 
ATOM     10  C   UNL     1      -0.943  -2.345  -2.088  1.00  0.00     0.007 C 
ENDBRANCH   6   9
BRANCH   6  11
ATOM     11  N   UNL     1       2.475  -0.396  -2.440  1.00  0.00    -0.214 N 
ATOM     12  N   UNL     1       3.055   0.834  -2.473  1.00  0.00    -0.044 NA
ATOM     13  C   UNL     1       3.488  -1.337  -2.309  1.00  0.00     0.152 A 
ATOM     14  N   UNL     1       4.350   0.642  -2.314  1.00  0.00    -0.024 NA
ATOM     15  N   UNL     1       4.629  -0.682  -2.191  1.00  0.00    -0.114 NA
BRANCH  13  16
ATOM     16  C   UNL     1       3.433  -2.825  -2.277  1.00  0.00     0.082 C 
BRANCH  16  17
ATOM     17  C   UNL     1       3.689  -3.469  -3.639  1.00  0.00     0.040 C 
BRANCH  17  18
ATOM     18  C   UNL     1       5.173  -3.482  -3.998  1.00  0.00     0.118 C 
ATOM     19  C   UNL     1       5.636  -2.342  -4.887  1.00  0.00     0.034 C 
ATOM     20  O   UNL     1       5.468  -4.676  -4.749  1.00  0.00    -0.378 OA
ATOM     21  C   UNL     1       6.911  -2.921  -5.447  1.00  0.00     0.031 C 
ATOM     22  C   UNL     1       6.537  -4.374  -5.660  1.00  0.00     0.160 C 
ENDBRANCH  17  18
ENDBRANCH  16  17
ENDBRANCH  13  16
ENDBRANCH   6  11
ENDBRANCH   3   6
ENDBRANCH   1   2
BRANCH   1  23
ATOM     23  C   UNL     1      -2.873   1.574  -2.861  1.00  0.00     0.042 C 
BRANCH  23  24
ATOM     24  C   UNL     1      -3.588   2.099  -4.091  1.00  0.00     0.118 C 
BRANCH  24  25
ATOM     25  N   UNL     1      -4.497   1.116  -4.678  1.00  0.00    -0.352 N 
ATOM     26  C   UNL     1      -5.866   1.072  -4.731  1.00  0.00     0.251 C 
ATOM     27  H   UNL     1      -4.048   0.355  -5.112  1.00  0.00     0.163 HD
ATOM     28  O   UNL     1      -6.427   0.034  -5.081  1.00  0.00    -0.269 OA
BRANCH  26  29
ATOM     29  C   UNL     1      -6.670   2.249  -4.348  1.00  0.00     0.039 A 
ATOM     30  C   UNL     1      -7.880   2.062  -3.676  1.00  0.00     0.014 A 
ATOM     31  C   UNL     1      -6.235   3.540  -4.650  1.00  0.00     0.014 A 
ATOM     32  C   UNL     1      -8.601   3.171  -3.234  1.00  0.00     0.010 A 
ATOM     33  C   UNL     1      -6.879   4.636  -4.095  1.00  0.00     0.010 A 
ATOM     34  C   UNL     1      -8.077   4.465  -3.391  1.00  0.00    -0.014 A 
BRANCH  34  35
ATOM     35  C   UNL     1      -8.770   5.651  -2.829  1.00  0.00     0.031 A 
ATOM     36  C   UNL     1      -9.221   6.765  -3.733  1.00  0.00     0.074 A 
ATOM     37  C   UNL     1      -8.938   5.744  -1.495  1.00  0.00     0.049 A 
ATOM     38  N   UNL     1      -9.804   7.896  -3.424  1.00  0.00    -0.248 NA
ATOM     39  C   UNL     1      -8.953   6.608  -5.173  1.00  0.00     0.031 C 
ATOM     40  C   UNL     1      -8.475   4.762  -0.512  1.00  0.00     0.029 A 
ATOM     41  N   UNL     1      -9.540   6.713  -0.734  1.00  0.00    -0.354 N 
ATOM     42  C   UNL     1      -9.966   8.578  -4.622  1.00  0.00     0.074 A 
ATOM     43  C   UNL     1      -9.352   7.775  -5.655  1.00  0.00     0.031 C 
ATOM     44  C   UNL     1      -8.843   5.158   0.715  1.00  0.00     0.029 A 
ATOM     45  C   UNL     1      -9.528   6.442   0.613  1.00  0.00     0.049 A 
ATOM     46  H   UNL     1      -9.944   7.526  -1.116  1.00  0.00     0.167 HD
ATOM     47  C   UNL     1     -10.604   9.750  -4.848  1.00  0.00     0.037 A 
ATOM     48  C   UNL     1     -10.010   7.154   1.649  1.00  0.00     0.037 A 
ATOM     49  C   UNL     1     -11.230  10.536  -3.817  1.00  0.00     0.049 A 
ATOM     50  C   UNL     1     -10.712   8.455   1.369  1.00  0.00     0.074 A 
ATOM     51  C   UNL     1     -11.943  11.714  -3.944  1.00  0.00     0.029 A 
ATOM     52  N   UNL     1     -11.215  10.220  -2.466  1.00  0.00    -0.354 N 
ATOM     53  N   UNL     1     -10.928   9.050   0.220  1.00  0.00    -0.248 NA
ATOM     54  C   UNL     1     -11.248   9.178   2.529  1.00  0.00     0.031 C 
ATOM     55  C   UNL     1     -12.316  12.138  -2.664  1.00  0.00     0.029 A 
ATOM     56  C   UNL     1     -11.888  11.193  -1.746  1.00  0.00     0.049 A 
ATOM     57  H   UNL     1     -10.789   9.422  -2.077  1.00  0.00     0.167 HD
ATOM     58  C   UNL     1     -11.643  10.203   0.517  1.00  0.00     0.074 A 
ATOM     59  C   UNL     1     -11.851  10.206   1.950  1.00  0.00     0.031 C 
ATOM     60  C   UNL     1     -12.082  11.177  -0.319  1.00  0.00     0.037 A 
BRANCH  47  61
ATOM     61  C   UNL     1     -10.673  10.246  -6.264  1.00  0.00     0.064 A 
ATOM     62  C   UNL     1     -11.443   9.586  -7.236  1.00  0.00     0.173 A 
ATOM     63  C   UNL     1     -10.002  11.417  -6.646  1.00  0.00     0.173 A 
ATOM     64  F   UNL     1     -12.092   8.453  -6.928  1.00  0.00    -0.203 F 
ATOM     65  C   UNL     1     -11.518  10.067  -8.540  1.00  0.00     0.198 A 
ATOM     66  C   UNL     1     -10.107  11.913  -7.943  1.00  0.00     0.198 A 
ATOM     67  F   UNL     1      -9.254  12.089  -5.759  1.00  0.00    -0.203 F 
ATOM     68  F   UNL     1     -12.221   9.392  -9.461  1.00  0.00    -0.200 F 
ATOM     69  C   UNL     1     -10.860  11.235  -8.890  1.00  0.00     0.200 A 
ATOM     70  F   UNL     1      -9.481  13.050  -8.277  1.00  0.00    -0.200 F 
ATOM     71  F   UNL     1     -10.945  11.704 -10.143  1.00  0.00    -0.200 F 
ENDBRANCH  47  61
BRANCH  48  72
ATOM     72  C   UNL     1      -9.861   6.648   3.039  1.00  0.00     0.064 A 
ATOM     73  C   UNL     1     -10.978   6.262   3.794  1.00  0.00     0.173 A 
ATOM     74  C   UNL     1      -8.602   6.560   3.651  1.00  0.00     0.173 A 
ATOM     75  F   UNL     1     -12.207   6.341   3.260  1.00  0.00    -0.203 F 
ATOM     76  C   UNL     1     -10.846   5.841   5.116  1.00  0.00     0.198 A 
ATOM     77  C   UNL     1      -8.467   6.104   4.961  1.00  0.00     0.198 A 
ATOM     78  F   UNL     1      -7.499   6.906   2.972  1.00  0.00    -0.203 F 
ATOM     79  F   UNL     1     -11.936   5.537   5.832  1.00  0.00    -0.200 F 
ATOM     80  C   UNL     1      -9.589   5.758   5.697  1.00  0.00     0.200 A 
ATOM     81  F   UNL     1      -7.249   6.007   5.511  1.00  0.00    -0.200 F 
ATOM     82  F   UNL     1      -9.462   5.353   6.968  1.00  0.00    -0.200 F 
ENDBRANCH  48  72
BRANCH  60  83
ATOM     83  C   UNL     1     -12.852  12.309   0.299  1.00  0.00     0.064 A 
ATOM     84  C   UNL     1     -12.236  13.248   1.140  1.00  0.00     0.173 A 
ATOM     85  C   UNL     1     -14.222  12.464   0.036  1.00  0.00     0.173 A 
ATOM     86  F   UNL     1     -10.931  13.136   1.435  1.00  0.00    -0.203 F 
ATOM     87  C   UNL     1     -12.970  14.274   1.727  1.00  0.00     0.198 A 
ATOM     88  C   UNL     1     -14.945  13.514   0.594  1.00  0.00     0.198 A 
ATOM     89  F   UNL     1     -14.859  11.600  -0.769  1.00  0.00    -0.203 F 
ATOM     90  F   UNL     1     -12.374  15.118   2.580  1.00  0.00    -0.200 F 
ATOM     91  C   UNL     1     -14.322  14.410   1.448  1.00  0.00     0.200 A 
ATOM     92  F   UNL     1     -16.247  13.654   0.309  1.00  0.00    -0.200 F 
ATOM     93  F   UNL     1     -15.027  15.400   2.013  1.00  0.00    -0.200 F 
ENDBRANCH  60  83
ENDBRANCH  34  35
ENDBRANCH  26  29
ENDBRANCH  24  25
ENDBRANCH  23  24
ENDBRANCH   1  23
TORSDOF 16
