REMARK SMILES O=C(CSc1ccccc1C(=O)NCCCNC(=O)c1ccc(-c2c3nc(c(-c4c(F)c(F)c(F)c(F)c4F)c4ccc([nH]4)c(-c4c(F)c(F)c(F)c(F)c4F)c4nc(c(-c5c(F)c(F)c(F)c(F)c5F)c5ccc2[nH]5)C=C4)C=C3)cc1)c1ccc(Cl)cc1
REMARK SMILES IDX 14 1 13 2 11 3 12 4 10 6 5 7 6 8 7 9 9 10 8 11 4 12 3 13
REMARK SMILES IDX 2 14 1 15 83 16 84 17 89 18 85 19 88 20 86 21 87 22 15 23
REMARK SMILES IDX 16 24 17 25 18 26 19 28 20 29 21 30 82 31 22 32 81 33 23 34
REMARK SMILES IDX 24 35 25 36 75 37 26 38 80 39 74 40 76 41 27 42 79 43 73 44
REMARK SMILES IDX 72 45 28 47 60 48 40 49 59 50 41 51 44 52 58 53 77 54 42 55
REMARK SMILES IDX 43 56 57 58 78 59 45 60 29 61 30 62 38 63 31 64 32 65 36 66
REMARK SMILES IDX 39 67 33 68 34 69 37 70 35 71 61 72 62 73 70 74 63 75 64 76
REMARK SMILES IDX 68 77 71 78 65 79 66 80 69 81 67 82 46 83 47 84 55 85 48 86
REMARK SMILES IDX 49 87 53 88 56 89 50 90 51 91 54 92 52 93
REMARK H PARENT 13 5 17 27 76 46 44 57
REMARK Flexibility Score: inf
ROOT
ATOM      1  C   UNL     1       5.627  -2.147   0.892  1.00  0.00     0.118 C 
ENDROOT
BRANCH   1   2
ATOM      2  N   UNL     1       5.573  -3.497   1.393  1.00  0.00    -0.352 N 
ATOM      3  C   UNL     1       4.527  -4.334   1.668  1.00  0.00     0.252 C 
ATOM      4  O   UNL     1       4.811  -5.386   2.247  1.00  0.00    -0.269 OA
ATOM      5  H   UNL     1       6.457  -3.892   1.572  1.00  0.00     0.163 HD
BRANCH   3   6
ATOM      6  C   UNL     1       3.128  -4.150   1.179  1.00  0.00     0.053 A 
ATOM      7  C   UNL     1       2.251  -3.062   1.373  1.00  0.00     0.020 A 
ATOM      8  C   UNL     1       0.900  -3.227   1.000  1.00  0.00     0.016 A 
ATOM      9  C   UNL     1       0.422  -4.402   0.421  1.00  0.00     0.001 A 
ATOM     10  C   UNL     1       2.622  -5.334   0.589  1.00  0.00     0.015 A 
ATOM     11  C   UNL     1       1.286  -5.462   0.214  1.00  0.00     0.001 A 
BRANCH   7  12
ATOM     12  S   UNL     1       2.564  -1.583   2.326  1.00  0.00    -0.117 SA
BRANCH  12  13
ATOM     13  C   UNL     1       2.558  -0.192   1.136  1.00  0.00     0.156 C 
BRANCH  13  14
ATOM     14  C   UNL     1       1.823  -0.341  -0.178  1.00  0.00     0.173 C 
ATOM     15  O   UNL     1       0.616  -0.528  -0.284  1.00  0.00    -0.293 OA
BRANCH  14  16
ATOM     16  C   UNL     1       2.599  -0.028  -1.403  1.00  0.00     0.018 A 
ATOM     17  C   UNL     1       3.590  -0.896  -1.866  1.00  0.00     0.013 A 
ATOM     18  C   UNL     1       2.355   1.181  -2.063  1.00  0.00     0.013 A 
ATOM     19  C   UNL     1       4.390  -0.522  -2.949  1.00  0.00     0.021 A 
ATOM     20  C   UNL     1       3.143   1.542  -3.160  1.00  0.00     0.021 A 
ATOM     21  C   UNL     1       4.167   0.697  -3.588  1.00  0.00     0.041 A 
ATOM     22  Cl  UNL     1       5.157   1.156  -4.918  1.00  0.00    -0.084 Cl
ENDBRANCH  14  16
ENDBRANCH  13  14
ENDBRANCH  12  13
ENDBRANCH   7  12
ENDBRANCH   3   6
ENDBRANCH   1   2
BRANCH   1  23
ATOM     23  C   UNL     1       5.975  -1.185   2.023  1.00  0.00     0.042 C 
BRANCH  23  24
ATOM     24  C   UNL     1       7.467  -1.120   2.301  1.00  0.00     0.118 C 
BRANCH  24  25
ATOM     25  N   UNL     1       8.151  -0.292   1.317  1.00  0.00    -0.352 N 
ATOM     26  C   UNL     1       8.712   0.953   1.444  1.00  0.00     0.251 C 
ATOM     27  H   UNL     1       8.221  -0.688   0.419  1.00  0.00     0.163 HD
ATOM     28  O   UNL     1       8.979   1.592   0.425  1.00  0.00    -0.269 OA
BRANCH  26  29
ATOM     29  C   UNL     1       9.000   1.542   2.773  1.00  0.00     0.039 A 
ATOM     30  C   UNL     1       8.932   2.931   2.924  1.00  0.00     0.014 A 
ATOM     31  C   UNL     1       9.410   0.754   3.851  1.00  0.00     0.014 A 
ATOM     32  C   UNL     1       9.244   3.518   4.153  1.00  0.00     0.010 A 
ATOM     33  C   UNL     1       9.616   1.328   5.103  1.00  0.00     0.010 A 
ATOM     34  C   UNL     1       9.572   2.719   5.259  1.00  0.00    -0.014 A 
BRANCH  34  35
ATOM     35  C   UNL     1       9.940   3.322   6.566  1.00  0.00     0.031 A 
ATOM     36  C   UNL     1      11.322   3.108   7.129  1.00  0.00     0.074 A 
ATOM     37  C   UNL     1       9.025   4.018   7.266  1.00  0.00     0.049 A 
ATOM     38  N   UNL     1      11.824   3.506   8.272  1.00  0.00    -0.248 NA
ATOM     39  C   UNL     1      12.254   2.310   6.316  1.00  0.00     0.031 C 
ATOM     40  C   UNL     1       7.638   4.243   6.858  1.00  0.00     0.029 A 
ATOM     41  N   UNL     1       9.125   4.662   8.473  1.00  0.00    -0.354 N 
ATOM     42  C   UNL     1      13.111   2.985   8.322  1.00  0.00     0.074 A 
ATOM     43  C   UNL     1      13.294   2.194   7.126  1.00  0.00     0.031 C 
ATOM     44  C   UNL     1       7.026   5.000   7.782  1.00  0.00     0.029 A 
ATOM     45  C   UNL     1       7.967   5.290   8.859  1.00  0.00     0.049 A 
ATOM     46  H   UNL     1       9.949   4.674   9.012  1.00  0.00     0.167 HD
ATOM     47  C   UNL     1      14.066   3.172   9.264  1.00  0.00     0.037 A 
ATOM     48  C   UNL     1       7.700   6.024   9.956  1.00  0.00     0.037 A 
ATOM     49  C   UNL     1      13.896   3.998  10.429  1.00  0.00     0.049 A 
ATOM     50  C   UNL     1       8.793   6.261  10.962  1.00  0.00     0.074 A 
ATOM     51  C   UNL     1      14.817   4.302  11.416  1.00  0.00     0.029 A 
ATOM     52  N   UNL     1      12.723   4.662  10.758  1.00  0.00    -0.354 N 
ATOM     53  N   UNL     1      10.026   5.816  10.966  1.00  0.00    -0.248 NA
ATOM     54  C   UNL     1       8.461   7.119  12.107  1.00  0.00     0.031 C 
ATOM     55  C   UNL     1      14.192   5.127  12.358  1.00  0.00     0.029 A 
ATOM     56  C   UNL     1      12.895   5.371  11.935  1.00  0.00     0.049 A 
ATOM     57  H   UNL     1      11.891   4.632  10.232  1.00  0.00     0.167 HD
ATOM     58  C   UNL     1      10.625   6.361  12.093  1.00  0.00     0.074 A 
ATOM     59  C   UNL     1       9.624   7.184  12.739  1.00  0.00     0.031 C 
ATOM     60  C   UNL     1      11.889   6.196  12.553  1.00  0.00     0.037 A 
BRANCH  47  61
ATOM     61  C   UNL     1      15.383   2.480   9.062  1.00  0.00     0.064 A 
ATOM     62  C   UNL     1      16.268   2.864   8.042  1.00  0.00     0.173 A 
ATOM     63  C   UNL     1      15.777   1.433   9.909  1.00  0.00     0.173 A 
ATOM     64  F   UNL     1      15.934   3.850   7.195  1.00  0.00    -0.203 F 
ATOM     65  C   UNL     1      17.480   2.205   7.857  1.00  0.00     0.198 A 
ATOM     66  C   UNL     1      17.004   0.796   9.740  1.00  0.00     0.198 A 
ATOM     67  F   UNL     1      14.972   1.027  10.903  1.00  0.00    -0.203 F 
ATOM     68  F   UNL     1      18.282   2.553   6.840  1.00  0.00    -0.200 F 
ATOM     69  C   UNL     1      17.850   1.176   8.709  1.00  0.00     0.200 A 
ATOM     70  F   UNL     1      17.366  -0.191  10.572  1.00  0.00    -0.200 F 
ATOM     71  F   UNL     1      19.019   0.544   8.532  1.00  0.00    -0.200 F 
ENDBRANCH  47  61
BRANCH  48  72
ATOM     72  C   UNL     1       6.356   6.633  10.131  1.00  0.00     0.064 A 
ATOM     73  C   UNL     1       6.175   8.018  10.007  1.00  0.00     0.173 A 
ATOM     74  C   UNL     1       5.230   5.851  10.422  1.00  0.00     0.173 A 
ATOM     75  F   UNL     1       7.226   8.809   9.746  1.00  0.00    -0.203 F 
ATOM     76  C   UNL     1       4.923   8.600  10.189  1.00  0.00     0.198 A 
ATOM     77  C   UNL     1       3.973   6.431  10.579  1.00  0.00     0.198 A 
ATOM     78  F   UNL     1       5.349   4.521  10.543  1.00  0.00    -0.203 F 
ATOM     79  F   UNL     1       4.787   9.931  10.108  1.00  0.00    -0.200 F 
ATOM     80  C   UNL     1       3.822   7.806  10.470  1.00  0.00     0.200 A 
ATOM     81  F   UNL     1       2.908   5.660  10.835  1.00  0.00    -0.200 F 
ATOM     82  F   UNL     1       2.616   8.366  10.642  1.00  0.00    -0.200 F 
ENDBRANCH  48  72
BRANCH  60  83
ATOM     83  C   UNL     1      12.271   6.955  13.790  1.00  0.00     0.064 A 
ATOM     84  C   UNL     1      11.774   6.603  15.053  1.00  0.00     0.173 A 
ATOM     85  C   UNL     1      13.161   8.036  13.709  1.00  0.00     0.173 A 
ATOM     86  F   UNL     1      10.909   5.586  15.179  1.00  0.00    -0.203 F 
ATOM     87  C   UNL     1      12.129   7.329  16.187  1.00  0.00     0.198 A 
ATOM     88  C   UNL     1      13.537   8.741  14.848  1.00  0.00     0.198 A 
ATOM     89  F   UNL     1      13.670   8.407  12.524  1.00  0.00    -0.203 F 
ATOM     90  F   UNL     1      11.600   7.010  17.376  1.00  0.00    -0.200 F 
ATOM     91  C   UNL     1      13.013   8.393  16.085  1.00  0.00     0.200 A 
ATOM     92  F   UNL     1      14.400   9.761  14.750  1.00  0.00    -0.200 F 
ATOM     93  F   UNL     1      13.353   9.090  17.177  1.00  0.00    -0.200 F 
ENDBRANCH  60  83
ENDBRANCH  34  35
ENDBRANCH  26  29
ENDBRANCH  24  25
ENDBRANCH  23  24
ENDBRANCH   1  23
TORSDOF 14
