REMARK SMILES CC(=O)O[C@@H]1CC[C@@]23C(=O)O[C@]4(CC[C@]2(O)C1)[C@H]3CC[C@]1(C)[C@H](C(=O)NCCCNC(=O)c2ccc(-c3c5nc(c(-c6c(F)c(F)c(F)c(F)c6F)c6ccc([nH]6)c(-c6c(F)c(F)c(F)c(F)c6F)c6nc(c(-c7c(F)c(F)c(F)c(F)c7F)c7ccc3[nH]7)C=C6)C=C5)cc2)CC[C@@H]14
REMARK SMILES IDX 28 1 27 2 26 3 24 4 25 5 23 7 5 8 6 9 17 10 7 11 15 12 8 13
REMARK SMILES IDX 14 14 9 15 18 16 13 17 10 18 11 19 12 20 19 21 98 22 20 23
REMARK SMILES IDX 21 24 97 25 22 26 96 27 4 28 2 29 1 30 3 31 16 32 29 34
REMARK SMILES IDX 30 35 31 36 32 38 33 39 34 40 95 41 35 42 94 43 36 44 37 45
REMARK SMILES IDX 38 46 88 47 39 48 93 49 87 50 89 51 40 52 92 53 86 54 85 55
REMARK SMILES IDX 41 57 73 58 53 59 72 60 54 61 57 62 71 63 90 64 55 65 56 66
REMARK SMILES IDX 70 68 91 69 58 70 42 71 43 72 51 73 44 74 45 75 49 76 52 77
REMARK SMILES IDX 46 78 47 79 50 80 48 81 74 82 75 83 83 84 76 85 77 86 81 87
REMARK SMILES IDX 84 88 78 89 79 90 82 91 80 92 59 93 60 94 68 95 61 96 62 97
REMARK SMILES IDX 66 98 69 99 63 100 64 101 67 102 65 103
REMARK H PARENT 26 6 16 33 30 37 89 56 57 67
REMARK Flexibility Score: inf
ROOT
ATOM      1  C   UNL     1       1.420   9.527   4.954  1.00  0.00     0.042 C 
ENDROOT
BRANCH   1   2
ATOM      2  C   UNL     1       0.852   9.325   3.544  1.00  0.00     0.117 C 
BRANCH   2   3
ATOM      3  N   UNL     1       1.537  10.187   2.594  1.00  0.00    -0.356 N 
ATOM      4  C   UNL     1       2.581  10.029   1.749  1.00  0.00     0.223 C 
ATOM      5  O   UNL     1       3.024  11.087   1.276  1.00  0.00    -0.275 OA
ATOM      6  H   UNL     1       1.153  11.093   2.558  1.00  0.00     0.163 HD
BRANCH   4   7
ATOM      7  C   UNL     1       3.207   8.708   1.282  1.00  0.00     0.085 C 
ATOM      8  C   UNL     1       0.743   1.504   3.534  1.00  0.00     0.179 C 
ATOM      9  C   UNL     1       0.143   2.850   3.182  1.00  0.00     0.047 C 
ATOM     10  C   UNL     1       1.829   1.753   4.603  1.00  0.00     0.081 C 
ATOM     11  C   UNL     1       1.264   3.730   2.668  1.00  0.00     0.026 C 
ATOM     12  C   UNL     1       2.835   2.922   4.361  1.00  0.00     0.085 C 
ATOM     13  C   UNL     1       2.299   4.249   3.958  1.00  0.00     0.103 C 
ATOM     14  C   UNL     1       3.828   2.647   3.131  1.00  0.00     0.041 C 
ATOM     15  C   UNL     1       1.617   5.507   3.916  1.00  0.00     0.316 C 
ATOM     16  C   UNL     1       3.776   5.188   3.841  1.00  0.00     0.054 C 
ATOM     17  C   UNL     1       3.963   3.866   2.005  1.00  0.00     0.052 C 
ATOM     18  O   UNL     1       0.699   6.000   4.559  1.00  0.00    -0.251 OA
ATOM     19  O   UNL     1       2.148   5.937   2.685  1.00  0.00    -0.458 OA
ATOM     20  C   UNL     1       3.512   5.368   2.425  1.00  0.00     0.120 C 
ATOM     21  C   UNL     1       4.100   6.543   4.520  1.00  0.00     0.009 C 
ATOM     22  C   UNL     1       4.127   6.416   1.518  1.00  0.00     0.040 C 
ATOM     23  C   UNL     1       3.891   7.818   3.670  1.00  0.00     0.008 C 
ATOM     24  C   UNL     1       4.197   7.838   2.155  1.00  0.00    -0.014 C 
ATOM     25  C   UNL     1       3.186   6.562   0.285  1.00  0.00     0.009 C 
ATOM     26  C   UNL     1       5.614   8.409   1.934  1.00  0.00     0.012 C 
ATOM     27  C   UNL     1       2.259   7.741   0.592  1.00  0.00     0.014 C 
BRANCH   8  28
ATOM     28  O   UNL     1       1.347   0.845   2.390  1.00  0.00    -0.462 OA
BRANCH  28  29
ATOM     29  C   UNL     1       0.550   0.513   1.333  1.00  0.00     0.302 C 
ATOM     30  C   UNL     1       1.336  -0.203   0.272  1.00  0.00     0.139 C 
ATOM     31  O   UNL     1      -0.650   0.725   1.248  1.00  0.00    -0.253 OA
ENDBRANCH  28  29
ENDBRANCH   8  28
BRANCH  12  32
ATOM     32  O   UNL     1       3.565   3.089   5.581  1.00  0.00    -0.389 OA
ATOM     33  H   UNL     1       4.207   3.809   5.478  1.00  0.00     0.211 HD
ENDBRANCH  12  32
ENDBRANCH   4   7
ENDBRANCH   2   3
ENDBRANCH   1   2
BRANCH   1  34
ATOM     34  C   UNL     1       1.003  10.825   5.617  1.00  0.00     0.118 C 
BRANCH  34  35
ATOM     35  N   UNL     1      -0.333  10.750   6.174  1.00  0.00    -0.352 N 
ATOM     36  C   UNL     1      -0.741  10.773   7.484  1.00  0.00     0.251 C 
ATOM     37  H   UNL     1      -1.058  10.671   5.512  1.00  0.00     0.163 HD
ATOM     38  O   UNL     1      -1.899  10.475   7.761  1.00  0.00    -0.269 OA
BRANCH  36  39
ATOM     39  C   UNL     1       0.199  11.140   8.572  1.00  0.00     0.039 A 
ATOM     40  C   UNL     1       0.082  10.490   9.804  1.00  0.00     0.014 A 
ATOM     41  C   UNL     1       1.153  12.149   8.414  1.00  0.00     0.014 A 
ATOM     42  C   UNL     1       0.935  10.829  10.857  1.00  0.00     0.010 A 
ATOM     43  C   UNL     1       2.076  12.406   9.424  1.00  0.00     0.010 A 
ATOM     44  C   UNL     1       1.955  11.776  10.670  1.00  0.00    -0.014 A 
BRANCH  44  45
ATOM     45  C   UNL     1       2.862  12.159  11.783  1.00  0.00     0.031 A 
ATOM     46  C   UNL     1       2.881  13.579  12.285  1.00  0.00     0.074 A 
ATOM     47  C   UNL     1       3.693  11.243  12.318  1.00  0.00     0.049 A 
ATOM     48  N   UNL     1       3.622  14.120  13.220  1.00  0.00    -0.248 NA
ATOM     49  C   UNL     1       1.965  14.527  11.630  1.00  0.00     0.031 C 
ATOM     50  C   UNL     1       3.805   9.849  11.886  1.00  0.00     0.029 A 
ATOM     51  N   UNL     1       4.603  11.348  13.340  1.00  0.00    -0.354 N 
ATOM     52  C   UNL     1       3.275  15.465  13.247  1.00  0.00     0.074 A 
ATOM     53  C   UNL     1       2.307  15.675  12.195  1.00  0.00     0.031 C 
ATOM     54  C   UNL     1       4.706   9.221  12.658  1.00  0.00     0.029 A 
ATOM     55  C   UNL     1       5.263  10.175  13.612  1.00  0.00     0.049 A 
ATOM     56  H   UNL     1       4.766  12.185  13.832  1.00  0.00     0.167 HD
ATOM     57  C   UNL     1       3.701  16.434  14.093  1.00  0.00     0.037 A 
ATOM     58  C   UNL     1       6.214   9.902  14.526  1.00  0.00     0.037 A 
ATOM     59  C   UNL     1       4.642  16.213  15.159  1.00  0.00     0.049 A 
ATOM     60  C   UNL     1       6.668  10.994  15.457  1.00  0.00     0.074 A 
ATOM     61  C   UNL     1       5.095  17.111  16.110  1.00  0.00     0.029 A 
ATOM     62  N   UNL     1       5.277  15.006  15.414  1.00  0.00    -0.354 N 
ATOM     63  N   UNL     1       6.280  12.245  15.520  1.00  0.00    -0.248 NA
ATOM     64  C   UNL     1       7.686  10.632  16.453  1.00  0.00     0.031 C 
ATOM     65  C   UNL     1       6.045  16.462  16.905  1.00  0.00     0.029 A 
ATOM     66  C   UNL     1       6.136  15.142  16.493  1.00  0.00     0.049 A 
ATOM     67  H   UNL     1       5.137  14.176  14.904  1.00  0.00     0.167 HD
ATOM     68  C   UNL     1       6.979  12.810  16.578  1.00  0.00     0.074 A 
ATOM     69  C   UNL     1       7.803  11.759  17.140  1.00  0.00     0.031 C 
ATOM     70  C   UNL     1       6.942  14.083  17.044  1.00  0.00     0.037 A 
BRANCH  57  71
ATOM     71  C   UNL     1       3.152  17.820  13.899  1.00  0.00     0.064 A 
ATOM     72  C   UNL     1       1.805  18.124  14.152  1.00  0.00     0.173 A 
ATOM     73  C   UNL     1       3.991  18.866  13.487  1.00  0.00     0.173 A 
ATOM     74  F   UNL     1       0.956  17.159  14.538  1.00  0.00    -0.203 F 
ATOM     75  C   UNL     1       1.312  19.413  13.966  1.00  0.00     0.198 A 
ATOM     76  C   UNL     1       3.503  20.162  13.337  1.00  0.00     0.198 A 
ATOM     77  F   UNL     1       5.289  18.636  13.237  1.00  0.00    -0.203 F 
ATOM     78  F   UNL     1       0.010  19.665  14.160  1.00  0.00    -0.200 F 
ATOM     79  C   UNL     1       2.163  20.432  13.567  1.00  0.00     0.200 A 
ATOM     80  F   UNL     1       4.330  21.149  12.966  1.00  0.00    -0.200 F 
ATOM     81  F   UNL     1       1.689  21.674  13.398  1.00  0.00    -0.200 F 
ENDBRANCH  57  71
BRANCH  58  82
ATOM     82  C   UNL     1       6.778   8.529  14.625  1.00  0.00     0.064 A 
ATOM     83  C   UNL     1       6.526   7.723  15.744  1.00  0.00     0.173 A 
ATOM     84  C   UNL     1       7.584   7.997  13.608  1.00  0.00     0.173 A 
ATOM     85  F   UNL     1       5.777   8.193  16.753  1.00  0.00    -0.203 F 
ATOM     86  C   UNL     1       7.078   6.449  15.854  1.00  0.00     0.198 A 
ATOM     87  C   UNL     1       8.110   6.710  13.704  1.00  0.00     0.198 A 
ATOM     88  F   UNL     1       7.852   8.723  12.513  1.00  0.00    -0.203 F 
ATOM     89  F   UNL     1       6.864   5.721  16.959  1.00  0.00    -0.200 F 
ATOM     90  C   UNL     1       7.865   5.941  14.831  1.00  0.00     0.200 A 
ATOM     91  F   UNL     1       8.855   6.216  12.706  1.00  0.00    -0.200 F 
ATOM     92  F   UNL     1       8.393   4.713  14.935  1.00  0.00    -0.200 F 
ENDBRANCH  58  82
BRANCH  70  93
ATOM     93  C   UNL     1       7.784  14.400  18.247  1.00  0.00     0.064 A 
ATOM     94  C   UNL     1       9.184  14.443  18.182  1.00  0.00     0.173 A 
ATOM     95  C   UNL     1       7.175  14.695  19.477  1.00  0.00     0.173 A 
ATOM     96  F   UNL     1       9.816  14.156  17.034  1.00  0.00    -0.203 F 
ATOM     97  C   UNL     1       9.945  14.735  19.312  1.00  0.00     0.198 A 
ATOM     98  C   UNL     1       7.937  15.022  20.595  1.00  0.00     0.198 A 
ATOM     99  F   UNL     1       5.838  14.678  19.593  1.00  0.00    -0.203 F 
ATOM    100  F   UNL     1      11.283  14.711  19.240  1.00  0.00    -0.200 F 
ATOM    101  C   UNL     1       9.321  15.031  20.514  1.00  0.00     0.200 A 
ATOM    102  F   UNL     1       7.331  15.326  21.751  1.00  0.00    -0.200 F 
ATOM    103  F   UNL     1      10.054  15.318  21.599  1.00  0.00    -0.200 F 
ENDBRANCH  70  93
ENDBRANCH  44  45
ENDBRANCH  36  39
ENDBRANCH  34  35
ENDBRANCH   1  34
TORSDOF 13
