REMARK SMILES O=C(COc1nc(Nc2ccc(Cl)cc2Cl)nc2c1C[N@H+](Cc1ccccc1)CC2)NCCCNC(=O)c1ccc(-c2c3nc(c(-c4c(F)c(F)c(F)c(F)c4F)c4ccc([nH]4)c(-c4c(F)c(F)c(F)c(F)c4F)c4nc(c(-c5c(F)c(F)c(F)c(F)c5F)c5ccc2[nH]5)C=C4)C=C3)cc1
REMARK SMILES IDX 32 1 31 2 1 3 2 4 3 6 4 7 5 8 6 9 19 10 7 11 18 12 20 13
REMARK SMILES IDX 17 14 30 15 21 16 29 17 8 19 9 21 10 22 15 23 11 24 14 25
REMARK SMILES IDX 16 26 12 27 13 28 22 29 23 30 24 31 28 32 25 33 27 34 26 35
REMARK SMILES IDX 33 36 34 37 35 38 36 39 37 41 38 42 39 43 100 44 40 45 99 46
REMARK SMILES IDX 41 47 42 48 43 49 93 50 44 51 98 52 92 53 94 54 45 55 97 56
REMARK SMILES IDX 91 57 90 58 46 60 78 61 58 62 77 63 59 64 62 65 76 66 95 67
REMARK SMILES IDX 60 68 61 69 75 71 96 72 63 73 47 74 48 75 56 76 49 77 50 78
REMARK SMILES IDX 54 79 57 80 51 81 52 82 55 83 53 84 79 85 80 86 88 87 81 88
REMARK SMILES IDX 82 89 86 90 89 91 83 92 84 93 87 94 85 95 64 96 65 97 73 98
REMARK SMILES IDX 66 99 67 100 71 101 74 102 68 103 69 104 72 105 70 106
REMARK H PARENT 31 5 21 18 8 20 35 40 94 59 62 70
REMARK Flexibility Score: inf
ROOT
ATOM      1  C   UNL     1       2.128   1.990   1.440  1.00  0.00     0.117 C 
ENDROOT
BRANCH   1   2
ATOM      2  N   UNL     1       2.696   1.032   0.525  1.00  0.00    -0.353 N 
ATOM      3  O   UNL     1       0.966  -0.476   0.636  1.00  0.00    -0.271 OA
ATOM      4  C   UNL     1       2.013  -0.093   0.121  1.00  0.00     0.258 C 
ATOM      5  H   UNL     1       3.604   1.188   0.177  1.00  0.00     0.163 HD
BRANCH   4   6
ATOM      6  C   UNL     1       2.719  -0.889  -0.980  1.00  0.00     0.331 C 
BRANCH   6   7
ATOM      7  O   UNL     1       3.666  -0.166  -1.765  1.00  0.00    -0.467 OA
BRANCH   7   8
ATOM      8  C   UNL     1       3.034   0.479  -2.807  1.00  0.00     0.228 A 
ATOM      9  N   UNL     1       2.109   1.390  -2.485  1.00  0.00    -0.177 NA
ATOM     10  C   UNL     1       3.462   0.228  -4.088  1.00  0.00     0.090 A 
ATOM     11  C   UNL     1       1.550   2.065  -3.499  1.00  0.00     0.230 A 
ATOM     12  C   UNL     1       2.833   0.965  -5.067  1.00  0.00     0.064 A 
ATOM     13  C   UNL     1       4.609  -0.683  -4.381  1.00  0.00     0.307 C 
ATOM     14  N   UNL     1       1.859   1.862  -4.790  1.00  0.00    -0.217 NA
ATOM     15  C   UNL     1       3.200   0.748  -6.512  1.00  0.00     0.118 C 
ATOM     16  N   UNL     1       4.718  -1.063  -5.794  1.00  0.00    -0.327 N 
ATOM     17  C   UNL     1       4.590   0.110  -6.668  1.00  0.00     0.269 C 
ATOM     18  H   UNL     1       3.930  -1.672  -6.018  1.00  0.00     0.348 HD
BRANCH  11  19
ATOM     19  N   UNL     1       0.560   3.005  -3.237  1.00  0.00    -0.323 N 
ATOM     20  H   UNL     1       0.103   3.381  -4.024  1.00  0.00     0.170 HD
BRANCH  19  21
ATOM     21  C   UNL     1       0.134   3.482  -1.994  1.00  0.00     0.060 A 
ATOM     22  C   UNL     1      -1.168   3.176  -1.572  1.00  0.00     0.029 A 
ATOM     23  C   UNL     1       0.948   4.251  -1.139  1.00  0.00     0.066 A 
ATOM     24  C   UNL     1      -1.624   3.567  -0.309  1.00  0.00     0.023 A 
ATOM     25  C   UNL     1       0.481   4.671   0.112  1.00  0.00     0.043 A 
ATOM     26  Cl  UNL     1       2.548   4.733  -1.592  1.00  0.00    -0.082 Cl
ATOM     27  C   UNL     1      -0.793   4.303   0.529  1.00  0.00     0.042 A 
ATOM     28  Cl  UNL     1      -1.333   4.738   2.104  1.00  0.00    -0.084 Cl
ENDBRANCH  19  21
ENDBRANCH  11  19
BRANCH  16  29
ATOM     29  C   UNL     1       5.915  -1.881  -6.065  1.00  0.00     0.299 C 
BRANCH  29  30
ATOM     30  C   UNL     1       7.258  -1.190  -5.934  1.00  0.00     0.006 A 
ATOM     31  C   UNL     1       7.921  -0.709  -7.073  1.00  0.00     0.009 A 
ATOM     32  C   UNL     1       7.861  -1.003  -4.680  1.00  0.00     0.009 A 
ATOM     33  C   UNL     1       9.134  -0.028  -6.955  1.00  0.00     0.001 A 
ATOM     34  C   UNL     1       9.060  -0.299  -4.560  1.00  0.00     0.001 A 
ATOM     35  C   UNL     1       9.695   0.191  -5.698  1.00  0.00     0.000 A 
ENDBRANCH  29  30
ENDBRANCH  16  29
ENDBRANCH   7   8
ENDBRANCH   6   7
ENDBRANCH   4   6
ENDBRANCH   1   2
BRANCH   1  36
ATOM     36  C   UNL     1       2.539   1.776   2.886  1.00  0.00     0.042 C 
BRANCH  36  37
ATOM     37  C   UNL     1       4.040   1.904   3.119  1.00  0.00     0.118 C 
BRANCH  37  38
ATOM     38  N   UNL     1       4.564   3.233   2.822  1.00  0.00    -0.352 N 
ATOM     39  C   UNL     1       5.124   4.182   3.642  1.00  0.00     0.251 C 
ATOM     40  H   UNL     1       4.506   3.494   1.875  1.00  0.00     0.163 HD
ATOM     41  O   UNL     1       5.374   5.301   3.201  1.00  0.00    -0.269 OA
BRANCH  39  42
ATOM     42  C   UNL     1       5.400   3.881   5.063  1.00  0.00     0.039 A 
ATOM     43  C   UNL     1       5.078   4.840   6.028  1.00  0.00     0.014 A 
ATOM     44  C   UNL     1       5.979   2.671   5.449  1.00  0.00     0.014 A 
ATOM     45  C   UNL     1       5.251   4.547   7.382  1.00  0.00     0.010 A 
ATOM     46  C   UNL     1       6.072   2.346   6.799  1.00  0.00     0.010 A 
ATOM     47  C   UNL     1       5.705   3.279   7.780  1.00  0.00    -0.014 A 
BRANCH  47  48
ATOM     48  C   UNL     1       5.788   2.910   9.215  1.00  0.00     0.031 A 
ATOM     49  C   UNL     1       7.117   2.604   9.845  1.00  0.00     0.074 A 
ATOM     50  C   UNL     1       4.657   2.800   9.939  1.00  0.00     0.049 A 
ATOM     51  N   UNL     1       7.383   2.226  11.069  1.00  0.00    -0.248 NA
ATOM     52  C   UNL     1       8.302   2.711   8.979  1.00  0.00     0.031 C 
ATOM     53  C   UNL     1       3.303   3.022   9.428  1.00  0.00     0.029 A 
ATOM     54  N   UNL     1       4.464   2.474  11.258  1.00  0.00    -0.354 N 
ATOM     55  C   UNL     1       8.759   2.046  11.118  1.00  0.00     0.074 A 
ATOM     56  C   UNL     1       9.267   2.297   9.787  1.00  0.00     0.031 C 
ATOM     57  C   UNL     1       2.424   2.865  10.431  1.00  0.00     0.029 A 
ATOM     58  C   UNL     1       3.146   2.497  11.645  1.00  0.00     0.049 A 
ATOM     59  H   UNL     1       5.201   2.244  11.870  1.00  0.00     0.167 HD
ATOM     60  C   UNL     1       9.531   1.730  12.184  1.00  0.00     0.037 A 
ATOM     61  C   UNL     1       2.584   2.254  12.844  1.00  0.00     0.037 A 
ATOM     62  C   UNL     1       9.028   1.512  13.513  1.00  0.00     0.049 A 
ATOM     63  C   UNL     1       3.463   1.893  14.009  1.00  0.00     0.074 A 
ATOM     64  C   UNL     1       9.738   1.246  14.670  1.00  0.00     0.029 A 
ATOM     65  N   UNL     1       7.686   1.540  13.863  1.00  0.00    -0.354 N 
ATOM     66  N   UNL     1       4.768   1.786  14.056  1.00  0.00    -0.248 NA
ATOM     67  C   UNL     1       2.792   1.620  15.289  1.00  0.00     0.031 C 
ATOM     68  C   UNL     1       8.824   1.076  15.714  1.00  0.00     0.029 A 
ATOM     69  C   UNL     1       7.547   1.276  15.215  1.00  0.00     0.049 A 
ATOM     70  H   UNL     1       6.943   1.720  13.242  1.00  0.00     0.167 HD
ATOM     71  C   UNL     1       5.077   1.453  15.367  1.00  0.00     0.074 A 
ATOM     72  C   UNL     1       3.824   1.388  16.090  1.00  0.00     0.031 C 
ATOM     73  C   UNL     1       6.292   1.221  15.920  1.00  0.00     0.037 A 
BRANCH  60  74
ATOM     74  C   UNL     1      11.011   1.627  11.964  1.00  0.00     0.064 A 
ATOM     75  C   UNL     1      11.795   2.769  11.741  1.00  0.00     0.173 A 
ATOM     76  C   UNL     1      11.660   0.386  12.032  1.00  0.00     0.173 A 
ATOM     77  F   UNL     1      11.218   3.978  11.657  1.00  0.00    -0.203 F 
ATOM     78  C   UNL     1      13.173   2.670  11.575  1.00  0.00     0.198 A 
ATOM     79  C   UNL     1      13.042   0.294  11.891  1.00  0.00     0.198 A 
ATOM     80  F   UNL     1      10.956  -0.735  12.249  1.00  0.00    -0.203 F 
ATOM     81  F   UNL     1      13.897   3.770  11.325  1.00  0.00    -0.200 F 
ATOM     82  C   UNL     1      13.796   1.434  11.658  1.00  0.00     0.200 A 
ATOM     83  F   UNL     1      13.646  -0.899  11.983  1.00  0.00    -0.200 F 
ATOM     84  F   UNL     1      15.125   1.342  11.509  1.00  0.00    -0.200 F 
ENDBRANCH  60  74
BRANCH  61  85
ATOM     85  C   UNL     1       1.115   2.393  13.010  1.00  0.00     0.064 A 
ATOM     86  C   UNL     1       0.577   3.471  13.725  1.00  0.00     0.173 A 
ATOM     87  C   UNL     1       0.222   1.472  12.444  1.00  0.00     0.173 A 
ATOM     88  F   UNL     1       1.394   4.365  14.302  1.00  0.00    -0.203 F 
ATOM     89  C   UNL     1      -0.800   3.620  13.875  1.00  0.00     0.198 A 
ATOM     90  C   UNL     1      -1.156   1.635  12.575  1.00  0.00     0.198 A 
ATOM     91  F   UNL     1       0.687   0.425  11.748  1.00  0.00    -0.203 F 
ATOM     92  F   UNL     1      -1.287   4.644  14.589  1.00  0.00    -0.200 F 
ATOM     93  C   UNL     1      -1.666   2.706  13.294  1.00  0.00     0.200 A 
ATOM     94  F   UNL     1      -1.990   0.756  12.003  1.00  0.00    -0.200 F 
ATOM     95  F   UNL     1      -2.990   2.855  13.431  1.00  0.00    -0.200 F 
ENDBRANCH  61  85
BRANCH  73  96
ATOM     96  C   UNL     1       6.340   0.886  17.380  1.00  0.00     0.064 A 
ATOM     97  C   UNL     1       5.969  -0.382  17.849  1.00  0.00     0.173 A 
ATOM     98  C   UNL     1       6.847   1.810  18.306  1.00  0.00     0.173 A 
ATOM     99  F   UNL     1       5.467  -1.294  17.002  1.00  0.00    -0.203 F 
ATOM    100  C   UNL     1       6.103  -0.712  19.194  1.00  0.00     0.198 A 
ATOM    101  C   UNL     1       7.001   1.469  19.646  1.00  0.00     0.198 A 
ATOM    102  F   UNL     1       7.221   3.034  17.903  1.00  0.00    -0.203 F 
ATOM    103  F   UNL     1       5.724  -1.923  19.625  1.00  0.00    -0.200 F 
ATOM    104  C   UNL     1       6.628   0.208  20.089  1.00  0.00     0.200 A 
ATOM    105  F   UNL     1       7.522   2.354  20.507  1.00  0.00    -0.200 F 
ATOM    106  F   UNL     1       6.775  -0.119  21.380  1.00  0.00    -0.200 F 
ENDBRANCH  73  96
ENDBRANCH  47  48
ENDBRANCH  39  42
ENDBRANCH  37  38
ENDBRANCH  36  37
ENDBRANCH   1  36
TORSDOF 16
