REMARK SMILES Cc1ccc(NC(=O)N[C@@H]2C=C[C@@H](C(=O)NCCCNC(=O)c3ccc(-c4c5nc(c(-c6c(F)c(F)c(F)c(F)c6F)c6ccc([nH]6)c(-c6c(F)c(F)c(F)c(F)c6F)c6nc(c(-c7c(F)c(F)c(F)c(F)c7F)c7ccc4[nH]7)C=C6)C=C5)cc3)C2)c(F)c1
REMARK SMILES IDX 18 1 17 2 16 3 14 4 15 5 13 7 10 8 11 9 86 10 12 11 9 12
REMARK SMILES IDX 6 13 7 14 8 16 5 18 1 19 2 20 3 21 89 22 4 23 87 24 88 25
REMARK SMILES IDX 19 26 20 27 21 28 22 30 23 31 24 32 85 33 25 34 84 35 26 36
REMARK SMILES IDX 27 37 28 38 78 39 29 40 83 41 77 42 79 43 30 44 82 45 76 46
REMARK SMILES IDX 75 47 31 49 63 50 43 51 62 52 44 53 47 54 61 55 80 56 45 57
REMARK SMILES IDX 46 58 60 60 81 61 48 62 32 63 33 64 41 65 34 66 35 67 39 68
REMARK SMILES IDX 42 69 36 70 37 71 40 72 38 73 64 74 65 75 73 76 66 77 67 78
REMARK SMILES IDX 71 79 74 80 68 81 69 82 72 83 70 84 49 85 50 86 58 87 51 88
REMARK SMILES IDX 52 89 56 90 59 91 53 92 54 93 57 94 55 95
REMARK H PARENT 16 6 6 15 9 17 20 29 79 48 47 59
REMARK Flexibility Score: inf
ROOT
ATOM      1  C   UNL     1      -3.736  -0.355   3.367  1.00  0.00     0.042 C 
ENDROOT
BRANCH   1   2
ATOM      2  C   UNL     1      -2.716   0.711   3.056  1.00  0.00     0.117 C 
BRANCH   2   3
ATOM      3  N   UNL     1      -1.430   0.471   3.668  1.00  0.00    -0.356 N 
ATOM      4  C   UNL     1      -0.190   0.349   3.111  1.00  0.00     0.227 C 
ATOM      5  O   UNL     1       0.749   0.220   3.906  1.00  0.00    -0.274 OA
ATOM      6  H   UNL     1      -1.452   0.380   4.648  1.00  0.00     0.163 HD
BRANCH   4   7
ATOM      7  C   UNL     1       0.094   0.571   1.613  1.00  0.00     0.103 C 
ATOM      8  C   UNL     1      -1.738   1.163  -0.010  1.00  0.00     0.107 C 
ATOM      9  C   UNL     1      -1.128   2.294   0.726  1.00  0.00    -0.006 C 
ATOM     10  C   UNL     1      -0.834  -0.007   0.510  1.00  0.00     0.047 C 
ATOM     11  C   UNL     1      -0.079   2.034   1.490  1.00  0.00    -0.016 C 
BRANCH   8  12
ATOM     12  N   UNL     1      -1.724   1.423  -1.428  1.00  0.00    -0.332 N 
ATOM     13  N   UNL     1      -2.468   3.689  -1.774  1.00  0.00    -0.305 N 
ATOM     14  C   UNL     1      -2.110   2.456  -2.208  1.00  0.00     0.319 C 
ATOM     15  H   UNL     1      -2.312   4.384  -2.453  1.00  0.00     0.171 HD
ATOM     16  O   UNL     1      -1.942   2.308  -3.424  1.00  0.00    -0.248 OA
ATOM     17  H   UNL     1      -1.345   0.677  -1.947  1.00  0.00     0.165 HD
BRANCH  13  18
ATOM     18  C   UNL     1      -3.011   4.215  -0.583  1.00  0.00     0.078 A 
ATOM     19  C   UNL     1      -3.263   4.976   3.626  1.00  0.00     0.044 C 
ATOM     20  C   UNL     1      -3.382   4.904   2.127  1.00  0.00    -0.048 A 
ATOM     21  C   UNL     1      -2.508   5.647   1.321  1.00  0.00     0.006 A 
ATOM     22  C   UNL     1      -4.207   3.947   1.518  1.00  0.00     0.045 A 
ATOM     23  C   UNL     1      -2.360   5.340  -0.042  1.00  0.00     0.029 A 
ATOM     24  C   UNL     1      -4.004   3.591   0.178  1.00  0.00     0.147 A 
ATOM     25  F   UNL     1      -4.702   2.562  -0.322  1.00  0.00    -0.205 F 
ENDBRANCH  13  18
ENDBRANCH   8  12
ENDBRANCH   4   7
ENDBRANCH   2   3
ENDBRANCH   1   2
BRANCH   1  26
ATOM     26  C   UNL     1      -4.391  -0.024   4.668  1.00  0.00     0.118 C 
BRANCH  26  27
ATOM     27  N   UNL     1      -5.329   1.107   4.565  1.00  0.00    -0.352 N 
ATOM     28  C   UNL     1      -6.463   1.314   5.346  1.00  0.00     0.251 C 
ATOM     29  H   UNL     1      -5.136   1.782   3.876  1.00  0.00     0.163 HD
ATOM     30  O   UNL     1      -7.305   2.133   5.085  1.00  0.00    -0.269 OA
BRANCH  28  31
ATOM     31  C   UNL     1      -6.513   0.495   6.569  1.00  0.00     0.039 A 
ATOM     32  C   UNL     1      -7.604  -0.288   6.953  1.00  0.00     0.014 A 
ATOM     33  C   UNL     1      -5.287   0.400   7.202  1.00  0.00     0.014 A 
ATOM     34  C   UNL     1      -7.411  -1.201   7.989  1.00  0.00     0.010 A 
ATOM     35  C   UNL     1      -5.020  -0.759   7.842  1.00  0.00     0.010 A 
ATOM     36  C   UNL     1      -6.101  -1.416   8.419  1.00  0.00    -0.014 A 
BRANCH  36  37
ATOM     37  C   UNL     1      -5.666  -2.130   9.604  1.00  0.00     0.031 A 
ATOM     38  C   UNL     1      -5.742  -3.582   9.661  1.00  0.00     0.074 A 
ATOM     39  C   UNL     1      -4.957  -1.348  10.455  1.00  0.00     0.049 A 
ATOM     40  N   UNL     1      -5.763  -4.258  10.750  1.00  0.00    -0.248 NA
ATOM     41  C   UNL     1      -5.808  -4.406   8.459  1.00  0.00     0.031 C 
ATOM     42  C   UNL     1      -4.035  -1.645  11.534  1.00  0.00     0.029 A 
ATOM     43  N   UNL     1      -5.018   0.062  10.474  1.00  0.00    -0.354 N 
ATOM     44  C   UNL     1      -5.446  -5.554  10.408  1.00  0.00     0.074 A 
ATOM     45  C   UNL     1      -5.670  -5.630   8.983  1.00  0.00     0.031 C 
ATOM     46  C   UNL     1      -3.930  -0.539  12.307  1.00  0.00     0.029 A 
ATOM     47  C   UNL     1      -4.893   0.441  11.810  1.00  0.00     0.049 A 
ATOM     48  H   UNL     1      -5.126   0.659   9.699  1.00  0.00     0.167 HD
ATOM     49  C   UNL     1      -4.810  -6.325  11.340  1.00  0.00     0.037 A 
ATOM     50  C   UNL     1      -6.052   0.855  12.408  1.00  0.00     0.037 A 
ATOM     51  C   UNL     1      -4.609  -5.547  12.575  1.00  0.00     0.049 A 
ATOM     52  C   UNL     1      -6.543  -0.164  13.412  1.00  0.00     0.074 A 
ATOM     53  C   UNL     1      -3.530  -4.845  13.090  1.00  0.00     0.029 A 
ATOM     54  N   UNL     1      -5.718  -5.081  13.261  1.00  0.00    -0.354 N 
ATOM     55  N   UNL     1      -6.098  -1.388  13.493  1.00  0.00    -0.248 NA
ATOM     56  C   UNL     1      -7.632   0.100  14.344  1.00  0.00     0.031 C 
ATOM     57  C   UNL     1      -4.028  -3.902  14.043  1.00  0.00     0.029 A 
ATOM     58  C   UNL     1      -5.404  -4.038  14.114  1.00  0.00     0.049 A 
ATOM     59  H   UNL     1      -6.625  -5.449  13.154  1.00  0.00     0.167 HD
ATOM     60  C   UNL     1      -6.778  -2.062  14.459  1.00  0.00     0.074 A 
ATOM     61  C   UNL     1      -7.769  -1.103  14.926  1.00  0.00     0.031 C 
ATOM     62  C   UNL     1      -6.483  -3.348  14.813  1.00  0.00     0.037 A 
BRANCH  49  63
ATOM     63  C   UNL     1      -4.086  -7.626  11.050  1.00  0.00     0.064 A 
ATOM     64  C   UNL     1      -3.071  -8.082  11.921  1.00  0.00     0.173 A 
ATOM     65  C   UNL     1      -4.312  -8.460   9.937  1.00  0.00     0.173 A 
ATOM     66  F   UNL     1      -2.816  -7.465  13.082  1.00  0.00    -0.203 F 
ATOM     67  C   UNL     1      -2.282  -9.202  11.643  1.00  0.00     0.198 A 
ATOM     68  C   UNL     1      -3.495  -9.558   9.636  1.00  0.00     0.198 A 
ATOM     69  F   UNL     1      -5.366  -8.291   9.133  1.00  0.00    -0.203 F 
ATOM     70  F   UNL     1      -1.329  -9.572  12.510  1.00  0.00    -0.200 F 
ATOM     71  C   UNL     1      -2.473  -9.923  10.484  1.00  0.00     0.200 A 
ATOM     72  F   UNL     1      -3.719 -10.266   8.519  1.00  0.00    -0.200 F 
ATOM     73  F   UNL     1      -1.700 -10.981  10.205  1.00  0.00    -0.200 F 
ENDBRANCH  49  63
BRANCH  50  74
ATOM     74  C   UNL     1      -6.955   1.606  11.453  1.00  0.00     0.064 A 
ATOM     75  C   UNL     1      -6.424   2.692  10.715  1.00  0.00     0.173 A 
ATOM     76  C   UNL     1      -8.162   1.064  10.986  1.00  0.00     0.173 A 
ATOM     77  F   UNL     1      -5.263   3.255  11.090  1.00  0.00    -0.203 F 
ATOM     78  C   UNL     1      -6.997   3.118   9.515  1.00  0.00     0.198 A 
ATOM     79  C   UNL     1      -8.754   1.520   9.803  1.00  0.00     0.198 A 
ATOM     80  F   UNL     1      -8.734   0.028  11.614  1.00  0.00    -0.203 F 
ATOM     81  F   UNL     1      -6.377   4.045   8.769  1.00  0.00    -0.200 F 
ATOM     82  C   UNL     1      -8.156   2.521   9.053  1.00  0.00     0.200 A 
ATOM     83  F   UNL     1      -9.864   0.923   9.342  1.00  0.00    -0.200 F 
ATOM     84  F   UNL     1      -8.673   2.877   7.869  1.00  0.00    -0.200 F 
ENDBRANCH  50  74
BRANCH  62  85
ATOM     85  C   UNL     1      -7.222  -4.050  15.908  1.00  0.00     0.064 A 
ATOM     86  C   UNL     1      -7.514  -3.417  17.126  1.00  0.00     0.173 A 
ATOM     87  C   UNL     1      -7.585  -5.408  15.808  1.00  0.00     0.173 A 
ATOM     88  F   UNL     1      -7.115  -2.158  17.362  1.00  0.00    -0.203 F 
ATOM     89  C   UNL     1      -8.217  -4.070  18.135  1.00  0.00     0.198 A 
ATOM     90  C   UNL     1      -8.212  -6.081  16.850  1.00  0.00     0.198 A 
ATOM     91  F   UNL     1      -7.374  -6.116  14.690  1.00  0.00    -0.203 F 
ATOM     92  F   UNL     1      -8.565  -3.397  19.240  1.00  0.00    -0.200 F 
ATOM     93  C   UNL     1      -8.556  -5.404  18.001  1.00  0.00     0.200 A 
ATOM     94  F   UNL     1      -8.493  -7.385  16.721  1.00  0.00    -0.200 F 
ATOM     95  F   UNL     1      -9.216  -6.036  18.980  1.00  0.00    -0.200 F 
ENDBRANCH  62  85
ENDBRANCH  36  37
ENDBRANCH  28  31
ENDBRANCH  26  27
ENDBRANCH   1  26
TORSDOF 12
