REMARK SMILES O=C(Cn1c(O)c(/N=N/C(=O)c2ccc(Cl)cc2Cl)c2ccccc21)NCCCNC(=O)c1ccc(-c2c3nc(c(-c4c(F)c(F)c(F)c(F)c4F)c4ccc([nH]4)c(-c4c(F)c(F)c(F)c(F)c4F)c4nc(c(-c5c(F)c(F)c(F)c(F)c5F)c5ccc2[nH]5)C=C4)C=C3)cc1
REMARK SMILES IDX 27 1 26 2 1 3 2 4 3 6 4 7 5 8 25 9 7 10 20 11 24 12 21 13
REMARK SMILES IDX 23 14 22 15 6 16 8 18 9 19 10 20 11 21 12 22 13 23 18 24
REMARK SMILES IDX 14 25 17 26 19 27 15 28 16 29 28 30 29 31 30 32 31 33 32 35
REMARK SMILES IDX 33 36 34 37 95 38 35 39 94 40 36 41 37 42 38 43 88 44 39 45
REMARK SMILES IDX 93 46 87 47 89 48 40 49 92 50 86 51 85 52 41 54 73 55 53 56
REMARK SMILES IDX 72 57 54 58 57 59 71 60 90 61 55 62 56 63 70 65 91 66 58 67
REMARK SMILES IDX 42 68 43 69 51 70 44 71 45 72 49 73 52 74 46 75 47 76 50 77
REMARK SMILES IDX 48 78 74 79 75 80 83 81 76 82 77 83 81 84 84 85 78 86 79 87
REMARK SMILES IDX 82 88 80 89 59 90 60 91 68 92 61 93 62 94 66 95 69 96 63 97
REMARK SMILES IDX 64 98 67 99 65 100
REMARK H PARENT 26 5 6 17 30 34 89 53 57 64
REMARK Flexibility Score: inf
ROOT
ATOM      1  C   UNL     1       2.254   0.516   2.405  1.00  0.00     0.117 C 
ENDROOT
BRANCH   1   2
ATOM      2  N   UNL     1       2.875   0.111   1.158  1.00  0.00    -0.354 N 
ATOM      3  O   UNL     1       0.924  -0.112  -0.040  1.00  0.00    -0.273 OA
ATOM      4  C   UNL     1       2.151  -0.137   0.014  1.00  0.00     0.240 C 
ATOM      5  H   UNL     1       3.854   0.010   1.129  1.00  0.00     0.163 HD
BRANCH   4   6
ATOM      6  C   UNL     1       2.979  -0.368  -1.230  1.00  0.00     0.225 C 
BRANCH   6   7
ATOM      7  N   UNL     1       3.671   0.833  -1.687  1.00  0.00    -0.301 N 
ATOM      8  C   UNL     1       3.211   2.136  -1.608  1.00  0.00     0.221 A 
ATOM      9  C   UNL     1       4.935   0.805  -2.264  1.00  0.00     0.054 A 
ATOM     10  C   UNL     1       4.250   2.948  -2.027  1.00  0.00     0.155 A 
ATOM     11  C   UNL     1       5.322   2.133  -2.470  1.00  0.00     0.031 A 
ATOM     12  C   UNL     1       5.771  -0.269  -2.622  1.00  0.00     0.027 A 
ATOM     13  C   UNL     1       6.586   2.397  -3.040  1.00  0.00     0.013 A 
ATOM     14  C   UNL     1       7.014   0.021  -3.195  1.00  0.00     0.002 A 
ATOM     15  C   UNL     1       7.419   1.334  -3.401  1.00  0.00     0.001 A 
BRANCH   8  16
ATOM     16  O   UNL     1       1.996   2.478  -1.173  1.00  0.00    -0.493 OA
ATOM     17  H   UNL     1       1.386   1.814  -0.919  1.00  0.00     0.295 HD
ENDBRANCH   8  16
BRANCH  10  18
ATOM     18  N   UNL     1       4.302   4.351  -2.094  1.00  0.00    -0.141 NA
ATOM     19  N   UNL     1       3.349   4.913  -1.520  1.00  0.00    -0.106 NA
BRANCH  19  20
ATOM     20  C   UNL     1       3.405   6.285  -1.599  1.00  0.00     0.296 C 
ATOM     21  O   UNL     1       4.368   6.968  -1.946  1.00  0.00    -0.265 OA
BRANCH  20  22
ATOM     22  C   UNL     1       2.158   6.954  -1.143  1.00  0.00     0.062 A 
ATOM     23  C   UNL     1       1.524   6.465   0.015  1.00  0.00     0.017 A 
ATOM     24  C   UNL     1       1.605   8.047  -1.822  1.00  0.00     0.055 A 
ATOM     25  C   UNL     1       0.357   7.069   0.489  1.00  0.00     0.021 A 
ATOM     26  C   UNL     1       0.435   8.648  -1.341  1.00  0.00     0.041 A 
ATOM     27  Cl  UNL     1       2.253   8.671  -3.297  1.00  0.00    -0.083 Cl
ATOM     28  C   UNL     1      -0.179   8.160  -0.190  1.00  0.00     0.042 A 
ATOM     29  Cl  UNL     1      -1.618   8.901   0.391  1.00  0.00    -0.084 Cl
ENDBRANCH  20  22
ENDBRANCH  19  20
ENDBRANCH  10  18
ENDBRANCH   6   7
ENDBRANCH   4   6
ENDBRANCH   1   2
BRANCH   1  30
ATOM     30  C   UNL     1       2.643  -0.382   3.578  1.00  0.00     0.042 C 
BRANCH  30  31
ATOM     31  C   UNL     1       4.149  -0.518   3.797  1.00  0.00     0.118 C 
BRANCH  31  32
ATOM     32  N   UNL     1       4.846   0.742   3.954  1.00  0.00    -0.352 N 
ATOM     33  C   UNL     1       5.220   1.515   5.015  1.00  0.00     0.251 C 
ATOM     34  H   UNL     1       5.114   1.133   3.092  1.00  0.00     0.163 HD
ATOM     35  O   UNL     1       5.992   2.441   4.755  1.00  0.00    -0.269 OA
BRANCH  33  36
ATOM     36  C   UNL     1       4.718   1.379   6.409  1.00  0.00     0.039 A 
ATOM     37  C   UNL     1       3.848   0.395   6.877  1.00  0.00     0.014 A 
ATOM     38  C   UNL     1       5.113   2.404   7.292  1.00  0.00     0.014 A 
ATOM     39  C   UNL     1       3.305   0.492   8.156  1.00  0.00     0.010 A 
ATOM     40  C   UNL     1       4.580   2.503   8.570  1.00  0.00     0.010 A 
ATOM     41  C   UNL     1       3.634   1.573   8.980  1.00  0.00    -0.014 A 
BRANCH  41  42
ATOM     42  C   UNL     1       3.039   1.643  10.313  1.00  0.00     0.031 A 
ATOM     43  C   UNL     1       3.441   0.535  11.222  1.00  0.00     0.074 A 
ATOM     44  C   UNL     1       2.280   2.678  10.732  1.00  0.00     0.049 A 
ATOM     45  N   UNL     1       2.682  -0.353  11.776  1.00  0.00    -0.248 NA
ATOM     46  C   UNL     1       4.877   0.324  11.463  1.00  0.00     0.031 C 
ATOM     47  C   UNL     1       2.041   3.948  10.038  1.00  0.00     0.029 A 
ATOM     48  N   UNL     1       1.621   2.852  11.918  1.00  0.00    -0.354 N 
ATOM     49  C   UNL     1       3.519  -1.131  12.575  1.00  0.00     0.074 A 
ATOM     50  C   UNL     1       4.868  -0.758  12.243  1.00  0.00     0.031 C 
ATOM     51  C   UNL     1       1.482   4.834  10.895  1.00  0.00     0.029 A 
ATOM     52  C   UNL     1       1.183   4.153  12.143  1.00  0.00     0.049 A 
ATOM     53  H   UNL     1       1.471   2.119  12.558  1.00  0.00     0.167 HD
ATOM     54  C   UNL     1       3.021  -1.849  13.620  1.00  0.00     0.037 A 
ATOM     55  C   UNL     1       0.634   4.639  13.284  1.00  0.00     0.037 A 
ATOM     56  C   UNL     1       1.594  -1.982  13.525  1.00  0.00     0.049 A 
ATOM     57  C   UNL     1       0.099   3.491  14.046  1.00  0.00     0.074 A 
ATOM     58  C   UNL     1       0.701  -2.768  12.833  1.00  0.00     0.029 A 
ATOM     59  N   UNL     1       0.904  -0.907  14.013  1.00  0.00    -0.354 N 
ATOM     60  N   UNL     1      -0.932   2.792  13.668  1.00  0.00    -0.248 NA
ATOM     61  C   UNL     1       0.893   2.913  15.125  1.00  0.00     0.031 C 
ATOM     62  C   UNL     1      -0.516  -2.025  12.769  1.00  0.00     0.029 A 
ATOM     63  C   UNL     1      -0.338  -0.822  13.448  1.00  0.00     0.049 A 
ATOM     64  H   UNL     1       1.256  -0.277  14.683  1.00  0.00     0.167 HD
ATOM     65  C   UNL     1      -0.671   1.527  14.148  1.00  0.00     0.074 A 
ATOM     66  C   UNL     1       0.340   1.700  15.181  1.00  0.00     0.031 C 
ATOM     67  C   UNL     1      -1.051   0.431  13.436  1.00  0.00     0.037 A 
BRANCH  54  68
ATOM     68  C   UNL     1       3.721  -2.030  14.950  1.00  0.00     0.064 A 
ATOM     69  C   UNL     1       3.160  -2.891  15.918  1.00  0.00     0.173 A 
ATOM     70  C   UNL     1       4.720  -1.155  15.428  1.00  0.00     0.173 A 
ATOM     71  F   UNL     1       2.178  -3.744  15.587  1.00  0.00    -0.203 F 
ATOM     72  C   UNL     1       3.534  -2.837  17.265  1.00  0.00     0.198 A 
ATOM     73  C   UNL     1       5.126  -1.138  16.762  1.00  0.00     0.198 A 
ATOM     74  F   UNL     1       5.256  -0.203  14.655  1.00  0.00    -0.203 F 
ATOM     75  F   UNL     1       2.894  -3.595  18.167  1.00  0.00    -0.200 F 
ATOM     76  C   UNL     1       4.515  -1.959  17.686  1.00  0.00     0.200 A 
ATOM     77  F   UNL     1       6.058  -0.259  17.156  1.00  0.00    -0.200 F 
ATOM     78  F   UNL     1       4.838  -1.867  18.983  1.00  0.00    -0.200 F 
ENDBRANCH  54  68
BRANCH  55  79
ATOM     79  C   UNL     1       0.693   5.987  13.896  1.00  0.00     0.064 A 
ATOM     80  C   UNL     1      -0.210   6.352  14.911  1.00  0.00     0.173 A 
ATOM     81  C   UNL     1       1.832   6.797  13.748  1.00  0.00     0.173 A 
ATOM     82  F   UNL     1      -1.313   5.621  15.130  1.00  0.00    -0.203 F 
ATOM     83  C   UNL     1       0.050   7.417  15.778  1.00  0.00     0.198 A 
ATOM     84  C   UNL     1       2.088   7.865  14.611  1.00  0.00     0.198 A 
ATOM     85  F   UNL     1       2.769   6.500  12.836  1.00  0.00    -0.203 F 
ATOM     86  F   UNL     1      -0.788   7.673  16.792  1.00  0.00    -0.200 F 
ATOM     87  C   UNL     1       1.210   8.158  15.641  1.00  0.00     0.200 A 
ATOM     88  F   UNL     1       3.229   8.559  14.491  1.00  0.00    -0.200 F 
ATOM     89  F   UNL     1       1.506   9.121  16.525  1.00  0.00    -0.200 F 
ENDBRANCH  55  79
BRANCH  67  90
ATOM     90  C   UNL     1      -2.159   0.611  12.450  1.00  0.00     0.064 A 
ATOM     91  C   UNL     1      -2.050   1.352  11.263  1.00  0.00     0.173 A 
ATOM     92  C   UNL     1      -3.363  -0.060  12.694  1.00  0.00     0.173 A 
ATOM     93  F   UNL     1      -0.903   1.961  10.933  1.00  0.00    -0.203 F 
ATOM     94  C   UNL     1      -3.120   1.441  10.375  1.00  0.00     0.198 A 
ATOM     95  C   UNL     1      -4.416   0.001  11.789  1.00  0.00     0.198 A 
ATOM     96  F   UNL     1      -3.501  -0.811  13.798  1.00  0.00    -0.203 F 
ATOM     97  F   UNL     1      -3.003   2.164   9.251  1.00  0.00    -0.200 F 
ATOM     98  C   UNL     1      -4.298   0.759  10.635  1.00  0.00     0.200 A 
ATOM     99  F   UNL     1      -5.537  -0.693  12.026  1.00  0.00    -0.200 F 
ATOM    100  F   UNL     1      -5.313   0.812   9.762  1.00  0.00    -0.200 F 
ENDBRANCH  67  90
ENDBRANCH  41  42
ENDBRANCH  33  36
ENDBRANCH  31  32
ENDBRANCH  30  31
ENDBRANCH   1  30
TORSDOF 15
