REMARK SMILES C[C@H]1[C@H](C(=O)NCCCNC(=O)c2ccc(-c3c4nc(c(-c5c(F)c(F)c(F)c(F)c5F)c5ccc([nH]5)c(-c5c(F)c(F)c(F)c(F)c5F)c5nc(c(-c6c(F)c(F)c(F)c(F)c6F)c6ccc3[nH]6)C=C5)C=C4)cc2)CC[N@@H+]1Cc1ccc(C(F)(F)F)cc1
REMARK SMILES IDX 7 1 6 2 4 3 5 4 3 6 1 7 2 8 78 9 76 10 77 11 79 13 80 14
REMARK SMILES IDX 81 15 89 16 82 17 88 18 83 19 84 20 85 21 86 22 87 23 8 24
REMARK SMILES IDX 9 25 10 26 11 27 12 29 13 30 14 31 75 32 15 33 74 34 16 35
REMARK SMILES IDX 17 36 18 37 68 38 19 39 73 40 67 41 69 42 20 43 72 44 66 45
REMARK SMILES IDX 65 46 21 48 53 49 33 50 52 51 34 52 37 53 51 54 70 55 35 56
REMARK SMILES IDX 36 57 50 59 71 60 38 61 22 62 23 63 31 64 24 65 25 66 29 67
REMARK SMILES IDX 32 68 26 69 27 70 30 71 28 72 54 73 55 74 63 75 56 76 57 77
REMARK SMILES IDX 61 78 64 79 58 80 59 81 62 82 60 83 39 84 40 85 48 86 41 87
REMARK SMILES IDX 42 88 46 89 49 90 43 91 44 92 47 93 45 94
REMARK H PARENT 6 5 78 12 10 28 69 47 37 58
REMARK Flexibility Score: inf
ROOT
ATOM      1  C   UNL     1      -0.536   1.601   3.050  1.00  0.00     0.117 C 
ENDROOT
BRANCH   1   2
ATOM      2  N   UNL     1       0.078   2.577   2.183  1.00  0.00    -0.356 N 
ATOM      3  C   UNL     1       0.411   2.494   0.871  1.00  0.00     0.229 C 
ATOM      4  O   UNL     1       0.889   3.515   0.363  1.00  0.00    -0.275 OA
ATOM      5  H   UNL     1       0.287   3.439   2.611  1.00  0.00     0.163 HD
BRANCH   3   6
ATOM      6  C   UNL     1       0.180   1.260   0.003  1.00  0.00     0.142 C 
ATOM      7  C   UNL     1       2.014  -0.445  -0.160  1.00  0.00     0.076 C 
ATOM      8  C   UNL     1       0.674  -0.111   0.510  1.00  0.00     0.193 C 
ATOM      9  N   UNL     1      -0.330  -1.097   0.060  1.00  0.00    -0.328 N 
ATOM     10  C   UNL     1      -1.265   1.021  -0.404  1.00  0.00     0.081 C 
ATOM     11  C   UNL     1      -1.221  -0.424  -0.877  1.00  0.00     0.263 C 
ATOM     12  H   UNL     1       0.169  -1.841  -0.427  1.00  0.00     0.348 HD
BRANCH   9  13
ATOM     13  C   UNL     1      -0.928  -2.017   1.045  1.00  0.00     0.299 C 
BRANCH  13  14
ATOM     14  C   UNL     1      -1.960  -1.497   2.038  1.00  0.00     0.006 A 
ATOM     15  C   UNL     1      -1.747  -1.612   3.421  1.00  0.00     0.010 A 
ATOM     16  C   UNL     1      -3.161  -0.905   1.626  1.00  0.00     0.010 A 
ATOM     17  C   UNL     1      -2.596  -0.971   4.339  1.00  0.00     0.013 A 
ATOM     18  C   UNL     1      -3.989  -0.233   2.529  1.00  0.00     0.013 A 
ATOM     19  C   UNL     1      -3.684  -0.211   3.891  1.00  0.00     0.056 A 
BRANCH  19  20
ATOM     20  C   UNL     1      -4.448   0.697   4.828  1.00  0.00     0.416 C 
ATOM     21  F   UNL     1      -4.808   0.099   5.991  1.00  0.00    -0.166 F 
ATOM     22  F   UNL     1      -3.716   1.803   5.148  1.00  0.00    -0.166 F 
ATOM     23  F   UNL     1      -5.601   1.179   4.281  1.00  0.00    -0.166 F 
ENDBRANCH  19  20
ENDBRANCH  13  14
ENDBRANCH   9  13
ENDBRANCH   3   6
ENDBRANCH   1   2
BRANCH   1  24
ATOM     24  C   UNL     1       0.445   1.045   4.080  1.00  0.00     0.042 C 
BRANCH  24  25
ATOM     25  C   UNL     1       0.443   1.808   5.399  1.00  0.00     0.118 C 
BRANCH  25  26
ATOM     26  N   UNL     1      -0.836   1.728   6.100  1.00  0.00    -0.352 N 
ATOM     27  C   UNL     1      -1.247   1.037   7.207  1.00  0.00     0.251 C 
ATOM     28  H   UNL     1      -1.543   2.280   5.696  1.00  0.00     0.163 HD
ATOM     29  O   UNL     1      -2.455   1.005   7.469  1.00  0.00    -0.269 OA
BRANCH  27  30
ATOM     30  C   UNL     1      -0.324   0.302   8.092  1.00  0.00     0.039 A 
ATOM     31  C   UNL     1      -0.804  -0.839   8.754  1.00  0.00     0.014 A 
ATOM     32  C   UNL     1       0.961   0.763   8.368  1.00  0.00     0.014 A 
ATOM     33  C   UNL     1       0.011  -1.530   9.653  1.00  0.00     0.010 A 
ATOM     34  C   UNL     1       1.807   0.020   9.185  1.00  0.00     0.010 A 
ATOM     35  C   UNL     1       1.333  -1.117   9.856  1.00  0.00    -0.014 A 
BRANCH  35  36
ATOM     36  C   UNL     1       2.233  -1.802  10.815  1.00  0.00     0.031 A 
ATOM     37  C   UNL     1       2.779  -1.034  11.987  1.00  0.00     0.074 A 
ATOM     38  C   UNL     1       2.632  -3.065  10.578  1.00  0.00     0.049 A 
ATOM     39  N   UNL     1       3.737  -1.352  12.818  1.00  0.00    -0.248 NA
ATOM     40  C   UNL     1       2.195   0.297  12.225  1.00  0.00     0.031 C 
ATOM     41  C   UNL     1       2.192  -3.896   9.457  1.00  0.00     0.029 A 
ATOM     42  N   UNL     1       3.521  -3.861  11.254  1.00  0.00    -0.354 N 
ATOM     43  C   UNL     1       3.902  -0.246  13.642  1.00  0.00     0.074 A 
ATOM     44  C   UNL     1       2.977   0.767  13.184  1.00  0.00     0.031 C 
ATOM     45  C   UNL     1       2.808  -5.086   9.524  1.00  0.00     0.029 A 
ATOM     46  C   UNL     1       3.719  -5.085  10.664  1.00  0.00     0.049 A 
ATOM     47  H   UNL     1       3.973  -3.581  12.083  1.00  0.00     0.167 HD
ATOM     48  C   UNL     1       4.739  -0.098  14.698  1.00  0.00     0.037 A 
ATOM     49  C   UNL     1       4.558  -6.082  10.998  1.00  0.00     0.037 A 
ATOM     50  C   UNL     1       5.616  -1.135  15.173  1.00  0.00     0.049 A 
ATOM     51  C   UNL     1       5.445  -5.912  12.200  1.00  0.00     0.074 A 
ATOM     52  C   UNL     1       6.466  -1.119  16.264  1.00  0.00     0.029 A 
ATOM     53  N   UNL     1       5.739  -2.388  14.587  1.00  0.00    -0.354 N 
ATOM     54  N   UNL     1       5.581  -4.872  12.987  1.00  0.00    -0.248 NA
ATOM     55  C   UNL     1       6.289  -7.057  12.566  1.00  0.00     0.031 C 
ATOM     56  C   UNL     1       7.125  -2.352  16.322  1.00  0.00     0.029 A 
ATOM     57  C   UNL     1       6.654  -3.152  15.292  1.00  0.00     0.049 A 
ATOM     58  H   UNL     1       5.249  -2.689  13.789  1.00  0.00     0.167 HD
ATOM     59  C   UNL     1       6.509  -5.240  13.950  1.00  0.00     0.074 A 
ATOM     60  C   UNL     1       6.887  -6.609  13.661  1.00  0.00     0.031 C 
ATOM     61  C   UNL     1       7.008  -4.513  14.980  1.00  0.00     0.037 A 
BRANCH  48  62
ATOM     62  C   UNL     1       4.739   1.229  15.403  1.00  0.00     0.064 A 
ATOM     63  C   UNL     1       3.638   1.666  16.156  1.00  0.00     0.173 A 
ATOM     64  C   UNL     1       5.859   2.073  15.333  1.00  0.00     0.173 A 
ATOM     65  F   UNL     1       2.537   0.906  16.244  1.00  0.00    -0.203 F 
ATOM     66  C   UNL     1       3.642   2.912  16.778  1.00  0.00     0.198 A 
ATOM     67  C   UNL     1       5.872   3.304  15.985  1.00  0.00     0.198 A 
ATOM     68  F   UNL     1       6.941   1.705  14.631  1.00  0.00    -0.203 F 
ATOM     69  F   UNL     1       2.554   3.333  17.438  1.00  0.00    -0.200 F 
ATOM     70  C   UNL     1       4.761   3.728  16.697  1.00  0.00     0.200 A 
ATOM     71  F   UNL     1       6.958   4.086  15.915  1.00  0.00    -0.200 F 
ATOM     72  F   UNL     1       4.763   4.926  17.297  1.00  0.00    -0.200 F 
ENDBRANCH  48  62
BRANCH  49  73
ATOM     73  C   UNL     1       4.577  -7.331  10.194  1.00  0.00     0.064 A 
ATOM     74  C   UNL     1       4.055  -8.525  10.711  1.00  0.00     0.173 A 
ATOM     75  C   UNL     1       5.091  -7.355   8.889  1.00  0.00     0.173 A 
ATOM     76  F   UNL     1       3.567  -8.555  11.960  1.00  0.00    -0.203 F 
ATOM     77  C   UNL     1       4.060  -9.698   9.960  1.00  0.00     0.198 A 
ATOM     78  C   UNL     1       5.072  -8.523   8.129  1.00  0.00     0.198 A 
ATOM     79  F   UNL     1       5.594  -6.237   8.344  1.00  0.00    -0.203 F 
ATOM     80  F   UNL     1       3.588 -10.833  10.493  1.00  0.00    -0.200 F 
ATOM     81  C   UNL     1       4.562  -9.695   8.667  1.00  0.00     0.200 A 
ATOM     82  F   UNL     1       5.542  -8.511   6.874  1.00  0.00    -0.200 F 
ATOM     83  F   UNL     1       4.557 -10.821   7.942  1.00  0.00    -0.200 F 
ENDBRANCH  49  73
BRANCH  61  84
ATOM     84  C   UNL     1       7.994  -5.199  15.879  1.00  0.00     0.064 A 
ATOM     85  C   UNL     1       9.304  -5.471  15.460  1.00  0.00     0.173 A 
ATOM     86  C   UNL     1       7.629  -5.564  17.184  1.00  0.00     0.173 A 
ATOM     87  F   UNL     1       9.694  -5.154  14.215  1.00  0.00    -0.203 F 
ATOM     88  C   UNL     1      10.206  -6.110  16.305  1.00  0.00     0.198 A 
ATOM     89  C   UNL     1       8.542  -6.177  18.036  1.00  0.00     0.198 A 
ATOM     90  F   UNL     1       6.389  -5.319  17.633  1.00  0.00    -0.203 F 
ATOM     91  F   UNL     1      11.437  -6.407  15.867  1.00  0.00    -0.200 F 
ATOM     92  C   UNL     1       9.826  -6.457  17.593  1.00  0.00     0.200 A 
ATOM     93  F   UNL     1       8.178  -6.502  19.284  1.00  0.00    -0.200 F 
ATOM     94  F   UNL     1      10.697  -7.072  18.406  1.00  0.00    -0.200 F 
ENDBRANCH  61  84
ENDBRANCH  35  36
ENDBRANCH  27  30
ENDBRANCH  25  26
ENDBRANCH  24  25
ENDBRANCH   1  24
TORSDOF 13
