REMARK SMILES O=C(CCOc1cc(-c2ccncc2)nc(-c2ccc(C(F)(F)F)cc2)n1)NCCCNC(=O)c1ccc(-c2c3nc(c(-c4c(F)c(F)c(F)c(F)c4F)c4ccc([nH]4)c(-c4c(F)c(F)c(F)c(F)c4F)c4nc(c(-c5c(F)c(F)c(F)c(F)c5F)c5ccc2[nH]5)C=C4)C=C3)cc1
REMARK SMILES IDX 1 1 2 2 28 3 3 5 4 6 5 7 6 8 7 9 27 10 8 11 16 12 15 13 9 14
REMARK SMILES IDX 10 15 14 16 11 17 13 18 12 19 17 20 18 21 26 22 19 23 25 24
REMARK SMILES IDX 20 25 21 26 22 27 23 28 24 29 29 30 30 31 31 32 32 33 33 34
REMARK SMILES IDX 34 36 35 37 36 38 97 39 37 40 96 41 38 42 39 43 40 44 90 45
REMARK SMILES IDX 41 46 95 47 89 48 91 49 42 50 94 51 88 52 87 53 43 55 75 56
REMARK SMILES IDX 55 57 74 58 56 59 59 60 73 61 92 62 57 63 58 64 72 66 93 67
REMARK SMILES IDX 60 68 44 69 45 70 53 71 46 72 47 73 51 74 54 75 48 76 49 77
REMARK SMILES IDX 52 78 50 79 76 80 77 81 85 82 78 83 79 84 83 85 86 86 80 87
REMARK SMILES IDX 81 88 84 89 82 90 61 91 62 92 70 93 63 94 64 95 68 96 71 97
REMARK SMILES IDX 65 98 66 99 69 100 67 101
REMARK H PARENT 28 4 32 35 91 54 59 65
REMARK Flexibility Score: inf
ROOT
ATOM      1  O   UNL     1       1.235   0.067   0.806  1.00  0.00    -0.275 OA
ATOM      2  C   UNL     1       2.431   0.231   1.026  1.00  0.00     0.223 C 
ATOM      3  N   UNL     1       3.075   1.443   0.896  1.00  0.00    -0.356 N 
ATOM      4  H   UNL     1       3.967   1.548   1.300  1.00  0.00     0.163 HD
ENDROOT
BRANCH   2   5
ATOM      5  C   UNL     1       3.360  -0.932   1.290  1.00  0.00     0.141 C 
BRANCH   5   6
ATOM      6  C   UNL     1       3.579  -1.734   0.000  1.00  0.00     0.241 C 
BRANCH   6   7
ATOM      7  O   UNL     1       4.391  -1.017  -0.939  1.00  0.00    -0.477 OA
BRANCH   7   8
ATOM      8  C   UNL     1       3.799  -0.750  -2.151  1.00  0.00     0.217 A 
ATOM      9  C   UNL     1       2.609  -0.072  -2.238  1.00  0.00     0.097 A 
ATOM     10  N   UNL     1       4.575  -0.972  -3.218  1.00  0.00    -0.193 NA
ATOM     11  C   UNL     1       2.275   0.484  -3.455  1.00  0.00     0.078 A 
ATOM     12  C   UNL     1       4.124  -0.483  -4.391  1.00  0.00     0.163 A 
ATOM     13  N   UNL     1       3.021   0.281  -4.549  1.00  0.00    -0.228 NA
BRANCH  11  14
ATOM     14  C   UNL     1       1.155   1.433  -3.523  1.00  0.00     0.003 A 
ATOM     15  C   UNL     1       1.360   2.811  -3.366  1.00  0.00     0.030 A 
ATOM     16  C   UNL     1      -0.164   0.980  -3.550  1.00  0.00     0.030 A 
ATOM     17  C   UNL     1       0.274   3.646  -3.160  1.00  0.00     0.111 A 
ATOM     18  C   UNL     1      -1.190   1.895  -3.359  1.00  0.00     0.111 A 
ATOM     19  N   UNL     1      -1.000   3.213  -3.141  1.00  0.00    -0.265 NA
ENDBRANCH  11  14
BRANCH  12  20
ATOM     20  C   UNL     1       4.902  -0.782  -5.592  1.00  0.00     0.019 A 
ATOM     21  C   UNL     1       4.962  -2.082  -6.116  1.00  0.00     0.012 A 
ATOM     22  C   UNL     1       5.571   0.237  -6.285  1.00  0.00     0.012 A 
ATOM     23  C   UNL     1       5.614  -2.338  -7.329  1.00  0.00     0.014 A 
ATOM     24  C   UNL     1       6.233  -0.013  -7.488  1.00  0.00     0.014 A 
ATOM     25  C   UNL     1       6.236  -1.299  -8.038  1.00  0.00     0.056 A 
BRANCH  25  26
ATOM     26  C   UNL     1       6.866  -1.560  -9.383  1.00  0.00     0.416 C 
ATOM     27  F   UNL     1       7.903  -2.440  -9.315  1.00  0.00    -0.166 F 
ATOM     28  F   UNL     1       5.983  -2.091 -10.274  1.00  0.00    -0.166 F 
ATOM     29  F   UNL     1       7.365  -0.441  -9.979  1.00  0.00    -0.166 F 
ENDBRANCH  25  26
ENDBRANCH  12  20
ENDBRANCH   7   8
ENDBRANCH   6   7
ENDBRANCH   5   6
ENDBRANCH   2   5
BRANCH   3  30
ATOM     30  C   UNL     1       2.493   2.572   0.189  1.00  0.00     0.117 C 
BRANCH  30  31
ATOM     31  C   UNL     1       3.549   3.507  -0.431  1.00  0.00     0.042 C 
BRANCH  31  32
ATOM     32  C   UNL     1       4.751   2.824  -1.105  1.00  0.00     0.118 C 
BRANCH  32  33
ATOM     33  N   UNL     1       4.714   2.722  -2.556  1.00  0.00    -0.352 N 
ATOM     34  C   UNL     1       4.992   3.536  -3.619  1.00  0.00     0.251 C 
ATOM     35  H   UNL     1       4.409   1.834  -2.850  1.00  0.00     0.163 HD
ATOM     36  O   UNL     1       4.793   3.079  -4.748  1.00  0.00    -0.269 OA
BRANCH  34  37
ATOM     37  C   UNL     1       5.457   4.933  -3.530  1.00  0.00     0.039 A 
ATOM     38  C   UNL     1       5.279   5.747  -4.665  1.00  0.00     0.014 A 
ATOM     39  C   UNL     1       6.103   5.460  -2.421  1.00  0.00     0.014 A 
ATOM     40  C   UNL     1       5.698   7.078  -4.663  1.00  0.00     0.010 A 
ATOM     41  C   UNL     1       6.435   6.809  -2.381  1.00  0.00     0.010 A 
ATOM     42  C   UNL     1       6.239   7.629  -3.499  1.00  0.00    -0.014 A 
BRANCH  42  43
ATOM     43  C   UNL     1       6.609   9.059  -3.398  1.00  0.00     0.031 A 
ATOM     44  C   UNL     1       8.025   9.438  -3.068  1.00  0.00     0.074 A 
ATOM     45  C   UNL     1       5.643   9.992  -3.472  1.00  0.00     0.049 A 
ATOM     46  N   UNL     1       8.514  10.601  -2.725  1.00  0.00    -0.248 NA
ATOM     47  C   UNL     1       9.016   8.348  -3.076  1.00  0.00     0.031 C 
ATOM     48  C   UNL     1       4.228   9.728  -3.745  1.00  0.00     0.029 A 
ATOM     49  N   UNL     1       5.698  11.350  -3.295  1.00  0.00    -0.354 N 
ATOM     50  C   UNL     1       9.855  10.377  -2.443  1.00  0.00     0.074 A 
ATOM     51  C   UNL     1      10.091   8.958  -2.599  1.00  0.00     0.031 C 
ATOM     52  C   UNL     1       3.554  10.887  -3.735  1.00  0.00     0.029 A 
ATOM     53  C   UNL     1       4.475  11.966  -3.401  1.00  0.00     0.049 A 
ATOM     54  H   UNL     1       6.534  11.837  -3.111  1.00  0.00     0.167 HD
ATOM     55  C   UNL     1      10.805  11.280  -2.106  1.00  0.00     0.037 A 
ATOM     56  C   UNL     1       4.136  13.257  -3.226  1.00  0.00     0.037 A 
ATOM     57  C   UNL     1      10.557  12.694  -1.992  1.00  0.00     0.049 A 
ATOM     58  C   UNL     1       5.213  14.241  -2.861  1.00  0.00     0.074 A 
ATOM     59  C   UNL     1      11.453  13.710  -1.716  1.00  0.00     0.029 A 
ATOM     60  N   UNL     1       9.313  13.290  -2.155  1.00  0.00    -0.354 N 
ATOM     61  N   UNL     1       6.490  14.030  -2.644  1.00  0.00    -0.248 NA
ATOM     62  C   UNL     1       4.804  15.644  -2.723  1.00  0.00     0.031 C 
ATOM     63  C   UNL     1      10.744  14.914  -1.663  1.00  0.00     0.029 A 
ATOM     64  C   UNL     1       9.416  14.658  -1.968  1.00  0.00     0.049 A 
ATOM     65  H   UNL     1       8.481  12.810  -2.371  1.00  0.00     0.167 HD
ATOM     66  C   UNL     1       7.043  15.275  -2.379  1.00  0.00     0.074 A 
ATOM     67  C   UNL     1       5.964  16.237  -2.476  1.00  0.00     0.031 C 
ATOM     68  C   UNL     1       8.327  15.595  -2.083  1.00  0.00     0.037 A 
BRANCH  55  69
ATOM     69  C   UNL     1      12.193  10.768  -1.839  1.00  0.00     0.064 A 
ATOM     70  C   UNL     1      12.986  10.214  -2.857  1.00  0.00     0.173 A 
ATOM     71  C   UNL     1      12.748  10.849  -0.553  1.00  0.00     0.173 A 
ATOM     72  F   UNL     1      12.502  10.100  -4.104  1.00  0.00    -0.203 F 
ATOM     73  C   UNL     1      14.263   9.727  -2.590  1.00  0.00     0.198 A 
ATOM     74  C   UNL     1      14.040  10.395  -0.297  1.00  0.00     0.198 A 
ATOM     75  F   UNL     1      12.039  11.372   0.459  1.00  0.00    -0.203 F 
ATOM     76  F   UNL     1      14.974   9.146  -3.566  1.00  0.00    -0.200 F 
ATOM     77  C   UNL     1      14.792   9.825  -1.312  1.00  0.00     0.200 A 
ATOM     78  F   UNL     1      14.554  10.502   0.936  1.00  0.00    -0.200 F 
ATOM     79  F   UNL     1      16.023   9.360  -1.057  1.00  0.00    -0.200 F 
ENDBRANCH  55  69
BRANCH  56  80
ATOM     80  C   UNL     1       2.728  13.690  -3.422  1.00  0.00     0.064 A 
ATOM     81  C   UNL     1       2.376  14.507  -4.505  1.00  0.00     0.173 A 
ATOM     82  C   UNL     1       1.707  13.296  -2.545  1.00  0.00     0.173 A 
ATOM     83  F   UNL     1       3.318  14.922  -5.365  1.00  0.00    -0.203 F 
ATOM     84  C   UNL     1       1.063  14.936  -4.688  1.00  0.00     0.198 A 
ATOM     85  C   UNL     1       0.389  13.700  -2.746  1.00  0.00     0.198 A 
ATOM     86  F   UNL     1       1.988  12.505  -1.498  1.00  0.00    -0.203 F 
ATOM     87  F   UNL     1       0.765  15.759  -5.703  1.00  0.00    -0.200 F 
ATOM     88  C   UNL     1       0.069  14.528  -3.812  1.00  0.00     0.200 A 
ATOM     89  F   UNL     1      -0.572  13.288  -1.907  1.00  0.00    -0.200 F 
ATOM     90  F   UNL     1      -1.194  14.938  -3.990  1.00  0.00    -0.200 F 
ENDBRANCH  56  80
BRANCH  68  91
ATOM     91  C   UNL     1       8.642  17.051  -1.894  1.00  0.00     0.064 A 
ATOM     92  C   UNL     1       8.196  17.765  -0.773  1.00  0.00     0.173 A 
ATOM     93  C   UNL     1       9.433  17.729  -2.834  1.00  0.00     0.173 A 
ATOM     94  F   UNL     1       7.424  17.166   0.147  1.00  0.00    -0.203 F 
ATOM     95  C   UNL     1       8.506  19.113  -0.615  1.00  0.00     0.198 A 
ATOM     96  C   UNL     1       9.771  19.066  -2.655  1.00  0.00     0.198 A 
ATOM     97  F   UNL     1       9.892  17.088  -3.920  1.00  0.00    -0.203 F 
ATOM     98  F   UNL     1       8.024  19.790   0.436  1.00  0.00    -0.200 F 
ATOM     99  C   UNL     1       9.300  19.760  -1.551  1.00  0.00     0.200 A 
ATOM    100  F   UNL     1      10.553  19.684  -3.551  1.00  0.00    -0.200 F 
ATOM    101  F   UNL     1       9.605  21.055  -1.392  1.00  0.00    -0.200 F 
ENDBRANCH  68  91
ENDBRANCH  42  43
ENDBRANCH  34  37
ENDBRANCH  32  33
ENDBRANCH  31  32
ENDBRANCH  30  31
ENDBRANCH   3  30
TORSDOF 16
