REMARK SMILES C[C@H](c1ccc(Br)s1)[NH+]1CCC(CC(=O)NCCCNC(=O)c2ccc(-c3c4nc(c(-c5c(F)c(F)c(F)c(F)c5F)c5ccc([nH]5)c(-c5c(F)c(F)c(F)c(F)c5F)c5nc(c(-c6c(F)c(F)c(F)c(F)c6F)c6ccc3[nH]6)C=C5)C=C4)cc2)CC1
REMARK SMILES IDX 17 1 16 2 14 3 15 4 13 6 12 7 9 8 10 9 87 10 11 12 86 13
REMARK SMILES IDX 2 14 1 15 3 16 4 17 8 18 5 19 6 20 7 21 18 22 19 23 20 24
REMARK SMILES IDX 21 25 22 27 23 28 24 29 85 30 25 31 84 32 26 33 27 34 28 35
REMARK SMILES IDX 78 36 29 37 83 38 77 39 79 40 30 41 82 42 76 43 75 44 31 46
REMARK SMILES IDX 63 47 43 48 62 49 44 50 47 51 61 52 80 53 45 54 46 55 60 57
REMARK SMILES IDX 81 58 48 59 32 60 33 61 41 62 34 63 35 64 39 65 42 66 36 67
REMARK SMILES IDX 37 68 40 69 38 70 64 71 65 72 73 73 66 74 67 75 71 76 74 77
REMARK SMILES IDX 68 78 69 79 72 80 70 81 49 82 50 83 58 84 51 85 52 86 56 87
REMARK SMILES IDX 59 88 53 89 54 90 57 91 55 92
REMARK H PARENT 16 5 9 11 20 26 79 45 47 56
REMARK Flexibility Score: inf
ROOT
ATOM      1  C   UNL     1      -5.105   3.761   1.244  1.00  0.00     0.117 C 
ENDROOT
BRANCH   1   2
ATOM      2  N   UNL     1      -5.548   3.150  -0.004  1.00  0.00    -0.356 N 
ATOM      3  C   UNL     1      -5.557   1.849  -0.420  1.00  0.00     0.220 C 
ATOM      4  O   UNL     1      -6.035   1.602  -1.529  1.00  0.00    -0.275 OA
ATOM      5  H   UNL     1      -5.904   3.789  -0.664  1.00  0.00     0.163 HD
BRANCH   3   6
ATOM      6  C   UNL     1      -4.950   0.742   0.429  1.00  0.00     0.104 C 
BRANCH   6   7
ATOM      7  C   UNL     1      -3.495   0.430   0.033  1.00  0.00     0.009 C 
ATOM      8  N   UNL     1      -0.676   0.400   0.894  1.00  0.00    -0.328 N 
ATOM      9  C   UNL     1      -1.147   1.419  -0.037  1.00  0.00     0.263 C 
ATOM     10  C   UNL     1      -1.394  -0.868   0.675  1.00  0.00     0.263 C 
ATOM     11  H   UNL     1      -0.900   0.737   1.831  1.00  0.00     0.348 HD
ATOM     12  C   UNL     1      -2.626   1.672   0.177  1.00  0.00     0.066 C 
ATOM     13  C   UNL     1      -2.907  -0.702   0.888  1.00  0.00     0.066 C 
BRANCH   8  14
ATOM     14  C   UNL     1       0.797   0.231   0.928  1.00  0.00     0.222 C 
ATOM     15  C   UNL     1       1.517   1.522   1.359  1.00  0.00     0.082 C 
BRANCH  14  16
ATOM     16  C   UNL     1       1.387  -0.314  -0.360  1.00  0.00     0.063 A 
ATOM     17  C   UNL     1       1.523   0.293  -1.599  1.00  0.00     0.023 A 
ATOM     18  S   UNL     1       2.000  -1.923  -0.400  1.00  0.00    -0.127 S 
ATOM     19  C   UNL     1       2.032  -0.594  -2.593  1.00  0.00     0.028 A 
ATOM     20  C   UNL     1       2.323  -1.820  -2.057  1.00  0.00     0.070 A 
ATOM     21  Br  UNL     1       3.009  -3.248  -3.054  1.00  0.00    -0.039 Br
ENDBRANCH  14  16
ENDBRANCH   8  14
ENDBRANCH   6   7
ENDBRANCH   3   6
ENDBRANCH   1   2
BRANCH   1  22
ATOM     22  C   UNL     1      -3.877   4.665   1.087  1.00  0.00     0.042 C 
BRANCH  22  23
ATOM     23  C   UNL     1      -4.110   5.926   0.264  1.00  0.00     0.118 C 
BRANCH  23  24
ATOM     24  N   UNL     1      -4.410   7.066   1.112  1.00  0.00    -0.352 N 
ATOM     25  C   UNL     1      -3.629   8.140   1.466  1.00  0.00     0.251 C 
ATOM     26  H   UNL     1      -5.316   7.069   1.496  1.00  0.00     0.163 HD
ATOM     27  O   UNL     1      -3.978   8.838   2.415  1.00  0.00    -0.269 OA
BRANCH  25  28
ATOM     28  C   UNL     1      -2.381   8.484   0.735  1.00  0.00     0.039 A 
ATOM     29  C   UNL     1      -1.315   9.033   1.459  1.00  0.00     0.014 A 
ATOM     30  C   UNL     1      -2.279   8.382  -0.654  1.00  0.00     0.014 A 
ATOM     31  C   UNL     1      -0.151   9.451   0.801  1.00  0.00     0.010 A 
ATOM     32  C   UNL     1      -1.092   8.734  -1.303  1.00  0.00     0.010 A 
ATOM     33  C   UNL     1      -0.022   9.293  -0.587  1.00  0.00    -0.014 A 
BRANCH  33  34
ATOM     34  C   UNL     1       1.192   9.760  -1.312  1.00  0.00     0.031 A 
ATOM     35  C   UNL     1       1.089  10.887  -2.307  1.00  0.00     0.074 A 
ATOM     36  C   UNL     1       2.380   9.156  -1.111  1.00  0.00     0.049 A 
ATOM     37  N   UNL     1       2.003  11.373  -3.111  1.00  0.00    -0.248 NA
ATOM     38  C   UNL     1      -0.223  11.542  -2.429  1.00  0.00     0.031 C 
ATOM     39  C   UNL     1       2.621   8.049  -0.186  1.00  0.00     0.029 A 
ATOM     40  N   UNL     1       3.608   9.386  -1.681  1.00  0.00    -0.354 N 
ATOM     41  C   UNL     1       1.373  12.372  -3.843  1.00  0.00     0.074 A 
ATOM     42  C   UNL     1      -0.011  12.395  -3.420  1.00  0.00     0.031 C 
ATOM     43  C   UNL     1       3.919   7.707  -0.239  1.00  0.00     0.029 A 
ATOM     44  C   UNL     1       4.594   8.543  -1.228  1.00  0.00     0.049 A 
ATOM     45  H   UNL     1       3.768  10.089  -2.352  1.00  0.00     0.167 HD
ATOM     46  C   UNL     1       1.901  13.210  -4.767  1.00  0.00     0.037 A 
ATOM     47  C   UNL     1       5.892   8.449  -1.576  1.00  0.00     0.037 A 
ATOM     48  C   UNL     1       3.284  13.216  -5.167  1.00  0.00     0.049 A 
ATOM     49  C   UNL     1       6.450   9.381  -2.620  1.00  0.00     0.074 A 
ATOM     50  C   UNL     1       3.917  14.045  -6.077  1.00  0.00     0.029 A 
ATOM     51  N   UNL     1       4.250  12.354  -4.672  1.00  0.00    -0.354 N 
ATOM     52  N   UNL     1       5.848  10.336  -3.284  1.00  0.00    -0.248 NA
ATOM     53  C   UNL     1       7.872   9.220  -2.960  1.00  0.00     0.031 C 
ATOM     54  C   UNL     1       5.262  13.668  -6.153  1.00  0.00     0.029 A 
ATOM     55  C   UNL     1       5.474  12.628  -5.263  1.00  0.00     0.049 A 
ATOM     56  H   UNL     1       4.092  11.652  -4.000  1.00  0.00     0.167 HD
ATOM     57  C   UNL     1       6.820  10.910  -4.092  1.00  0.00     0.074 A 
ATOM     58  C   UNL     1       8.055  10.202  -3.830  1.00  0.00     0.031 C 
ATOM     59  C   UNL     1       6.699  11.932  -4.973  1.00  0.00     0.037 A 
BRANCH  46  60
ATOM     60  C   UNL     1       0.980  14.208  -5.406  1.00  0.00     0.064 A 
ATOM     61  C   UNL     1       0.497  15.317  -4.696  1.00  0.00     0.173 A 
ATOM     62  C   UNL     1       0.612  14.080  -6.754  1.00  0.00     0.173 A 
ATOM     63  F   UNL     1       0.812  15.478  -3.401  1.00  0.00    -0.203 F 
ATOM     64  C   UNL     1      -0.339  16.249  -5.304  1.00  0.00     0.198 A 
ATOM     65  C   UNL     1      -0.203  15.028  -7.367  1.00  0.00     0.198 A 
ATOM     66  F   UNL     1       1.053  13.042  -7.480  1.00  0.00    -0.203 F 
ATOM     67  F   UNL     1      -0.822  17.278  -4.594  1.00  0.00    -0.200 F 
ATOM     68  C   UNL     1      -0.683  16.108  -6.641  1.00  0.00     0.200 A 
ATOM     69  F   UNL     1      -0.524  14.898  -8.662  1.00  0.00    -0.200 F 
ATOM     70  F   UNL     1      -1.482  17.010  -7.227  1.00  0.00    -0.200 F 
ENDBRANCH  46  60
BRANCH  47  71
ATOM     71  C   UNL     1       6.769   7.445  -0.921  1.00  0.00     0.064 A 
ATOM     72  C   UNL     1       7.785   7.846  -0.041  1.00  0.00     0.173 A 
ATOM     73  C   UNL     1       6.631   6.073  -1.177  1.00  0.00     0.173 A 
ATOM     74  F   UNL     1       7.971   9.149   0.215  1.00  0.00    -0.203 F 
ATOM     75  C   UNL     1       8.642   6.915   0.541  1.00  0.00     0.198 A 
ATOM     76  C   UNL     1       7.472   5.141  -0.574  1.00  0.00     0.198 A 
ATOM     77  F   UNL     1       5.675   5.639  -2.011  1.00  0.00    -0.203 F 
ATOM     78  F   UNL     1       9.635   7.330   1.339  1.00  0.00    -0.200 F 
ATOM     79  C   UNL     1       8.483   5.563   0.277  1.00  0.00     0.200 A 
ATOM     80  F   UNL     1       7.309   3.835  -0.823  1.00  0.00    -0.200 F 
ATOM     81  F   UNL     1       9.309   4.668   0.835  1.00  0.00    -0.200 F 
ENDBRANCH  47  71
BRANCH  59  82
ATOM     82  C   UNL     1       7.942  12.384  -5.681  1.00  0.00     0.064 A 
ATOM     83  C   UNL     1       8.512  11.632  -6.718  1.00  0.00     0.173 A 
ATOM     84  C   UNL     1       8.543  13.607  -5.346  1.00  0.00     0.173 A 
ATOM     85  F   UNL     1       7.982  10.448  -7.063  1.00  0.00    -0.203 F 
ATOM     86  C   UNL     1       9.651  12.079  -7.382  1.00  0.00     0.198 A 
ATOM     87  C   UNL     1       9.668  14.062  -6.028  1.00  0.00     0.198 A 
ATOM     88  F   UNL     1       8.032  14.365  -4.364  1.00  0.00    -0.203 F 
ATOM     89  F   UNL     1      10.202  11.326  -8.344  1.00  0.00    -0.200 F 
ATOM     90  C   UNL     1      10.224  13.296  -7.041  1.00  0.00     0.200 A 
ATOM     91  F   UNL     1      10.214  15.242  -5.705  1.00  0.00    -0.200 F 
ATOM     92  F   UNL     1      11.316  13.727  -7.686  1.00  0.00    -0.200 F 
ENDBRANCH  59  82
ENDBRANCH  33  34
ENDBRANCH  25  28
ENDBRANCH  23  24
ENDBRANCH  22  23
ENDBRANCH   1  22
TORSDOF 13
