REMARK SMILES O=C(NCCCNC(=O)c1ccc(-c2c3nc(c(-c4c(F)c(F)c(F)c(F)c4F)c4ccc([nH]4)c(-c4c(F)c(F)c(F)c(F)c4F)c4nc(c(-c5c(F)c(F)c(F)c(F)c5F)c5ccc2[nH]5)C=C4)C=C3)cc1)C1=Cc2cc(S(F)(F)(F)(F)F)cc(Br)c2O[C@H]1C(F)(F)F
REMARK SMILES IDX 5 1 4 2 3 3 1 4 2 5 73 7 74 8 89 9 75 10 88 11 76 12 87 13
REMARK SMILES IDX 77 14 85 15 84 16 86 17 90 18 91 19 92 20 93 21 78 22 79 23
REMARK SMILES IDX 80 24 81 25 82 26 83 27 6 28 7 29 8 30 9 32 10 33 11 34
REMARK SMILES IDX 72 35 12 36 71 37 13 38 14 39 15 40 65 41 16 42 70 43 64 44
REMARK SMILES IDX 66 45 17 46 69 47 63 48 62 49 18 51 50 52 30 53 49 54 31 55
REMARK SMILES IDX 34 56 48 57 67 58 32 59 33 60 47 62 68 63 35 64 19 65 20 66
REMARK SMILES IDX 28 67 21 68 22 69 26 70 29 71 23 72 24 73 27 74 25 75 51 76
REMARK SMILES IDX 52 77 60 78 53 79 54 80 58 81 61 82 55 83 56 84 59 85 57 86
REMARK SMILES IDX 36 87 37 88 45 89 38 90 39 91 43 92 46 93 40 94 41 95 44 96
REMARK SMILES IDX 42 97
REMARK H PARENT 3 6 7 31 66 50 34 61
REMARK Flexibility Score: inf
ROOT
ATOM      1  C   UNL     1       5.024   2.332   0.696  1.00  0.00     0.042 C 
ENDROOT
BRANCH   1   2
ATOM      2  C   UNL     1       4.518   0.930   0.991  1.00  0.00     0.118 C 
BRANCH   2   3
ATOM      3  N   UNL     1       3.048   0.930   0.991  1.00  0.00    -0.352 N 
ATOM      4  O   UNL     1       1.042   0.080   0.042  1.00  0.00    -0.270 OA
ATOM      5  C   UNL     1       2.313   0.080   0.042  1.00  0.00     0.251 C 
ATOM      6  H   UNL     1       2.555   1.499   1.626  1.00  0.00     0.163 HD
BRANCH   5   7
ATOM      7  C   UNL     1       3.073  -0.798  -0.938  1.00  0.00     0.067 C 
ATOM      8  C   UNL     1       4.433  -0.798  -0.938  1.00  0.00     0.025 C 
ATOM      9  C   UNL     1       2.313  -1.677  -1.919  1.00  0.00     0.314 C 
ATOM     10  C   UNL     1       5.193   0.080   0.042  1.00  0.00     0.020 A 
ATOM     11  O   UNL     1       3.492  -0.471   1.608  1.00  0.00    -0.474 OA
ATOM     12  C   UNL     1       6.354   0.743  -0.320  1.00  0.00     0.036 A 
ATOM     13  C   UNL     1       4.764   0.080   1.299  1.00  0.00     0.142 A 
ATOM     14  C   UNL     1       7.155   1.140   0.777  1.00  0.00     0.109 A 
ATOM     15  C   UNL     1       5.540   0.607   2.303  1.00  0.00     0.062 A 
ATOM     16  C   UNL     1       6.728   1.224   2.024  1.00  0.00     0.044 A 
ATOM     17  Br  UNL     1       4.937   0.470   4.163  1.00  0.00    -0.047 Br
BRANCH   9  18
ATOM     18  C   UNL     1       0.818  -1.491  -1.712  1.00  0.00     0.429 C 
ATOM     19  F   UNL     1       0.592  -1.067  -0.472  1.00  0.00    -0.167 F 
ATOM     20  F   UNL     1       0.359  -0.593  -2.579  1.00  0.00    -0.167 F 
ATOM     21  F   UNL     1       0.197  -2.651  -1.904  1.00  0.00    -0.167 F 
ENDBRANCH   9  18
BRANCH  14  22
ATOM     22  S   UNL     1       8.884   1.560   0.449  1.00  0.00     0.310 S 
ATOM     23  F   UNL     1       9.242   1.575   1.994  1.00  0.00    -0.094 F 
ATOM     24  F   UNL     1       8.508   3.083   0.590  1.00  0.00    -0.094 F 
ATOM     25  F   UNL     1      10.369   1.924   0.164  1.00  0.00    -0.094 F 
ATOM     26  F   UNL     1       9.269   0.028   0.450  1.00  0.00    -0.094 F 
ATOM     27  F   UNL     1       7.404   1.173   0.848  1.00  0.00    -0.094 F 
ENDBRANCH  14  22
ENDBRANCH   5   7
ENDBRANCH   2   3
ENDBRANCH   1   2
BRANCH   1  28
ATOM     28  C   UNL     1       4.518   3.288   1.764  1.00  0.00     0.118 C 
BRANCH  28  29
ATOM     29  N   UNL     1       5.008   2.857   3.080  1.00  0.00    -0.352 N 
ATOM     30  C   UNL     1       5.853   3.755   3.881  1.00  0.00     0.251 C 
ATOM     31  H   UNL     1       4.770   1.967   3.427  1.00  0.00     0.163 HD
ATOM     32  O   UNL     1       6.277   3.382   5.019  1.00  0.00    -0.269 OA
BRANCH  30  33
ATOM     33  C   UNL     1       6.220   5.130   3.346  1.00  0.00     0.039 A 
ATOM     34  C   UNL     1       7.513   5.626   3.348  1.00  0.00     0.014 A 
ATOM     35  C   UNL     1       5.220   5.816   2.806  1.00  0.00     0.014 A 
ATOM     36  C   UNL     1       7.602   6.997   3.009  1.00  0.00     0.010 A 
ATOM     37  C   UNL     1       5.411   7.105   2.370  1.00  0.00     0.010 A 
ATOM     38  C   UNL     1       6.651   7.680   2.397  1.00  0.00    -0.014 A 
BRANCH  38  39
ATOM     39  C   UNL     1       6.921   9.033   1.759  1.00  0.00     0.031 A 
ATOM     40  C   UNL     1       6.174  10.095   2.270  1.00  0.00     0.074 A 
ATOM     41  C   UNL     1       7.766   9.135   0.667  1.00  0.00     0.049 A 
ATOM     42  N   UNL     1       6.160  11.359   1.844  1.00  0.00    -0.248 NA
ATOM     43  C   UNL     1       5.250   9.981   3.408  1.00  0.00     0.031 C 
ATOM     44  C   UNL     1       8.530   8.070   0.151  1.00  0.00     0.029 A 
ATOM     45  N   UNL     1       8.021  10.248  -0.103  1.00  0.00    -0.354 N 
ATOM     46  C   UNL     1       5.334  12.090   2.596  1.00  0.00     0.074 A 
ATOM     47  C   UNL     1       4.732  11.213   3.608  1.00  0.00     0.031 C 
ATOM     48  C   UNL     1       9.226   8.531  -0.921  1.00  0.00     0.029 A 
ATOM     49  C   UNL     1       8.910   9.892  -1.093  1.00  0.00     0.049 A 
ATOM     50  H   UNL     1       7.635  11.143   0.031  1.00  0.00     0.167 HD
ATOM     51  C   UNL     1       5.062  13.454   2.477  1.00  0.00     0.037 A 
ATOM     52  C   UNL     1       9.425  10.693  -2.099  1.00  0.00     0.037 A 
ATOM     53  C   UNL     1       5.611  14.265   1.497  1.00  0.00     0.049 A 
ATOM     54  C   UNL     1       9.107  12.045  -2.253  1.00  0.00     0.074 A 
ATOM     55  C   UNL     1       5.352  15.643   1.369  1.00  0.00     0.029 A 
ATOM     56  N   UNL     1       6.480  13.903   0.492  1.00  0.00    -0.354 N 
ATOM     57  N   UNL     1       8.312  12.784  -1.478  1.00  0.00    -0.248 NA
ATOM     58  C   UNL     1       9.622  12.895  -3.334  1.00  0.00     0.031 C 
ATOM     59  C   UNL     1       6.048  16.105   0.295  1.00  0.00     0.029 A 
ATOM     60  C   UNL     1       6.753  15.021  -0.264  1.00  0.00     0.049 A 
ATOM     61  H   UNL     1       6.844  13.001   0.341  1.00  0.00     0.167 HD
ATOM     62  C   UNL     1       8.267  14.039  -1.930  1.00  0.00     0.074 A 
ATOM     63  C   UNL     1       9.103  14.127  -3.135  1.00  0.00     0.031 C 
ATOM     64  C   UNL     1       7.565  15.114  -1.384  1.00  0.00     0.037 A 
BRANCH  51  65
ATOM     65  C   UNL     1       4.109  14.084   3.480  1.00  0.00     0.064 A 
ATOM     66  C   UNL     1       4.407  13.960   4.827  1.00  0.00     0.173 A 
ATOM     67  C   UNL     1       2.987  14.667   3.074  1.00  0.00     0.173 A 
ATOM     68  F   UNL     1       5.613  13.620   5.274  1.00  0.00    -0.203 F 
ATOM     69  C   UNL     1       3.313  14.228   5.683  1.00  0.00     0.198 A 
ATOM     70  C   UNL     1       2.018  15.026   3.979  1.00  0.00     0.198 A 
ATOM     71  F   UNL     1       2.799  14.905   1.779  1.00  0.00    -0.203 F 
ATOM     72  F   UNL     1       3.390  13.795   6.939  1.00  0.00    -0.200 F 
ATOM     73  C   UNL     1       2.221  14.877   5.323  1.00  0.00     0.200 A 
ATOM     74  F   UNL     1       0.865  15.526   3.542  1.00  0.00    -0.200 F 
ATOM     75  F   UNL     1       1.366  15.360   6.219  1.00  0.00    -0.200 F 
ENDBRANCH  51  65
BRANCH  52  76
ATOM     76  C   UNL     1      10.391  10.066  -3.091  1.00  0.00     0.064 A 
ATOM     77  C   UNL     1      11.685  10.560  -3.120  1.00  0.00     0.173 A 
ATOM     78  C   UNL     1      10.028   9.041  -3.853  1.00  0.00     0.173 A 
ATOM     79  F   UNL     1      12.159  11.404  -2.208  1.00  0.00    -0.203 F 
ATOM     80  C   UNL     1      12.456  10.084  -4.207  1.00  0.00     0.198 A 
ATOM     81  C   UNL     1      10.884   8.538  -4.803  1.00  0.00     0.198 A 
ATOM     82  F   UNL     1       8.826   8.495  -3.694  1.00  0.00    -0.203 F 
ATOM     83  F   UNL     1      13.559  10.757  -4.524  1.00  0.00    -0.200 F 
ATOM     84  C   UNL     1      12.158   9.019  -4.927  1.00  0.00     0.200 A 
ATOM     85  F   UNL     1      10.467   7.570  -5.615  1.00  0.00    -0.200 F 
ATOM     86  F   UNL     1      13.049   8.444  -5.730  1.00  0.00    -0.200 F 
ENDBRANCH  52  76
BRANCH  64  87
ATOM     87  C   UNL     1       7.699  16.470  -2.058  1.00  0.00     0.064 A 
ATOM     88  C   UNL     1       7.293  16.690  -3.364  1.00  0.00     0.173 A 
ATOM     89  C   UNL     1       8.191  17.455  -1.314  1.00  0.00     0.173 A 
ATOM     90  F   UNL     1       6.571  15.814  -4.056  1.00  0.00    -0.203 F 
ATOM     91  C   UNL     1       7.716  17.932  -3.894  1.00  0.00     0.198 A 
ATOM     92  C   UNL     1       8.453  18.685  -1.867  1.00  0.00     0.198 A 
ATOM     93  F   UNL     1       8.431  17.248  -0.022  1.00  0.00    -0.203 F 
ATOM     94  F   UNL     1       7.693  18.080  -5.216  1.00  0.00    -0.200 F 
ATOM     95  C   UNL     1       8.132  18.954  -3.169  1.00  0.00     0.200 A 
ATOM     96  F   UNL     1       9.028  19.627  -1.126  1.00  0.00    -0.200 F 
ATOM     97  F   UNL     1       8.233  20.179  -3.677  1.00  0.00    -0.200 F 
ENDBRANCH  64  87
ENDBRANCH  38  39
ENDBRANCH  30  33
ENDBRANCH  28  29
ENDBRANCH   1  28
TORSDOF 12
