REMARK SMILES O=C(NCCCNC(=O)[C@H]1CCCN(C(=O)c2ccc(NC(=O)c3ccccc3)cc2)C1)c1ccc(-c2c3nc(c(-c4c(F)c(F)c(F)c(F)c4F)c4ccc([nH]4)c(-c4c(F)c(F)c(F)c(F)c4F)c4nc(c(-c5c(F)c(F)c(F)c(F)c5F)c5ccc2[nH]5)C=C4)C=C3)cc1
REMARK SMILES IDX 6 1 5 2 4 3 3 4 1 5 2 6 33 8 34 9 95 10 35 11 94 12 36 13
REMARK SMILES IDX 37 14 38 15 88 16 39 17 93 18 87 19 89 20 40 21 92 22 86 23
REMARK SMILES IDX 85 24 41 26 73 27 53 28 72 29 54 30 57 31 71 32 90 33 55 34
REMARK SMILES IDX 56 35 70 37 91 38 58 39 42 40 43 41 51 42 44 43 45 44 49 45
REMARK SMILES IDX 52 46 46 47 47 48 50 49 48 50 74 51 75 52 83 53 76 54 77 55
REMARK SMILES IDX 81 56 84 57 78 58 79 59 82 60 80 61 59 62 60 63 68 64 61 65
REMARK SMILES IDX 62 66 66 67 69 68 63 69 64 70 67 71 65 72 7 73 8 74 9 76
REMARK SMILES IDX 10 77 11 78 32 79 12 80 14 81 13 82 15 83 16 84 17 85 18 86
REMARK SMILES IDX 31 87 19 88 30 89 20 90 21 91 22 92 23 94 24 95 25 96 29 97
REMARK SMILES IDX 26 98 28 99 27 100
REMARK H PARENT 3 7 89 25 57 36 7 75 21 93
REMARK Flexibility Score: inf
ROOT
ATOM      1  C   UNL     1       9.037  -4.606   5.462  1.00  0.00     0.117 C 
ENDROOT
BRANCH   1   2
ATOM      2  C   UNL     1       9.889  -3.683   6.334  1.00  0.00     0.042 C 
BRANCH   2   3
ATOM      3  C   UNL     1      10.525  -4.418   7.511  1.00  0.00     0.118 C 
BRANCH   3   4
ATOM      4  N   UNL     1      11.545  -5.354   7.061  1.00  0.00    -0.352 N 
ATOM      5  O   UNL     1      13.602  -5.999   6.438  1.00  0.00    -0.269 OA
ATOM      6  C   UNL     1      12.910  -5.281   7.152  1.00  0.00     0.251 C 
ATOM      7  H   UNL     1      11.200  -6.165   6.624  1.00  0.00     0.163 HD
BRANCH   6   8
ATOM      8  C   UNL     1      13.556  -4.365   8.116  1.00  0.00     0.039 A 
ATOM      9  C   UNL     1      13.045  -4.202   9.407  1.00  0.00     0.014 A 
ATOM     10  C   UNL     1      14.754  -3.744   7.753  1.00  0.00     0.014 A 
ATOM     11  C   UNL     1      13.680  -3.350  10.305  1.00  0.00     0.010 A 
ATOM     12  C   UNL     1      15.430  -2.947   8.678  1.00  0.00     0.010 A 
ATOM     13  C   UNL     1      14.893  -2.737   9.957  1.00  0.00    -0.014 A 
BRANCH  13  14
ATOM     14  C   UNL     1      15.637  -1.938  10.959  1.00  0.00     0.031 A 
ATOM     15  C   UNL     1      15.843  -0.467  10.759  1.00  0.00     0.074 A 
ATOM     16  C   UNL     1      16.160  -2.562  12.030  1.00  0.00     0.049 A 
ATOM     17  N   UNL     1      16.546   0.374  11.474  1.00  0.00    -0.248 NA
ATOM     18  C   UNL     1      15.181   0.138   9.594  1.00  0.00     0.031 C 
ATOM     19  C   UNL     1      16.027  -3.991  12.318  1.00  0.00     0.029 A 
ATOM     20  N   UNL     1      16.919  -2.082  13.067  1.00  0.00    -0.354 N 
ATOM     21  C   UNL     1      16.434   1.600  10.833  1.00  0.00     0.074 A 
ATOM     22  C   UNL     1      15.611   1.390   9.660  1.00  0.00     0.031 C 
ATOM     23  C   UNL     1      16.674  -4.271  13.458  1.00  0.00     0.029 A 
ATOM     24  C   UNL     1      17.317  -3.056  13.947  1.00  0.00     0.049 A 
ATOM     25  H   UNL     1      17.154  -1.131  13.169  1.00  0.00     0.167 HD
ATOM     26  C   UNL     1      16.971   2.789  11.197  1.00  0.00     0.037 A 
ATOM     27  C   UNL     1      18.140  -2.988  15.010  1.00  0.00     0.037 A 
ATOM     28  C   UNL     1      17.780   2.983  12.372  1.00  0.00     0.049 A 
ATOM     29  C   UNL     1      18.744  -1.665  15.380  1.00  0.00     0.074 A 
ATOM     30  C   UNL     1      18.336   4.154  12.855  1.00  0.00     0.029 A 
ATOM     31  N   UNL     1      18.157   1.972  13.246  1.00  0.00    -0.354 N 
ATOM     32  N   UNL     1      18.604  -0.503  14.789  1.00  0.00    -0.248 NA
ATOM     33  C   UNL     1      19.618  -1.640  16.559  1.00  0.00     0.031 C 
ATOM     34  C   UNL     1      19.090   3.844  13.992  1.00  0.00     0.029 A 
ATOM     35  C   UNL     1      18.960   2.488  14.251  1.00  0.00     0.049 A 
ATOM     36  H   UNL     1      17.894   1.027  13.164  1.00  0.00     0.167 HD
ATOM     37  C   UNL     1      19.352   0.396  15.534  1.00  0.00     0.074 A 
ATOM     38  C   UNL     1      19.942  -0.355  16.624  1.00  0.00     0.031 C 
ATOM     39  C   UNL     1      19.530   1.724  15.333  1.00  0.00     0.037 A 
BRANCH  26  40
ATOM     40  C   UNL     1      16.726   3.963  10.293  1.00  0.00     0.064 A 
ATOM     41  C   UNL     1      15.460   4.554  10.171  1.00  0.00     0.173 A 
ATOM     42  C   UNL     1      17.779   4.511   9.544  1.00  0.00     0.173 A 
ATOM     43  F   UNL     1      14.416   4.062  10.856  1.00  0.00    -0.203 F 
ATOM     44  C   UNL     1      15.249   5.626   9.306  1.00  0.00     0.198 A 
ATOM     45  C   UNL     1      17.571   5.601   8.703  1.00  0.00     0.198 A 
ATOM     46  F   UNL     1      19.012   3.989   9.627  1.00  0.00    -0.203 F 
ATOM     47  F   UNL     1      14.018   6.137   9.164  1.00  0.00    -0.200 F 
ATOM     48  C   UNL     1      16.305   6.151   8.577  1.00  0.00     0.200 A 
ATOM     49  F   UNL     1      18.596   6.115   8.008  1.00  0.00    -0.200 F 
ATOM     50  F   UNL     1      16.099   7.181   7.744  1.00  0.00    -0.200 F 
ENDBRANCH  26  40
BRANCH  27  51
ATOM     51  C   UNL     1      18.431  -4.224  15.778  1.00  0.00     0.064 A 
ATOM     52  C   UNL     1      17.889  -4.426  17.053  1.00  0.00     0.173 A 
ATOM     53  C   UNL     1      19.203  -5.256  15.223  1.00  0.00     0.173 A 
ATOM     54  F   UNL     1      17.158  -3.462  17.630  1.00  0.00    -0.203 F 
ATOM     55  C   UNL     1      18.107  -5.616  17.745  1.00  0.00     0.198 A 
ATOM     56  C   UNL     1      19.398  -6.455  15.905  1.00  0.00     0.198 A 
ATOM     57  F   UNL     1      19.736  -5.113  14.001  1.00  0.00    -0.203 F 
ATOM     58  F   UNL     1      17.593  -5.779  18.972  1.00  0.00    -0.200 F 
ATOM     59  C   UNL     1      18.852  -6.633  17.166  1.00  0.00     0.200 A 
ATOM     60  F   UNL     1      20.102  -7.442  15.333  1.00  0.00    -0.200 F 
ATOM     61  F   UNL     1      19.041  -7.785  17.823  1.00  0.00    -0.200 F 
ENDBRANCH  27  51
BRANCH  39  62
ATOM     62  C   UNL     1      20.364   2.466  16.334  1.00  0.00     0.064 A 
ATOM     63  C   UNL     1      21.761   2.354  16.356  1.00  0.00     0.173 A 
ATOM     64  C   UNL     1      19.758   3.354  17.236  1.00  0.00     0.173 A 
ATOM     65  F   UNL     1      22.383   1.506  15.524  1.00  0.00    -0.203 F 
ATOM     66  C   UNL     1      22.521   3.099  17.253  1.00  0.00     0.198 A 
ATOM     67  C   UNL     1      20.523   4.115  18.114  1.00  0.00     0.198 A 
ATOM     68  F   UNL     1      18.424   3.498  17.250  1.00  0.00    -0.203 F 
ATOM     69  F   UNL     1      23.854   2.956  17.279  1.00  0.00    -0.200 F 
ATOM     70  C   UNL     1      21.904   3.985  18.124  1.00  0.00     0.200 A 
ATOM     71  F   UNL     1      19.925   4.979  18.945  1.00  0.00    -0.200 F 
ATOM     72  F   UNL     1      22.639   4.713  18.975  1.00  0.00    -0.200 F 
ENDBRANCH  39  62
ENDBRANCH  13  14
ENDBRANCH   6   8
ENDBRANCH   3   4
ENDBRANCH   2   3
ENDBRANCH   1   2
BRANCH   1  73
ATOM     73  N   UNL     1       7.736  -4.846   6.061  1.00  0.00    -0.356 N 
ATOM     74  C   UNL     1       6.542  -4.207   6.007  1.00  0.00     0.224 C 
ATOM     75  H   UNL     1       7.718  -5.648   6.632  1.00  0.00     0.163 HD
ATOM     76  O   UNL     1       5.672  -4.677   6.751  1.00  0.00    -0.275 OA
BRANCH  74  77
ATOM     77  C   UNL     1       6.198  -3.062   5.043  1.00  0.00     0.098 C 
ATOM     78  C   UNL     1       5.006  -2.273   5.622  1.00  0.00     0.017 C 
ATOM     79  C   UNL     1       7.327  -2.093   4.717  1.00  0.00     0.133 C 
ATOM     80  C   UNL     1       4.588  -1.132   4.705  1.00  0.00     0.022 C 
ATOM     81  N   UNL     1       6.937  -0.920   3.942  1.00  0.00    -0.338 N 
ATOM     82  C   UNL     1       5.749  -0.201   4.390  1.00  0.00     0.120 C 
BRANCH  81  83
ATOM     83  C   UNL     1       7.869  -0.459   3.005  1.00  0.00     0.253 C 
ATOM     84  O   UNL     1       8.972  -0.978   2.832  1.00  0.00    -0.269 OA
BRANCH  83  85
ATOM     85  C   UNL     1       7.504   0.627   2.083  1.00  0.00     0.040 A 
ATOM     86  C   UNL     1       7.453   0.310   0.726  1.00  0.00     0.016 A 
ATOM     87  C   UNL     1       7.263   1.932   2.510  1.00  0.00     0.016 A 
ATOM     88  C   UNL     1       7.051   1.274  -0.194  1.00  0.00     0.027 A 
ATOM     89  C   UNL     1       6.830   2.885   1.582  1.00  0.00     0.027 A 
ATOM     90  C   UNL     1       6.649   2.539   0.235  1.00  0.00     0.041 A 
BRANCH  90  91
ATOM     91  N   UNL     1       6.063   3.502  -0.607  1.00  0.00    -0.322 N 
ATOM     92  C   UNL     1       5.459   3.393  -1.843  1.00  0.00     0.255 C 
ATOM     93  H   UNL     1       6.088   4.418  -0.249  1.00  0.00     0.170 HD
ATOM     94  O   UNL     1       5.159   4.408  -2.469  1.00  0.00    -0.269 OA
BRANCH  92  95
ATOM     95  C   UNL     1       5.110   2.079  -2.421  1.00  0.00     0.040 A 
ATOM     96  C   UNL     1       5.590   1.766  -3.697  1.00  0.00     0.014 A 
ATOM     97  C   UNL     1       4.343   1.149  -1.706  1.00  0.00     0.014 A 
ATOM     98  C   UNL     1       5.369   0.493  -4.223  1.00  0.00     0.001 A 
ATOM     99  C   UNL     1       4.135  -0.126  -2.234  1.00  0.00     0.001 A 
ATOM    100  C   UNL     1       4.658  -0.455  -3.486  1.00  0.00     0.000 A 
ENDBRANCH  92  95
ENDBRANCH  90  91
ENDBRANCH  83  85
ENDBRANCH  81  83
ENDBRANCH  74  77
ENDBRANCH   1  73
TORSDOF 14
