REMARK SMILES O=C(C[C@@H](C(=O)NCCCNC(=O)c1ccc(-c2c3nc(c(-c4c(F)c(F)c(F)c(F)c4F)c4ccc([nH]4)c(-c4c(F)c(F)c(F)c(F)c4F)c4nc(c(-c5c(F)c(F)c(F)c(F)c5F)c5ccc2[nH]5)C=C4)C=C3)cc1)c1ccccc1)Nc1cc(C(F)(F)F)ccc1-n1cncn1
REMARK SMILES IDX 8 1 7 2 5 3 6 4 4 6 3 7 2 8 1 9 83 10 84 12 85 13 93 14
REMARK SMILES IDX 86 15 92 16 91 17 94 18 95 19 98 20 96 21 97 22 87 23 88 24
REMARK SMILES IDX 89 25 90 26 77 27 78 28 82 29 79 30 81 31 80 32 9 33 10 34
REMARK SMILES IDX 11 35 12 36 13 38 14 39 15 40 76 41 16 42 75 43 17 44 18 45
REMARK SMILES IDX 19 46 69 47 20 48 74 49 68 50 70 51 21 52 73 53 67 54 66 55
REMARK SMILES IDX 22 57 54 58 34 59 53 60 35 61 38 62 52 63 71 64 36 65 37 66
REMARK SMILES IDX 51 68 72 69 39 70 23 71 24 72 32 73 25 74 26 75 30 76 33 77
REMARK SMILES IDX 27 78 28 79 31 80 29 81 55 82 56 83 64 84 57 85 58 86 62 87
REMARK SMILES IDX 65 88 59 89 60 90 63 91 61 92 40 93 41 94 49 95 42 96 43 97
REMARK SMILES IDX 47 98 50 99 44 100 45 101 48 102 46 103
REMARK H PARENT 7 5 83 11 11 37 70 56 38 67
REMARK Flexibility Score: inf
ROOT
ATOM      1  C   UNL     1       4.448   0.924  -2.302  1.00  0.00     0.117 C 
ENDROOT
BRANCH   1   2
ATOM      2  N   UNL     1       5.504   0.056  -1.846  1.00  0.00    -0.355 N 
ATOM      3  C   UNL     1       5.499  -0.997  -0.986  1.00  0.00     0.228 C 
ATOM      4  O   UNL     1       6.616  -1.254  -0.525  1.00  0.00    -0.274 OA
ATOM      5  H   UNL     1       6.388   0.262  -2.226  1.00  0.00     0.163 HD
BRANCH   3   6
ATOM      6  C   UNL     1       4.229  -1.852  -0.677  1.00  0.00     0.118 C 
BRANCH   6   7
ATOM      7  C   UNL     1       3.106  -1.138   0.101  1.00  0.00     0.118 C 
BRANCH   7   8
ATOM      8  C   UNL     1       1.970  -0.706  -0.817  1.00  0.00     0.225 C 
ATOM      9  O   UNL     1       1.658  -1.328  -1.829  1.00  0.00    -0.275 OA
ATOM     10  N   UNL     1       1.376   0.471  -0.405  1.00  0.00    -0.324 N 
ATOM     11  H   UNL     1       1.346   0.636   0.565  1.00  0.00     0.170 HD
BRANCH  10  12
ATOM     12  C   UNL     1       0.801   1.469  -1.244  1.00  0.00     0.067 A 
ATOM     13  C   UNL     1       0.990   1.439  -2.634  1.00  0.00     0.041 A 
ATOM     14  C   UNL     1       0.146   2.593  -0.706  1.00  0.00     0.090 A 
ATOM     15  C   UNL     1       0.641   2.527  -3.455  1.00  0.00     0.058 A 
ATOM     16  C   UNL     1      -0.316   3.635  -1.523  1.00  0.00     0.031 A 
ATOM     17  C   UNL     1      -0.037   3.614  -2.891  1.00  0.00     0.015 A 
BRANCH  14  18
ATOM     18  N   UNL     1      -0.120   2.676   0.669  1.00  0.00    -0.219 N 
ATOM     19  C   UNL     1       0.788   2.637   1.698  1.00  0.00     0.226 A 
ATOM     20  N   UNL     1      -1.354   2.407   1.141  1.00  0.00    -0.155 NA
ATOM     21  N   UNL     1       0.208   2.204   2.792  1.00  0.00    -0.223 NA
ATOM     22  C   UNL     1      -1.095   2.068   2.406  1.00  0.00     0.246 A 
ENDBRANCH  14  18
BRANCH  15  23
ATOM     23  C   UNL     1       1.074   2.519  -4.907  1.00  0.00     0.416 C 
ATOM     24  F   UNL     1       2.429   2.401  -5.029  1.00  0.00    -0.166 F 
ATOM     25  F   UNL     1       0.555   1.468  -5.598  1.00  0.00    -0.166 F 
ATOM     26  F   UNL     1       0.714   3.634  -5.595  1.00  0.00    -0.166 F 
ENDBRANCH  15  23
ENDBRANCH  10  12
ENDBRANCH   7   8
ENDBRANCH   6   7
BRANCH   6  27
ATOM     27  C   UNL     1       4.618  -3.122   0.096  1.00  0.00    -0.035 A 
ATOM     28  C   UNL     1       4.237  -4.386  -0.377  1.00  0.00     0.004 A 
ATOM     29  C   UNL     1       5.383  -3.050   1.275  1.00  0.00     0.004 A 
ATOM     30  C   UNL     1       4.675  -5.544   0.271  1.00  0.00     0.000 A 
ATOM     31  C   UNL     1       5.838  -4.207   1.905  1.00  0.00     0.000 A 
ATOM     32  C   UNL     1       5.492  -5.455   1.397  1.00  0.00     0.000 A 
ENDBRANCH   6  27
ENDBRANCH   3   6
ENDBRANCH   1   2
BRANCH   1  33
ATOM     33  C   UNL     1       4.264   2.070  -1.307  1.00  0.00     0.042 C 
BRANCH  33  34
ATOM     34  C   UNL     1       4.747   3.437  -1.772  1.00  0.00     0.118 C 
BRANCH  34  35
ATOM     35  N   UNL     1       4.120   3.904  -2.997  1.00  0.00    -0.352 N 
ATOM     36  C   UNL     1       3.369   4.997  -3.336  1.00  0.00     0.251 C 
ATOM     37  H   UNL     1       4.269   3.295  -3.756  1.00  0.00     0.163 HD
ATOM     38  O   UNL     1       3.020   5.096  -4.513  1.00  0.00    -0.269 OA
BRANCH  36  39
ATOM     39  C   UNL     1       2.914   6.044  -2.390  1.00  0.00     0.039 A 
ATOM     40  C   UNL     1       1.766   6.769  -2.761  1.00  0.00     0.014 A 
ATOM     41  C   UNL     1       3.602   6.418  -1.237  1.00  0.00     0.014 A 
ATOM     42  C   UNL     1       1.322   7.846  -1.999  1.00  0.00     0.010 A 
ATOM     43  C   UNL     1       3.112   7.436  -0.423  1.00  0.00     0.010 A 
ATOM     44  C   UNL     1       2.001   8.187  -0.827  1.00  0.00    -0.014 A 
BRANCH  44  45
ATOM     45  C   UNL     1       1.667   9.425  -0.096  1.00  0.00     0.031 A 
ATOM     46  C   UNL     1       2.643  10.568  -0.142  1.00  0.00     0.074 A 
ATOM     47  C   UNL     1       0.523   9.493   0.605  1.00  0.00     0.049 A 
ATOM     48  N   UNL     1       2.632  11.701   0.508  1.00  0.00    -0.248 NA
ATOM     49  C   UNL     1       3.812  10.396  -1.023  1.00  0.00     0.031 C 
ATOM     50  C   UNL     1      -0.476   8.426   0.687  1.00  0.00     0.029 A 
ATOM     51  N   UNL     1       0.011  10.492   1.387  1.00  0.00    -0.354 N 
ATOM     52  C   UNL     1       3.800  12.359   0.138  1.00  0.00     0.074 A 
ATOM     53  C   UNL     1       4.519  11.483  -0.759  1.00  0.00     0.031 C 
ATOM     54  C   UNL     1      -1.488   8.832   1.470  1.00  0.00     0.029 A 
ATOM     55  C   UNL     1      -1.184  10.165   1.979  1.00  0.00     0.049 A 
ATOM     56  H   UNL     1       0.456  11.361   1.512  1.00  0.00     0.167 HD
ATOM     57  C   UNL     1       4.220  13.591   0.511  1.00  0.00     0.037 A 
ATOM     58  C   UNL     1      -1.932  10.869   2.849  1.00  0.00     0.037 A 
ATOM     59  C   UNL     1       3.462  14.439   1.394  1.00  0.00     0.049 A 
ATOM     60  C   UNL     1      -1.443  12.237   3.245  1.00  0.00     0.074 A 
ATOM     61  C   UNL     1       3.760  15.710   1.847  1.00  0.00     0.029 A 
ATOM     62  N   UNL     1       2.239  14.088   1.955  1.00  0.00    -0.354 N 
ATOM     63  N   UNL     1      -0.341  12.857   2.890  1.00  0.00    -0.248 NA
ATOM     64  C   UNL     1      -2.302  13.007   4.150  1.00  0.00     0.031 C 
ATOM     65  C   UNL     1       2.741  16.107   2.721  1.00  0.00     0.029 A 
ATOM     66  C   UNL     1       1.774  15.112   2.760  1.00  0.00     0.049 A 
ATOM     67  H   UNL     1       1.772  13.235   1.801  1.00  0.00     0.167 HD
ATOM     68  C   UNL     1      -0.386  14.101   3.502  1.00  0.00     0.074 A 
ATOM     69  C   UNL     1      -1.637  14.151   4.235  1.00  0.00     0.031 C 
ATOM     70  C   UNL     1       0.518  15.114   3.469  1.00  0.00     0.037 A 
BRANCH  57  71
ATOM     71  C   UNL     1       5.552  14.064  -0.005  1.00  0.00     0.064 A 
ATOM     72  C   UNL     1       5.773  14.336  -1.365  1.00  0.00     0.173 A 
ATOM     73  C   UNL     1       6.631  14.246   0.875  1.00  0.00     0.173 A 
ATOM     74  F   UNL     1       4.786  14.162  -2.257  1.00  0.00    -0.203 F 
ATOM     75  C   UNL     1       7.027  14.733  -1.827  1.00  0.00     0.198 A 
ATOM     76  C   UNL     1       7.874  14.677   0.415  1.00  0.00     0.198 A 
ATOM     77  F   UNL     1       6.484  14.000   2.186  1.00  0.00    -0.203 F 
ATOM     78  F   UNL     1       7.227  14.922  -3.139  1.00  0.00    -0.200 F 
ATOM     79  C   UNL     1       8.074  14.910  -0.936  1.00  0.00     0.200 A 
ATOM     80  F   UNL     1       8.882  14.856   1.280  1.00  0.00    -0.200 F 
ATOM     81  F   UNL     1       9.280  15.292  -1.382  1.00  0.00    -0.200 F 
ENDBRANCH  57  71
BRANCH  58  82
ATOM     82  C   UNL     1      -3.204  10.302   3.372  1.00  0.00     0.064 A 
ATOM     83  C   UNL     1      -4.443  10.863   3.032  1.00  0.00     0.173 A 
ATOM     84  C   UNL     1      -3.212   9.171   4.203  1.00  0.00     0.173 A 
ATOM     85  F   UNL     1      -4.493  11.952   2.250  1.00  0.00    -0.203 F 
ATOM     86  C   UNL     1      -5.636  10.329   3.517  1.00  0.00     0.198 A 
ATOM     87  C   UNL     1      -4.407   8.618   4.661  1.00  0.00     0.198 A 
ATOM     88  F   UNL     1      -2.057   8.586   4.553  1.00  0.00    -0.203 F 
ATOM     89  F   UNL     1      -6.803  10.913   3.209  1.00  0.00    -0.200 F 
ATOM     90  C   UNL     1      -5.618   9.202   4.324  1.00  0.00     0.200 A 
ATOM     91  F   UNL     1      -4.385   7.516   5.423  1.00  0.00    -0.200 F 
ATOM     92  F   UNL     1      -6.766   8.682   4.780  1.00  0.00    -0.200 F 
ENDBRANCH  58  82
BRANCH  70  93
ATOM     93  C   UNL     1       0.149  16.365   4.210  1.00  0.00     0.064 A 
ATOM     94  C   UNL     1       0.108  16.410   5.611  1.00  0.00     0.173 A 
ATOM     95  C   UNL     1      -0.155  17.538   3.502  1.00  0.00     0.173 A 
ATOM     96  F   UNL     1       0.379  15.311   6.330  1.00  0.00    -0.203 F 
ATOM     97  C   UNL     1      -0.270  17.573   6.275  1.00  0.00     0.198 A 
ATOM     98  C   UNL     1      -0.494  18.709   4.170  1.00  0.00     0.198 A 
ATOM     99  F   UNL     1      -0.118  17.548   2.160  1.00  0.00    -0.203 F 
ATOM    100  F   UNL     1      -0.372  17.574   7.611  1.00  0.00    -0.200 F 
ATOM    101  C   UNL     1      -0.565  18.721   5.555  1.00  0.00     0.200 A 
ATOM    102  F   UNL     1      -0.760  19.822   3.474  1.00  0.00    -0.200 F 
ATOM    103  F   UNL     1      -0.929  19.840   6.197  1.00  0.00    -0.200 F 
ENDBRANCH  70  93
ENDBRANCH  44  45
ENDBRANCH  36  39
ENDBRANCH  34  35
ENDBRANCH  33  34
ENDBRANCH   1  33
TORSDOF 16
