REMARK SMILES COc1ccc(-n2ncc(C(=O)NCCCNC(=O)c3ccc(-c4c5nc(c(-c6c(F)c(F)c(F)c(F)c6F)c6ccc([nH]6)c(-c6c(F)c(F)c(F)c(F)c6F)c6nc(c(-c7c(F)c(F)c(F)c(F)c7F)c7ccc4[nH]7)C=C6)C=C5)cc3)n2)nn1
REMARK SMILES IDX 15 1 14 2 13 3 11 4 12 5 10 7 7 8 8 9 83 10 9 11 6 12 3 13
REMARK SMILES IDX 4 14 85 15 5 16 84 17 2 18 1 19 16 20 17 21 18 22 19 24
REMARK SMILES IDX 20 25 21 26 82 27 22 28 81 29 23 30 24 31 25 32 75 33 26 34
REMARK SMILES IDX 80 35 74 36 76 37 27 38 79 39 73 40 72 41 28 43 60 44 40 45
REMARK SMILES IDX 59 46 41 47 44 48 58 49 77 50 42 51 43 52 57 54 78 55 45 56
REMARK SMILES IDX 29 57 30 58 38 59 31 60 32 61 36 62 39 63 33 64 34 65 37 66
REMARK SMILES IDX 35 67 61 68 62 69 70 70 63 71 64 72 68 73 71 74 65 75 66 76
REMARK SMILES IDX 69 77 67 78 46 79 47 80 55 81 48 82 49 83 53 84 56 85 50 86
REMARK SMILES IDX 51 87 54 88 52 89
REMARK H PARENT 13 6 17 23 76 42 44 53
REMARK Flexibility Score: inf
ROOT
ATOM      1  C   UNL     1       2.978   8.912  -7.727  1.00  0.00     0.042 C 
ENDROOT
BRANCH   1   2
ATOM      2  C   UNL     1       3.302   9.028  -6.234  1.00  0.00     0.118 C 
BRANCH   2   3
ATOM      3  N   UNL     1       2.100   9.184  -5.432  1.00  0.00    -0.351 N 
ATOM      4  C   UNL     1       1.287   8.299  -4.760  1.00  0.00     0.273 C 
ATOM      5  O   UNL     1       0.325   8.807  -4.177  1.00  0.00    -0.267 OA
ATOM      6  H   UNL     1       1.806  10.120  -5.352  1.00  0.00     0.163 HD
BRANCH   4   7
ATOM      7  C   UNL     1       1.576   6.859  -4.688  1.00  0.00     0.170 A 
ATOM      8  N   UNL     1       1.570   4.877  -3.926  1.00  0.00    -0.130 N 
ATOM      9  N   UNL     1       2.623   4.861  -4.790  1.00  0.00    -0.154 NA
ATOM     10  N   UNL     1       0.871   6.037  -3.879  1.00  0.00    -0.141 NA
ATOM     11  C   UNL     1       2.545   6.072  -5.336  1.00  0.00     0.172 A 
BRANCH   8  12
ATOM     12  C   UNL     1       1.283   3.744  -3.121  1.00  0.00     0.196 A 
ATOM     13  C   UNL     1       0.743   1.429  -1.814  1.00  0.00     0.233 A 
ATOM     14  C   UNL     1       2.067   1.756  -2.041  1.00  0.00     0.074 A 
ATOM     15  N   UNL     1      -0.269   2.240  -2.188  1.00  0.00    -0.110 NA
ATOM     16  C   UNL     1       2.343   2.932  -2.727  1.00  0.00     0.058 A 
ATOM     17  N   UNL     1       0.003   3.437  -2.812  1.00  0.00    -0.125 NA
BRANCH  13  18
ATOM     18  O   UNL     1       0.383   0.204  -1.317  1.00  0.00    -0.480 OA
ATOM     19  C   UNL     1       0.885  -0.001  -0.002  1.00  0.00     0.280 C 
ENDBRANCH  13  18
ENDBRANCH   8  12
ENDBRANCH   4   7
ENDBRANCH   2   3
ENDBRANCH   1   2
BRANCH   1  20
ATOM     20  C   UNL     1       2.722  10.281  -8.348  1.00  0.00     0.118 C 
BRANCH  20  21
ATOM     21  N   UNL     1       3.942  11.087  -8.427  1.00  0.00    -0.352 N 
ATOM     22  C   UNL     1       4.108  12.364  -8.911  1.00  0.00     0.251 C 
ATOM     23  H   UNL     1       4.758  10.655  -8.085  1.00  0.00     0.163 HD
ATOM     24  O   UNL     1       5.233  12.762  -9.228  1.00  0.00    -0.269 OA
BRANCH  22  25
ATOM     25  C   UNL     1       2.947  13.255  -9.055  1.00  0.00     0.039 A 
ATOM     26  C   UNL     1       2.856  14.142 -10.131  1.00  0.00     0.014 A 
ATOM     27  C   UNL     1       1.936  13.203  -8.095  1.00  0.00     0.014 A 
ATOM     28  C   UNL     1       1.705  14.911 -10.275  1.00  0.00     0.010 A 
ATOM     29  C   UNL     1       0.745  13.855  -8.310  1.00  0.00     0.010 A 
ATOM     30  C   UNL     1       0.638  14.738  -9.375  1.00  0.00    -0.014 A 
BRANCH  30  31
ATOM     31  C   UNL     1      -0.670  15.321  -9.662  1.00  0.00     0.031 A 
ATOM     32  C   UNL     1      -1.183  14.906 -10.994  1.00  0.00     0.074 A 
ATOM     33  C   UNL     1      -1.423  15.976  -8.749  1.00  0.00     0.049 A 
ATOM     34  N   UNL     1      -1.293  15.645 -12.046  1.00  0.00    -0.248 NA
ATOM     35  C   UNL     1      -1.406  13.473 -11.259  1.00  0.00     0.031 C 
ATOM     36  C   UNL     1      -1.131  16.156  -7.322  1.00  0.00     0.029 A 
ATOM     37  N   UNL     1      -2.663  16.542  -8.870  1.00  0.00    -0.354 N 
ATOM     38  C   UNL     1      -1.851  14.828 -13.027  1.00  0.00     0.074 A 
ATOM     39  C   UNL     1      -1.674  13.480 -12.568  1.00  0.00     0.031 C 
ATOM     40  C   UNL     1      -2.243  16.570  -6.674  1.00  0.00     0.029 A 
ATOM     41  C   UNL     1      -3.278  16.845  -7.653  1.00  0.00     0.049 A 
ATOM     42  H   UNL     1      -3.085  16.721  -9.741  1.00  0.00     0.167 HD
ATOM     43  C   UNL     1      -2.707  15.370 -13.939  1.00  0.00     0.037 A 
ATOM     44  C   UNL     1      -4.548  17.288  -7.464  1.00  0.00     0.037 A 
ATOM     45  C   UNL     1      -2.604  16.810 -13.899  1.00  0.00     0.049 A 
ATOM     46  C   UNL     1      -4.999  17.869  -8.747  1.00  0.00     0.074 A 
ATOM     47  C   UNL     1      -1.684  17.761 -14.279  1.00  0.00     0.029 A 
ATOM     48  N   UNL     1      -3.422  17.381 -12.960  1.00  0.00    -0.354 N 
ATOM     49  N   UNL     1      -4.508  18.969  -9.245  1.00  0.00    -0.248 NA
ATOM     50  C   UNL     1      -5.744  17.035  -9.681  1.00  0.00     0.031 C 
ATOM     51  C   UNL     1      -1.882  18.873 -13.405  1.00  0.00     0.029 A 
ATOM     52  C   UNL     1      -2.962  18.603 -12.566  1.00  0.00     0.049 A 
ATOM     53  H   UNL     1      -4.242  16.961 -12.613  1.00  0.00     0.167 HD
ATOM     54  C   UNL     1      -4.481  18.738 -10.604  1.00  0.00     0.074 A 
ATOM     55  C   UNL     1      -5.411  17.637 -10.827  1.00  0.00     0.031 C 
ATOM     56  C   UNL     1      -3.455  19.225 -11.359  1.00  0.00     0.037 A 
BRANCH  43  57
ATOM     57  C   UNL     1      -3.993  14.717 -14.433  1.00  0.00     0.064 A 
ATOM     58  C   UNL     1      -4.817  15.452 -15.318  1.00  0.00     0.173 A 
ATOM     59  C   UNL     1      -4.608  13.593 -13.842  1.00  0.00     0.173 A 
ATOM     60  F   UNL     1      -4.350  16.543 -15.943  1.00  0.00    -0.203 F 
ATOM     61  C   UNL     1      -6.169  15.145 -15.506  1.00  0.00     0.198 A 
ATOM     62  C   UNL     1      -5.947  13.265 -14.067  1.00  0.00     0.198 A 
ATOM     63  F   UNL     1      -3.992  12.820 -12.945  1.00  0.00    -0.203 F 
ATOM     64  F   UNL     1      -6.938  15.951 -16.251  1.00  0.00    -0.200 F 
ATOM     65  C   UNL     1      -6.736  14.058 -14.871  1.00  0.00     0.200 A 
ATOM     66  F   UNL     1      -6.481  12.217 -13.425  1.00  0.00    -0.200 F 
ATOM     67  F   UNL     1      -8.043  13.798 -14.996  1.00  0.00    -0.200 F 
ENDBRANCH  43  57
BRANCH  44  68
ATOM     68  C   UNL     1      -5.488  17.099  -6.331  1.00  0.00     0.064 A 
ATOM     69  C   UNL     1      -6.636  17.902  -6.192  1.00  0.00     0.173 A 
ATOM     70  C   UNL     1      -5.447  15.932  -5.546  1.00  0.00     0.173 A 
ATOM     71  F   UNL     1      -6.775  19.016  -6.926  1.00  0.00    -0.203 F 
ATOM     72  C   UNL     1      -7.697  17.534  -5.357  1.00  0.00     0.198 A 
ATOM     73  C   UNL     1      -6.507  15.567  -4.711  1.00  0.00     0.198 A 
ATOM     74  F   UNL     1      -4.424  15.073  -5.653  1.00  0.00    -0.203 F 
ATOM     75  F   UNL     1      -8.805  18.288  -5.310  1.00  0.00    -0.200 F 
ATOM     76  C   UNL     1      -7.639  16.358  -4.630  1.00  0.00     0.200 A 
ATOM     77  F   UNL     1      -6.455  14.408  -4.040  1.00  0.00    -0.200 F 
ATOM     78  F   UNL     1      -8.685  15.965  -3.890  1.00  0.00    -0.200 F 
ENDBRANCH  44  68
BRANCH  56  79
ATOM     79  C   UNL     1      -2.703  20.403 -10.823  1.00  0.00     0.064 A 
ATOM     80  C   UNL     1      -1.901  20.390  -9.671  1.00  0.00     0.173 A 
ATOM     81  C   UNL     1      -2.738  21.583 -11.579  1.00  0.00     0.173 A 
ATOM     82  F   UNL     1      -1.756  19.278  -8.939  1.00  0.00    -0.203 F 
ATOM     83  C   UNL     1      -1.193  21.526  -9.280  1.00  0.00     0.198 A 
ATOM     84  C   UNL     1      -2.000  22.699 -11.209  1.00  0.00     0.198 A 
ATOM     85  F   UNL     1      -3.462  21.635 -12.708  1.00  0.00    -0.203 F 
ATOM     86  F   UNL     1      -0.445  21.502  -8.166  1.00  0.00    -0.200 F 
ATOM     87  C   UNL     1      -1.236  22.675 -10.054  1.00  0.00     0.200 A 
ATOM     88  F   UNL     1      -2.011  23.790 -11.986  1.00  0.00    -0.200 F 
ATOM     89  F   UNL     1      -0.525  23.754  -9.699  1.00  0.00    -0.200 F 
ENDBRANCH  56  79
ENDBRANCH  30  31
ENDBRANCH  22  25
ENDBRANCH  20  21
ENDBRANCH   1  20
TORSDOF 12
