REMARK SMILES O=C(CNc1nc(-c2ccccc2)c(-c2ccccc2)s1)NCCCNC(=O)c1ccc(-c2c3nc(c(-c4c(F)c(F)c(F)c(F)c4F)c4ccc([nH]4)c(-c4c(F)c(F)c(F)c(F)c4F)c4nc(c(-c5c(F)c(F)c(F)c(F)c5F)c5ccc2[nH]5)C=C4)C=C3)cc1
REMARK SMILES IDX 23 1 22 2 1 3 2 4 3 6 4 7 5 9 6 10 21 11 7 12 14 13 8 14
REMARK SMILES IDX 9 15 13 16 10 17 12 18 11 19 15 20 16 21 20 22 17 23 19 24
REMARK SMILES IDX 18 25 24 26 25 27 26 28 27 29 28 31 29 32 30 33 91 34 31 35
REMARK SMILES IDX 90 36 32 37 33 38 34 39 84 40 35 41 89 42 83 43 85 44 36 45
REMARK SMILES IDX 88 46 82 47 81 48 37 50 69 51 49 52 68 53 50 54 53 55 67 56
REMARK SMILES IDX 86 57 51 58 52 59 66 61 87 62 54 63 38 64 39 65 47 66 40 67
REMARK SMILES IDX 41 68 45 69 48 70 42 71 43 72 46 73 44 74 70 75 71 76 79 77
REMARK SMILES IDX 72 78 73 79 77 80 80 81 74 82 75 83 78 84 76 85 55 86 56 87
REMARK SMILES IDX 64 88 57 89 58 90 62 91 65 92 59 93 60 94 63 95 61 96
REMARK H PARENT 22 5 4 8 26 30 85 49 53 60
REMARK Flexibility Score: inf
ROOT
ATOM      1  C   UNL     1       2.120   0.024  -2.287  1.00  0.00     0.117 C 
ENDROOT
BRANCH   1   2
ATOM      2  N   UNL     1       2.790  -0.103  -1.011  1.00  0.00    -0.355 N 
ATOM      3  O   UNL     1       0.951   0.255   0.329  1.00  0.00    -0.273 OA
ATOM      4  C   UNL     1       2.141  -0.019   0.210  1.00  0.00     0.239 C 
ATOM      5  H   UNL     1       3.762  -0.257  -1.010  1.00  0.00     0.163 HD
BRANCH   4   6
ATOM      6  C   UNL     1       3.073  -0.278   1.408  1.00  0.00     0.215 C 
BRANCH   6   7
ATOM      7  N   UNL     1       4.034  -1.311   1.043  1.00  0.00    -0.352 N 
ATOM      8  H   UNL     1       3.716  -2.105   0.554  1.00  0.00     0.163 HD
BRANCH   7   9
ATOM      9  C   UNL     1       5.338  -1.218   1.351  1.00  0.00     0.184 A 
ATOM     10  N   UNL     1       5.862  -0.434   2.261  1.00  0.00    -0.220 NA
ATOM     11  S   UNL     1       6.464  -2.171   0.465  1.00  0.00    -0.096 S 
ATOM     12  C   UNL     1       7.243  -0.581   2.275  1.00  0.00     0.091 A 
ATOM     13  C   UNL     1       7.760  -1.440   1.315  1.00  0.00     0.064 A 
BRANCH  12  14
ATOM     14  C   UNL     1       8.069   0.087   3.270  1.00  0.00     0.002 A 
ATOM     15  C   UNL     1       9.120   0.932   2.890  1.00  0.00     0.010 A 
ATOM     16  C   UNL     1       7.878  -0.205   4.626  1.00  0.00     0.010 A 
ATOM     17  C   UNL     1       9.998   1.439   3.852  1.00  0.00     0.001 A 
ATOM     18  C   UNL     1       8.759   0.301   5.585  1.00  0.00     0.001 A 
ATOM     19  C   UNL     1       9.823   1.113   5.196  1.00  0.00     0.000 A 
ENDBRANCH  12  14
BRANCH  13  20
ATOM     20  C   UNL     1       9.138  -1.809   0.996  1.00  0.00    -0.006 A 
ATOM     21  C   UNL     1       9.675  -1.517  -0.266  1.00  0.00     0.009 A 
ATOM     22  C   UNL     1       9.960  -2.399   1.965  1.00  0.00     0.009 A 
ATOM     23  C   UNL     1      11.011  -1.805  -0.551  1.00  0.00     0.001 A 
ATOM     24  C   UNL     1      11.296  -2.685   1.679  1.00  0.00     0.001 A 
ATOM     25  C   UNL     1      11.821  -2.386   0.423  1.00  0.00     0.000 A 
ENDBRANCH  13  20
ENDBRANCH   7   9
ENDBRANCH   6   7
ENDBRANCH   4   6
ENDBRANCH   1   2
BRANCH   1  26
ATOM     26  C   UNL     1       2.418   1.347  -2.981  1.00  0.00     0.042 C 
BRANCH  26  27
ATOM     27  C   UNL     1       3.888   1.564  -3.331  1.00  0.00     0.118 C 
BRANCH  27  28
ATOM     28  N   UNL     1       4.393   0.628  -4.327  1.00  0.00    -0.352 N 
ATOM     29  C   UNL     1       5.046   0.864  -5.513  1.00  0.00     0.251 C 
ATOM     30  H   UNL     1       4.243  -0.323  -4.118  1.00  0.00     0.163 HD
ATOM     31  O   UNL     1       5.286  -0.071  -6.274  1.00  0.00    -0.269 OA
BRANCH  29  32
ATOM     32  C   UNL     1       5.441   2.237  -5.899  1.00  0.00     0.039 A 
ATOM     33  C   UNL     1       5.234   2.654  -7.218  1.00  0.00     0.014 A 
ATOM     34  C   UNL     1       6.024   3.110  -4.978  1.00  0.00     0.014 A 
ATOM     35  C   UNL     1       5.539   3.966  -7.592  1.00  0.00     0.010 A 
ATOM     36  C   UNL     1       6.255   4.438  -5.331  1.00  0.00     0.010 A 
ATOM     37  C   UNL     1       6.013   4.882  -6.640  1.00  0.00    -0.014 A 
BRANCH  37  38
ATOM     38  C   UNL     1       6.268   6.307  -6.984  1.00  0.00     0.031 A 
ATOM     39  C   UNL     1       7.657   6.873  -6.867  1.00  0.00     0.074 A 
ATOM     40  C   UNL     1       5.241   7.113  -7.316  1.00  0.00     0.049 A 
ATOM     41  N   UNL     1       8.063   8.112  -6.990  1.00  0.00    -0.248 NA
ATOM     42  C   UNL     1       8.729   5.920  -6.542  1.00  0.00     0.031 C 
ATOM     43  C   UNL     1       3.843   6.697  -7.435  1.00  0.00     0.029 A 
ATOM     44  N   UNL     1       5.211   8.458  -7.593  1.00  0.00    -0.354 N 
ATOM     45  C   UNL     1       9.428   8.089  -6.737  1.00  0.00     0.074 A 
ATOM     46  C   UNL     1       9.773   6.724  -6.403  1.00  0.00     0.031 C 
ATOM     47  C   UNL     1       3.095   7.760  -7.772  1.00  0.00     0.029 A 
ATOM     48  C   UNL     1       3.950   8.941  -7.846  1.00  0.00     0.049 A 
ATOM     49  H   UNL     1       6.018   9.023  -7.611  1.00  0.00     0.167 HD
ATOM     50  C   UNL     1      10.317   9.110  -6.796  1.00  0.00     0.037 A 
ATOM     51  C   UNL     1       3.526  10.197  -8.087  1.00  0.00     0.037 A 
ATOM     52  C   UNL     1       9.973  10.464  -7.147  1.00  0.00     0.049 A 
ATOM     53  C   UNL     1       4.530  11.320  -8.119  1.00  0.00     0.074 A 
ATOM     54  C   UNL     1      10.810  11.558  -7.284  1.00  0.00     0.029 A 
ATOM     55  N   UNL     1       8.687  10.910  -7.412  1.00  0.00    -0.354 N 
ATOM     56  N   UNL     1       5.827  11.278  -7.933  1.00  0.00    -0.248 NA
ATOM     57  C   UNL     1       4.010  12.666  -8.399  1.00  0.00     0.031 C 
ATOM     58  C   UNL     1      10.024  12.677  -7.576  1.00  0.00     0.029 A 
ATOM     59  C   UNL     1       8.704  12.268  -7.688  1.00  0.00     0.049 A 
ATOM     60  H   UNL     1       7.880  10.345  -7.405  1.00  0.00     0.167 HD
ATOM     61  C   UNL     1       6.282  12.578  -8.111  1.00  0.00     0.074 A 
ATOM     62  C   UNL     1       5.123  13.385  -8.429  1.00  0.00     0.031 C 
ATOM     63  C   UNL     1       7.546  13.059  -8.020  1.00  0.00     0.037 A 
BRANCH  50  64
ATOM     64  C   UNL     1      11.751   8.804  -6.467  1.00  0.00     0.064 A 
ATOM     65  C   UNL     1      12.546   8.005  -7.303  1.00  0.00     0.173 A 
ATOM     66  C   UNL     1      12.349   9.347  -5.319  1.00  0.00     0.173 A 
ATOM     67  F   UNL     1      12.022   7.453  -8.408  1.00  0.00    -0.203 F 
ATOM     68  C   UNL     1      13.874   7.733  -6.985  1.00  0.00     0.198 A 
ATOM     69  C   UNL     1      13.687   9.102  -5.022  1.00  0.00     0.198 A 
ATOM     70  F   UNL     1      11.638  10.124  -4.488  1.00  0.00    -0.203 F 
ATOM     71  F   UNL     1      14.597   6.921  -7.769  1.00  0.00    -0.200 F 
ATOM     72  C   UNL     1      14.446   8.288  -5.850  1.00  0.00     0.200 A 
ATOM     73  F   UNL     1      14.242   9.652  -3.934  1.00  0.00    -0.200 F 
ATOM     74  F   UNL     1      15.726   8.031  -5.549  1.00  0.00    -0.200 F 
ENDBRANCH  50  64
BRANCH  51  75
ATOM     75  C   UNL     1       2.083  10.464  -8.331  1.00  0.00     0.064 A 
ATOM     76  C   UNL     1       1.631  10.876  -9.593  1.00  0.00     0.173 A 
ATOM     77  C   UNL     1       1.131  10.331  -7.310  1.00  0.00     0.173 A 
ATOM     78  F   UNL     1       2.505  11.040 -10.596  1.00  0.00    -0.203 F 
ATOM     79  C   UNL     1       0.287  11.168  -9.817  1.00  0.00     0.198 A 
ATOM     80  C   UNL     1      -0.217  10.591  -7.543  1.00  0.00     0.198 A 
ATOM     81  F   UNL     1       1.510   9.937  -6.085  1.00  0.00    -0.203 F 
ATOM     82  F   UNL     1      -0.108  11.611 -11.018  1.00  0.00    -0.200 F 
ATOM     83  C   UNL     1      -0.637  11.020  -8.794  1.00  0.00     0.200 A 
ATOM     84  F   UNL     1      -1.109  10.433  -6.556  1.00  0.00    -0.200 F 
ATOM     85  F   UNL     1      -1.930  11.299  -9.010  1.00  0.00    -0.200 F 
ENDBRANCH  51  75
BRANCH  63  86
ATOM     86  C   UNL     1       7.759  14.515  -8.324  1.00  0.00     0.064 A 
ATOM     87  C   UNL     1       7.312  15.527  -7.462  1.00  0.00     0.173 A 
ATOM     88  C   UNL     1       8.462  14.899  -9.477  1.00  0.00     0.173 A 
ATOM     89  F   UNL     1       6.622  15.214  -6.354  1.00  0.00    -0.203 F 
ATOM     90  C   UNL     1       7.540  16.869  -7.755  1.00  0.00     0.198 A 
ATOM     91  C   UNL     1       8.718  16.240  -9.749  1.00  0.00     0.198 A 
ATOM     92  F   UNL     1       8.918  13.972 -10.332  1.00  0.00    -0.203 F 
ATOM     93  F   UNL     1       7.060  17.821  -6.942  1.00  0.00    -0.200 F 
ATOM     94  C   UNL     1       8.250  17.224  -8.892  1.00  0.00     0.200 A 
ATOM     95  F   UNL     1       9.419  16.579 -10.839  1.00  0.00    -0.200 F 
ATOM     96  F   UNL     1       8.477  18.516  -9.166  1.00  0.00    -0.200 F 
ENDBRANCH  63  86
ENDBRANCH  37  38
ENDBRANCH  29  32
ENDBRANCH  27  28
ENDBRANCH  26  27
ENDBRANCH   1  26
TORSDOF 14
