REMARK SMILES CC[C@@H](C)S(=O)(=O)c1cc(C(=O)NCCCNC(=O)c2ccc(-c3c4nc(c(-c5c(F)c(F)c(F)c(F)c5F)c5ccc([nH]5)c(-c5c(F)c(F)c(F)c(F)c5F)c5nc(c(-c6c(F)c(F)c(F)c(F)c6F)c6ccc3[nH]6)C=C5)C=C4)cc2)c(C)cc1C
REMARK SMILES IDX 14 1 13 2 11 3 12 4 10 6 8 7 9 8 86 9 85 10 87 11 83 12
REMARK SMILES IDX 84 13 5 14 6 15 7 16 3 17 4 18 2 19 1 20 15 21 16 22 17 23
REMARK SMILES IDX 18 24 19 26 20 27 21 28 82 29 22 30 81 31 23 32 24 33 25 34
REMARK SMILES IDX 75 35 26 36 80 37 74 38 76 39 27 40 79 41 73 42 72 43 28 45
REMARK SMILES IDX 60 46 40 47 59 48 41 49 44 50 58 51 77 52 42 53 43 54 57 56
REMARK SMILES IDX 78 57 45 58 29 59 30 60 38 61 31 62 32 63 36 64 39 65 33 66
REMARK SMILES IDX 34 67 37 68 35 69 61 70 62 71 70 72 63 73 64 74 68 75 71 76
REMARK SMILES IDX 65 77 66 78 69 79 67 80 46 81 47 82 55 83 48 84 49 85 53 86
REMARK SMILES IDX 56 87 50 88 51 89 54 90 52 91
REMARK H PARENT 13 5 17 25 76 44 44 55
REMARK Flexibility Score: inf
ROOT
ATOM      1  C   UNL     1      -6.449   6.122  -0.959  1.00  0.00     0.118 C 
ENDROOT
BRANCH   1   2
ATOM      2  N   UNL     1      -5.296   6.751  -0.345  1.00  0.00    -0.352 N 
ATOM      3  C   UNL     1      -4.081   6.288   0.087  1.00  0.00     0.251 C 
ATOM      4  O   UNL     1      -3.353   7.116   0.638  1.00  0.00    -0.269 OA
ATOM      5  H   UNL     1      -5.411   7.720  -0.209  1.00  0.00     0.163 HD
BRANCH   3   6
ATOM      6  C   UNL     1      -3.545   4.908  -0.138  1.00  0.00     0.044 A 
ATOM      7  C   UNL     1      -1.423   3.657  -0.538  1.00  0.00     0.071 A 
ATOM      8  C   UNL     1      -2.160   4.863  -0.401  1.00  0.00     0.034 A 
ATOM      9  C   UNL     1      -2.121   2.447  -0.557  1.00  0.00    -0.032 A 
ATOM     10  C   UNL     1      -3.500   2.499  -0.265  1.00  0.00     0.009 A 
ATOM     11  C   UNL     1      -1.621   1.048  -0.726  1.00  0.00     0.046 C 
ATOM     12  C   UNL     1      -4.194   3.685   0.039  1.00  0.00    -0.038 A 
ATOM     13  C   UNL     1      -5.545   3.488   0.645  1.00  0.00     0.045 C 
BRANCH   7  14
ATOM     14  S   UNL     1       0.348   3.966  -0.521  1.00  0.00     0.181 S 
ATOM     15  O   UNL     1       0.624   4.431   0.831  1.00  0.00    -0.223 OA
ATOM     16  O   UNL     1       0.586   4.854  -1.644  1.00  0.00    -0.223 OA
BRANCH  14  17
ATOM     17  C   UNL     1       1.388   2.545  -0.774  1.00  0.00     0.110 C 
ATOM     18  C   UNL     1       1.329   2.049  -2.219  1.00  0.00     0.025 C 
BRANCH  17  19
ATOM     19  C   UNL     1       1.324   1.551   0.401  1.00  0.00     0.016 C 
ATOM     20  C   UNL     1       1.749   0.123   0.100  1.00  0.00     0.005 C 
ENDBRANCH  17  19
ENDBRANCH  14  17
ENDBRANCH   7  14
ENDBRANCH   3   6
ENDBRANCH   1   2
BRANCH   1  21
ATOM     21  C   UNL     1      -7.530   5.872   0.096  1.00  0.00     0.042 C 
BRANCH  21  22
ATOM     22  C   UNL     1      -8.427   7.068   0.377  1.00  0.00     0.118 C 
BRANCH  22  23
ATOM     23  N   UNL     1      -9.562   7.110  -0.527  1.00  0.00    -0.352 N 
ATOM     24  C   UNL     1     -10.889   6.827  -0.309  1.00  0.00     0.251 C 
ATOM     25  H   UNL     1      -9.346   7.386  -1.447  1.00  0.00     0.163 HD
ATOM     26  O   UNL     1     -11.628   6.675  -1.280  1.00  0.00    -0.269 OA
BRANCH  24  27
ATOM     27  C   UNL     1     -11.453   6.689   1.059  1.00  0.00     0.039 A 
ATOM     28  C   UNL     1     -12.509   5.791   1.258  1.00  0.00     0.014 A 
ATOM     29  C   UNL     1     -11.026   7.482   2.127  1.00  0.00     0.014 A 
ATOM     30  C   UNL     1     -13.103   5.664   2.519  1.00  0.00     0.010 A 
ATOM     31  C   UNL     1     -11.555   7.291   3.404  1.00  0.00     0.010 A 
ATOM     32  C   UNL     1     -12.616   6.398   3.611  1.00  0.00    -0.014 A 
BRANCH  32  33
ATOM     33  C   UNL     1     -13.232   6.282   4.960  1.00  0.00     0.031 A 
ATOM     34  C   UNL     1     -13.897   7.477   5.592  1.00  0.00     0.074 A 
ATOM     35  C   UNL     1     -13.149   5.124   5.643  1.00  0.00     0.049 A 
ATOM     36  N   UNL     1     -14.421   7.602   6.787  1.00  0.00    -0.248 NA
ATOM     37  C   UNL     1     -13.955   8.706   4.784  1.00  0.00     0.031 C 
ATOM     38  C   UNL     1     -12.495   3.906   5.164  1.00  0.00     0.029 A 
ATOM     39  N   UNL     1     -13.608   4.785   6.892  1.00  0.00    -0.354 N 
ATOM     40  C   UNL     1     -14.842   8.923   6.880  1.00  0.00     0.074 A 
ATOM     41  C   UNL     1     -14.473   9.573   5.642  1.00  0.00     0.031 C 
ATOM     42  C   UNL     1     -12.611   2.948   6.098  1.00  0.00     0.029 A 
ATOM     43  C   UNL     1     -13.315   3.493   7.255  1.00  0.00     0.049 A 
ATOM     44  H   UNL     1     -14.101   5.409   7.473  1.00  0.00     0.167 HD
ATOM     45  C   UNL     1     -15.498   9.534   7.896  1.00  0.00     0.037 A 
ATOM     46  C   UNL     1     -13.579   2.825   8.394  1.00  0.00     0.037 A 
ATOM     47  C   UNL     1     -15.905   8.876   9.110  1.00  0.00     0.049 A 
ATOM     48  C   UNL     1     -14.327   3.519   9.500  1.00  0.00     0.074 A 
ATOM     49  C   UNL     1     -16.636   9.389  10.167  1.00  0.00     0.029 A 
ATOM     50  N   UNL     1     -15.616   7.557   9.426  1.00  0.00    -0.354 N 
ATOM     51  N   UNL     1     -14.775   4.750   9.549  1.00  0.00    -0.248 NA
ATOM     52  C   UNL     1     -14.612   2.728  10.706  1.00  0.00     0.031 C 
ATOM     53  C   UNL     1     -16.757   8.392  11.140  1.00  0.00     0.029 A 
ATOM     54  C   UNL     1     -16.139   7.244  10.670  1.00  0.00     0.049 A 
ATOM     55  H   UNL     1     -15.113   6.935   8.852  1.00  0.00     0.167 HD
ATOM     56  C   UNL     1     -15.415   4.874  10.775  1.00  0.00     0.074 A 
ATOM     57  C   UNL     1     -15.310   3.589  11.434  1.00  0.00     0.031 C 
ATOM     58  C   UNL     1     -16.033   5.957  11.307  1.00  0.00     0.037 A 
BRANCH  45  59
ATOM     59  C   UNL     1     -15.825  10.991   7.736  1.00  0.00     0.064 A 
ATOM     60  C   UNL     1     -16.799  11.432   6.827  1.00  0.00     0.173 A 
ATOM     61  C   UNL     1     -15.183  11.956   8.527  1.00  0.00     0.173 A 
ATOM     62  F   UNL     1     -17.435  10.551   6.040  1.00  0.00    -0.203 F 
ATOM     63  C   UNL     1     -17.096  12.786   6.694  1.00  0.00     0.198 A 
ATOM     64  C   UNL     1     -15.504  13.306   8.413  1.00  0.00     0.198 A 
ATOM     65  F   UNL     1     -14.249  11.588   9.418  1.00  0.00    -0.203 F 
ATOM     66  F   UNL     1     -17.994  13.187   5.784  1.00  0.00    -0.200 F 
ATOM     67  C   UNL     1     -16.453  13.721   7.492  1.00  0.00     0.200 A 
ATOM     68  F   UNL     1     -14.891  14.207   9.193  1.00  0.00    -0.200 F 
ATOM     69  F   UNL     1     -16.744  15.023   7.367  1.00  0.00    -0.200 F 
ENDBRANCH  45  59
BRANCH  46  70
ATOM     70  C   UNL     1     -13.155   1.408   8.535  1.00  0.00     0.064 A 
ATOM     71  C   UNL     1     -14.100   0.372   8.533  1.00  0.00     0.173 A 
ATOM     72  C   UNL     1     -11.804   1.059   8.669  1.00  0.00     0.173 A 
ATOM     73  F   UNL     1     -15.406   0.658   8.429  1.00  0.00    -0.203 F 
ATOM     74  C   UNL     1     -13.710  -0.958   8.676  1.00  0.00     0.198 A 
ATOM     75  C   UNL     1     -11.413  -0.274   8.785  1.00  0.00     0.198 A 
ATOM     76  F   UNL     1     -10.861   2.012   8.672  1.00  0.00    -0.203 F 
ATOM     77  F   UNL     1     -14.637  -1.925   8.710  1.00  0.00    -0.200 F 
ATOM     78  C   UNL     1     -12.367  -1.280   8.795  1.00  0.00     0.200 A 
ATOM     79  F   UNL     1     -10.113  -0.582   8.885  1.00  0.00    -0.200 F 
ATOM     80  F   UNL     1     -11.992  -2.560   8.925  1.00  0.00    -0.200 F 
ENDBRANCH  46  70
BRANCH  58  81
ATOM     81  C   UNL     1     -16.671   5.791  12.655  1.00  0.00     0.064 A 
ATOM     82  C   UNL     1     -15.903   5.693  13.824  1.00  0.00     0.173 A 
ATOM     83  C   UNL     1     -18.068   5.772  12.780  1.00  0.00     0.173 A 
ATOM     84  F   UNL     1     -14.563   5.691  13.754  1.00  0.00    -0.203 F 
ATOM     85  C   UNL     1     -16.512   5.560  15.069  1.00  0.00     0.198 A 
ATOM     86  C   UNL     1     -18.673   5.666  14.029  1.00  0.00     0.198 A 
ATOM     87  F   UNL     1     -18.846   5.868  11.692  1.00  0.00    -0.203 F 
ATOM     88  F   UNL     1     -15.759   5.425  16.170  1.00  0.00    -0.200 F 
ATOM     89  C   UNL     1     -17.895   5.554  15.172  1.00  0.00     0.200 A 
ATOM     90  F   UNL     1     -20.010   5.672  14.128  1.00  0.00    -0.200 F 
ATOM     91  F   UNL     1     -18.479   5.432  16.372  1.00  0.00    -0.200 F 
ENDBRANCH  58  81
ENDBRANCH  32  33
ENDBRANCH  24  27
ENDBRANCH  22  23
ENDBRANCH  21  22
ENDBRANCH   1  21
TORSDOF 13
