REMARK SMILES O=C(NCCCNC(=O)c1ccccc1Nc1cccc(S(F)(F)(F)(F)F)c1)c1ccc(-c2c3nc(c(-c4c(F)c(F)c(F)c(F)c4F)c4ccc([nH]4)c(-c4c(F)c(F)c(F)c(F)c4F)c4nc(c(-c5c(F)c(F)c(F)c(F)c5F)c5ccc2[nH]5)C=C4)C=C3)cc1
REMARK SMILES IDX 5 1 4 2 3 3 1 4 2 5 29 7 30 8 91 9 31 10 90 11 32 12 33 13
REMARK SMILES IDX 34 14 84 15 35 16 89 17 83 18 85 19 36 20 88 21 82 22 81 23
REMARK SMILES IDX 37 25 69 26 49 27 68 28 50 29 53 30 67 31 86 32 51 33 52 34
REMARK SMILES IDX 66 36 87 37 54 38 38 39 39 40 47 41 40 42 41 43 45 44 48 45
REMARK SMILES IDX 42 46 43 47 46 48 44 49 70 50 71 51 79 52 72 53 73 54 77 55
REMARK SMILES IDX 80 56 74 57 75 58 78 59 76 60 55 61 56 62 64 63 57 64 58 65
REMARK SMILES IDX 62 66 65 67 59 68 60 69 63 70 61 71 6 72 7 73 8 74 9 76
REMARK SMILES IDX 10 77 11 78 15 79 12 80 14 81 13 82 16 83 17 85 18 86 28 87
REMARK SMILES IDX 19 88 21 89 20 90 22 91 23 92 24 93 25 94 26 95 27 96
REMARK H PARENT 3 6 85 24 53 35 7 75 16 84
REMARK Flexibility Score: inf
ROOT
ATOM      1  C   UNL     1       4.929  -0.560   2.199  1.00  0.00     0.042 C 
ENDROOT
BRANCH   1   2
ATOM      2  C   UNL     1       4.422  -0.923   0.812  1.00  0.00     0.118 C 
BRANCH   2   3
ATOM      3  N   UNL     1       2.952  -0.923   0.812  1.00  0.00    -0.352 N 
ATOM      4  O   UNL     1       0.946  -0.017  -0.083  1.00  0.00    -0.269 OA
ATOM      5  C   UNL     1       2.217  -0.017  -0.083  1.00  0.00     0.251 C 
ATOM      6  H   UNL     1       2.460  -1.529   1.412  1.00  0.00     0.163 HD
BRANCH   5   7
ATOM      7  C   UNL     1       2.977   0.919  -1.008  1.00  0.00     0.039 A 
ATOM      8  C   UNL     1       3.995   0.493  -1.846  1.00  0.00     0.014 A 
ATOM      9  C   UNL     1       2.528   2.168  -1.050  1.00  0.00     0.014 A 
ATOM     10  C   UNL     1       4.677   1.546  -2.500  1.00  0.00     0.010 A 
ATOM     11  C   UNL     1       3.163   3.114  -1.817  1.00  0.00     0.010 A 
ATOM     12  C   UNL     1       4.213   2.776  -2.624  1.00  0.00    -0.014 A 
BRANCH  12  13
ATOM     13  C   UNL     1       4.814   3.762  -3.612  1.00  0.00     0.031 A 
ATOM     14  C   UNL     1       5.327   4.919  -3.022  1.00  0.00     0.074 A 
ATOM     15  C   UNL     1       4.707   3.572  -4.979  1.00  0.00     0.049 A 
ATOM     16  N   UNL     1       5.819   5.996  -3.637  1.00  0.00    -0.248 NA
ATOM     17  C   UNL     1       5.409   5.137  -1.571  1.00  0.00     0.031 C 
ATOM     18  C   UNL     1       4.200   2.405  -5.582  1.00  0.00     0.029 A 
ATOM     19  N   UNL     1       5.059   4.447  -5.984  1.00  0.00    -0.354 N 
ATOM     20  C   UNL     1       6.231   6.892  -2.737  1.00  0.00     0.074 A 
ATOM     21  C   UNL     1       5.968   6.355  -1.396  1.00  0.00     0.031 C 
ATOM     22  C   UNL     1       4.234   2.577  -6.929  1.00  0.00     0.029 A 
ATOM     23  C   UNL     1       4.764   3.855  -7.192  1.00  0.00     0.049 A 
ATOM     24  H   UNL     1       5.453   5.340  -5.860  1.00  0.00     0.167 HD
ATOM     25  C   UNL     1       6.818   8.134  -2.984  1.00  0.00     0.037 A 
ATOM     26  C   UNL     1       4.938   4.383  -8.461  1.00  0.00     0.037 A 
ATOM     27  C   UNL     1       7.032   8.645  -4.254  1.00  0.00     0.049 A 
ATOM     28  C   UNL     1       5.471   5.651  -8.707  1.00  0.00     0.074 A 
ATOM     29  C   UNL     1       7.629   9.892  -4.520  1.00  0.00     0.029 A 
ATOM     30  N   UNL     1       6.714   8.063  -5.462  1.00  0.00    -0.354 N 
ATOM     31  N   UNL     1       5.920   6.529  -7.808  1.00  0.00    -0.248 NA
ATOM     32  C   UNL     1       5.630   6.234 -10.045  1.00  0.00     0.031 C 
ATOM     33  C   UNL     1       7.663  10.064  -5.868  1.00  0.00     0.029 A 
ATOM     34  C   UNL     1       7.086   8.928  -6.467  1.00  0.00     0.049 A 
ATOM     35  H   UNL     1       6.294   7.181  -5.585  1.00  0.00     0.167 HD
ATOM     36  C   UNL     1       6.374   7.624  -8.423  1.00  0.00     0.074 A 
ATOM     37  C   UNL     1       6.187   7.453  -9.870  1.00  0.00     0.031 C 
ATOM     38  C   UNL     1       6.939   8.756  -7.835  1.00  0.00     0.037 A 
BRANCH  25  39
ATOM     39  C   UNL     1       7.247   8.974  -1.791  1.00  0.00     0.064 A 
ATOM     40  C   UNL     1       8.052   8.422  -0.808  1.00  0.00     0.173 A 
ATOM     41  C   UNL     1       6.700  10.175  -1.641  1.00  0.00     0.173 A 
ATOM     42  F   UNL     1       8.816   7.353  -1.012  1.00  0.00    -0.203 F 
ATOM     43  C   UNL     1       7.986   9.099   0.433  1.00  0.00     0.198 A 
ATOM     44  C   UNL     1       6.791  10.839  -0.441  1.00  0.00     0.198 A 
ATOM     45  F   UNL     1       6.058  10.739  -2.659  1.00  0.00    -0.203 F 
ATOM     46  F   UNL     1       8.423   8.456   1.512  1.00  0.00    -0.200 F 
ATOM     47  C   UNL     1       7.521  10.324   0.594  1.00  0.00     0.200 A 
ATOM     48  F   UNL     1       6.160  11.999  -0.285  1.00  0.00    -0.200 F 
ATOM     49  F   UNL     1       7.751  11.020   1.704  1.00  0.00    -0.200 F 
ENDBRANCH  25  39
BRANCH  26  50
ATOM     50  C   UNL     1       4.524   3.536  -9.654  1.00  0.00     0.064 A 
ATOM     51  C   UNL     1       5.439   3.026 -10.560  1.00  0.00     0.173 A 
ATOM     52  C   UNL     1       3.244   3.186  -9.696  1.00  0.00     0.173 A 
ATOM     53  F   UNL     1       6.755   3.143 -10.406  1.00  0.00    -0.203 F 
ATOM     54  C   UNL     1       4.846   2.368 -11.664  1.00  0.00     0.198 A 
ATOM     55  C   UNL     1       2.760   2.427 -10.734  1.00  0.00     0.198 A 
ATOM     56  F   UNL     1       2.422   3.574  -8.724  1.00  0.00    -0.203 F 
ATOM     57  F   UNL     1       5.599   2.169 -12.742  1.00  0.00    -0.200 F 
ATOM     58  C   UNL     1       3.598   1.938 -11.698  1.00  0.00     0.200 A 
ATOM     59  F   UNL     1       1.458   2.164 -10.803  1.00  0.00    -0.200 F 
ATOM     60  F   UNL     1       3.179   1.076 -12.620  1.00  0.00    -0.200 F 
ENDBRANCH  26  50
BRANCH  38  61
ATOM     61  C   UNL     1       7.424   9.869  -8.750  1.00  0.00     0.064 A 
ATOM     62  C   UNL     1       6.584  10.645  -9.532  1.00  0.00     0.173 A 
ATOM     63  C   UNL     1       8.718  10.145  -8.646  1.00  0.00     0.173 A 
ATOM     64  F   UNL     1       5.258  10.567  -9.470  1.00  0.00    -0.203 F 
ATOM     65  C   UNL     1       7.265  11.527 -10.403  1.00  0.00     0.198 A 
ATOM     66  C   UNL     1       9.292  11.115  -9.433  1.00  0.00     0.198 A 
ATOM     67  F   UNL     1       9.467   9.477  -7.773  1.00  0.00    -0.203 F 
ATOM     68  F   UNL     1       6.583  12.037 -11.425  1.00  0.00    -0.200 F 
ATOM     69  C   UNL     1       8.531  11.880 -10.272  1.00  0.00     0.200 A 
ATOM     70  F   UNL     1      10.606  11.313  -9.376  1.00  0.00    -0.200 F 
ATOM     71  F   UNL     1       9.038  12.924 -10.923  1.00  0.00    -0.200 F 
ENDBRANCH  38  61
ENDBRANCH  12  13
ENDBRANCH   5   7
ENDBRANCH   2   3
ENDBRANCH   1   2
BRANCH   1  72
ATOM     72  C   UNL     1       4.422  -1.579   3.206  1.00  0.00     0.118 C 
BRANCH  72  73
ATOM     73  N   UNL     1       4.912  -2.915   2.840  1.00  0.00    -0.352 N 
ATOM     74  C   UNL     1       5.757  -3.670   3.776  1.00  0.00     0.253 C 
ATOM     75  H   UNL     1       4.674  -3.305   1.968  1.00  0.00     0.163 HD
ATOM     76  O   UNL     1       6.181  -4.826   3.459  1.00  0.00    -0.269 OA
BRANCH  74  77
ATOM     77  C   UNL     1       6.125  -3.069   5.123  1.00  0.00     0.063 A 
ATOM     78  C   UNL     1       7.395  -3.267   5.639  1.00  0.00     0.016 A 
ATOM     79  C   UNL     1       5.175  -2.478   5.839  1.00  0.00     0.051 A 
ATOM     80  C   UNL     1       7.484  -3.064   7.037  1.00  0.00     0.001 A 
ATOM     81  C   UNL     1       5.379  -2.185   7.165  1.00  0.00     0.027 A 
ATOM     82  C   UNL     1       6.591  -2.409   7.757  1.00  0.00     0.002 A 
BRANCH  79  83
ATOM     83  N   UNL     1       3.893  -2.135   5.206  1.00  0.00    -0.355 N 
ATOM     84  H   UNL     1       3.742  -2.343   4.255  1.00  0.00     0.167 HD
BRANCH  83  85
ATOM     85  C   UNL     1       2.837  -1.480   5.992  1.00  0.00     0.040 A 
ATOM     86  C   UNL     1       1.603  -2.104   6.067  1.00  0.00     0.026 A 
ATOM     87  C   UNL     1       3.049  -0.301   6.563  1.00  0.00     0.050 A 
ATOM     88  C   UNL     1       0.563  -1.263   6.527  1.00  0.00     0.004 A 
ATOM     89  C   UNL     1       2.008   0.406   7.114  1.00  0.00     0.109 A 
ATOM     90  C   UNL     1       0.749  -0.124   7.170  1.00  0.00     0.024 A 
BRANCH  89  91
ATOM     91  S   UNL     1       2.307   2.064   7.777  1.00  0.00     0.310 S 
ATOM     92  F   UNL     1       0.993   1.889   8.648  1.00  0.00    -0.094 F 
ATOM     93  F   UNL     1       1.381   2.575   6.608  1.00  0.00    -0.094 F 
ATOM     94  F   UNL     1       2.422   3.504   8.351  1.00  0.00    -0.094 F 
ATOM     95  F   UNL     1       3.115   1.513   9.016  1.00  0.00    -0.094 F 
ATOM     96  F   UNL     1       2.105   0.581   7.268  1.00  0.00    -0.094 F 
ENDBRANCH  89  91
ENDBRANCH  83  85
ENDBRANCH  79  83
ENDBRANCH  74  77
ENDBRANCH  72  73
ENDBRANCH   1  72
TORSDOF 13
