REMARK SMILES Cc1nn(-c2ccccc2)c(C)c1CNC(=O)[C@@H]1[C@@H](C(=O)NCCCNC(=O)c2ccc(-c3c4nc(c(-c5c(F)c(F)c(F)c(F)c5F)c5ccc([nH]5)c(-c5c(F)c(F)c(F)c(F)c5F)c5nc(c(-c6c(F)c(F)c(F)c(F)c6F)c6ccc3[nH]6)C=C5)C=C4)cc2)[C@@H]2C=C[C@H]1C2
REMARK SMILES IDX 23 1 22 2 20 3 21 4 19 6 18 7 95 8 92 9 94 10 96 11 93 12
REMARK SMILES IDX 16 13 15 14 17 16 14 17 13 18 1 19 2 20 3 21 4 22 11 23
REMARK SMILES IDX 12 24 5 25 6 26 10 27 7 28 9 29 8 30 24 31 25 32 26 33 27 34
REMARK SMILES IDX 28 36 29 37 30 38 91 39 31 40 90 41 32 42 33 43 34 44 84 45
REMARK SMILES IDX 35 46 89 47 83 48 85 49 36 50 88 51 82 52 81 53 37 55 69 56
REMARK SMILES IDX 49 57 68 58 50 59 53 60 67 61 86 62 51 63 52 64 66 66 87 67
REMARK SMILES IDX 54 68 38 69 39 70 47 71 40 72 41 73 45 74 48 75 42 76 43 77
REMARK SMILES IDX 46 78 44 79 70 80 71 81 79 82 72 83 73 84 77 85 80 86 74 87
REMARK SMILES IDX 75 88 78 89 76 90 55 91 56 92 64 93 57 94 58 95 62 96 65 97
REMARK SMILES IDX 59 98 60 99 63 100 61 101
REMARK H PARENT 22 5 15 15 26 35 85 54 53 65
REMARK Flexibility Score: inf
ROOT
ATOM      1  C   UNL     1       2.068   8.501   2.460  1.00  0.00     0.117 C 
ENDROOT
BRANCH   1   2
ATOM      2  N   UNL     1       3.167   7.895   1.698  1.00  0.00    -0.356 N 
ATOM      3  C   UNL     1       3.368   6.715   1.058  1.00  0.00     0.224 C 
ATOM      4  O   UNL     1       4.242   6.742   0.179  1.00  0.00    -0.275 OA
ATOM      5  H   UNL     1       3.950   8.490   1.636  1.00  0.00     0.163 HD
BRANCH   3   6
ATOM      6  C   UNL     1       2.745   5.357   1.392  1.00  0.00     0.098 C 
ATOM      7  C   UNL     1       1.600   5.282   2.412  1.00  0.00     0.098 C 
ATOM      8  C   UNL     1       2.169   4.399   3.556  1.00  0.00     0.025 C 
ATOM      9  C   UNL     1       3.860   4.515   2.093  1.00  0.00     0.025 C 
ATOM     10  C   UNL     1       2.484   2.999   3.126  1.00  0.00    -0.027 C 
ATOM     11  C   UNL     1       3.631   4.891   3.565  1.00  0.00     0.017 C 
ATOM     12  C   UNL     1       3.455   3.065   2.207  1.00  0.00    -0.027 C 
BRANCH   7  13
ATOM     13  C   UNL     1       0.210   5.155   1.794  1.00  0.00     0.224 C 
ATOM     14  N   UNL     1      -0.312   4.078   1.178  1.00  0.00    -0.352 N 
ATOM     15  H   UNL     1      -1.231   4.218   0.855  1.00  0.00     0.163 HD
ATOM     16  O   UNL     1      -0.540   6.143   1.842  1.00  0.00    -0.275 OA
BRANCH  14  17
ATOM     17  C   UNL     1       0.201   2.767   0.895  1.00  0.00     0.155 C 
BRANCH  17  18
ATOM     18  C   UNL     1      -0.180   1.766   1.941  1.00  0.00     0.016 A 
ATOM     19  C   UNL     1       0.728  -0.349   0.693  1.00  0.00     0.069 C 
ATOM     20  C   UNL     1       0.108   0.372   1.838  1.00  0.00     0.065 A 
ATOM     21  N   UNL     1      -0.151  -0.284   2.970  1.00  0.00    -0.173 NA
ATOM     22  N   UNL     1      -0.757   0.621   3.769  1.00  0.00    -0.237 N 
ATOM     23  C   UNL     1      -0.721   1.901   3.220  1.00  0.00     0.046 A 
ATOM     24  C   UNL     1      -1.051   3.097   4.050  1.00  0.00     0.067 C 
BRANCH  22  25
ATOM     25  C   UNL     1      -1.198   0.266   5.071  1.00  0.00     0.065 A 
ATOM     26  C   UNL     1      -0.438  -0.621   5.840  1.00  0.00     0.028 A 
ATOM     27  C   UNL     1      -2.336   0.872   5.621  1.00  0.00     0.028 A 
ATOM     28  C   UNL     1      -0.765  -0.814   7.185  1.00  0.00     0.002 A 
ATOM     29  C   UNL     1      -2.662   0.667   6.959  1.00  0.00     0.002 A 
ATOM     30  C   UNL     1      -1.864  -0.159   7.746  1.00  0.00     0.000 A 
ENDBRANCH  22  25
ENDBRANCH  17  18
ENDBRANCH  14  17
ENDBRANCH   7  13
ENDBRANCH   3   6
ENDBRANCH   1   2
BRANCH   1  31
ATOM     31  C   UNL     1       2.187   8.454   3.995  1.00  0.00     0.042 C 
BRANCH  31  32
ATOM     32  C   UNL     1       3.409   9.175   4.526  1.00  0.00     0.118 C 
BRANCH  32  33
ATOM     33  N   UNL     1       3.307  10.642   4.492  1.00  0.00    -0.352 N 
ATOM     34  C   UNL     1       4.201  11.589   4.992  1.00  0.00     0.251 C 
ATOM     35  H   UNL     1       2.501  11.003   4.058  1.00  0.00     0.163 HD
ATOM     36  O   UNL     1       3.853  12.736   5.209  1.00  0.00    -0.269 OA
BRANCH  34  37
ATOM     37  C   UNL     1       5.594  11.170   5.242  1.00  0.00     0.039 A 
ATOM     38  C   UNL     1       6.411  11.673   6.259  1.00  0.00     0.014 A 
ATOM     39  C   UNL     1       6.065  10.165   4.424  1.00  0.00     0.014 A 
ATOM     40  C   UNL     1       7.693  11.135   6.386  1.00  0.00     0.010 A 
ATOM     41  C   UNL     1       7.034   9.355   4.906  1.00  0.00     0.010 A 
ATOM     42  C   UNL     1       7.996   9.980   5.655  1.00  0.00    -0.014 A 
BRANCH  42  43
ATOM     43  C   UNL     1       9.292   9.337   5.598  1.00  0.00     0.031 A 
ATOM     44  C   UNL     1       9.752   8.802   6.888  1.00  0.00     0.074 A 
ATOM     45  C   UNL     1       9.901   9.025   4.429  1.00  0.00     0.049 A 
ATOM     46  N   UNL     1      10.680   9.283   7.639  1.00  0.00    -0.248 NA
ATOM     47  C   UNL     1       8.988   7.702   7.491  1.00  0.00     0.031 C 
ATOM     48  C   UNL     1       9.434   9.184   3.041  1.00  0.00     0.029 A 
ATOM     49  N   UNL     1      11.107   8.423   4.259  1.00  0.00    -0.354 N 
ATOM     50  C   UNL     1      10.755   8.434   8.733  1.00  0.00     0.074 A 
ATOM     51  C   UNL     1       9.575   7.609   8.685  1.00  0.00     0.031 C 
ATOM     52  C   UNL     1      10.262   8.524   2.197  1.00  0.00     0.029 A 
ATOM     53  C   UNL     1      11.398   8.040   2.957  1.00  0.00     0.049 A 
ATOM     54  H   UNL     1      11.730   8.270   5.006  1.00  0.00     0.167 HD
ATOM     55  C   UNL     1      11.908   8.328   9.448  1.00  0.00     0.037 A 
ATOM     56  C   UNL     1      12.502   7.363   2.553  1.00  0.00     0.037 A 
ATOM     57  C   UNL     1      12.817   9.404   9.126  1.00  0.00     0.049 A 
ATOM     58  C   UNL     1      13.540   7.581   3.598  1.00  0.00     0.074 A 
ATOM     59  C   UNL     1      12.764  10.780   9.243  1.00  0.00     0.029 A 
ATOM     60  N   UNL     1      13.809   9.153   8.206  1.00  0.00    -0.354 N 
ATOM     61  N   UNL     1      14.064   8.752   3.849  1.00  0.00    -0.248 NA
ATOM     62  C   UNL     1      13.603   6.621   4.691  1.00  0.00     0.031 C 
ATOM     63  C   UNL     1      13.352  11.276   8.040  1.00  0.00     0.029 A 
ATOM     64  C   UNL     1      13.794  10.181   7.295  1.00  0.00     0.049 A 
ATOM     65  H   UNL     1      14.417   8.379   8.202  1.00  0.00     0.167 HD
ATOM     66  C   UNL     1      14.144   8.819   5.234  1.00  0.00     0.074 A 
ATOM     67  C   UNL     1      13.903   7.452   5.695  1.00  0.00     0.031 C 
ATOM     68  C   UNL     1      14.104  10.017   5.892  1.00  0.00     0.037 A 
BRANCH  55  69
ATOM     69  C   UNL     1      12.363   7.078  10.149  1.00  0.00     0.064 A 
ATOM     70  C   UNL     1      13.485   7.145  10.997  1.00  0.00     0.173 A 
ATOM     71  C   UNL     1      11.936   5.778   9.803  1.00  0.00     0.173 A 
ATOM     72  F   UNL     1      13.980   8.331  11.383  1.00  0.00    -0.203 F 
ATOM     73  C   UNL     1      14.178   5.999  11.393  1.00  0.00     0.198 A 
ATOM     74  C   UNL     1      12.597   4.635  10.245  1.00  0.00     0.198 A 
ATOM     75  F   UNL     1      10.941   5.558   8.937  1.00  0.00    -0.203 F 
ATOM     76  F   UNL     1      15.315   6.118  12.092  1.00  0.00    -0.200 F 
ATOM     77  C   UNL     1      13.739   4.745  11.010  1.00  0.00     0.200 A 
ATOM     78  F   UNL     1      12.164   3.429   9.850  1.00  0.00    -0.200 F 
ATOM     79  F   UNL     1      14.438   3.650  11.332  1.00  0.00    -0.200 F 
ENDBRANCH  55  69
BRANCH  56  80
ATOM     80  C   UNL     1      12.560   6.264   1.558  1.00  0.00     0.064 A 
ATOM     81  C   UNL     1      13.771   5.846   0.984  1.00  0.00     0.173 A 
ATOM     82  C   UNL     1      11.450   5.418   1.353  1.00  0.00     0.173 A 
ATOM     83  F   UNL     1      14.888   6.564   1.175  1.00  0.00    -0.203 F 
ATOM     84  C   UNL     1      13.868   4.651   0.260  1.00  0.00     0.198 A 
ATOM     85  C   UNL     1      11.546   4.228   0.630  1.00  0.00     0.198 A 
ATOM     86  F   UNL     1      10.270   5.685   1.933  1.00  0.00    -0.203 F 
ATOM     87  F   UNL     1      15.053   4.257  -0.230  1.00  0.00    -0.200 F 
ATOM     88  C   UNL     1      12.758   3.838   0.091  1.00  0.00     0.200 A 
ATOM     89  F   UNL     1      10.474   3.431   0.515  1.00  0.00    -0.200 F 
ATOM     90  F   UNL     1      12.863   2.666  -0.550  1.00  0.00    -0.200 F 
ENDBRANCH  56  80
BRANCH  68  91
ATOM     91  C   UNL     1      14.158  11.271   5.059  1.00  0.00     0.064 A 
ATOM     92  C   UNL     1      13.131  11.674   4.187  1.00  0.00     0.173 A 
ATOM     93  C   UNL     1      15.206  12.174   5.266  1.00  0.00     0.173 A 
ATOM     94  F   UNL     1      12.044  10.919   4.012  1.00  0.00    -0.203 F 
ATOM     95  C   UNL     1      13.171  12.901   3.525  1.00  0.00     0.198 A 
ATOM     96  C   UNL     1      15.231  13.414   4.628  1.00  0.00     0.198 A 
ATOM     97  F   UNL     1      16.185  11.876   6.134  1.00  0.00    -0.203 F 
ATOM     98  F   UNL     1      12.175  13.253   2.698  1.00  0.00    -0.200 F 
ATOM     99  C   UNL     1      14.220  13.773   3.752  1.00  0.00     0.200 A 
ATOM    100  F   UNL     1      16.223  14.276   4.890  1.00  0.00    -0.200 F 
ATOM    101  F   UNL     1      14.242  14.971   3.150  1.00  0.00    -0.200 F 
ENDBRANCH  68  91
ENDBRANCH  42  43
ENDBRANCH  34  37
ENDBRANCH  32  33
ENDBRANCH  31  32
ENDBRANCH   1  31
TORSDOF 14
