REMARK SMILES CS(=O)(=O)N1C[C@@H]2C[N@H+](Cc3cccnc3N)C[C@]2(C(=O)NCCCNC(=O)c2ccc(-c3c4nc(c(-c5c(F)c(F)c(F)c(F)c5F)c5ccc([nH]5)c(-c5c(F)c(F)c(F)c(F)c5F)c5nc(c(-c6c(F)c(F)c(F)c(F)c6F)c6ccc3[nH]6)C=C5)C=C4)cc2)C1
REMARK SMILES IDX 23 1 22 2 20 3 21 4 19 6 5 7 6 8 92 9 7 10 8 11 18 12 9 13
REMARK SMILES IDX 2 15 1 16 3 17 4 18 10 19 11 20 12 21 16 22 13 23 15 24
REMARK SMILES IDX 14 25 17 26 24 29 25 30 26 31 27 32 28 34 29 35 30 36 91 37
REMARK SMILES IDX 31 38 90 39 32 40 33 41 34 42 84 43 35 44 89 45 83 46 85 47
REMARK SMILES IDX 36 48 88 49 82 50 81 51 37 53 69 54 49 55 68 56 50 57 53 58
REMARK SMILES IDX 67 59 86 60 51 61 52 62 66 64 87 65 54 66 38 67 39 68 47 69
REMARK SMILES IDX 40 70 41 71 45 72 48 73 42 74 43 75 46 76 44 77 70 78 71 79
REMARK SMILES IDX 79 80 72 81 73 82 77 83 80 84 74 85 75 86 78 87 76 88 55 89
REMARK SMILES IDX 56 90 64 91 57 92 58 93 62 94 65 95 59 96 60 97 63 98 61 99
REMARK H PARENT 22 5 9 14 17 27 17 28 26 33 85 52 53 63
REMARK Flexibility Score: inf
ROOT
ATOM      1  C   UNL     1       2.185   4.455   6.037  1.00  0.00     0.117 C 
ENDROOT
BRANCH   1   2
ATOM      2  N   UNL     1       2.567   5.024   4.761  1.00  0.00    -0.355 N 
ATOM      3  C   UNL     1       3.108   4.351   3.680  1.00  0.00     0.233 C 
ATOM      4  O   UNL     1       3.668   5.027   2.816  1.00  0.00    -0.274 OA
ATOM      5  H   UNL     1       2.428   5.993   4.651  1.00  0.00     0.163 HD
BRANCH   3   6
ATOM      6  C   UNL     1       2.969   2.761   3.639  1.00  0.00     0.121 C 
ATOM      7  N   UNL     1       1.397   1.737   1.946  1.00  0.00    -0.200 NA
ATOM      8  C   UNL     1       2.462   0.784   2.161  1.00  0.00     0.113 C 
ATOM      9  C   UNL     1       1.911   3.043   2.472  1.00  0.00     0.125 C 
ATOM     10  C   UNL     1       3.597   1.626   2.694  1.00  0.00     0.082 C 
ATOM     11  C   UNL     1       4.556   0.714   3.467  1.00  0.00     0.268 C 
ATOM     12  C   UNL     1       4.364   2.766   4.357  1.00  0.00     0.281 C 
ATOM     13  N   UNL     1       4.733   1.399   4.718  1.00  0.00    -0.330 N 
ATOM     14  H   UNL     1       5.685   1.324   5.077  1.00  0.00     0.348 HD
BRANCH   7  15
ATOM     15  S   UNL     1       0.565   1.785   0.478  1.00  0.00     0.211 S 
ATOM     16  C   UNL     1       0.713   0.132  -0.188  1.00  0.00     0.176 C 
ATOM     17  O   UNL     1       1.292   2.660  -0.422  1.00  0.00    -0.213 OA
ATOM     18  O   UNL     1      -0.823   2.033   0.788  1.00  0.00    -0.213 OA
ENDBRANCH   7  15
BRANCH  13  19
ATOM     19  C   UNL     1       4.151   0.809   5.945  1.00  0.00     0.302 C 
BRANCH  19  20
ATOM     20  C   UNL     1       2.671   0.494   6.066  1.00  0.00     0.048 A 
ATOM     21  C   UNL     1       1.852   1.234   6.933  1.00  0.00     0.015 A 
ATOM     22  C   UNL     1       2.047  -0.585   5.448  1.00  0.00     0.132 A 
ATOM     23  C   UNL     1       0.469   1.072   6.938  1.00  0.00     0.021 A 
ATOM     24  N   UNL     1       0.709  -0.749   5.409  1.00  0.00    -0.239 NA
ATOM     25  C   UNL     1      -0.057   0.105   6.114  1.00  0.00     0.113 A 
BRANCH  22  26
ATOM     26  N   UNL     1       2.746  -1.601   4.829  1.00  0.00    -0.383 N 
ATOM     27  H   UNL     1       3.730  -1.576   4.803  1.00  0.00     0.158 HD
ATOM     28  H   UNL     1       2.261  -2.351   4.414  1.00  0.00     0.158 HD
ENDBRANCH  22  26
ENDBRANCH  19  20
ENDBRANCH  13  19
ENDBRANCH   3   6
ENDBRANCH   1   2
BRANCH   1  29
ATOM     29  C   UNL     1       3.299   4.609   7.079  1.00  0.00     0.042 C 
BRANCH  29  30
ATOM     30  C   UNL     1       3.190   5.877   7.894  1.00  0.00     0.118 C 
BRANCH  30  31
ATOM     31  N   UNL     1       2.164   5.771   8.915  1.00  0.00    -0.352 N 
ATOM     32  C   UNL     1       2.283   5.827  10.283  1.00  0.00     0.251 C 
ATOM     33  H   UNL     1       1.248   5.639   8.579  1.00  0.00     0.163 HD
ATOM     34  O   UNL     1       1.344   5.461  10.983  1.00  0.00    -0.269 OA
BRANCH  32  35
ATOM     35  C   UNL     1       3.536   6.308  10.913  1.00  0.00     0.039 A 
ATOM     36  C   UNL     1       3.936   5.756  12.134  1.00  0.00     0.014 A 
ATOM     37  C   UNL     1       4.303   7.319  10.330  1.00  0.00     0.014 A 
ATOM     38  C   UNL     1       5.117   6.190  12.739  1.00  0.00     0.010 A 
ATOM     39  C   UNL     1       5.538   7.659  10.866  1.00  0.00     0.010 A 
ATOM     40  C   UNL     1       5.943   7.125  12.096  1.00  0.00    -0.014 A 
BRANCH  40  41
ATOM     41  C   UNL     1       7.205   7.605  12.713  1.00  0.00     0.031 A 
ATOM     42  C   UNL     1       7.372   9.068  13.034  1.00  0.00     0.074 A 
ATOM     43  C   UNL     1       8.215   6.742  12.930  1.00  0.00     0.049 A 
ATOM     44  N   UNL     1       8.415   9.700  13.509  1.00  0.00    -0.248 NA
ATOM     45  C   UNL     1       6.224   9.946  12.748  1.00  0.00     0.031 C 
ATOM     46  C   UNL     1       8.191   5.314  12.610  1.00  0.00     0.029 A 
ATOM     47  N   UNL     1       9.463   6.941  13.464  1.00  0.00    -0.354 N 
ATOM     48  C   UNL     1       8.055  11.041  13.556  1.00  0.00     0.074 A 
ATOM     49  C   UNL     1       6.726  11.144  12.999  1.00  0.00     0.031 C 
ATOM     50  C   UNL     1       9.356   4.760  12.982  1.00  0.00     0.029 A 
ATOM     51  C   UNL     1      10.224   5.800  13.525  1.00  0.00     0.049 A 
ATOM     52  H   UNL     1       9.783   7.819  13.775  1.00  0.00     0.167 HD
ATOM     53  C   UNL     1       8.757  12.088  14.050  1.00  0.00     0.037 A 
ATOM     54  C   UNL     1      11.484   5.616  13.963  1.00  0.00     0.037 A 
ATOM     55  C   UNL     1      10.067  11.970  14.633  1.00  0.00     0.049 A 
ATOM     56  C   UNL     1      12.243   6.796  14.509  1.00  0.00     0.074 A 
ATOM     57  C   UNL     1      10.841  12.954  15.221  1.00  0.00     0.029 A 
ATOM     58  N   UNL     1      10.797  10.792  14.698  1.00  0.00    -0.354 N 
ATOM     59  N   UNL     1      11.865   8.047  14.618  1.00  0.00    -0.248 NA
ATOM     60  C   UNL     1      13.602   6.536  15.004  1.00  0.00     0.031 C 
ATOM     61  C   UNL     1      12.064  12.383  15.589  1.00  0.00     0.029 A 
ATOM     62  C   UNL     1      12.025  11.030  15.294  1.00  0.00     0.049 A 
ATOM     63  H   UNL     1      10.488   9.916  14.370  1.00  0.00     0.167 HD
ATOM     64  C   UNL     1      12.922   8.716  15.221  1.00  0.00     0.074 A 
ATOM     65  C   UNL     1      13.951   7.727  15.469  1.00  0.00     0.031 C 
ATOM     66  C   UNL     1      13.032  10.029  15.541  1.00  0.00     0.037 A 
BRANCH  53  67
ATOM     67  C   UNL     1       8.123  13.449  13.982  1.00  0.00     0.064 A 
ATOM     68  C   UNL     1       6.990  13.777  14.744  1.00  0.00     0.173 A 
ATOM     69  C   UNL     1       8.674  14.450  13.167  1.00  0.00     0.173 A 
ATOM     70  F   UNL     1       6.414  12.855  15.530  1.00  0.00    -0.203 F 
ATOM     71  C   UNL     1       6.414  15.043  14.666  1.00  0.00     0.198 A 
ATOM     72  C   UNL     1       8.117  15.726  13.120  1.00  0.00     0.198 A 
ATOM     73  F   UNL     1       9.758  14.195  12.420  1.00  0.00    -0.203 F 
ATOM     74  F   UNL     1       5.299  15.313  15.359  1.00  0.00    -0.200 F 
ATOM     75  C   UNL     1       6.982  16.018  13.862  1.00  0.00     0.200 A 
ATOM     76  F   UNL     1       8.676  16.672  12.354  1.00  0.00    -0.200 F 
ATOM     77  F   UNL     1       6.432  17.239  13.796  1.00  0.00    -0.200 F 
ENDBRANCH  53  67
BRANCH  54  78
ATOM     78  C   UNL     1      12.095   4.261  13.928  1.00  0.00     0.064 A 
ATOM     79  C   UNL     1      12.382   3.567  15.111  1.00  0.00     0.173 A 
ATOM     80  C   UNL     1      12.406   3.632  12.713  1.00  0.00     0.173 A 
ATOM     81  F   UNL     1      12.119   4.131  16.299  1.00  0.00    -0.203 F 
ATOM     82  C   UNL     1      12.981   2.308  15.082  1.00  0.00     0.198 A 
ATOM     83  C   UNL     1      12.974   2.360  12.684  1.00  0.00     0.198 A 
ATOM     84  F   UNL     1      12.144   4.247  11.551  1.00  0.00    -0.203 F 
ATOM     85  F   UNL     1      13.290   1.690  16.230  1.00  0.00    -0.200 F 
ATOM     86  C   UNL     1      13.270   1.703  13.869  1.00  0.00     0.200 A 
ATOM     87  F   UNL     1      13.234   1.771  11.509  1.00  0.00    -0.200 F 
ATOM     88  F   UNL     1      13.840   0.491  13.841  1.00  0.00    -0.200 F 
ENDBRANCH  54  78
BRANCH  66  89
ATOM     89  C   UNL     1      14.289  10.465  16.237  1.00  0.00     0.064 A 
ATOM     90  C   UNL     1      15.526  10.505  15.577  1.00  0.00     0.173 A 
ATOM     91  C   UNL     1      14.245  10.887  17.576  1.00  0.00     0.173 A 
ATOM     92  F   UNL     1      15.625  10.100  14.302  1.00  0.00    -0.203 F 
ATOM     93  C   UNL     1      16.677  10.920  16.241  1.00  0.00     0.198 A 
ATOM     94  C   UNL     1      15.391  11.336  18.224  1.00  0.00     0.198 A 
ATOM     95  F   UNL     1      13.085  10.877  18.250  1.00  0.00    -0.203 F 
ATOM     96  F   UNL     1      17.858  10.896  15.608  1.00  0.00    -0.200 F 
ATOM     97  C   UNL     1      16.607  11.343  17.560  1.00  0.00     0.200 A 
ATOM     98  F   UNL     1      15.317  11.762  19.493  1.00  0.00    -0.200 F 
ATOM     99  F   UNL     1      17.715  11.751  18.194  1.00  0.00    -0.200 F 
ENDBRANCH  66  89
ENDBRANCH  40  41
ENDBRANCH  32  35
ENDBRANCH  30  31
ENDBRANCH  29  30
ENDBRANCH   1  29
TORSDOF 14
