REMARK SMILES CC(C)(C)OC(=O)N1CCC[C@H](C(=O)N[C@H](C(=O)NCCCNC(=O)c2ccc(-c3c4nc(c(-c5c(F)c(F)c(F)c(F)c5F)c5ccc([nH]5)c(-c5c(F)c(F)c(F)c(F)c5F)c5nc(c(-c6c(F)c(F)c(F)c(F)c6F)c6ccc3[nH]6)C=C5)C=C4)cc2)c2ccccc2)C1
REMARK SMILES IDX 17 1 18 2 19 3 16 5 15 6 13 7 14 8 12 10 8 11 9 12 95 13
REMARK SMILES IDX 10 14 11 15 6 16 7 17 5 18 2 19 1 20 3 21 4 22 89 23 90 24
REMARK SMILES IDX 94 25 91 26 93 27 92 28 20 29 21 30 22 31 23 32 24 33 25 35
REMARK SMILES IDX 26 36 27 37 88 38 28 39 87 40 29 41 30 42 31 43 81 44 32 45
REMARK SMILES IDX 86 46 80 47 82 48 33 49 85 50 79 51 78 52 34 54 66 55 46 56
REMARK SMILES IDX 65 57 47 58 50 59 64 60 83 61 48 62 49 63 63 65 84 66 51 67
REMARK SMILES IDX 35 68 36 69 44 70 37 71 38 72 42 73 45 74 39 75 40 76 43 77
REMARK SMILES IDX 41 78 67 79 68 80 76 81 69 82 70 83 74 84 77 85 71 86 72 87
REMARK SMILES IDX 75 88 73 89 52 90 53 91 61 92 54 93 55 94 59 95 62 96 56 97
REMARK SMILES IDX 57 98 60 99 58 100
REMARK H PARENT 19 4 15 9 23 34 82 53 50 64
REMARK Flexibility Score: inf
ROOT
ATOM      1  C   UNL     1       1.312  -1.773   6.717  1.00  0.00     0.247 C 
ATOM      2  O   UNL     1       2.195  -2.495   6.235  1.00  0.00    -0.272 OA
ATOM      3  N   UNL     1       1.567  -1.450   8.034  1.00  0.00    -0.354 N 
ATOM      4  H   UNL     1       2.242  -2.020   8.469  1.00  0.00     0.163 HD
ENDROOT
BRANCH   1   5
ATOM      5  C   UNL     1      -0.111  -1.302   5.845  1.00  0.00     0.202 C 
BRANCH   5   6
ATOM      6  N   UNL     1      -1.044  -1.465   7.082  1.00  0.00    -0.340 N 
ATOM      7  C   UNL     1      -2.190  -0.766   7.086  1.00  0.00     0.225 C 
ATOM      8  O   UNL     1      -3.074  -0.701   7.903  1.00  0.00    -0.275 OA
ATOM      9  H   UNL     1      -0.802  -2.056   7.832  1.00  0.00     0.164 HD
BRANCH   7  10
ATOM     10  C   UNL     1      -1.971  -0.142   5.807  1.00  0.00     0.098 C 
ATOM     11  N   UNL     1      -0.316  -2.278   3.935  1.00  0.00    -0.307 N 
ATOM     12  C   UNL     1       1.236  -1.302   4.050  1.00  0.00     0.123 C 
ATOM     13  C   UNL     1      -1.938  -1.780   4.750  1.00  0.00     0.136 C 
ATOM     14  C   UNL     1       1.350   0.184   5.308  1.00  0.00     0.023 C 
ATOM     15  C   UNL     1      -0.293   0.769   6.236  1.00  0.00     0.017 C 
BRANCH  11  16
ATOM     16  C   UNL     1      -0.253  -3.469   3.231  1.00  0.00     0.410 C 
ATOM     17  O   UNL     1       0.792  -3.973   2.853  1.00  0.00    -0.224 OA
BRANCH  16  18
ATOM     18  O   UNL     1      -1.501  -3.933   2.995  1.00  0.00    -0.444 OA
BRANCH  18  19
ATOM     19  C   UNL     1      -1.777  -5.138   2.237  1.00  0.00     0.106 C 
ATOM     20  C   UNL     1      -3.116  -4.860   1.539  1.00  0.00     0.056 C 
ATOM     21  C   UNL     1      -1.943  -6.279   3.240  1.00  0.00     0.056 C 
ATOM     22  C   UNL     1      -0.744  -5.491   1.161  1.00  0.00     0.056 C 
ENDBRANCH  18  19
ENDBRANCH  16  18
ENDBRANCH  11  16
ENDBRANCH   7  10
ENDBRANCH   5   6
BRANCH   5  23
ATOM     23  C   UNL     1      -0.547  -0.064   4.212  1.00  0.00    -0.016 A 
ATOM     24  C   UNL     1      -0.278   1.419   3.974  1.00  0.00     0.006 A 
ATOM     25  C   UNL     1      -1.284  -0.359   2.922  1.00  0.00     0.006 A 
ATOM     26  C   UNL     1      -0.720   2.305   2.946  1.00  0.00     0.000 A 
ATOM     27  C   UNL     1      -1.758   0.515   1.894  1.00  0.00     0.000 A 
ATOM     28  C   UNL     1      -1.502   1.857   1.922  1.00  0.00     0.000 A 
ENDBRANCH   5  23
ENDBRANCH   1   5
BRANCH   3  29
ATOM     29  C   UNL     1       1.016  -0.419   8.889  1.00  0.00     0.117 C 
BRANCH  29  30
ATOM     30  C   UNL     1       1.498  -0.425  10.319  1.00  0.00     0.042 C 
BRANCH  30  31
ATOM     31  C   UNL     1       2.787   0.365  10.473  1.00  0.00     0.118 C 
BRANCH  31  32
ATOM     32  N   UNL     1       2.663   1.783  10.097  1.00  0.00    -0.352 N 
ATOM     33  C   UNL     1       2.495   2.928  10.844  1.00  0.00     0.251 C 
ATOM     34  H   UNL     1       2.709   1.944   9.126  1.00  0.00     0.163 HD
ATOM     35  O   UNL     1       2.244   3.994  10.292  1.00  0.00    -0.269 OA
BRANCH  33  36
ATOM     36  C   UNL     1       2.587   2.858  12.312  1.00  0.00     0.039 A 
ATOM     37  C   UNL     1       1.706   3.583  13.117  1.00  0.00     0.014 A 
ATOM     38  C   UNL     1       3.523   2.011  12.889  1.00  0.00     0.014 A 
ATOM     39  C   UNL     1       1.696   3.353  14.495  1.00  0.00     0.010 A 
ATOM     40  C   UNL     1       3.373   1.636  14.208  1.00  0.00     0.010 A 
ATOM     41  C   UNL     1       2.486   2.328  15.041  1.00  0.00    -0.014 A 
BRANCH  41  42
ATOM     42  C   UNL     1       2.469   1.980  16.483  1.00  0.00     0.031 A 
ATOM     43  C   UNL     1       3.766   1.968  17.252  1.00  0.00     0.074 A 
ATOM     44  C   UNL     1       1.325   1.574  17.066  1.00  0.00     0.049 A 
ATOM     45  N   UNL     1       4.008   1.549  18.468  1.00  0.00    -0.248 NA
ATOM     46  C   UNL     1       4.972   2.419  16.532  1.00  0.00     0.031 C 
ATOM     47  C   UNL     1       0.024   1.450  16.403  1.00  0.00     0.029 A 
ATOM     48  N   UNL     1       1.075   1.181  18.356  1.00  0.00    -0.354 N 
ATOM     49  C   UNL     1       5.385   1.639  18.626  1.00  0.00     0.074 A 
ATOM     50  C   UNL     1       5.937   2.053  17.359  1.00  0.00     0.031 C 
ATOM     51  C   UNL     1      -0.895   1.064  17.303  1.00  0.00     0.029 A 
ATOM     52  C   UNL     1      -0.243   0.875  18.594  1.00  0.00     0.049 A 
ATOM     53  H   UNL     1       1.774   1.124  19.047  1.00  0.00     0.167 HD
ATOM     54  C   UNL     1       6.123   1.448  19.744  1.00  0.00     0.037 A 
ATOM     55  C   UNL     1      -0.851   0.496  19.733  1.00  0.00     0.037 A 
ATOM     56  C   UNL     1       5.555   1.127  21.022  1.00  0.00     0.049 A 
ATOM     57  C   UNL     1      -0.023   0.370  20.985  1.00  0.00     0.074 A 
ATOM     58  C   UNL     1       6.188   1.000  22.244  1.00  0.00     0.029 A 
ATOM     59  N   UNL     1       4.203   0.904  21.241  1.00  0.00    -0.354 N 
ATOM     60  N   UNL     1       1.268   0.533  21.144  1.00  0.00    -0.248 NA
ATOM     61  C   UNL     1      -0.741   0.021  22.218  1.00  0.00     0.031 C 
ATOM     62  C   UNL     1       5.221   0.670  23.200  1.00  0.00     0.029 A 
ATOM     63  C   UNL     1       3.981   0.636  22.580  1.00  0.00     0.049 A 
ATOM     64  H   UNL     1       3.505   0.931  20.547  1.00  0.00     0.167 HD
ATOM     65  C   UNL     1       1.514   0.341  22.496  1.00  0.00     0.074 A 
ATOM     66  C   UNL     1       0.234   0.063  23.115  1.00  0.00     0.031 C 
ATOM     67  C   UNL     1       2.691   0.385  23.168  1.00  0.00     0.037 A 
BRANCH  54  68
ATOM     68  C   UNL     1       7.611   1.623  19.631  1.00  0.00     0.064 A 
ATOM     69  C   UNL     1       8.189   2.876  19.367  1.00  0.00     0.173 A 
ATOM     70  C   UNL     1       8.472   0.527  19.785  1.00  0.00     0.173 A 
ATOM     71  F   UNL     1       7.412   3.956  19.192  1.00  0.00    -0.203 F 
ATOM     72  C   UNL     1       9.566   3.015  19.217  1.00  0.00     0.198 A 
ATOM     73  C   UNL     1       9.852   0.677  19.673  1.00  0.00     0.198 A 
ATOM     74  F   UNL     1       7.976  -0.693  20.041  1.00  0.00    -0.203 F 
ATOM     75  F   UNL     1      10.085   4.208  18.892  1.00  0.00    -0.200 F 
ATOM     76  C   UNL     1      10.397   1.918  19.377  1.00  0.00     0.200 A 
ATOM     77  F   UNL     1      10.656  -0.382  19.839  1.00  0.00    -0.200 F 
ATOM     78  F   UNL     1      11.723   2.054  19.234  1.00  0.00    -0.200 F 
ENDBRANCH  54  68
BRANCH  55  79
ATOM     79  C   UNL     1      -2.321   0.278  19.760  1.00  0.00     0.064 A 
ATOM     80  C   UNL     1      -3.164   1.174  20.434  1.00  0.00     0.173 A 
ATOM     81  C   UNL     1      -2.914  -0.820  19.122  1.00  0.00     0.173 A 
ATOM     82  F   UNL     1      -2.642   2.232  21.072  1.00  0.00    -0.203 F 
ATOM     83  C   UNL     1      -4.540   0.965  20.492  1.00  0.00     0.198 A 
ATOM     84  C   UNL     1      -4.295  -1.012  19.157  1.00  0.00     0.198 A 
ATOM     85  F   UNL     1      -2.155  -1.700  18.454  1.00  0.00    -0.203 F 
ATOM     86  F   UNL     1      -5.315   1.811  21.186  1.00  0.00    -0.200 F 
ATOM     87  C   UNL     1      -5.105  -0.126  19.851  1.00  0.00     0.200 A 
ATOM     88  F   UNL     1      -4.839  -2.060  18.523  1.00  0.00    -0.200 F 
ATOM     89  F   UNL     1      -6.429  -0.327  19.907  1.00  0.00    -0.200 F 
ENDBRANCH  55  79
BRANCH  67  90
ATOM     90  C   UNL     1       2.639   0.176  24.652  1.00  0.00     0.064 A 
ATOM     91  C   UNL     1       2.383  -1.085  25.209  1.00  0.00     0.173 A 
ATOM     92  C   UNL     1       2.894   1.245  25.524  1.00  0.00     0.173 A 
ATOM     93  F   UNL     1       2.122  -2.134  24.415  1.00  0.00    -0.203 F 
ATOM     94  C   UNL     1       2.354  -1.262  26.589  1.00  0.00     0.198 A 
ATOM     95  C   UNL     1       2.896   1.057  26.902  1.00  0.00     0.198 A 
ATOM     96  F   UNL     1       3.155   2.468  25.038  1.00  0.00    -0.203 F 
ATOM     97  F   UNL     1       2.058  -2.463  27.102  1.00  0.00    -0.200 F 
ATOM     98  C   UNL     1       2.618  -0.193  27.434  1.00  0.00     0.200 A 
ATOM     99  F   UNL     1       3.167   2.086  27.717  1.00  0.00    -0.200 F 
ATOM    100  F   UNL     1       2.598  -0.368  28.762  1.00  0.00    -0.200 F 
ENDBRANCH  67  90
ENDBRANCH  41  42
ENDBRANCH  33  36
ENDBRANCH  31  32
ENDBRANCH  30  31
ENDBRANCH  29  30
ENDBRANCH   3  29
TORSDOF 16
