REMARK SMILES CCCCc1[nH]ncc1C(=O)NCCCNC(=O)c1ccc(-c2c3nc(c(-c4c(F)c(F)c(F)c(F)c4F)c4ccc([nH]4)c(-c4c(F)c(F)c(F)c(F)c4F)c4nc(c(-c5c(F)c(F)c(F)c(F)c5F)c5ccc2[nH]5)C=C4)C=C3)cc1
REMARK SMILES IDX 13 1 12 2 10 3 11 4 9 6 5 7 6 8 7 9 8 11 4 12 3 13 2 14 1 15
REMARK SMILES IDX 14 16 15 17 16 18 17 19 18 21 19 22 20 23 81 24 21 25 80 26
REMARK SMILES IDX 22 27 23 28 24 29 74 30 25 31 79 32 73 33 75 34 26 35 78 36
REMARK SMILES IDX 72 37 71 38 27 40 59 41 39 42 58 43 40 44 43 45 57 46 76 47
REMARK SMILES IDX 41 48 42 49 56 51 77 52 44 53 28 54 29 55 37 56 30 57 31 58
REMARK SMILES IDX 35 59 38 60 32 61 33 62 36 63 34 64 60 65 61 66 69 67 62 68
REMARK SMILES IDX 63 69 67 70 70 71 64 72 65 73 68 74 66 75 45 76 46 77 54 78
REMARK SMILES IDX 47 79 48 80 52 81 55 82 49 83 50 84 53 85 51 86
REMARK H PARENT 12 5 6 10 16 20 75 39 43 50
REMARK Flexibility Score: inf
ROOT
ATOM      1  C   UNL     1       0.975   3.886   3.821  1.00  0.00     0.118 C 
ENDROOT
BRANCH   1   2
ATOM      2  N   UNL     1      -0.299   4.555   3.861  1.00  0.00    -0.352 N 
ATOM      3  C   UNL     1      -1.527   4.269   3.336  1.00  0.00     0.254 C 
ATOM      4  O   UNL     1      -2.416   5.060   3.669  1.00  0.00    -0.269 OA
ATOM      5  H   UNL     1      -0.282   5.395   4.375  1.00  0.00     0.163 HD
BRANCH   3   6
ATOM      6  C   UNL     1      -1.856   3.128   2.480  1.00  0.00     0.080 A 
ATOM      7  C   UNL     1      -1.184   2.219   1.661  1.00  0.00     0.048 A 
ATOM      8  N   UNL     1      -2.163   1.443   1.082  1.00  0.00    -0.282 N 
ATOM      9  N   UNL     1      -3.404   1.746   1.453  1.00  0.00    -0.183 NA
ATOM     10  H   UNL     1      -1.960   0.721   0.444  1.00  0.00     0.190 HD
ATOM     11  C   UNL     1      -3.226   2.770   2.283  1.00  0.00     0.149 A 
BRANCH   7  12
ATOM     12  C   UNL     1       0.219   1.958   1.229  1.00  0.00     0.056 C 
BRANCH  12  13
ATOM     13  C   UNL     1       0.858   0.746   1.925  1.00  0.00     0.006 C 
BRANCH  13  14
ATOM     14  C   UNL     1       0.580  -0.608   1.262  1.00  0.00    -0.003 C 
ATOM     15  C   UNL     1       1.106  -0.706  -0.163  1.00  0.00     0.004 C 
ENDBRANCH  13  14
ENDBRANCH  12  13
ENDBRANCH   7  12
ENDBRANCH   3   6
ENDBRANCH   1   2
BRANCH   1  16
ATOM     16  C   UNL     1       1.891   4.521   2.778  1.00  0.00     0.042 C 
BRANCH  16  17
ATOM     17  C   UNL     1       2.686   5.700   3.311  1.00  0.00     0.118 C 
BRANCH  17  18
ATOM     18  N   UNL     1       3.742   5.268   4.219  1.00  0.00    -0.352 N 
ATOM     19  C   UNL     1       5.102   5.428   4.114  1.00  0.00     0.251 C 
ATOM     20  H   UNL     1       3.436   4.791   5.024  1.00  0.00     0.163 HD
ATOM     21  O   UNL     1       5.855   4.790   4.846  1.00  0.00    -0.269 OA
BRANCH  19  22
ATOM     22  C   UNL     1       5.658   6.356   3.110  1.00  0.00     0.039 A 
ATOM     23  C   UNL     1       6.797   5.988   2.387  1.00  0.00     0.014 A 
ATOM     24  C   UNL     1       5.050   7.592   2.881  1.00  0.00     0.014 A 
ATOM     25  C   UNL     1       7.283   6.831   1.385  1.00  0.00     0.010 A 
ATOM     26  C   UNL     1       5.472   8.380   1.822  1.00  0.00     0.010 A 
ATOM     27  C   UNL     1       6.600   8.014   1.070  1.00  0.00    -0.014 A 
BRANCH  27  28
ATOM     28  C   UNL     1       7.041   8.925  -0.014  1.00  0.00     0.031 A 
ATOM     29  C   UNL     1       7.410  10.341   0.325  1.00  0.00     0.074 A 
ATOM     30  C   UNL     1       6.984   8.524  -1.297  1.00  0.00     0.049 A 
ATOM     31  N   UNL     1       7.613  11.361  -0.467  1.00  0.00    -0.248 NA
ATOM     32  C   UNL     1       7.518  10.660   1.758  1.00  0.00     0.031 C 
ATOM     33  C   UNL     1       6.604   7.186  -1.749  1.00  0.00     0.029 A 
ATOM     34  N   UNL     1       7.209   9.218  -2.459  1.00  0.00    -0.354 N 
ATOM     35  C   UNL     1       7.838  12.445   0.371  1.00  0.00     0.074 A 
ATOM     36  C   UNL     1       7.684  11.972   1.729  1.00  0.00     0.031 C 
ATOM     37  C   UNL     1       6.619   7.156  -3.091  1.00  0.00     0.029 A 
ATOM     38  C   UNL     1       6.956   8.485  -3.592  1.00  0.00     0.049 A 
ATOM     39  H   UNL     1       7.521  10.152  -2.478  1.00  0.00     0.167 HD
ATOM     40  C   UNL     1       8.165  13.716   0.036  1.00  0.00     0.037 A 
ATOM     41  C   UNL     1       6.965   8.853  -4.888  1.00  0.00     0.037 A 
ATOM     42  C   UNL     1       8.333  14.166  -1.320  1.00  0.00     0.049 A 
ATOM     43  C   UNL     1       7.316  10.272  -5.244  1.00  0.00     0.074 A 
ATOM     44  C   UNL     1       8.717  15.414  -1.774  1.00  0.00     0.029 A 
ATOM     45  N   UNL     1       8.116  13.379  -2.443  1.00  0.00    -0.354 N 
ATOM     46  N   UNL     1       7.584  11.280  -4.449  1.00  0.00    -0.248 NA
ATOM     47  C   UNL     1       7.373  10.605  -6.673  1.00  0.00     0.031 C 
ATOM     48  C   UNL     1       8.676  15.399  -3.172  1.00  0.00     0.029 A 
ATOM     49  C   UNL     1       8.335  14.122  -3.591  1.00  0.00     0.049 A 
ATOM     50  H   UNL     1       7.846  12.432  -2.426  1.00  0.00     0.167 HD
ATOM     51  C   UNL     1       7.873  12.356  -5.277  1.00  0.00     0.074 A 
ATOM     52  C   UNL     1       7.748  11.877  -6.639  1.00  0.00     0.031 C 
ATOM     53  C   UNL     1       8.220  13.622  -4.939  1.00  0.00     0.037 A 
BRANCH  40  54
ATOM     54  C   UNL     1       8.345  14.700   1.158  1.00  0.00     0.064 A 
ATOM     55  C   UNL     1       9.384  14.576   2.094  1.00  0.00     0.173 A 
ATOM     56  C   UNL     1       7.456  15.775   1.310  1.00  0.00     0.173 A 
ATOM     57  F   UNL     1      10.258  13.561   2.003  1.00  0.00    -0.203 F 
ATOM     58  C   UNL     1       9.493  15.455   3.169  1.00  0.00     0.198 A 
ATOM     59  C   UNL     1       7.593  16.677   2.362  1.00  0.00     0.198 A 
ATOM     60  F   UNL     1       6.449  15.950   0.442  1.00  0.00    -0.203 F 
ATOM     61  F   UNL     1      10.444  15.265   4.093  1.00  0.00    -0.200 F 
ATOM     62  C   UNL     1       8.600  16.507   3.300  1.00  0.00     0.200 A 
ATOM     63  F   UNL     1       6.739  17.704   2.478  1.00  0.00    -0.200 F 
ATOM     64  F   UNL     1       8.703  17.349   4.337  1.00  0.00    -0.200 F 
ENDBRANCH  40  54
BRANCH  41  65
ATOM     65  C   UNL     1       6.636   7.849  -5.934  1.00  0.00     0.064 A 
ATOM     66  C   UNL     1       7.628   7.347  -6.787  1.00  0.00     0.173 A 
ATOM     67  C   UNL     1       5.336   7.340  -6.073  1.00  0.00     0.173 A 
ATOM     68  F   UNL     1       8.882   7.814  -6.704  1.00  0.00    -0.203 F 
ATOM     69  C   UNL     1       7.330   6.380  -7.746  1.00  0.00     0.198 A 
ATOM     70  C   UNL     1       5.046   6.352  -7.012  1.00  0.00     0.198 A 
ATOM     71  F   UNL     1       4.354   7.779  -5.273  1.00  0.00    -0.203 F 
ATOM     72  F   UNL     1       8.291   5.939  -8.569  1.00  0.00    -0.200 F 
ATOM     73  C   UNL     1       6.042   5.877  -7.852  1.00  0.00     0.200 A 
ATOM     74  F   UNL     1       3.805   5.854  -7.096  1.00  0.00    -0.200 F 
ATOM     75  F   UNL     1       5.761   4.934  -8.761  1.00  0.00    -0.200 F 
ENDBRANCH  41  65
BRANCH  53  76
ATOM     76  C   UNL     1       8.545  14.578  -6.050  1.00  0.00     0.064 A 
ATOM     77  C   UNL     1       7.551  15.122  -6.875  1.00  0.00     0.173 A 
ATOM     78  C   UNL     1       9.865  15.023  -6.227  1.00  0.00     0.173 A 
ATOM     79  F   UNL     1       6.278  14.718  -6.756  1.00  0.00    -0.203 F 
ATOM     80  C   UNL     1       7.868  16.072  -7.843  1.00  0.00     0.198 A 
ATOM     81  C   UNL     1      10.173  15.996  -7.173  1.00  0.00     0.198 A 
ATOM     82  F   UNL     1      10.851  14.537  -5.458  1.00  0.00    -0.203 F 
ATOM     83  F   UNL     1       6.908  16.558  -8.642  1.00  0.00    -0.200 F 
ATOM     84  C   UNL     1       9.175  16.517  -7.982  1.00  0.00     0.200 A 
ATOM     85  F   UNL     1      11.432  16.437  -7.293  1.00  0.00    -0.200 F 
ATOM     86  F   UNL     1       9.473  17.450  -8.897  1.00  0.00    -0.200 F 
ENDBRANCH  53  76
ENDBRANCH  27  28
ENDBRANCH  19  22
ENDBRANCH  17  18
ENDBRANCH  16  17
ENDBRANCH   1  16
TORSDOF 13
