REMARK SMILES CCN(CC)C(=O)C[C@](C)(C(=O)NCCCNC(=O)c1ccc(-c2c3nc(c(-c4c(F)c(F)c(F)c(F)c4F)c4ccc([nH]4)c(-c4c(F)c(F)c(F)c(F)c4F)c4nc(c(-c5c(F)c(F)c(F)c(F)c5F)c5ccc2[nH]5)C=C4)C=C3)cc1)c1ccccc1
REMARK SMILES IDX 14 1 13 2 11 3 12 4 9 6 10 7 8 8 6 9 3 10 7 11 2 12 1 13
REMARK SMILES IDX 4 14 5 15 83 16 84 17 88 18 85 19 87 20 86 21 15 22 16 23
REMARK SMILES IDX 17 24 18 25 19 27 20 28 21 29 82 30 22 31 81 32 23 33 24 34
REMARK SMILES IDX 25 35 75 36 26 37 80 38 74 39 76 40 27 41 79 42 73 43 72 44
REMARK SMILES IDX 28 46 60 47 40 48 59 49 41 50 44 51 58 52 77 53 42 54 43 55
REMARK SMILES IDX 57 57 78 58 45 59 29 60 30 61 38 62 31 63 32 64 36 65 39 66
REMARK SMILES IDX 33 67 34 68 37 69 35 70 61 71 62 72 70 73 63 74 64 75 68 76
REMARK SMILES IDX 71 77 65 78 66 79 69 80 67 81 46 82 47 83 55 84 48 85 49 86
REMARK SMILES IDX 53 87 56 88 50 89 51 90 54 91 52 92
REMARK H PARENT 13 5 17 26 76 45 44 56
REMARK Flexibility Score: inf
ROOT
ATOM      1  C   UNL     1       1.603   1.189  -6.753  1.00  0.00     0.117 C 
ENDROOT
BRANCH   1   2
ATOM      2  N   UNL     1       2.497   0.042  -6.806  1.00  0.00    -0.355 N 
ATOM      3  C   UNL     1       3.150  -0.695  -5.861  1.00  0.00     0.230 C 
ATOM      4  O   UNL     1       4.091  -1.350  -6.322  1.00  0.00    -0.274 OA
ATOM      5  H   UNL     1       2.667  -0.272  -7.724  1.00  0.00     0.163 HD
BRANCH   3   6
ATOM      6  C   UNL     1       2.742  -0.708  -4.345  1.00  0.00     0.080 C 
ATOM      7  C   UNL     1       3.146   0.678  -3.788  1.00  0.00     0.027 C 
BRANCH   6   8
ATOM      8  C   UNL     1       1.204  -0.932  -4.297  1.00  0.00     0.121 C 
BRANCH   8   9
ATOM      9  C   UNL     1       0.534  -1.361  -3.009  1.00  0.00     0.223 C 
ATOM     10  N   UNL     1       0.253  -2.696  -2.738  1.00  0.00    -0.343 N 
ATOM     11  O   UNL     1       0.195  -0.456  -2.236  1.00  0.00    -0.275 OA
BRANCH  10  12
ATOM     12  C   UNL     1      -0.370  -2.991  -1.435  1.00  0.00     0.116 C 
ATOM     13  C   UNL     1       0.397  -2.470  -0.220  1.00  0.00     0.027 C 
ENDBRANCH  10  12
BRANCH  10  14
ATOM     14  C   UNL     1       0.608  -3.865  -3.561  1.00  0.00     0.116 C 
ATOM     15  C   UNL     1      -0.029  -4.000  -4.937  1.00  0.00     0.027 C 
ENDBRANCH  10  14
ENDBRANCH   8   9
ENDBRANCH   6   8
BRANCH   6  16
ATOM     16  C   UNL     1       3.462  -1.818  -3.523  1.00  0.00    -0.032 A 
ATOM     17  C   UNL     1       3.882  -3.039  -4.086  1.00  0.00     0.005 A 
ATOM     18  C   UNL     1       3.629  -1.680  -2.129  1.00  0.00     0.005 A 
ATOM     19  C   UNL     1       4.409  -4.072  -3.298  1.00  0.00     0.000 A 
ATOM     20  C   UNL     1       4.160  -2.708  -1.343  1.00  0.00     0.000 A 
ATOM     21  C   UNL     1       4.537  -3.910  -1.925  1.00  0.00     0.000 A 
ENDBRANCH   6  16
ENDBRANCH   3   6
ENDBRANCH   1   2
BRANCH   1  22
ATOM     22  C   UNL     1       2.340   2.483  -7.077  1.00  0.00     0.042 C 
BRANCH  22  23
ATOM     23  C   UNL     1       2.887   2.537  -8.496  1.00  0.00     0.118 C 
BRANCH  23  24
ATOM     24  N   UNL     1       1.831   2.561  -9.499  1.00  0.00    -0.352 N 
ATOM     25  C   UNL     1       1.496   3.540 -10.396  1.00  0.00     0.251 C 
ATOM     26  H   UNL     1       1.274   1.750  -9.538  1.00  0.00     0.163 HD
ATOM     27  O   UNL     1       0.439   3.457 -11.025  1.00  0.00    -0.269 OA
BRANCH  25  28
ATOM     28  C   UNL     1       2.381   4.705 -10.602  1.00  0.00     0.039 A 
ATOM     29  C   UNL     1       1.810   5.973 -10.738  1.00  0.00     0.014 A 
ATOM     30  C   UNL     1       3.768   4.552 -10.676  1.00  0.00     0.014 A 
ATOM     31  C   UNL     1       2.633   7.092 -10.881  1.00  0.00     0.010 A 
ATOM     32  C   UNL     1       4.588   5.675 -10.725  1.00  0.00     0.010 A 
ATOM     33  C   UNL     1       4.030   6.956 -10.837  1.00  0.00    -0.014 A 
BRANCH  33  34
ATOM     34  C   UNL     1       4.925   8.139 -10.919  1.00  0.00     0.031 A 
ATOM     35  C   UNL     1       5.887   8.277 -12.067  1.00  0.00     0.074 A 
ATOM     36  C   UNL     1       4.912   9.056  -9.932  1.00  0.00     0.049 A 
ATOM     37  N   UNL     1       6.803   9.189 -12.276  1.00  0.00    -0.248 NA
ATOM     38  C   UNL     1       5.831   7.238 -13.108  1.00  0.00     0.031 C 
ATOM     39  C   UNL     1       4.055   9.013  -8.746  1.00  0.00     0.029 A 
ATOM     40  N   UNL     1       5.650  10.202  -9.764  1.00  0.00    -0.354 N 
ATOM     41  C   UNL     1       7.433   8.829 -13.460  1.00  0.00     0.074 A 
ATOM     42  C   UNL     1       6.839   7.584 -13.895  1.00  0.00     0.031 C 
ATOM     43  C   UNL     1       4.299  10.092  -7.985  1.00  0.00     0.029 A 
ATOM     44  C   UNL     1       5.359  10.880  -8.605  1.00  0.00     0.049 A 
ATOM     45  H   UNL     1       6.324  10.508 -10.412  1.00  0.00     0.167 HD
ATOM     46  C   UNL     1       8.399   9.492 -14.139  1.00  0.00     0.037 A 
ATOM     47  C   UNL     1       5.897  12.005  -8.095  1.00  0.00     0.037 A 
ATOM     48  C   UNL     1       8.973  10.742 -13.715  1.00  0.00     0.049 A 
ATOM     49  C   UNL     1       6.989  12.706  -8.860  1.00  0.00     0.074 A 
ATOM     50  C   UNL     1       9.928  11.513 -14.354  1.00  0.00     0.029 A 
ATOM     51  N   UNL     1       8.640  11.406 -12.544  1.00  0.00    -0.354 N 
ATOM     52  N   UNL     1       7.532  12.387 -10.010  1.00  0.00    -0.248 NA
ATOM     53  C   UNL     1       7.538  13.929  -8.258  1.00  0.00     0.031 C 
ATOM     54  C   UNL     1      10.208  12.620 -13.547  1.00  0.00     0.029 A 
ATOM     55  C   UNL     1       9.386  12.568 -12.433  1.00  0.00     0.049 A 
ATOM     56  H   UNL     1       7.974  11.097 -11.888  1.00  0.00     0.167 HD
ATOM     57  C   UNL     1       8.457  13.386 -10.285  1.00  0.00     0.074 A 
ATOM     58  C   UNL     1       8.389  14.330  -9.190  1.00  0.00     0.031 C 
ATOM     59  C   UNL     1       9.290  13.509 -11.347  1.00  0.00     0.037 A 
BRANCH  46  60
ATOM     60  C   UNL     1       8.891   8.889 -15.423  1.00  0.00     0.064 A 
ATOM     61  C   UNL     1       8.084   8.853 -16.571  1.00  0.00     0.173 A 
ATOM     62  C   UNL     1      10.201   8.398 -15.527  1.00  0.00     0.173 A 
ATOM     63  F   UNL     1       6.820   9.299 -16.522  1.00  0.00    -0.203 F 
ATOM     64  C   UNL     1       8.564   8.330 -17.768  1.00  0.00     0.198 A 
ATOM     65  C   UNL     1      10.688   7.904 -16.734  1.00  0.00     0.198 A 
ATOM     66  F   UNL     1      11.016   8.413 -14.461  1.00  0.00    -0.203 F 
ATOM     67  F   UNL     1       7.762   8.270 -18.840  1.00  0.00    -0.200 F 
ATOM     68  C   UNL     1       9.868   7.865 -17.852  1.00  0.00     0.200 A 
ATOM     69  F   UNL     1      11.953   7.469 -16.817  1.00  0.00    -0.200 F 
ATOM     70  F   UNL     1      10.334   7.378 -19.010  1.00  0.00    -0.200 F 
ENDBRANCH  46  60
BRANCH  47  71
ATOM     71  C   UNL     1       5.413  12.551  -6.799  1.00  0.00     0.064 A 
ATOM     72  C   UNL     1       4.743  13.782  -6.741  1.00  0.00     0.173 A 
ATOM     73  C   UNL     1       5.644  11.880  -5.589  1.00  0.00     0.173 A 
ATOM     74  F   UNL     1       4.515  14.473  -7.868  1.00  0.00    -0.203 F 
ATOM     75  C   UNL     1       4.357  14.337  -5.522  1.00  0.00     0.198 A 
ATOM     76  C   UNL     1       5.227  12.419  -4.374  1.00  0.00     0.198 A 
ATOM     77  F   UNL     1       6.275  10.696  -5.587  1.00  0.00    -0.203 F 
ATOM     78  F   UNL     1       3.779  15.546  -5.493  1.00  0.00    -0.200 F 
ATOM     79  C   UNL     1       4.597  13.654  -4.340  1.00  0.00     0.200 A 
ATOM     80  F   UNL     1       5.447  11.748  -3.235  1.00  0.00    -0.200 F 
ATOM     81  F   UNL     1       4.232  14.191  -3.168  1.00  0.00    -0.200 F 
ENDBRANCH  47  71
BRANCH  59  82
ATOM     82  C   UNL     1      10.159  14.732 -11.404  1.00  0.00     0.064 A 
ATOM     83  C   UNL     1      11.241  14.912 -10.530  1.00  0.00     0.173 A 
ATOM     84  C   UNL     1       9.926  15.720 -12.373  1.00  0.00     0.173 A 
ATOM     85  F   UNL     1      11.496  14.004  -9.576  1.00  0.00    -0.203 F 
ATOM     86  C   UNL     1      12.039  16.050 -10.604  1.00  0.00     0.198 A 
ATOM     87  C   UNL     1      10.747  16.840 -12.467  1.00  0.00     0.198 A 
ATOM     88  F   UNL     1       8.909  15.593 -13.239  1.00  0.00    -0.203 F 
ATOM     89  F   UNL     1      13.034  16.227  -9.725  1.00  0.00    -0.200 F 
ATOM     90  C   UNL     1      11.797  17.009 -11.577  1.00  0.00     0.200 A 
ATOM     91  F   UNL     1      10.521  17.757 -13.418  1.00  0.00    -0.200 F 
ATOM     92  F   UNL     1      12.572  18.099 -11.653  1.00  0.00    -0.200 F 
ENDBRANCH  59  82
ENDBRANCH  33  34
ENDBRANCH  25  28
ENDBRANCH  23  24
ENDBRANCH  22  23
ENDBRANCH   1  22
TORSDOF 15
