REMARK SMILES Cc1ccc(C(=O)NCCCNC(=O)c2ccc(-c3c4nc(c(-c5c(F)c(F)c(F)c(F)c5F)c5ccc([nH]5)c(-c5c(F)c(F)c(F)c(F)c5F)c5nc(c(-c6c(F)c(F)c(F)c(F)c6F)c6ccc3[nH]6)C=C5)C=C4)cc2)cc1NC(=O)c1ccc(Br)o1
REMARK SMILES IDX 10 1 9 2 8 3 6 4 7 5 5 7 1 8 2 9 3 10 79 11 4 12 78 13 80 14
REMARK SMILES IDX 81 15 82 17 83 18 84 19 88 20 85 21 86 22 87 23 11 24 12 25
REMARK SMILES IDX 13 26 14 28 15 29 16 30 77 31 17 32 76 33 18 34 19 35 20 36
REMARK SMILES IDX 70 37 21 38 75 39 69 40 71 41 22 42 74 43 68 44 67 45 23 47
REMARK SMILES IDX 55 48 35 49 54 50 36 51 39 52 53 53 72 54 37 55 38 56 52 58
REMARK SMILES IDX 73 59 40 60 24 61 25 62 33 63 26 64 27 65 31 66 34 67 28 68
REMARK SMILES IDX 29 69 32 70 30 71 56 72 57 73 65 74 58 75 59 76 63 77 66 78
REMARK SMILES IDX 60 79 61 80 64 81 62 82 41 83 42 84 50 85 43 86 44 87 48 88
REMARK SMILES IDX 51 89 45 90 46 91 49 92 47 93
REMARK H PARENT 8 6 80 16 12 27 71 46 39 57
REMARK Flexibility Score: inf
ROOT
ATOM      1  C   UNL     1      -3.655   2.931  -1.925  1.00  0.00     0.042 C 
ENDROOT
BRANCH   1   2
ATOM      2  C   UNL     1      -3.123   2.311  -0.656  1.00  0.00     0.118 C 
BRANCH   2   3
ATOM      3  N   UNL     1      -3.648   0.992  -0.350  1.00  0.00    -0.352 N 
ATOM      4  C   UNL     1      -2.992  -0.141   0.083  1.00  0.00     0.251 C 
ATOM      5  O   UNL     1      -3.654  -1.160   0.288  1.00  0.00    -0.269 OA
ATOM      6  H   UNL     1      -4.620   0.891  -0.470  1.00  0.00     0.163 HD
BRANCH   4   7
ATOM      7  C   UNL     1      -1.510  -0.188   0.229  1.00  0.00     0.041 A 
ATOM      8  C   UNL     1       2.787  -0.475   0.046  1.00  0.00     0.046 C 
ATOM      9  C   UNL     1       1.293  -0.290   0.162  1.00  0.00    -0.027 A 
ATOM     10  C   UNL     1       0.520  -1.450  -0.050  1.00  0.00     0.006 A 
ATOM     11  C   UNL     1       0.647   0.933   0.462  1.00  0.00     0.045 A 
ATOM     12  C   UNL     1      -0.870  -1.393  -0.052  1.00  0.00     0.014 A 
ATOM     13  C   UNL     1      -0.739   0.927   0.592  1.00  0.00     0.040 A 
BRANCH  11  14
ATOM     14  N   UNL     1       1.423   2.104   0.531  1.00  0.00    -0.319 N 
ATOM     15  C   UNL     1       1.223   3.463   0.467  1.00  0.00     0.291 C 
ATOM     16  H   UNL     1       2.375   1.892   0.661  1.00  0.00     0.170 HD
ATOM     17  O   UNL     1       2.263   4.109   0.291  1.00  0.00    -0.265 OA
BRANCH  15  18
ATOM     18  C   UNL     1      -0.045   4.145   0.554  1.00  0.00     0.193 A 
ATOM     19  C   UNL     1      -1.039   4.224   1.516  1.00  0.00     0.057 A 
ATOM     20  O   UNL     1      -0.265   5.119  -0.385  1.00  0.00    -0.444 OA
ATOM     21  C   UNL     1      -1.877   5.318   1.156  1.00  0.00     0.059 A 
ATOM     22  C   UNL     1      -1.331   5.853   0.011  1.00  0.00     0.170 A 
ATOM     23  Br  UNL     1      -1.888   7.401  -0.862  1.00  0.00    -0.008 Br
ENDBRANCH  15  18
ENDBRANCH  11  14
ENDBRANCH   4   7
ENDBRANCH   2   3
ENDBRANCH   1   2
BRANCH   1  24
ATOM     24  C   UNL     1      -4.899   3.772  -1.719  1.00  0.00     0.118 C 
BRANCH  24  25
ATOM     25  N   UNL     1      -4.646   5.090  -1.125  1.00  0.00    -0.352 N 
ATOM     26  C   UNL     1      -5.389   6.262  -1.178  1.00  0.00     0.251 C 
ATOM     27  H   UNL     1      -3.813   5.154  -0.604  1.00  0.00     0.163 HD
ATOM     28  O   UNL     1      -5.112   7.225  -0.474  1.00  0.00    -0.269 OA
BRANCH  26  29
ATOM     29  C   UNL     1      -6.629   6.275  -1.977  1.00  0.00     0.039 A 
ATOM     30  C   UNL     1      -7.801   6.290  -1.217  1.00  0.00     0.014 A 
ATOM     31  C   UNL     1      -6.587   5.698  -3.237  1.00  0.00     0.014 A 
ATOM     32  C   UNL     1      -8.790   5.371  -1.524  1.00  0.00     0.010 A 
ATOM     33  C   UNL     1      -7.517   4.708  -3.482  1.00  0.00     0.010 A 
ATOM     34  C   UNL     1      -8.554   4.477  -2.566  1.00  0.00    -0.014 A 
BRANCH  34  35
ATOM     35  C   UNL     1      -9.300   3.235  -2.707  1.00  0.00     0.031 A 
ATOM     36  C   UNL     1     -10.280   3.142  -3.802  1.00  0.00     0.074 A 
ATOM     37  C   UNL     1      -9.154   2.195  -1.851  1.00  0.00     0.049 A 
ATOM     38  N   UNL     1     -11.403   2.518  -3.705  1.00  0.00    -0.248 NA
ATOM     39  C   UNL     1     -10.096   3.814  -5.081  1.00  0.00     0.031 C 
ATOM     40  C   UNL     1      -9.724   0.857  -2.007  1.00  0.00     0.029 A 
ATOM     41  N   UNL     1      -8.585   2.178  -0.567  1.00  0.00    -0.354 N 
ATOM     42  C   UNL     1     -11.972   2.494  -4.956  1.00  0.00     0.074 A 
ATOM     43  C   UNL     1     -11.151   3.366  -5.762  1.00  0.00     0.031 C 
ATOM     44  C   UNL     1      -9.735   0.239  -0.817  1.00  0.00     0.029 A 
ATOM     45  C   UNL     1      -9.273   1.187   0.177  1.00  0.00     0.049 A 
ATOM     46  H   UNL     1      -7.848   2.747  -0.245  1.00  0.00     0.167 HD
ATOM     47  C   UNL     1     -13.000   1.635  -5.205  1.00  0.00     0.037 A 
ATOM     48  C   UNL     1      -9.892   1.458   1.363  1.00  0.00     0.037 A 
ATOM     49  C   UNL     1     -13.331   0.853  -4.016  1.00  0.00     0.049 A 
ATOM     50  C   UNL     1     -11.384   1.236   1.327  1.00  0.00     0.074 A 
ATOM     51  C   UNL     1     -12.930  -0.408  -3.603  1.00  0.00     0.029 A 
ATOM     52  N   UNL     1     -13.895   1.470  -2.904  1.00  0.00    -0.354 N 
ATOM     53  N   UNL     1     -12.054   1.041   0.227  1.00  0.00    -0.248 NA
ATOM     54  C   UNL     1     -12.247   1.307   2.504  1.00  0.00     0.031 C 
ATOM     55  C   UNL     1     -13.227  -0.535  -2.226  1.00  0.00     0.029 A 
ATOM     56  C   UNL     1     -13.821   0.640  -1.799  1.00  0.00     0.049 A 
ATOM     57  H   UNL     1     -14.292   2.372  -2.903  1.00  0.00     0.167 HD
ATOM     58  C   UNL     1     -13.394   1.072   0.502  1.00  0.00     0.074 A 
ATOM     59  C   UNL     1     -13.464   1.187   1.946  1.00  0.00     0.031 C 
ATOM     60  C   UNL     1     -14.325   1.056  -0.497  1.00  0.00     0.037 A 
BRANCH  47  61
ATOM     61  C   UNL     1     -13.456   1.277  -6.602  1.00  0.00     0.064 A 
ATOM     62  C   UNL     1     -13.964  -0.007  -6.888  1.00  0.00     0.173 A 
ATOM     63  C   UNL     1     -13.357   2.131  -7.716  1.00  0.00     0.173 A 
ATOM     64  F   UNL     1     -14.244  -0.883  -5.915  1.00  0.00    -0.203 F 
ATOM     65  C   UNL     1     -14.208  -0.443  -8.193  1.00  0.00     0.198 A 
ATOM     66  C   UNL     1     -13.535   1.677  -9.027  1.00  0.00     0.198 A 
ATOM     67  F   UNL     1     -13.142   3.445  -7.569  1.00  0.00    -0.203 F 
ATOM     68  F   UNL     1     -14.681  -1.679  -8.403  1.00  0.00    -0.200 F 
ATOM     69  C   UNL     1     -13.947   0.384  -9.266  1.00  0.00     0.200 A 
ATOM     70  F   UNL     1     -13.305   2.507 -10.055  1.00  0.00    -0.200 F 
ATOM     71  F   UNL     1     -14.124  -0.053 -10.520  1.00  0.00    -0.200 F 
ENDBRANCH  47  61
BRANCH  48  72
ATOM     72  C   UNL     1      -9.217   2.549   2.113  1.00  0.00     0.064 A 
ATOM     73  C   UNL     1      -7.892   2.316   2.527  1.00  0.00     0.173 A 
ATOM     74  C   UNL     1      -9.638   3.875   1.966  1.00  0.00     0.173 A 
ATOM     75  F   UNL     1      -7.459   1.059   2.714  1.00  0.00    -0.203 F 
ATOM     76  C   UNL     1      -6.968   3.354   2.572  1.00  0.00     0.198 A 
ATOM     77  C   UNL     1      -8.715   4.915   2.047  1.00  0.00     0.198 A 
ATOM     78  F   UNL     1     -10.897   4.153   1.601  1.00  0.00    -0.203 F 
ATOM     79  F   UNL     1      -5.670   3.086   2.776  1.00  0.00    -0.200 F 
ATOM     80  C   UNL     1      -7.373   4.647   2.288  1.00  0.00     0.200 A 
ATOM     81  F   UNL     1      -9.104   6.169   1.776  1.00  0.00    -0.200 F 
ATOM     82  F   UNL     1      -6.462   5.624   2.193  1.00  0.00    -0.200 F 
ENDBRANCH  48  72
BRANCH  60  83
ATOM     83  C   UNL     1     -15.796   1.328  -0.314  1.00  0.00     0.064 A 
ATOM     84  C   UNL     1     -16.322   2.163   0.687  1.00  0.00     0.173 A 
ATOM     85  C   UNL     1     -16.736   0.825  -1.244  1.00  0.00     0.173 A 
ATOM     86  F   UNL     1     -15.522   2.819   1.539  1.00  0.00    -0.203 F 
ATOM     87  C   UNL     1     -17.694   2.396   0.810  1.00  0.00     0.198 A 
ATOM     88  C   UNL     1     -18.098   1.111  -1.155  1.00  0.00     0.198 A 
ATOM     89  F   UNL     1     -16.357   0.060  -2.278  1.00  0.00    -0.203 F 
ATOM     90  F   UNL     1     -18.150   3.149   1.821  1.00  0.00    -0.200 F 
ATOM     91  C   UNL     1     -18.581   1.875  -0.113  1.00  0.00     0.200 A 
ATOM     92  F   UNL     1     -18.937   0.652  -2.095  1.00  0.00    -0.200 F 
ATOM     93  F   UNL     1     -19.892   2.127  -0.010  1.00  0.00    -0.200 F 
ENDBRANCH  60  83
ENDBRANCH  34  35
ENDBRANCH  26  29
ENDBRANCH  24  25
ENDBRANCH   1  24
TORSDOF 12
