REMARK SMILES COc1cccc([C@H]2CC(c3ccc(S(C)(=O)=O)cc3)=NN2c2ccc(C(=O)NCCCNC(=O)c3ccc(-c4c5nc(c(-c6c(F)c(F)c(F)c(F)c6F)c6ccc([nH]6)c(-c6c(F)c(F)c(F)c(F)c6F)c6nc(c(-c7c(F)c(F)c(F)c(F)c7F)c7ccc4[nH]7)C=C6)C=C5)cc3)cc2)c1
REMARK SMILES IDX 30 1 29 2 27 3 28 4 26 6 23 7 24 8 100 9 25 10 99 11 22 12
REMARK SMILES IDX 8 13 9 14 10 15 21 16 7 17 3 18 4 19 101 20 5 21 6 22 2 23
REMARK SMILES IDX 1 24 11 25 12 26 20 27 13 28 19 29 14 30 15 31 16 32 17 33
REMARK SMILES IDX 18 34 31 35 32 36 33 37 34 38 35 40 36 41 37 42 98 43 38 44
REMARK SMILES IDX 97 45 39 46 40 47 41 48 91 49 42 50 96 51 90 52 92 53 43 54
REMARK SMILES IDX 95 55 89 56 88 57 44 59 76 60 56 61 75 62 57 63 60 64 74 65
REMARK SMILES IDX 93 66 58 67 59 68 73 70 94 71 61 72 45 73 46 74 54 75 47 76
REMARK SMILES IDX 48 77 52 78 55 79 49 80 50 81 53 82 51 83 77 84 78 85 86 86
REMARK SMILES IDX 79 87 80 88 84 89 87 90 81 91 82 92 85 93 83 94 62 95 63 96
REMARK SMILES IDX 71 97 64 98 65 99 69 100 72 101 66 102 67 103 70 104 68 105
REMARK H PARENT 29 5 33 39 92 58 60 69
REMARK Flexibility Score: inf
ROOT
ATOM      1  C   UNL     1       3.659  -9.163  -4.128  1.00  0.00     0.118 C 
ENDROOT
BRANCH   1   2
ATOM      2  N   UNL     1       4.068  -9.245  -2.739  1.00  0.00    -0.352 N 
ATOM      3  C   UNL     1       4.500  -8.302  -1.843  1.00  0.00     0.251 C 
ATOM      4  O   UNL     1       4.744  -8.687  -0.699  1.00  0.00    -0.269 OA
ATOM      5  H   UNL     1       4.029 -10.156  -2.368  1.00  0.00     0.163 HD
BRANCH   3   6
ATOM      6  C   UNL     1       4.638  -6.856  -2.169  1.00  0.00     0.039 A 
ATOM      7  C   UNL     1       4.832  -4.063  -2.603  1.00  0.00     0.060 A 
ATOM      8  C   UNL     1       4.626  -4.577  -1.319  1.00  0.00     0.029 A 
ATOM      9  C   UNL     1       4.989  -4.965  -3.656  1.00  0.00     0.029 A 
ATOM     10  C   UNL     1       4.508  -5.953  -1.105  1.00  0.00     0.016 A 
ATOM     11  C   UNL     1       4.930  -6.347  -3.436  1.00  0.00     0.016 A 
BRANCH   7  12
ATOM     12  N   UNL     1       4.896  -2.696  -2.799  1.00  0.00    -0.257 N 
ATOM     13  C   UNL     1       4.069  -1.948  -3.743  1.00  0.00     0.144 C 
ATOM     14  C   UNL     1       4.674  -0.538  -3.677  1.00  0.00     0.091 C 
ATOM     15  C   UNL     1       5.815  -0.788  -2.732  1.00  0.00     0.071 C 
ATOM     16  N   UNL     1       5.917  -1.988  -2.256  1.00  0.00    -0.176 NA
BRANCH  13  17
ATOM     17  C   UNL     1       2.604  -1.991  -3.341  1.00  0.00    -0.019 A 
ATOM     18  C   UNL     1       0.836  -1.614  -1.703  1.00  0.00     0.119 A 
ATOM     19  C   UNL     1      -0.089  -2.185  -2.575  1.00  0.00     0.046 A 
ATOM     20  C   UNL     1       2.178  -1.537  -2.076  1.00  0.00     0.052 A 
ATOM     21  C   UNL     1       0.313  -2.640  -3.829  1.00  0.00     0.004 A 
ATOM     22  C   UNL     1       1.651  -2.540  -4.213  1.00  0.00     0.006 A 
BRANCH  18  23
ATOM     23  O   UNL     1       0.337  -1.214  -0.493  1.00  0.00    -0.497 OA
ATOM     24  C   UNL     1       0.985  -0.084   0.082  1.00  0.00     0.278 C 
ENDBRANCH  18  23
ENDBRANCH  13  17
BRANCH  15  25
ATOM     25  C   UNL     1       6.782   0.264  -2.412  1.00  0.00    -0.002 A 
ATOM     26  C   UNL     1       8.133   0.032  -2.691  1.00  0.00     0.011 A 
ATOM     27  C   UNL     1       6.362   1.450  -1.808  1.00  0.00     0.011 A 
ATOM     28  C   UNL     1       9.079   1.005  -2.374  1.00  0.00     0.021 A 
ATOM     29  C   UNL     1       7.311   2.414  -1.464  1.00  0.00     0.021 A 
ATOM     30  C   UNL     1       8.663   2.183  -1.745  1.00  0.00     0.067 A 
BRANCH  30  31
ATOM     31  S   UNL     1       9.882   3.403  -1.312  1.00  0.00     0.175 S 
ATOM     32  C   UNL     1      10.936   2.570  -0.154  1.00  0.00     0.163 C 
ATOM     33  O   UNL     1      10.642   3.677  -2.515  1.00  0.00    -0.224 OA
ATOM     34  O   UNL     1       9.201   4.468  -0.598  1.00  0.00    -0.224 OA
ENDBRANCH  30  31
ENDBRANCH  15  25
ENDBRANCH   7  12
ENDBRANCH   3   6
ENDBRANCH   1   2
BRANCH   1  35
ATOM     35  C   UNL     1       4.794  -9.591  -5.059  1.00  0.00     0.042 C 
BRANCH  35  36
ATOM     36  C   UNL     1       5.053 -11.095  -5.044  1.00  0.00     0.118 C 
BRANCH  36  37
ATOM     37  N   UNL     1       3.979 -11.837  -5.688  1.00  0.00    -0.352 N 
ATOM     38  C   UNL     1       4.018 -12.708  -6.746  1.00  0.00     0.251 C 
ATOM     39  H   UNL     1       3.084 -11.691  -5.303  1.00  0.00     0.163 HD
ATOM     40  O   UNL     1       2.970 -13.057  -7.282  1.00  0.00    -0.269 OA
BRANCH  38  41
ATOM     41  C   UNL     1       5.307 -13.226  -7.255  1.00  0.00     0.039 A 
ATOM     42  C   UNL     1       5.473 -13.363  -8.638  1.00  0.00     0.014 A 
ATOM     43  C   UNL     1       6.323 -13.633  -6.387  1.00  0.00     0.014 A 
ATOM     44  C   UNL     1       6.673 -13.861  -9.150  1.00  0.00     0.010 A 
ATOM     45  C   UNL     1       7.543 -14.071  -6.899  1.00  0.00     0.010 A 
ATOM     46  C   UNL     1       7.727 -14.195  -8.285  1.00  0.00    -0.014 A 
BRANCH  46  47
ATOM     47  C   UNL     1       9.027 -14.677  -8.812  1.00  0.00     0.031 A 
ATOM     48  C   UNL     1       9.489 -16.078  -8.532  1.00  0.00     0.074 A 
ATOM     49  C   UNL     1       9.826 -13.824  -9.482  1.00  0.00     0.049 A 
ATOM     50  N   UNL     1      10.624 -16.655  -8.840  1.00  0.00    -0.248 NA
ATOM     51  C   UNL     1       8.562 -16.938  -7.782  1.00  0.00     0.031 C 
ATOM     52  C   UNL     1       9.512 -12.424  -9.767  1.00  0.00     0.029 A 
ATOM     53  N   UNL     1      11.074 -14.005 -10.024  1.00  0.00    -0.354 N 
ATOM     54  C   UNL     1      10.554 -17.935  -8.307  1.00  0.00     0.074 A 
ATOM     55  C   UNL     1       9.285 -18.036  -7.617  1.00  0.00     0.031 C 
ATOM     56  C   UNL     1      10.538 -11.873 -10.434  1.00  0.00     0.029 A 
ATOM     57  C   UNL     1      11.592 -12.870 -10.596  1.00  0.00     0.049 A 
ATOM     58  H   UNL     1      11.551 -14.866 -10.004  1.00  0.00     0.167 HD
ATOM     59  C   UNL     1      11.457 -18.940  -8.402  1.00  0.00     0.037 A 
ATOM     60  C   UNL     1      12.788 -12.654 -11.174  1.00  0.00     0.037 A 
ATOM     61  C   UNL     1      12.708 -18.841  -9.108  1.00  0.00     0.049 A 
ATOM     62  C   UNL     1      13.768 -13.788 -11.283  1.00  0.00     0.074 A 
ATOM     63  C   UNL     1      13.658 -19.823  -9.325  1.00  0.00     0.029 A 
ATOM     64  N   UNL     1      13.184 -17.685  -9.709  1.00  0.00    -0.354 N 
ATOM     65  N   UNL     1      13.661 -15.017 -10.843  1.00  0.00    -0.248 NA
ATOM     66  C   UNL     1      15.032 -13.507 -11.979  1.00  0.00     0.031 C 
ATOM     67  C   UNL     1      14.729 -19.250 -10.021  1.00  0.00     0.029 A 
ATOM     68  C   UNL     1      14.426 -17.922 -10.277  1.00  0.00     0.049 A 
ATOM     69  H   UNL     1      12.710 -16.822  -9.730  1.00  0.00     0.167 HD
ATOM     70  C   UNL     1      14.831 -15.662 -11.219  1.00  0.00     0.074 A 
ATOM     71  C   UNL     1      15.628 -14.691 -11.941  1.00  0.00     0.031 C 
ATOM     72  C   UNL     1      15.210 -16.942 -10.986  1.00  0.00     0.037 A 
BRANCH  59  73
ATOM     73  C   UNL     1      11.121 -20.235  -7.720  1.00  0.00     0.064 A 
ATOM     74  C   UNL     1      10.097 -21.071  -8.190  1.00  0.00     0.173 A 
ATOM     75  C   UNL     1      11.842 -20.653  -6.591  1.00  0.00     0.173 A 
ATOM     76  F   UNL     1       9.371 -20.713  -9.260  1.00  0.00    -0.203 F 
ATOM     77  C   UNL     1       9.781 -22.258  -7.533  1.00  0.00     0.198 A 
ATOM     78  C   UNL     1      11.543 -21.856  -5.954  1.00  0.00     0.198 A 
ATOM     79  F   UNL     1      12.836 -19.896  -6.104  1.00  0.00    -0.203 F 
ATOM     80  F   UNL     1       8.761 -23.011  -7.967  1.00  0.00    -0.200 F 
ATOM     81  C   UNL     1      10.507 -22.651  -6.419  1.00  0.00     0.200 A 
ATOM     82  F   UNL     1      12.253 -22.241  -4.885  1.00  0.00    -0.200 F 
ATOM     83  F   UNL     1      10.201 -23.793  -5.787  1.00  0.00    -0.200 F 
ENDBRANCH  59  73
BRANCH  60  84
ATOM     84  C   UNL     1      13.107 -11.306 -11.708  1.00  0.00     0.064 A 
ATOM     85  C   UNL     1      13.146 -11.067 -13.088  1.00  0.00     0.173 A 
ATOM     86  C   UNL     1      13.347 -10.223 -10.849  1.00  0.00     0.173 A 
ATOM     87  F   UNL     1      12.941 -12.076 -13.947  1.00  0.00    -0.203 F 
ATOM     88  C   UNL     1      13.420  -9.797 -13.590  1.00  0.00     0.198 A 
ATOM     89  C   UNL     1      13.597  -8.948 -11.352  1.00  0.00     0.198 A 
ATOM     90  F   UNL     1      13.313 -10.399  -9.520  1.00  0.00    -0.203 F 
ATOM     91  F   UNL     1      13.479  -9.601 -14.914  1.00  0.00    -0.200 F 
ATOM     92  C   UNL     1      13.638  -8.737 -12.722  1.00  0.00     0.200 A 
ATOM     93  F   UNL     1      13.790  -7.923 -10.511  1.00  0.00    -0.200 F 
ATOM     94  F   UNL     1      13.888  -7.513 -13.206  1.00  0.00    -0.200 F 
ENDBRANCH  60  84
BRANCH  72  95
ATOM     95  C   UNL     1      16.542 -17.371 -11.528  1.00  0.00     0.064 A 
ATOM     96  C   UNL     1      17.743 -16.939 -10.946  1.00  0.00     0.173 A 
ATOM     97  C   UNL     1      16.617 -18.253 -12.616  1.00  0.00     0.173 A 
ATOM     98  F   UNL     1      17.723 -16.082  -9.915  1.00  0.00    -0.203 F 
ATOM     99  C   UNL     1      18.971 -17.359 -11.449  1.00  0.00     0.198 A 
ATOM    100  C   UNL     1      17.846 -18.692 -13.099  1.00  0.00     0.198 A 
ATOM    101  F   UNL     1      15.496 -18.698 -13.204  1.00  0.00    -0.203 F 
ATOM    102  F   UNL     1      20.108 -16.901 -10.905  1.00  0.00    -0.200 F 
ATOM    103  C   UNL     1      19.022 -18.240 -12.519  1.00  0.00     0.200 A 
ATOM    104  F   UNL     1      17.894 -19.551 -14.126  1.00  0.00    -0.200 F 
ATOM    105  F   UNL     1      20.206 -18.648 -12.997  1.00  0.00    -0.200 F 
ENDBRANCH  72  95
ENDBRANCH  46  47
ENDBRANCH  38  41
ENDBRANCH  36  37
ENDBRANCH  35  36
ENDBRANCH   1  35
TORSDOF 15
