REMARK SMILES C[N@@H+](CCCCC(=O)NCCCNC(=O)c1ccc(-c2c3nc(c(-c4c(F)c(F)c(F)c(F)c4F)c4ccc([nH]4)c(-c4c(F)c(F)c(F)c(F)c4F)c4nc(c(-c5c(F)c(F)c(F)c(F)c5F)c5ccc2[nH]5)C=C4)C=C3)cc1)CC(C)(C)O
REMARK SMILES IDX 7 1 8 2 9 3 6 5 5 6 4 7 3 8 2 9 1 10 79 12 80 13 81 14 82 15
REMARK SMILES IDX 83 16 10 18 11 19 12 20 13 21 14 22 15 24 16 25 17 26 78 27
REMARK SMILES IDX 18 28 77 29 19 30 20 31 21 32 71 33 22 34 76 35 70 36 72 37
REMARK SMILES IDX 23 38 75 39 69 40 68 41 24 43 56 44 36 45 55 46 37 47 40 48
REMARK SMILES IDX 54 49 73 50 38 51 39 52 53 54 74 55 41 56 25 57 26 58 34 59
REMARK SMILES IDX 27 60 28 61 32 62 35 63 29 64 30 65 33 66 31 67 57 68 58 69
REMARK SMILES IDX 66 70 59 71 60 72 64 73 67 74 61 75 62 76 65 77 63 78 42 79
REMARK SMILES IDX 43 80 51 81 44 82 45 83 49 84 52 85 46 86 47 87 50 88 48 89
REMARK H PARENT 9 4 2 11 83 17 13 23 72 42 40 53
REMARK Flexibility Score: inf
ROOT
ATOM      1  C   UNL     1      -3.838  -3.152   2.212  1.00  0.00     0.219 C 
ATOM      2  O   UNL     1      -4.425  -4.230   2.101  1.00  0.00    -0.275 OA
ATOM      3  N   UNL     1      -4.580  -2.013   2.162  1.00  0.00    -0.356 N 
ATOM      4  H   UNL     1      -5.553  -2.156   2.111  1.00  0.00     0.163 HD
ENDROOT
BRANCH   1   5
ATOM      5  C   UNL     1      -2.337  -3.096   2.411  1.00  0.00     0.100 C 
BRANCH   5   6
ATOM      6  C   UNL     1      -1.553  -3.142   1.097  1.00  0.00     0.016 C 
BRANCH   6   7
ATOM      7  C   UNL     1      -1.287  -1.775   0.459  1.00  0.00     0.062 C 
BRANCH   7   8
ATOM      8  C   UNL     1      -0.342  -0.845   1.228  1.00  0.00     0.262 C 
BRANCH   8   9
ATOM      9  N   UNL     1       1.066  -0.814   0.830  1.00  0.00    -0.335 N 
ATOM     10  C   UNL     1       1.304  -0.066  -0.388  1.00  0.00     0.332 C 
ATOM     11  H   UNL     1       1.529  -0.254   1.545  1.00  0.00     0.347 HD
BRANCH   9  12
ATOM     12  C   UNL     1       1.788  -2.085   0.974  1.00  0.00     0.296 C 
BRANCH  12  13
ATOM     13  C   UNL     1       1.981  -3.113  -0.199  1.00  0.00     0.108 C 
ATOM     14  C   UNL     1       3.047  -2.678  -1.207  1.00  0.00     0.048 C 
ATOM     15  C   UNL     1       2.381  -4.466   0.410  1.00  0.00     0.048 C 
BRANCH  13  16
ATOM     16  O   UNL     1       0.772  -3.334  -0.923  1.00  0.00    -0.385 OA
ATOM     17  H   UNL     1       0.479  -2.502  -1.327  1.00  0.00     0.211 HD
ENDBRANCH  13  16
ENDBRANCH  12  13
ENDBRANCH   9  12
ENDBRANCH   8   9
ENDBRANCH   7   8
ENDBRANCH   6   7
ENDBRANCH   5   6
ENDBRANCH   1   5
BRANCH   3  18
ATOM     18  C   UNL     1      -4.171  -0.619   2.170  1.00  0.00     0.117 C 
BRANCH  18  19
ATOM     19  C   UNL     1      -4.368   0.023   0.799  1.00  0.00     0.042 C 
BRANCH  19  20
ATOM     20  C   UNL     1      -5.819   0.278   0.439  1.00  0.00     0.118 C 
BRANCH  20  21
ATOM     21  N   UNL     1      -6.333   1.491   1.047  1.00  0.00    -0.352 N 
ATOM     22  C   UNL     1      -6.636   2.702   0.478  1.00  0.00     0.251 C 
ATOM     23  H   UNL     1      -6.487   1.436   2.018  1.00  0.00     0.163 HD
ATOM     24  O   UNL     1      -6.850   3.671   1.209  1.00  0.00    -0.269 OA
BRANCH  22  25
ATOM     25  C   UNL     1      -6.696   2.872  -0.993  1.00  0.00     0.039 A 
ATOM     26  C   UNL     1      -6.267   4.082  -1.549  1.00  0.00     0.014 A 
ATOM     27  C   UNL     1      -7.224   1.884  -1.828  1.00  0.00     0.014 A 
ATOM     28  C   UNL     1      -6.332   4.282  -2.932  1.00  0.00     0.010 A 
ATOM     29  C   UNL     1      -7.190   2.040  -3.211  1.00  0.00     0.010 A 
ATOM     30  C   UNL     1      -6.775   3.253  -3.777  1.00  0.00    -0.014 A 
BRANCH  30  31
ATOM     31  C   UNL     1      -6.884   3.444  -5.247  1.00  0.00     0.031 A 
ATOM     32  C   UNL     1      -8.232   3.346  -5.913  1.00  0.00     0.074 A 
ATOM     33  C   UNL     1      -5.778   3.643  -5.990  1.00  0.00     0.049 A 
ATOM     34  N   UNL     1      -8.534   3.373  -7.187  1.00  0.00    -0.248 NA
ATOM     35  C   UNL     1      -9.393   3.156  -5.028  1.00  0.00     0.031 C 
ATOM     36  C   UNL     1      -4.412   3.715  -5.472  1.00  0.00     0.029 A 
ATOM     37  N   UNL     1      -5.630   3.810  -7.344  1.00  0.00    -0.354 N 
ATOM     38  C   UNL     1      -9.907   3.170  -7.253  1.00  0.00     0.074 A 
ATOM     39  C   UNL     1     -10.373   2.970  -5.899  1.00  0.00     0.031 C 
ATOM     40  C   UNL     1      -3.566   3.934  -6.492  1.00  0.00     0.029 A 
ATOM     41  C   UNL     1      -4.325   3.980  -7.739  1.00  0.00     0.049 A 
ATOM     42  H   UNL     1      -6.387   3.808  -7.974  1.00  0.00     0.167 HD
ATOM     43  C   UNL     1     -10.713   3.177  -8.341  1.00  0.00     0.037 A 
ATOM     44  C   UNL     1      -3.802   4.147  -8.969  1.00  0.00     0.037 A 
ATOM     45  C   UNL     1     -10.256   3.433  -9.681  1.00  0.00     0.049 A 
ATOM     46  C   UNL     1      -4.720   4.174 -10.161  1.00  0.00     0.074 A 
ATOM     47  C   UNL     1     -11.001   3.538 -10.842  1.00  0.00     0.029 A 
ATOM     48  N   UNL     1      -8.930   3.632 -10.034  1.00  0.00    -0.354 N 
ATOM     49  N   UNL     1      -6.023   4.038 -10.204  1.00  0.00    -0.248 NA
ATOM     50  C   UNL     1      -4.095   4.381 -11.474  1.00  0.00     0.031 C 
ATOM     51  C   UNL     1     -10.121   3.767 -11.905  1.00  0.00     0.029 A 
ATOM     52  C   UNL     1      -8.833   3.845 -11.399  1.00  0.00     0.049 A 
ATOM     53  H   UNL     1      -8.170   3.624  -9.408  1.00  0.00     0.167 HD
ATOM     54  C   UNL     1      -6.376   4.167 -11.540  1.00  0.00     0.074 A 
ATOM     55  C   UNL     1      -5.151   4.406 -12.275  1.00  0.00     0.031 C 
ATOM     56  C   UNL     1      -7.604   4.091 -12.109  1.00  0.00     0.037 A 
BRANCH  43  57
ATOM     57  C   UNL     1     -12.174   2.911  -8.126  1.00  0.00     0.064 A 
ATOM     58  C   UNL     1     -13.006   3.842  -7.485  1.00  0.00     0.173 A 
ATOM     59  C   UNL     1     -12.758   1.723  -8.592  1.00  0.00     0.173 A 
ATOM     60  F   UNL     1     -12.495   4.988  -7.009  1.00  0.00    -0.203 F 
ATOM     61  C   UNL     1     -14.359   3.580  -7.289  1.00  0.00     0.198 A 
ATOM     62  C   UNL     1     -14.118   1.478  -8.421  1.00  0.00     0.198 A 
ATOM     63  F   UNL     1     -12.010   0.802  -9.217  1.00  0.00    -0.203 F 
ATOM     64  F   UNL     1     -15.122   4.462  -6.628  1.00  0.00    -0.200 F 
ATOM     65  C   UNL     1     -14.915   2.402  -7.763  1.00  0.00     0.200 A 
ATOM     66  F   UNL     1     -14.657   0.344  -8.890  1.00  0.00    -0.200 F 
ATOM     67  F   UNL     1     -16.219   2.153  -7.579  1.00  0.00    -0.200 F 
ENDBRANCH  43  57
BRANCH  44  68
ATOM     68  C   UNL     1      -2.337   4.329  -9.131  1.00  0.00     0.064 A 
ATOM     69  C   UNL     1      -1.805   5.573  -9.499  1.00  0.00     0.173 A 
ATOM     70  C   UNL     1      -1.440   3.272  -8.921  1.00  0.00     0.173 A 
ATOM     71  F   UNL     1      -2.625   6.608  -9.732  1.00  0.00    -0.203 F 
ATOM     72  C   UNL     1      -0.433   5.749  -9.666  1.00  0.00     0.198 A 
ATOM     73  C   UNL     1      -0.066   3.455  -9.063  1.00  0.00     0.198 A 
ATOM     74  F   UNL     1      -1.898   2.063  -8.564  1.00  0.00    -0.203 F 
ATOM     75  F   UNL     1       0.045   6.938 -10.057  1.00  0.00    -0.200 F 
ATOM     76  C   UNL     1       0.436   4.691  -9.442  1.00  0.00     0.200 A 
ATOM     77  F   UNL     1       0.772   2.435  -8.834  1.00  0.00    -0.200 F 
ATOM     78  F   UNL     1       1.756   4.862  -9.598  1.00  0.00    -0.200 F 
ENDBRANCH  44  68
BRANCH  56  79
ATOM     79  C   UNL     1      -7.690   4.299 -13.591  1.00  0.00     0.064 A 
ATOM     80  C   UNL     1      -7.263   3.315 -14.494  1.00  0.00     0.173 A 
ATOM     81  C   UNL     1      -8.253   5.473 -14.112  1.00  0.00     0.173 A 
ATOM     82  F   UNL     1      -6.704   2.182 -14.044  1.00  0.00    -0.203 F 
ATOM     83  C   UNL     1      -7.380   3.508 -15.868  1.00  0.00     0.198 A 
ATOM     84  C   UNL     1      -8.393   5.651 -15.485  1.00  0.00     0.198 A 
ATOM     85  F   UNL     1      -8.682   6.441 -13.288  1.00  0.00    -0.203 F 
ATOM     86  F   UNL     1      -6.931   2.572 -16.715  1.00  0.00    -0.200 F 
ATOM     87  C   UNL     1      -7.952   4.672 -16.362  1.00  0.00     0.200 A 
ATOM     88  F   UNL     1      -8.957   6.771 -15.960  1.00  0.00    -0.200 F 
ATOM     89  F   UNL     1      -8.072   4.851 -17.684  1.00  0.00    -0.200 F 
ENDBRANCH  56  79
ENDBRANCH  30  31
ENDBRANCH  22  25
ENDBRANCH  20  21
ENDBRANCH  19  20
ENDBRANCH  18  19
ENDBRANCH   3  18
TORSDOF 17
