REMARK SMILES CC(C)[C@H]([NH2+]Cc1ccc(O)cn1)C(=O)NCCCNC(=O)c1ccc(-c2c3nc(c(-c4c(F)c(F)c(F)c(F)c4F)c4ccc([nH]4)c(-c4c(F)c(F)c(F)c(F)c4F)c4nc(c(-c5c(F)c(F)c(F)c(F)c5F)c5ccc2[nH]5)C=C4)C=C3)cc1
REMARK SMILES IDX 17 1 16 2 14 3 15 4 4 6 2 7 1 8 3 9 5 10 6 13 7 14 8 15
REMARK SMILES IDX 13 16 9 17 12 18 10 19 11 20 18 22 19 23 20 24 21 25 22 27
REMARK SMILES IDX 23 28 24 29 85 30 25 31 84 32 26 33 27 34 28 35 78 36 29 37
REMARK SMILES IDX 83 38 77 39 79 40 30 41 82 42 76 43 75 44 31 46 63 47 43 48
REMARK SMILES IDX 62 49 44 50 47 51 61 52 80 53 45 54 46 55 60 57 81 58 48 59
REMARK SMILES IDX 32 60 33 61 41 62 34 63 35 64 39 65 42 66 36 67 37 68 40 69
REMARK SMILES IDX 38 70 64 71 65 72 73 73 66 74 67 75 71 76 74 77 68 78 69 79
REMARK SMILES IDX 72 80 70 81 49 82 50 83 58 84 51 85 52 86 56 87 59 88 53 89
REMARK SMILES IDX 54 90 57 91 55 92
REMARK H PARENT 16 5 5 11 5 12 11 21 20 26 79 45 47 56
REMARK Flexibility Score: inf
ROOT
ATOM      1  C   UNL     1      -0.358   3.685  -1.800  1.00  0.00     0.118 C 
ENDROOT
BRANCH   1   2
ATOM      2  N   UNL     1      -1.178   2.820  -2.615  1.00  0.00    -0.351 N 
ATOM      3  C   UNL     1      -1.539   1.522  -2.392  1.00  0.00     0.278 C 
ATOM      4  O   UNL     1      -2.338   1.011  -3.182  1.00  0.00    -0.268 OA
ATOM      5  H   UNL     1      -1.524   3.221  -3.445  1.00  0.00     0.163 HD
BRANCH   3   6
ATOM      6  C   UNL     1      -0.991   0.724  -1.176  1.00  0.00     0.275 C 
BRANCH   6   7
ATOM      7  C   UNL     1      -1.591   1.121   0.220  1.00  0.00     0.051 C 
ATOM      8  C   UNL     1      -0.621   1.689   1.271  1.00  0.00     0.014 C 
ATOM      9  C   UNL     1      -2.828   2.025   0.135  1.00  0.00     0.014 C 
ENDBRANCH   6   7
BRANCH   6  10
ATOM     10  N   UNL     1       0.484   0.702  -1.276  1.00  0.00    -0.331 N 
ATOM     11  H   UNL     1       0.864   1.321  -0.560  1.00  0.00     0.347 HD
ATOM     12  H   UNL     1       0.722   1.006  -2.220  1.00  0.00     0.347 HD
BRANCH  10  13
ATOM     13  C   UNL     1       1.071  -0.631  -1.096  1.00  0.00     0.318 C 
BRANCH  13  14
ATOM     14  C   UNL     1       2.593  -0.641  -1.204  1.00  0.00     0.095 A 
ATOM     15  C   UNL     1       3.370   0.436  -0.763  1.00  0.00     0.033 A 
ATOM     16  N   UNL     1       3.162  -1.767  -1.704  1.00  0.00    -0.251 NA
ATOM     17  C   UNL     1       4.758   0.383  -0.881  1.00  0.00     0.050 A 
ATOM     18  C   UNL     1       4.514  -1.797  -1.800  1.00  0.00     0.157 A 
ATOM     19  C   UNL     1       5.338  -0.754  -1.414  1.00  0.00     0.133 A 
BRANCH  19  20
ATOM     20  O   UNL     1       6.686  -0.867  -1.561  1.00  0.00    -0.506 OA
ATOM     21  H   UNL     1       7.246  -0.163  -1.300  1.00  0.00     0.293 HD
ENDBRANCH  19  20
ENDBRANCH  13  14
ENDBRANCH  10  13
ENDBRANCH   6  10
ENDBRANCH   3   6
ENDBRANCH   1   2
BRANCH   1  22
ATOM     22  C   UNL     1       0.901   4.151  -2.502  1.00  0.00     0.042 C 
BRANCH  22  23
ATOM     23  C   UNL     1       0.621   5.128  -3.630  1.00  0.00     0.118 C 
BRANCH  23  24
ATOM     24  N   UNL     1      -0.036   6.347  -3.166  1.00  0.00    -0.352 N 
ATOM     25  C   UNL     1       0.397   7.650  -3.165  1.00  0.00     0.251 C 
ATOM     26  H   UNL     1      -0.937   6.212  -2.792  1.00  0.00     0.163 HD
ATOM     27  O   UNL     1      -0.222   8.501  -2.540  1.00  0.00    -0.269 OA
BRANCH  25  28
ATOM     28  C   UNL     1       1.625   8.017  -3.900  1.00  0.00     0.039 A 
ATOM     29  C   UNL     1       2.514   8.929  -3.328  1.00  0.00     0.014 A 
ATOM     30  C   UNL     1       1.902   7.455  -5.147  1.00  0.00     0.014 A 
ATOM     31  C   UNL     1       3.720   9.211  -3.971  1.00  0.00     0.010 A 
ATOM     32  C   UNL     1       3.148   7.646  -5.727  1.00  0.00     0.010 A 
ATOM     33  C   UNL     1       4.067   8.534  -5.151  1.00  0.00    -0.014 A 
BRANCH  33  34
ATOM     34  C   UNL     1       5.377   8.746  -5.815  1.00  0.00     0.031 A 
ATOM     35  C   UNL     1       5.425   9.271  -7.224  1.00  0.00     0.074 A 
ATOM     36  C   UNL     1       6.513   8.398  -5.178  1.00  0.00     0.049 A 
ATOM     37  N   UNL     1       6.457   9.434  -8.012  1.00  0.00    -0.248 NA
ATOM     38  C   UNL     1       4.138   9.631  -7.843  1.00  0.00     0.031 C 
ATOM     39  C   UNL     1       6.590   7.832  -3.829  1.00  0.00     0.029 A 
ATOM     40  N   UNL     1       7.822   8.459  -5.585  1.00  0.00    -0.354 N 
ATOM     41  C   UNL     1       5.942   9.900  -9.214  1.00  0.00     0.074 A 
ATOM     42  C   UNL     1       4.504   9.929  -9.080  1.00  0.00     0.031 C 
ATOM     43  C   UNL     1       7.878   7.626  -3.511  1.00  0.00     0.029 A 
ATOM     44  C   UNL     1       8.714   7.998  -4.647  1.00  0.00     0.049 A 
ATOM     45  H   UNL     1       8.096   8.801  -6.467  1.00  0.00     0.167 HD
ATOM     46  C   UNL     1       6.612  10.300 -10.321  1.00  0.00     0.037 A 
ATOM     47  C   UNL     1      10.054   7.880  -4.705  1.00  0.00     0.037 A 
ATOM     48  C   UNL     1       8.045  10.294 -10.441  1.00  0.00     0.049 A 
ATOM     49  C   UNL     1      10.770   8.312  -5.958  1.00  0.00     0.074 A 
ATOM     50  C   UNL     1       8.824  10.721 -11.501  1.00  0.00     0.029 A 
ATOM     51  N   UNL     1       8.915   9.837  -9.462  1.00  0.00    -0.354 N 
ATOM     52  N   UNL     1      10.276   8.814  -7.064  1.00  0.00    -0.248 NA
ATOM     53  C   UNL     1      12.232   8.165  -5.968  1.00  0.00     0.031 C 
ATOM     54  C   UNL     1      10.163  10.478 -11.184  1.00  0.00     0.029 A 
ATOM     55  C   UNL     1      10.223   9.955  -9.903  1.00  0.00     0.049 A 
ATOM     56  H   UNL     1       8.644   9.482  -8.585  1.00  0.00     0.167 HD
ATOM     57  C   UNL     1      11.366   9.078  -7.883  1.00  0.00     0.074 A 
ATOM     58  C   UNL     1      12.548   8.695  -7.141  1.00  0.00     0.031 C 
ATOM     59  C   UNL     1      11.388   9.588  -9.139  1.00  0.00     0.037 A 
BRANCH  46  60
ATOM     60  C   UNL     1       5.803  10.793 -11.486  1.00  0.00     0.064 A 
ATOM     61  C   UNL     1       5.101  12.007 -11.430  1.00  0.00     0.173 A 
ATOM     62  C   UNL     1       5.771  10.073 -12.690  1.00  0.00     0.173 A 
ATOM     63  F   UNL     1       5.088  12.728 -10.298  1.00  0.00    -0.203 F 
ATOM     64  C   UNL     1       4.378  12.470 -12.526  1.00  0.00     0.198 A 
ATOM     65  C   UNL     1       5.075  10.556 -13.795  1.00  0.00     0.198 A 
ATOM     66  F   UNL     1       6.427   8.909 -12.799  1.00  0.00    -0.203 F 
ATOM     67  F   UNL     1       3.679  13.609 -12.432  1.00  0.00    -0.200 F 
ATOM     68  C   UNL     1       4.374  11.749 -13.710  1.00  0.00     0.200 A 
ATOM     69  F   UNL     1       5.083   9.865 -14.944  1.00  0.00    -0.200 F 
ATOM     70  F   UNL     1       3.691  12.204 -14.770  1.00  0.00    -0.200 F 
ENDBRANCH  46  60
BRANCH  47  71
ATOM     71  C   UNL     1      10.814   7.346  -3.543  1.00  0.00     0.064 A 
ATOM     72  C   UNL     1      11.704   8.161  -2.828  1.00  0.00     0.173 A 
ATOM     73  C   UNL     1      10.697   6.006  -3.144  1.00  0.00     0.173 A 
ATOM     74  F   UNL     1      11.864   9.446  -3.180  1.00  0.00    -0.203 F 
ATOM     75  C   UNL     1      12.473   7.649  -1.785  1.00  0.00     0.198 A 
ATOM     76  C   UNL     1      11.441   5.504  -2.078  1.00  0.00     0.198 A 
ATOM     77  F   UNL     1       9.854   5.184  -3.785  1.00  0.00    -0.203 F 
ATOM     78  F   UNL     1      13.361   8.436  -1.162  1.00  0.00    -0.200 F 
ATOM     79  C   UNL     1      12.338   6.322  -1.408  1.00  0.00     0.200 A 
ATOM     80  F   UNL     1      11.292   4.226  -1.703  1.00  0.00    -0.200 F 
ATOM     81  F   UNL     1      13.079   5.829  -0.407  1.00  0.00    -0.200 F 
ENDBRANCH  47  71
BRANCH  59  82
ATOM     82  C   UNL     1      12.732   9.814  -9.769  1.00  0.00     0.064 A 
ATOM     83  C   UNL     1      13.544   8.748 -10.182  1.00  0.00     0.173 A 
ATOM     84  C   UNL     1      13.193  11.120 -10.000  1.00  0.00     0.173 A 
ATOM     85  F   UNL     1      13.155   7.481  -9.970  1.00  0.00    -0.203 F 
ATOM     86  C   UNL     1      14.781   8.980 -10.777  1.00  0.00     0.198 A 
ATOM     87  C   UNL     1      14.414  11.348 -10.627  1.00  0.00     0.198 A 
ATOM     88  F   UNL     1      12.451  12.175  -9.632  1.00  0.00    -0.203 F 
ATOM     89  F   UNL     1      15.564   7.946 -11.114  1.00  0.00    -0.200 F 
ATOM     90  C   UNL     1      15.211  10.279 -11.007  1.00  0.00     0.200 A 
ATOM     91  F   UNL     1      14.820  12.603 -10.864  1.00  0.00    -0.200 F 
ATOM     92  F   UNL     1      16.398  10.500 -11.588  1.00  0.00    -0.200 F 
ENDBRANCH  59  82
ENDBRANCH  33  34
ENDBRANCH  25  28
ENDBRANCH  23  24
ENDBRANCH  22  23
ENDBRANCH   1  22
TORSDOF 15
