REMARK SMILES O=C(NCCCNC(=O)c1ccc(-c2ccncc2)cn1)c1ccc(-c2c3nc(c(-c4c(F)c(F)c(F)c(F)c4F)c4ccc([nH]4)c(-c4c(F)c(F)c(F)c(F)c4F)c4nc(c(-c5c(F)c(F)c(F)c(F)c5F)c5ccc2[nH]5)C=C4)C=C3)cc1
REMARK SMILES IDX 4 1 3 2 1 3 2 4 22 6 23 7 84 8 24 9 83 10 25 11 26 12 27 13
REMARK SMILES IDX 77 14 28 15 82 16 76 17 78 18 29 19 81 20 75 21 74 22 30 24
REMARK SMILES IDX 62 25 42 26 61 27 43 28 46 29 60 30 79 31 44 32 45 33 59 35
REMARK SMILES IDX 80 36 47 37 31 38 32 39 40 40 33 41 34 42 38 43 41 44 35 45
REMARK SMILES IDX 36 46 39 47 37 48 63 49 64 50 72 51 65 52 66 53 70 54 73 55
REMARK SMILES IDX 67 56 68 57 71 58 69 59 48 60 49 61 57 62 50 63 51 64 55 65
REMARK SMILES IDX 58 66 52 67 53 68 56 69 54 70 5 71 6 72 7 73 8 74 9 76 10 77
REMARK SMILES IDX 11 78 21 79 12 80 20 81 13 82 14 83 15 84 19 85 16 86 18 87
REMARK SMILES IDX 17 88
REMARK H PARENT 3 5 78 23 46 34 7 75
REMARK Flexibility Score: inf
ROOT
ATOM      1  C   UNL     1       4.599  -0.560  -1.292  1.00  0.00     0.118 C 
ENDROOT
BRANCH   1   2
ATOM      2  N   UNL     1       3.172  -0.303  -1.125  1.00  0.00    -0.352 N 
ATOM      3  O   UNL     1       1.236   0.151  -0.072  1.00  0.00    -0.269 OA
ATOM      4  C   UNL     1       2.465   0.177  -0.050  1.00  0.00     0.251 C 
ATOM      5  H   UNL     1       2.625  -0.507  -1.917  1.00  0.00     0.163 HD
BRANCH   4   6
ATOM      6  C   UNL     1       3.164   0.696   1.145  1.00  0.00     0.039 A 
ATOM      7  C   UNL     1       4.313   1.476   1.023  1.00  0.00     0.014 A 
ATOM      8  C   UNL     1       2.649   0.415   2.416  1.00  0.00     0.014 A 
ATOM      9  C   UNL     1       5.050   1.805   2.154  1.00  0.00     0.010 A 
ATOM     10  C   UNL     1       3.331   0.848   3.558  1.00  0.00     0.010 A 
ATOM     11  C   UNL     1       4.563   1.506   3.437  1.00  0.00    -0.014 A 
BRANCH  11  12
ATOM     12  C   UNL     1       5.351   1.934   4.622  1.00  0.00     0.031 A 
ATOM     13  C   UNL     1       5.924   0.929   5.583  1.00  0.00     0.074 A 
ATOM     14  C   UNL     1       5.593   3.248   4.797  1.00  0.00     0.049 A 
ATOM     15  N   UNL     1       6.686   1.130   6.631  1.00  0.00    -0.248 NA
ATOM     16  C   UNL     1       5.595  -0.485   5.348  1.00  0.00     0.031 C 
ATOM     17  C   UNL     1       5.079   4.318   3.939  1.00  0.00     0.029 A 
ATOM     18  N   UNL     1       6.355   3.907   5.728  1.00  0.00    -0.354 N 
ATOM     19  C   UNL     1       6.904  -0.121   7.191  1.00  0.00     0.074 A 
ATOM     20  C   UNL     1       6.174  -1.076   6.384  1.00  0.00     0.031 C 
ATOM     21  C   UNL     1       5.595   5.489   4.339  1.00  0.00     0.029 A 
ATOM     22  C   UNL     1       6.420   5.263   5.519  1.00  0.00     0.049 A 
ATOM     23  H   UNL     1       6.811   3.452   6.472  1.00  0.00     0.167 HD
ATOM     24  C   UNL     1       7.651  -0.444   8.276  1.00  0.00     0.037 A 
ATOM     25  C   UNL     1       7.067   6.222   6.206  1.00  0.00     0.037 A 
ATOM     26  C   UNL     1       8.398   0.508   9.059  1.00  0.00     0.049 A 
ATOM     27  C   UNL     1       7.878   5.835   7.409  1.00  0.00     0.074 A 
ATOM     28  C   UNL     1       9.225   0.273  10.144  1.00  0.00     0.029 A 
ATOM     29  N   UNL     1       8.405   1.878   8.842  1.00  0.00    -0.354 N 
ATOM     30  N   UNL     1       8.109   4.644   7.903  1.00  0.00    -0.248 NA
ATOM     31  C   UNL     1       8.514   6.930   8.152  1.00  0.00     0.031 C 
ATOM     32  C   UNL     1       9.694   1.505  10.614  1.00  0.00     0.029 A 
ATOM     33  C   UNL     1       9.201   2.504   9.790  1.00  0.00     0.049 A 
ATOM     34  H   UNL     1       7.918   2.339   8.122  1.00  0.00     0.167 HD
ATOM     35  C   UNL     1       8.932   4.841   9.002  1.00  0.00     0.074 A 
ATOM     36  C   UNL     1       9.176   6.266   9.089  1.00  0.00     0.031 C 
ATOM     37  C   UNL     1       9.437   3.924   9.863  1.00  0.00     0.037 A 
BRANCH  24  38
ATOM     38  C   UNL     1       7.682  -1.885   8.698  1.00  0.00     0.064 A 
ATOM     39  C   UNL     1       8.358  -2.863   7.953  1.00  0.00     0.173 A 
ATOM     40  C   UNL     1       7.058  -2.286   9.891  1.00  0.00     0.173 A 
ATOM     41  F   UNL     1       8.961  -2.536   6.801  1.00  0.00    -0.203 F 
ATOM     42  C   UNL     1       8.386  -4.192   8.371  1.00  0.00     0.198 A 
ATOM     43  C   UNL     1       7.112  -3.610  10.320  1.00  0.00     0.198 A 
ATOM     44  F   UNL     1       6.404  -1.391  10.646  1.00  0.00    -0.203 F 
ATOM     45  F   UNL     1       8.998  -5.116   7.619  1.00  0.00    -0.200 F 
ATOM     46  C   UNL     1       7.769  -4.563   9.557  1.00  0.00     0.200 A 
ATOM     47  F   UNL     1       6.526  -3.964  11.472  1.00  0.00    -0.200 F 
ATOM     48  F   UNL     1       7.801  -5.840   9.960  1.00  0.00    -0.200 F 
ENDBRANCH  24  38
BRANCH  25  49
ATOM     49  C   UNL     1       6.980   7.636   5.760  1.00  0.00     0.064 A 
ATOM     50  C   UNL     1       8.099   8.293   5.231  1.00  0.00     0.173 A 
ATOM     51  C   UNL     1       5.777   8.353   5.838  1.00  0.00     0.173 A 
ATOM     52  F   UNL     1       9.277   7.655   5.154  1.00  0.00    -0.203 F 
ATOM     53  C   UNL     1       8.021   9.619   4.810  1.00  0.00     0.198 A 
ATOM     54  C   UNL     1       5.693   9.668   5.388  1.00  0.00     0.198 A 
ATOM     55  F   UNL     1       4.676   7.766   6.331  1.00  0.00    -0.203 F 
ATOM     56  F   UNL     1       9.116  10.237   4.346  1.00  0.00    -0.200 F 
ATOM     57  C   UNL     1       6.817  10.302   4.882  1.00  0.00     0.200 A 
ATOM     58  F   UNL     1       4.523  10.318   5.443  1.00  0.00    -0.200 F 
ATOM     59  F   UNL     1       6.740  11.574   4.468  1.00  0.00    -0.200 F 
ENDBRANCH  25  49
BRANCH  37  60
ATOM     60  C   UNL     1      10.331   4.436  10.953  1.00  0.00     0.064 A 
ATOM     61  C   UNL     1       9.825   5.171  12.035  1.00  0.00     0.173 A 
ATOM     62  C   UNL     1      11.709   4.176  10.921  1.00  0.00     0.173 A 
ATOM     63  F   UNL     1       8.517   5.462  12.102  1.00  0.00    -0.203 F 
ATOM     64  C   UNL     1      10.672   5.655  13.029  1.00  0.00     0.198 A 
ATOM     65  C   UNL     1      12.548   4.635  11.932  1.00  0.00     0.198 A 
ATOM     66  F   UNL     1      12.242   3.473   9.910  1.00  0.00    -0.203 F 
ATOM     67  F   UNL     1      10.175   6.403  14.024  1.00  0.00    -0.200 F 
ATOM     68  C   UNL     1      12.031   5.381  12.980  1.00  0.00     0.200 A 
ATOM     69  F   UNL     1      13.859   4.360  11.889  1.00  0.00    -0.200 F 
ATOM     70  F   UNL     1      12.844   5.847  13.937  1.00  0.00    -0.200 F 
ENDBRANCH  37  60
ENDBRANCH  11  12
ENDBRANCH   4   6
ENDBRANCH   1   2
BRANCH   1  71
ATOM     71  C   UNL     1       4.928  -2.043  -1.397  1.00  0.00     0.042 C 
BRANCH  71  72
ATOM     72  C   UNL     1       4.347  -2.716  -2.631  1.00  0.00     0.118 C 
BRANCH  72  73
ATOM     73  N   UNL     1       4.862  -2.141  -3.865  1.00  0.00    -0.351 N 
ATOM     74  C   UNL     1       5.767  -2.661  -4.764  1.00  0.00     0.269 C 
ATOM     75  H   UNL     1       4.512  -1.249  -4.090  1.00  0.00     0.163 HD
ATOM     76  O   UNL     1       6.203  -1.941  -5.658  1.00  0.00    -0.268 OA
BRANCH  74  77
ATOM     77  C   UNL     1       6.175  -4.090  -4.662  1.00  0.00     0.128 A 
ATOM     78  C   UNL     1       5.204  -5.082  -4.640  1.00  0.00     0.035 A 
ATOM     79  N   UNL     1       7.504  -4.339  -4.598  1.00  0.00    -0.250 NA
ATOM     80  C   UNL     1       5.615  -6.402  -4.479  1.00  0.00     0.013 A 
ATOM     81  C   UNL     1       7.867  -5.639  -4.482  1.00  0.00     0.120 A 
ATOM     82  C   UNL     1       6.979  -6.715  -4.394  1.00  0.00     0.000 A 
BRANCH  82  83
ATOM     83  C   UNL     1       7.436  -8.100  -4.209  1.00  0.00    -0.014 A 
ATOM     84  C   UNL     1       6.891  -9.148  -4.962  1.00  0.00     0.029 A 
ATOM     85  C   UNL     1       8.412  -8.425  -3.259  1.00  0.00     0.029 A 
ATOM     86  C   UNL     1       7.329 -10.443  -4.733  1.00  0.00     0.111 A 
ATOM     87  C   UNL     1       8.785  -9.751  -3.102  1.00  0.00     0.111 A 
ATOM     88  N   UNL     1       8.263 -10.767  -3.817  1.00  0.00    -0.265 NA
ENDBRANCH  82  83
ENDBRANCH  74  77
ENDBRANCH  72  73
ENDBRANCH  71  72
ENDBRANCH   1  71
TORSDOF 11
