REMARK SMILES CCC[N@@H+]1CC2(CCN(C(=O)Cn3nnnc3C)CC2)C[C@H]1C(=O)NCCCNC(=O)c1ccc(-c2c3nc(c(-c4c(F)c(F)c(F)c(F)c4F)c4ccc([nH]4)c(-c4c(F)c(F)c(F)c(F)c4F)c4nc(c(-c5c(F)c(F)c(F)c(F)c5F)c5ccc2[nH]5)C=C4)C=C3)cc1
REMARK SMILES IDX 27 1 26 2 25 3 23 4 24 5 22 7 4 8 5 9 6 11 21 12 7 13 20 14
REMARK SMILES IDX 8 15 19 16 9 17 10 18 11 19 3 20 2 21 1 22 12 23 13 24 14 25
REMARK SMILES IDX 17 26 15 27 16 28 18 29 28 30 29 31 30 32 31 34 32 35 33 36
REMARK SMILES IDX 94 37 34 38 93 39 35 40 36 41 37 42 87 43 38 44 92 45 86 46
REMARK SMILES IDX 88 47 39 48 91 49 85 50 84 51 40 53 72 54 52 55 71 56 53 57
REMARK SMILES IDX 56 58 70 59 89 60 54 61 55 62 69 64 90 65 57 66 41 67 42 68
REMARK SMILES IDX 50 69 43 70 44 71 48 72 51 73 45 74 46 75 49 76 47 77 73 78
REMARK SMILES IDX 74 79 82 80 75 81 76 82 80 83 83 84 77 85 78 86 81 87 79 88
REMARK SMILES IDX 58 89 59 90 67 91 60 92 61 93 65 94 68 95 62 96 63 97 66 98
REMARK SMILES IDX 64 99
REMARK H PARENT 25 6 4 10 29 33 88 52 56 63
REMARK Flexibility Score: inf
ROOT
ATOM      1  C   UNL     1      -1.601   0.224   4.317  1.00  0.00     0.042 C 
ENDROOT
BRANCH   1   2
ATOM      2  C   UNL     1      -0.230   0.032   4.971  1.00  0.00     0.118 C 
BRANCH   2   3
ATOM      3  N   UNL     1       0.255  -1.329   5.031  1.00  0.00    -0.351 N 
ATOM      4  C   UNL     1       1.164  -2.020   4.289  1.00  0.00     0.278 C 
ATOM      5  O   UNL     1       1.506  -3.108   4.782  1.00  0.00    -0.268 OA
ATOM      6  H   UNL     1      -0.153  -1.861   5.752  1.00  0.00     0.163 HD
BRANCH   4   7
ATOM      7  C   UNL     1       1.788  -1.593   2.924  1.00  0.00     0.274 C 
ATOM      8  N   UNL     1       0.759  -1.409   1.869  1.00  0.00    -0.324 N 
ATOM      9  C   UNL     1       0.636   0.038   1.697  1.00  0.00     0.270 C 
ATOM     10  H   UNL     1      -0.163  -1.779   2.100  1.00  0.00     0.348 HD
ATOM     11  C   UNL     1       1.977   0.715   2.048  1.00  0.00     0.029 C 
ATOM     12  C   UNL     1       2.725  -0.384   2.831  1.00  0.00     0.088 C 
ATOM     13  C   UNL     1       1.949   1.993   2.919  1.00  0.00     0.034 C 
ATOM     14  C   UNL     1       2.626   1.205   0.729  1.00  0.00     0.034 C 
ATOM     15  C   UNL     1       1.004   3.023   2.356  1.00  0.00     0.120 C 
ATOM     16  C   UNL     1       1.817   2.372   0.093  1.00  0.00     0.120 C 
ATOM     17  N   UNL     1       1.446   3.442   1.034  1.00  0.00    -0.341 N 
ATOM     18  C   UNL     1       1.177   4.714   0.526  1.00  0.00     0.244 C 
ATOM     19  O   UNL     1       1.262   4.961  -0.680  1.00  0.00    -0.273 OA
BRANCH   8  20
ATOM     20  C   UNL     1       1.169  -2.162   0.664  1.00  0.00     0.262 C 
BRANCH  20  21
ATOM     21  C   UNL     1       0.260  -2.072  -0.572  1.00  0.00     0.058 C 
ATOM     22  C   UNL     1       0.724  -1.062  -1.613  1.00  0.00     0.010 C 
ENDBRANCH  20  21
ENDBRANCH   8  20
BRANCH  18  23
ATOM     23  C   UNL     1       0.862   5.841   1.494  1.00  0.00     0.248 C 
BRANCH  23  24
ATOM     24  N   UNL     1      -0.545   6.004   1.780  1.00  0.00    -0.220 N 
ATOM     25  N   UNL     1      -1.351   4.941   1.967  1.00  0.00    -0.044 NA
ATOM     26  C   UNL     1      -1.226   7.149   2.114  1.00  0.00     0.148 A 
ATOM     27  N   UNL     1      -2.515   5.440   2.349  1.00  0.00    -0.024 NA
ATOM     28  N   UNL     1      -2.454   6.804   2.447  1.00  0.00    -0.114 NA
ATOM     29  C   UNL     1      -0.677   8.521   2.128  1.00  0.00     0.091 C 
ENDBRANCH  23  24
ENDBRANCH  18  23
ENDBRANCH   4   7
ENDBRANCH   2   3
ENDBRANCH   1   2
BRANCH   1  30
ATOM     30  C   UNL     1      -2.667   0.743   5.264  1.00  0.00     0.118 C 
BRANCH  30  31
ATOM     31  N   UNL     1      -2.413   2.126   5.692  1.00  0.00    -0.352 N 
ATOM     32  C   UNL     1      -2.885   2.763   6.822  1.00  0.00     0.251 C 
ATOM     33  H   UNL     1      -1.835   2.662   5.102  1.00  0.00     0.163 HD
ATOM     34  O   UNL     1      -2.857   3.981   6.943  1.00  0.00    -0.269 OA
BRANCH  32  35
ATOM     35  C   UNL     1      -3.449   1.920   7.882  1.00  0.00     0.039 A 
ATOM     36  C   UNL     1      -4.775   2.085   8.283  1.00  0.00     0.014 A 
ATOM     37  C   UNL     1      -2.691   0.830   8.295  1.00  0.00     0.014 A 
ATOM     38  C   UNL     1      -5.382   1.063   9.006  1.00  0.00     0.010 A 
ATOM     39  C   UNL     1      -3.339  -0.237   8.874  1.00  0.00     0.010 A 
ATOM     40  C   UNL     1      -4.679  -0.130   9.253  1.00  0.00    -0.014 A 
BRANCH  40  41
ATOM     41  C   UNL     1      -5.393  -1.304   9.769  1.00  0.00     0.031 A 
ATOM     42  C   UNL     1      -6.702  -1.621   9.113  1.00  0.00     0.074 A 
ATOM     43  C   UNL     1      -4.856  -2.198  10.627  1.00  0.00     0.049 A 
ATOM     44  N   UNL     1      -7.874  -1.676   9.662  1.00  0.00    -0.248 NA
ATOM     45  C   UNL     1      -6.721  -1.839   7.657  1.00  0.00     0.031 C 
ATOM     46  C   UNL     1      -3.487  -2.256  11.153  1.00  0.00     0.029 A 
ATOM     47  N   UNL     1      -5.419  -3.332  11.136  1.00  0.00    -0.354 N 
ATOM     48  C   UNL     1      -8.759  -2.090   8.666  1.00  0.00     0.074 A 
ATOM     49  C   UNL     1      -8.020  -2.052   7.431  1.00  0.00     0.031 C 
ATOM     50  C   UNL     1      -3.260  -3.471  11.695  1.00  0.00     0.029 A 
ATOM     51  C   UNL     1      -4.514  -4.194  11.737  1.00  0.00     0.049 A 
ATOM     52  H   UNL     1      -6.384  -3.521  11.081  1.00  0.00     0.167 HD
ATOM     53  C   UNL     1      -9.974  -2.628   8.973  1.00  0.00     0.037 A 
ATOM     54  C   UNL     1      -4.767  -5.424  12.239  1.00  0.00     0.037 A 
ATOM     55  C   UNL     1     -10.366  -2.295  10.319  1.00  0.00     0.049 A 
ATOM     56  C   UNL     1      -6.221  -5.501  12.503  1.00  0.00     0.074 A 
ATOM     57  C   UNL     1     -10.600  -1.122  11.010  1.00  0.00     0.029 A 
ATOM     58  N   UNL     1     -10.255  -3.267  11.280  1.00  0.00    -0.354 N 
ATOM     59  N   UNL     1      -6.834  -4.820  13.430  1.00  0.00    -0.248 NA
ATOM     60  C   UNL     1      -7.075  -6.075  11.477  1.00  0.00     0.031 C 
ATOM     61  C   UNL     1     -10.123  -1.371  12.333  1.00  0.00     0.029 A 
ATOM     62  C   UNL     1      -9.675  -2.691  12.378  1.00  0.00     0.049 A 
ATOM     63  H   UNL     1     -10.541  -4.206  11.196  1.00  0.00     0.167 HD
ATOM     64  C   UNL     1      -8.067  -4.516  12.879  1.00  0.00     0.074 A 
ATOM     65  C   UNL     1      -8.209  -5.424  11.745  1.00  0.00     0.031 C 
ATOM     66  C   UNL     1      -8.724  -3.371  13.225  1.00  0.00     0.037 A 
BRANCH  53  67
ATOM     67  C   UNL     1     -10.640  -3.754   8.207  1.00  0.00     0.064 A 
ATOM     68  C   UNL     1     -11.930  -4.181   8.593  1.00  0.00     0.173 A 
ATOM     69  C   UNL     1      -9.951  -4.632   7.343  1.00  0.00     0.173 A 
ATOM     70  F   UNL     1     -12.680  -3.436   9.420  1.00  0.00    -0.203 F 
ATOM     71  C   UNL     1     -12.441  -5.430   8.227  1.00  0.00     0.198 A 
ATOM     72  C   UNL     1     -10.487  -5.854   6.936  1.00  0.00     0.198 A 
ATOM     73  F   UNL     1      -8.694  -4.403   6.947  1.00  0.00    -0.203 F 
ATOM     74  F   UNL     1     -13.607  -5.848   8.737  1.00  0.00    -0.200 F 
ATOM     75  C   UNL     1     -11.713  -6.271   7.407  1.00  0.00     0.200 A 
ATOM     76  F   UNL     1      -9.759  -6.663   6.152  1.00  0.00    -0.200 F 
ATOM     77  F   UNL     1     -12.165  -7.497   7.113  1.00  0.00    -0.200 F 
ENDBRANCH  53  67
BRANCH  54  78
ATOM     78  C   UNL     1      -3.881  -6.605  12.313  1.00  0.00     0.064 A 
ATOM     79  C   UNL     1      -4.191  -7.682  13.158  1.00  0.00     0.173 A 
ATOM     80  C   UNL     1      -2.878  -6.827  11.350  1.00  0.00     0.173 A 
ATOM     81  F   UNL     1      -5.154  -7.559  14.083  1.00  0.00    -0.203 F 
ATOM     82  C   UNL     1      -3.568  -8.924  13.016  1.00  0.00     0.198 A 
ATOM     83  C   UNL     1      -2.251  -8.065  11.216  1.00  0.00     0.198 A 
ATOM     84  F   UNL     1      -2.558  -5.877  10.459  1.00  0.00    -0.203 F 
ATOM     85  F   UNL     1      -3.946  -9.951  13.791  1.00  0.00    -0.200 F 
ATOM     86  C   UNL     1      -2.610  -9.120  12.036  1.00  0.00     0.200 A 
ATOM     87  F   UNL     1      -1.346  -8.251  10.245  1.00  0.00    -0.200 F 
ATOM     88  F   UNL     1      -2.066 -10.330  11.853  1.00  0.00    -0.200 F 
ENDBRANCH  54  78
BRANCH  66  89
ATOM     89  C   UNL     1      -8.252  -2.635  14.447  1.00  0.00     0.064 A 
ATOM     90  C   UNL     1      -6.977  -2.060  14.584  1.00  0.00     0.173 A 
ATOM     91  C   UNL     1      -9.178  -2.399  15.472  1.00  0.00     0.173 A 
ATOM     92  F   UNL     1      -6.068  -2.152  13.607  1.00  0.00    -0.203 F 
ATOM     93  C   UNL     1      -6.633  -1.328  15.719  1.00  0.00     0.198 A 
ATOM     94  C   UNL     1      -8.845  -1.635  16.587  1.00  0.00     0.198 A 
ATOM     95  F   UNL     1     -10.429  -2.877  15.371  1.00  0.00    -0.203 F 
ATOM     96  F   UNL     1      -5.403  -0.806  15.836  1.00  0.00    -0.200 F 
ATOM     97  C   UNL     1      -7.570  -1.110  16.716  1.00  0.00     0.200 A 
ATOM     98  F   UNL     1      -9.770  -1.387  17.525  1.00  0.00    -0.200 F 
ATOM     99  F   UNL     1      -7.252  -0.375  17.791  1.00  0.00    -0.200 F 
ENDBRANCH  66  89
ENDBRANCH  40  41
ENDBRANCH  32  35
ENDBRANCH  30  31
ENDBRANCH   1  30
TORSDOF 14
