REMARK SMILES CS(=O)(=O)c1ccc(-n2nnc(C(=O)NCCCNC(=O)c3ccc(-c4c5nc(c(-c6c(F)c(F)c(F)c(F)c6F)c6ccc([nH]6)c(-c6c(F)c(F)c(F)c(F)c6F)c6nc(c(-c7c(F)c(F)c(F)c(F)c7F)c7ccc4[nH]7)C=C6)C=C5)cc3)c2-c2cc(F)cc(F)c2)cc1
REMARK SMILES IDX 17 1 16 2 15 3 13 4 14 5 12 7 9 8 10 9 85 10 11 11 8 12 5 13
REMARK SMILES IDX 6 14 95 15 7 16 94 17 2 18 1 19 3 20 4 21 86 22 87 23 93 24
REMARK SMILES IDX 88 25 91 26 89 27 90 28 92 29 18 30 19 31 20 32 21 34 22 35
REMARK SMILES IDX 23 36 84 37 24 38 83 39 25 40 26 41 27 42 77 43 28 44 82 45
REMARK SMILES IDX 76 46 78 47 29 48 81 49 75 50 74 51 30 53 62 54 42 55 61 56
REMARK SMILES IDX 43 57 46 58 60 59 79 60 44 61 45 62 59 64 80 65 47 66 31 67
REMARK SMILES IDX 32 68 40 69 33 70 34 71 38 72 41 73 35 74 36 75 39 76 37 77
REMARK SMILES IDX 63 78 64 79 72 80 65 81 66 82 70 83 73 84 67 85 68 86 71 87
REMARK SMILES IDX 69 88 48 89 49 90 57 91 50 92 51 93 55 94 58 95 52 96 53 97
REMARK SMILES IDX 56 98 54 99
REMARK H PARENT 15 6 19 33 78 52 46 63
REMARK Flexibility Score: inf
ROOT
ATOM      1  C   UNL     1       7.177  -3.674  -6.235  1.00  0.00     0.042 C 
ENDROOT
BRANCH   1   2
ATOM      2  C   UNL     1       6.334  -2.825  -7.159  1.00  0.00     0.118 C 
BRANCH   2   3
ATOM      3  N   UNL     1       5.664  -3.442  -8.257  1.00  0.00    -0.351 N 
ATOM      4  C   UNL     1       4.312  -3.492  -8.525  1.00  0.00     0.274 C 
ATOM      5  O   UNL     1       4.026  -3.794  -9.688  1.00  0.00    -0.267 OA
ATOM      6  H   UNL     1       6.245  -3.892  -8.911  1.00  0.00     0.163 HD
BRANCH   4   7
ATOM      7  C   UNL     1       3.252  -3.309  -7.512  1.00  0.00     0.178 A 
ATOM      8  N   UNL     1       1.836  -3.020  -5.856  1.00  0.00    -0.212 N 
ATOM      9  N   UNL     1       1.346  -3.995  -6.635  1.00  0.00    -0.061 NA
ATOM     10  C   UNL     1       3.075  -2.574  -6.326  1.00  0.00     0.108 A 
ATOM     11  N   UNL     1       2.127  -4.098  -7.691  1.00  0.00    -0.124 NA
BRANCH   8  12
ATOM     12  C   UNL     1       1.234  -2.687  -4.621  1.00  0.00     0.067 A 
ATOM     13  C   UNL     1       0.516  -2.097  -2.009  1.00  0.00     0.067 A 
ATOM     14  C   UNL     1       0.418  -3.415  -2.479  1.00  0.00     0.022 A 
ATOM     15  C   UNL     1       0.926  -1.065  -2.853  1.00  0.00     0.022 A 
ATOM     16  C   UNL     1       0.757  -3.712  -3.799  1.00  0.00     0.030 A 
ATOM     17  C   UNL     1       1.278  -1.362  -4.164  1.00  0.00     0.030 A 
BRANCH  13  18
ATOM     18  S   UNL     1       0.137  -1.793  -0.301  1.00  0.00     0.175 S 
ATOM     19  C   UNL     1       0.842  -0.220   0.112  1.00  0.00     0.163 C 
ATOM     20  O   UNL     1       0.856  -2.796   0.461  1.00  0.00    -0.224 OA
ATOM     21  O   UNL     1      -1.305  -1.672  -0.224  1.00  0.00    -0.224 OA
ENDBRANCH  13  18
ENDBRANCH   8  12
BRANCH  10  22
ATOM     22  C   UNL     1       3.940  -1.736  -5.469  1.00  0.00     0.009 A 
ATOM     23  C   UNL     1       4.420  -0.484  -5.875  1.00  0.00     0.049 A 
ATOM     24  C   UNL     1       4.425  -2.287  -4.261  1.00  0.00     0.049 A 
ATOM     25  C   UNL     1       5.389   0.163  -5.101  1.00  0.00     0.126 A 
ATOM     26  C   UNL     1       5.384  -1.617  -3.508  1.00  0.00     0.126 A 
ATOM     27  F   UNL     1       5.939   1.294  -5.561  1.00  0.00    -0.207 F 
ATOM     28  C   UNL     1       5.875  -0.390  -3.920  1.00  0.00     0.078 A 
ATOM     29  F   UNL     1       5.893  -2.209  -2.421  1.00  0.00    -0.207 F 
ENDBRANCH  10  22
ENDBRANCH   4   7
ENDBRANCH   2   3
ENDBRANCH   1   2
BRANCH   1  30
ATOM     30  C   UNL     1       8.507  -2.988  -6.000  1.00  0.00     0.118 C 
BRANCH  30  31
ATOM     31  N   UNL     1       8.529  -1.589  -5.522  1.00  0.00    -0.352 N 
ATOM     32  C   UNL     1       9.639  -0.768  -5.207  1.00  0.00     0.251 C 
ATOM     33  H   UNL     1       7.646  -1.168  -5.407  1.00  0.00     0.163 HD
ATOM     34  O   UNL     1       9.523   0.270  -4.618  1.00  0.00    -0.269 OA
BRANCH  32  35
ATOM     35  C   UNL     1      10.956  -1.216  -5.726  1.00  0.00     0.039 A 
ATOM     36  C   UNL     1      12.187  -1.302  -5.063  1.00  0.00     0.014 A 
ATOM     37  C   UNL     1      10.874  -1.762  -6.964  1.00  0.00     0.014 A 
ATOM     38  C   UNL     1      13.174  -2.146  -5.624  1.00  0.00     0.010 A 
ATOM     39  C   UNL     1      11.444  -2.978  -6.941  1.00  0.00     0.010 A 
ATOM     40  C   UNL     1      12.762  -3.017  -6.625  1.00  0.00    -0.014 A 
BRANCH  40  41
ATOM     41  C   UNL     1      13.396  -4.122  -7.317  1.00  0.00     0.031 A 
ATOM     42  C   UNL     1      13.921  -5.212  -6.472  1.00  0.00     0.074 A 
ATOM     43  C   UNL     1      13.132  -4.364  -8.630  1.00  0.00     0.049 A 
ATOM     44  N   UNL     1      15.158  -5.455  -6.217  1.00  0.00    -0.248 NA
ATOM     45  C   UNL     1      12.981  -6.068  -5.735  1.00  0.00     0.031 C 
ATOM     46  C   UNL     1      12.244  -3.655  -9.577  1.00  0.00     0.029 A 
ATOM     47  N   UNL     1      13.573  -5.401  -9.384  1.00  0.00    -0.354 N 
ATOM     48  C   UNL     1      15.180  -6.599  -5.430  1.00  0.00     0.074 A 
ATOM     49  C   UNL     1      13.819  -6.811  -5.005  1.00  0.00     0.031 C 
ATOM     50  C   UNL     1      12.083  -4.384 -10.703  1.00  0.00     0.029 A 
ATOM     51  C   UNL     1      13.001  -5.500 -10.644  1.00  0.00     0.049 A 
ATOM     52  H   UNL     1      14.251  -6.037  -9.061  1.00  0.00     0.167 HD
ATOM     53  C   UNL     1      16.294  -7.383  -5.370  1.00  0.00     0.037 A 
ATOM     54  C   UNL     1      13.291  -6.430 -11.583  1.00  0.00     0.037 A 
ATOM     55  C   UNL     1      17.394  -6.749  -6.061  1.00  0.00     0.049 A 
ATOM     56  C   UNL     1      14.625  -6.986 -11.227  1.00  0.00     0.074 A 
ATOM     57  C   UNL     1      18.084  -5.565  -5.880  1.00  0.00     0.029 A 
ATOM     58  N   UNL     1      17.623  -7.114  -7.369  1.00  0.00    -0.354 N 
ATOM     59  N   UNL     1      15.728  -6.282 -11.248  1.00  0.00    -0.248 NA
ATOM     60  C   UNL     1      14.655  -8.158 -10.363  1.00  0.00     0.031 C 
ATOM     61  C   UNL     1      18.252  -5.035  -7.195  1.00  0.00     0.029 A 
ATOM     62  C   UNL     1      17.735  -5.960  -8.107  1.00  0.00     0.049 A 
ATOM     63  H   UNL     1      17.693  -8.034  -7.713  1.00  0.00     0.167 HD
ATOM     64  C   UNL     1      16.430  -6.673 -10.114  1.00  0.00     0.074 A 
ATOM     65  C   UNL     1      15.759  -7.890  -9.657  1.00  0.00     0.031 C 
ATOM     66  C   UNL     1      17.296  -5.824  -9.482  1.00  0.00     0.037 A 
BRANCH  53  67
ATOM     67  C   UNL     1      16.350  -8.831  -4.964  1.00  0.00     0.064 A 
ATOM     68  C   UNL     1      17.608  -9.424  -4.727  1.00  0.00     0.173 A 
ATOM     69  C   UNL     1      15.262  -9.723  -5.030  1.00  0.00     0.173 A 
ATOM     70  F   UNL     1      18.715  -8.670  -4.649  1.00  0.00    -0.203 F 
ATOM     71  C   UNL     1      17.770 -10.808  -4.636  1.00  0.00     0.198 A 
ATOM     72  C   UNL     1      15.419 -11.101  -4.881  1.00  0.00     0.198 A 
ATOM     73  F   UNL     1      14.027  -9.316  -5.347  1.00  0.00    -0.203 F 
ATOM     74  F   UNL     1      19.000 -11.328  -4.527  1.00  0.00    -0.200 F 
ATOM     75  C   UNL     1      16.675 -11.646  -4.716  1.00  0.00     0.200 A 
ATOM     76  F   UNL     1      14.347 -11.901  -4.974  1.00  0.00    -0.200 F 
ATOM     77  F   UNL     1      16.832 -12.976  -4.682  1.00  0.00    -0.200 F 
ENDBRANCH  53  67
BRANCH  54  78
ATOM     78  C   UNL     1      12.379  -7.023 -12.585  1.00  0.00     0.064 A 
ATOM     79  C   UNL     1      12.870  -7.682 -13.720  1.00  0.00     0.173 A 
ATOM     80  C   UNL     1      11.003  -7.175 -12.315  1.00  0.00     0.173 A 
ATOM     81  F   UNL     1      14.173  -7.613 -14.027  1.00  0.00    -0.203 F 
ATOM     82  C   UNL     1      12.039  -8.473 -14.523  1.00  0.00     0.198 A 
ATOM     83  C   UNL     1      10.175  -7.961 -13.117  1.00  0.00     0.198 A 
ATOM     84  F   UNL     1      10.456  -6.637 -11.214  1.00  0.00    -0.203 F 
ATOM     85  F   UNL     1      12.555  -9.135 -15.568  1.00  0.00    -0.200 F 
ATOM     86  C   UNL     1      10.697  -8.621 -14.214  1.00  0.00     0.200 A 
ATOM     87  F   UNL     1       8.886  -8.122 -12.786  1.00  0.00    -0.200 F 
ATOM     88  F   UNL     1       9.917  -9.429 -14.946  1.00  0.00    -0.200 F 
ENDBRANCH  54  78
BRANCH  66  89
ATOM     89  C   UNL     1      17.640  -4.522 -10.166  1.00  0.00     0.064 A 
ATOM     90  C   UNL     1      16.712  -3.496 -10.417  1.00  0.00     0.173 A 
ATOM     91  C   UNL     1      18.987  -4.227 -10.409  1.00  0.00     0.173 A 
ATOM     92  F   UNL     1      15.419  -3.650 -10.128  1.00  0.00    -0.203 F 
ATOM     93  C   UNL     1      17.105  -2.252 -10.909  1.00  0.00     0.198 A 
ATOM     94  C   UNL     1      19.385  -2.973 -10.872  1.00  0.00     0.198 A 
ATOM     95  F   UNL     1      19.932  -5.141 -10.138  1.00  0.00    -0.203 F 
ATOM     96  F   UNL     1      16.190  -1.296 -11.130  1.00  0.00    -0.200 F 
ATOM     97  C   UNL     1      18.444  -1.989 -11.128  1.00  0.00     0.200 A 
ATOM     98  F   UNL     1      20.688  -2.707 -11.036  1.00  0.00    -0.200 F 
ATOM     99  F   UNL     1      18.831  -0.779 -11.557  1.00  0.00    -0.200 F 
ENDBRANCH  66  89
ENDBRANCH  40  41
ENDBRANCH  32  35
ENDBRANCH  30  31
ENDBRANCH   1  30
TORSDOF 13
