REMARK SMILES COc1cc(/C=C2/CCc3c2nc2ccccc2c3C(=O)NCCCNC(=O)c2ccc(-c3c4nc(c(-c5c(F)c(F)c(F)c(F)c5F)c5ccc([nH]5)c(-c5c(F)c(F)c(F)c(F)c5F)c5nc(c(-c6c(F)c(F)c(F)c(F)c6F)c6ccc3[nH]6)C=C5)C=C4)cc2)cc(Br)c1O
REMARK SMILES IDX 24 1 23 2 22 3 20 4 21 5 19 7 6 8 7 9 8 10 11 11 9 12 10 13
REMARK SMILES IDX 12 14 13 15 18 16 14 17 17 18 15 19 16 20 5 21 3 22 4 23
REMARK SMILES IDX 95 24 93 25 92 26 94 27 2 28 1 29 96 30 25 32 26 33 27 34
REMARK SMILES IDX 28 36 29 37 30 38 91 39 31 40 90 41 32 42 33 43 34 44 84 45
REMARK SMILES IDX 35 46 89 47 83 48 85 49 36 50 88 51 82 52 81 53 37 55 69 56
REMARK SMILES IDX 49 57 68 58 50 59 53 60 67 61 86 62 51 63 52 64 66 66 87 67
REMARK SMILES IDX 54 68 38 69 39 70 47 71 40 72 41 73 45 74 48 75 42 76 43 77
REMARK SMILES IDX 46 78 44 79 70 80 71 81 79 82 72 83 73 84 77 85 80 86 74 87
REMARK SMILES IDX 75 88 78 89 76 90 55 91 56 92 64 93 57 94 58 95 62 96 65 97
REMARK SMILES IDX 59 98 60 99 63 100 61 101
REMARK H PARENT 22 6 96 31 26 35 85 54 53 65
REMARK Flexibility Score: inf
ROOT
ATOM      1  C   UNL     1       2.008  -8.773  -2.438  1.00  0.00     0.042 C 
ENDROOT
BRANCH   1   2
ATOM      2  C   UNL     1       1.699  -7.631  -1.474  1.00  0.00     0.118 C 
BRANCH   2   3
ATOM      3  N   UNL     1       1.691  -6.281  -2.040  1.00  0.00    -0.352 N 
ATOM      4  C   UNL     1       2.547  -5.227  -2.313  1.00  0.00     0.252 C 
ATOM      5  O   UNL     1       3.732  -5.191  -2.008  1.00  0.00    -0.269 OA
ATOM      6  H   UNL     1       0.776  -6.045  -2.317  1.00  0.00     0.163 HD
BRANCH   4   7
ATOM      7  C   UNL     1       1.837  -4.081  -3.080  1.00  0.00     0.054 A 
ATOM      8  C   UNL     1      -1.130  -4.770  -1.266  1.00  0.00     0.014 C 
ATOM      9  C   UNL     1      -1.072  -4.636  -2.643  1.00  0.00    -0.021 C 
ATOM     10  C   UNL     1      -1.108  -5.882  -3.568  1.00  0.00     0.042 C 
ATOM     11  C   UNL     1      -0.306  -3.768  -3.588  1.00  0.00     0.071 A 
ATOM     12  C   UNL     1       0.257  -5.821  -4.351  1.00  0.00     0.043 C 
ATOM     13  C   UNL     1       0.795  -4.504  -3.888  1.00  0.00    -0.008 A 
ATOM     14  N   UNL     1      -0.302  -2.462  -3.702  1.00  0.00    -0.248 NA
ATOM     15  C   UNL     1       0.893  -1.924  -3.572  1.00  0.00     0.072 A 
ATOM     16  C   UNL     1       1.744  -2.654  -2.744  1.00  0.00     0.013 A 
ATOM     17  C   UNL     1       0.880  -0.552  -3.647  1.00  0.00     0.029 A 
ATOM     18  C   UNL     1       1.898  -1.957  -1.526  1.00  0.00     0.011 A 
ATOM     19  C   UNL     1       0.913   0.087  -2.439  1.00  0.00     0.002 A 
ATOM     20  C   UNL     1       1.299  -0.676  -1.352  1.00  0.00     0.001 A 
BRANCH   8  21
ATOM     21  C   UNL     1      -0.321  -4.180  -0.103  1.00  0.00    -0.020 A 
ATOM     22  C   UNL     1       0.324  -2.408   1.497  1.00  0.00     0.162 A 
ATOM     23  C   UNL     1      -0.611  -3.000   0.589  1.00  0.00     0.058 A 
ATOM     24  C   UNL     1       1.559  -3.020   1.738  1.00  0.00     0.172 A 
ATOM     25  C   UNL     1       1.764  -4.296   1.243  1.00  0.00     0.064 A 
ATOM     26  C   UNL     1       0.797  -4.880   0.405  1.00  0.00     0.028 A 
ATOM     27  Br  UNL     1       3.412  -5.198   1.544  1.00  0.00    -0.047 Br
BRANCH  22  28
ATOM     28  O   UNL     1      -0.062  -1.198   2.020  1.00  0.00    -0.493 OA
ATOM     29  C   UNL     1       0.961  -0.211   2.169  1.00  0.00     0.278 C 
ENDBRANCH  22  28
BRANCH  24  30
ATOM     30  O   UNL     1       2.590  -2.345   2.337  1.00  0.00    -0.503 OA
ATOM     31  H   UNL     1       2.452  -1.482   2.673  1.00  0.00     0.293 HD
ENDBRANCH  24  30
ENDBRANCH   8  21
ENDBRANCH   4   7
ENDBRANCH   2   3
ENDBRANCH   1   2
BRANCH   1  32
ATOM     32  C   UNL     1       1.364 -10.085  -1.955  1.00  0.00     0.118 C 
BRANCH  32  33
ATOM     33  N   UNL     1       0.476 -10.721  -2.935  1.00  0.00    -0.352 N 
ATOM     34  C   UNL     1       0.495 -12.014  -3.422  1.00  0.00     0.251 C 
ATOM     35  H   UNL     1      -0.235 -10.145  -3.297  1.00  0.00     0.163 HD
ATOM     36  O   UNL     1      -0.301 -12.384  -4.276  1.00  0.00    -0.269 OA
BRANCH  34  37
ATOM     37  C   UNL     1       1.531 -12.940  -2.923  1.00  0.00     0.039 A 
ATOM     38  C   UNL     1       1.713 -13.082  -1.550  1.00  0.00     0.014 A 
ATOM     39  C   UNL     1       2.400 -13.558  -3.825  1.00  0.00     0.014 A 
ATOM     40  C   UNL     1       2.897 -13.630  -1.084  1.00  0.00     0.010 A 
ATOM     41  C   UNL     1       3.533 -14.222  -3.343  1.00  0.00     0.010 A 
ATOM     42  C   UNL     1       3.825 -14.207  -1.971  1.00  0.00    -0.014 A 
BRANCH  42  43
ATOM     43  C   UNL     1       5.083 -14.783  -1.422  1.00  0.00     0.031 A 
ATOM     44  C   UNL     1       6.432 -14.242  -1.819  1.00  0.00     0.074 A 
ATOM     45  C   UNL     1       4.994 -15.741  -0.478  1.00  0.00     0.049 A 
ATOM     46  N   UNL     1       7.622 -14.633  -1.432  1.00  0.00    -0.248 NA
ATOM     47  C   UNL     1       6.456 -13.125  -2.775  1.00  0.00     0.031 C 
ATOM     48  C   UNL     1       3.740 -16.319   0.009  1.00  0.00     0.029 A 
ATOM     49  N   UNL     1       5.957 -16.355   0.279  1.00  0.00    -0.354 N 
ATOM     50  C   UNL     1       8.531 -13.839  -2.122  1.00  0.00     0.074 A 
ATOM     51  C   UNL     1       7.757 -12.950  -2.962  1.00  0.00     0.031 C 
ATOM     52  C   UNL     1       3.999 -17.114   1.054  1.00  0.00     0.029 A 
ATOM     53  C   UNL     1       5.443 -17.190   1.242  1.00  0.00     0.049 A 
ATOM     54  H   UNL     1       6.922 -16.213   0.147  1.00  0.00     0.167 HD
ATOM     55  C   UNL     1       9.885 -13.851  -2.054  1.00  0.00     0.037 A 
ATOM     56  C   UNL     1       6.061 -17.948   2.164  1.00  0.00     0.037 A 
ATOM     57  C   UNL     1      10.643 -14.718  -1.187  1.00  0.00     0.049 A 
ATOM     58  C   UNL     1       7.559 -17.975   2.190  1.00  0.00     0.074 A 
ATOM     59  C   UNL     1      12.017 -14.824  -1.056  1.00  0.00     0.029 A 
ATOM     60  N   UNL     1      10.087 -15.621  -0.291  1.00  0.00    -0.354 N 
ATOM     61  N   UNL     1       8.406 -17.270   1.482  1.00  0.00    -0.248 NA
ATOM     62  C   UNL     1       8.186 -18.926   3.115  1.00  0.00     0.031 C 
ATOM     63  C   UNL     1      12.292 -15.812  -0.104  1.00  0.00     0.029 A 
ATOM     64  C   UNL     1      11.090 -16.294   0.388  1.00  0.00     0.049 A 
ATOM     65  H   UNL     1       9.122 -15.761  -0.157  1.00  0.00     0.167 HD
ATOM     66  C   UNL     1       9.668 -17.695   1.867  1.00  0.00     0.074 A 
ATOM     67  C   UNL     1       9.475 -18.699   2.895  1.00  0.00     0.031 C 
ATOM     68  C   UNL     1      10.876 -17.296   1.402  1.00  0.00     0.037 A 
BRANCH  55  69
ATOM     69  C   UNL     1      10.641 -12.916  -2.955  1.00  0.00     0.064 A 
ATOM     70  C   UNL     1      10.676 -11.533  -2.725  1.00  0.00     0.173 A 
ATOM     71  C   UNL     1      11.380 -13.417  -4.039  1.00  0.00     0.173 A 
ATOM     72  F   UNL     1       9.979 -11.001  -1.709  1.00  0.00    -0.203 F 
ATOM     73  C   UNL     1      11.402 -10.684  -3.558  1.00  0.00     0.198 A 
ATOM     74  C   UNL     1      12.127 -12.569  -4.854  1.00  0.00     0.198 A 
ATOM     75  F   UNL     1      11.391 -14.733  -4.300  1.00  0.00    -0.203 F 
ATOM     76  F   UNL     1      11.388  -9.362  -3.341  1.00  0.00    -0.200 F 
ATOM     77  C   UNL     1      12.132 -11.203  -4.617  1.00  0.00     0.200 A 
ATOM     78  F   UNL     1      12.843 -13.074  -5.868  1.00  0.00    -0.200 F 
ATOM     79  F   UNL     1      12.836 -10.386  -5.413  1.00  0.00    -0.200 F 
ENDBRANCH  55  69
BRANCH  56  80
ATOM     80  C   UNL     1       5.246 -18.738   3.122  1.00  0.00     0.064 A 
ATOM     81  C   UNL     1       5.191 -18.380   4.476  1.00  0.00     0.173 A 
ATOM     82  C   UNL     1       4.447 -19.809   2.695  1.00  0.00     0.173 A 
ATOM     83  F   UNL     1       5.950 -17.375   4.935  1.00  0.00    -0.203 F 
ATOM     84  C   UNL     1       4.355 -19.056   5.362  1.00  0.00     0.198 A 
ATOM     85  C   UNL     1       3.590 -20.463   3.575  1.00  0.00     0.198 A 
ATOM     86  F   UNL     1       4.461 -20.184   1.407  1.00  0.00    -0.203 F 
ATOM     87  F   UNL     1       4.327 -18.702   6.654  1.00  0.00    -0.200 F 
ATOM     88  C   UNL     1       3.545 -20.087   4.909  1.00  0.00     0.200 A 
ATOM     89  F   UNL     1       2.792 -21.441   3.127  1.00  0.00    -0.200 F 
ATOM     90  F   UNL     1       2.717 -20.714   5.755  1.00  0.00    -0.200 F 
ENDBRANCH  56  80
BRANCH  68  91
ATOM     91  C   UNL     1      12.085 -17.945   2.002  1.00  0.00     0.064 A 
ATOM     92  C   UNL     1      12.454 -19.253   1.659  1.00  0.00     0.173 A 
ATOM     93  C   UNL     1      12.911 -17.235   2.885  1.00  0.00     0.173 A 
ATOM     94  F   UNL     1      11.685 -19.976   0.831  1.00  0.00    -0.203 F 
ATOM     95  C   UNL     1      13.603 -19.833   2.189  1.00  0.00     0.198 A 
ATOM     96  C   UNL     1      14.071 -17.809   3.396  1.00  0.00     0.198 A 
ATOM     97  F   UNL     1      12.599 -15.980   3.241  1.00  0.00    -0.203 F 
ATOM     98  F   UNL     1      13.921 -21.096   1.874  1.00  0.00    -0.200 F 
ATOM     99  C   UNL     1      14.414 -19.108   3.050  1.00  0.00     0.200 A 
ATOM    100  F   UNL     1      14.859 -17.106   4.220  1.00  0.00    -0.200 F 
ATOM    101  F   UNL     1      15.525 -19.664   3.552  1.00  0.00    -0.200 F 
ENDBRANCH  68  91
ENDBRANCH  42  43
ENDBRANCH  34  37
ENDBRANCH  32  33
ENDBRANCH   1  32
TORSDOF 13
