REMARK SMILES CCCCCCNC(=O)Oc1cccc(-c2ccc([C@@H](C)C(=O)NCCCNC(=O)c3ccc(-c4c5nc(c(-c6c(F)c(F)c(F)c(F)c6F)c6ccc([nH]6)c(-c6c(F)c(F)c(F)c(F)c6F)c6nc(c(-c7c(F)c(F)c(F)c(F)c7F)c7ccc4[nH]7)C=C6)C=C5)cc3)cc2[N+](=O)[O-])c1
REMARK SMILES IDX 16 1 17 2 18 3 19 4 94 5 95 6 15 7 11 8 12 9 99 10 13 11
REMARK SMILES IDX 14 12 10 13 8 14 7 15 9 17 6 18 5 19 4 20 3 21 2 22 1 23
REMARK SMILES IDX 96 24 97 25 98 26 20 27 21 28 22 29 23 30 24 31 25 33 26 34
REMARK SMILES IDX 27 35 28 36 29 37 30 39 31 40 32 41 93 42 33 43 92 44 34 45
REMARK SMILES IDX 35 46 36 47 86 48 37 49 91 50 85 51 87 52 38 53 90 54 84 55
REMARK SMILES IDX 83 56 39 58 71 59 51 60 70 61 52 62 55 63 69 64 88 65 53 66
REMARK SMILES IDX 54 67 68 69 89 70 56 71 40 72 41 73 49 74 42 75 43 76 47 77
REMARK SMILES IDX 50 78 44 79 45 80 48 81 46 82 72 83 73 84 81 85 74 86 75 87
REMARK SMILES IDX 79 88 82 89 76 90 77 91 80 92 78 93 57 94 58 95 66 96 59 97
REMARK SMILES IDX 60 98 64 99 67 100 61 101 62 102 65 103 63 104
REMARK H PARENT 7 16 24 32 28 38 87 57 55 68
REMARK Flexibility Score: inf
ROOT
ATOM      1  C   UNL     1      -5.311   6.467   7.169  1.00  0.00     0.060 A 
ATOM      2  C   UNL     1      -5.823   6.976   8.376  1.00  0.00     0.016 A 
ATOM      3  C   UNL     1      -5.808   8.344   8.677  1.00  0.00     0.005 A 
ATOM      4  C   UNL     1      -5.191   9.267   7.832  1.00  0.00    -0.029 A 
ATOM      5  C   UNL     1      -4.702   8.792   6.607  1.00  0.00     0.090 A 
ATOM      6  C   UNL     1      -4.801   7.424   6.270  1.00  0.00     0.277 A 
ENDROOT
BRANCH   1   7
ATOM      7  C   UNL     1      -5.330   5.000   6.957  1.00  0.00    -0.008 A 
ATOM      8  C   UNL     1      -4.277   2.921   6.267  1.00  0.00     0.133 A 
ATOM      9  C   UNL     1      -5.417   2.193   6.594  1.00  0.00     0.047 A 
ATOM     10  C   UNL     1      -4.215   4.303   6.458  1.00  0.00     0.056 A 
ATOM     11  C   UNL     1      -6.518   2.858   7.116  1.00  0.00     0.004 A 
ATOM     12  C   UNL     1      -6.478   4.246   7.279  1.00  0.00     0.009 A 
BRANCH   8  13
ATOM     13  O   UNL     1      -3.273   2.216   5.576  1.00  0.00    -0.410 OA
BRANCH  13  14
ATOM     14  C   UNL     1      -1.930   2.429   5.844  1.00  0.00     0.412 C 
ATOM     15  N   UNL     1      -1.110   1.833   4.925  1.00  0.00    -0.321 N 
ATOM     16  H   UNL     1      -0.141   1.894   5.088  1.00  0.00     0.167 HD
ATOM     17  O   UNL     1      -1.480   3.064   6.789  1.00  0.00    -0.224 OA
BRANCH  15  18
ATOM     18  C   UNL     1      -1.529   1.119   3.733  1.00  0.00     0.119 C 
BRANCH  18  19
ATOM     19  C   UNL     1      -0.954   1.742   2.460  1.00  0.00     0.021 C 
BRANCH  19  20
ATOM     20  C   UNL     1       0.573   1.671   2.342  1.00  0.00     0.002 C 
BRANCH  20  21
ATOM     21  C   UNL     1       1.172   0.262   2.388  1.00  0.00    -0.000 C 
BRANCH  21  22
ATOM     22  C   UNL     1       0.676  -0.698   1.304  1.00  0.00    -0.003 C 
ATOM     23  C   UNL     1       1.036  -0.252  -0.105  1.00  0.00     0.004 C 
ENDBRANCH  21  22
ENDBRANCH  20  21
ENDBRANCH  19  20
ENDBRANCH  18  19
ENDBRANCH  15  18
ENDBRANCH  13  14
ENDBRANCH   8  13
ENDBRANCH   1   7
BRANCH   6  24
ATOM     24  N   UNL     1      -4.427   7.062   4.907  1.00  0.00     0.063 N 
ATOM     25  O   UNL     1      -3.361   7.521   4.471  1.00  0.00    -0.258 OA
ATOM     26  O   UNL     1      -5.222   6.369   4.256  1.00  0.00    -0.258 OA
ENDBRANCH   6  24
BRANCH   4  27
ATOM     27  C   UNL     1      -5.030  10.734   8.203  1.00  0.00     0.105 C 
ATOM     28  C   UNL     1      -6.317  11.440   8.626  1.00  0.00     0.023 C 
BRANCH  27  29
ATOM     29  C   UNL     1      -3.812  11.018   9.096  1.00  0.00     0.227 C 
ATOM     30  O   UNL     1      -2.774  11.465   8.591  1.00  0.00    -0.274 OA
ATOM     31  N   UNL     1      -3.775  10.810  10.439  1.00  0.00    -0.356 N 
ATOM     32  H   UNL     1      -2.943  11.120  10.865  1.00  0.00     0.163 HD
BRANCH  31  33
ATOM     33  C   UNL     1      -4.722  10.224  11.367  1.00  0.00     0.117 C 
BRANCH  33  34
ATOM     34  C   UNL     1      -4.400   8.761  11.667  1.00  0.00     0.042 C 
BRANCH  34  35
ATOM     35  C   UNL     1      -3.313   8.567  12.716  1.00  0.00     0.118 C 
BRANCH  35  36
ATOM     36  N   UNL     1      -3.773   8.911  14.053  1.00  0.00    -0.352 N 
ATOM     37  C   UNL     1      -3.934   8.134  15.174  1.00  0.00     0.251 C 
ATOM     38  H   UNL     1      -4.008   9.859  14.175  1.00  0.00     0.163 HD
ATOM     39  O   UNL     1      -4.543   8.595  16.136  1.00  0.00    -0.269 OA
BRANCH  37  40
ATOM     40  C   UNL     1      -3.401   6.752  15.244  1.00  0.00     0.039 A 
ATOM     41  C   UNL     1      -4.131   5.788  15.950  1.00  0.00     0.014 A 
ATOM     42  C   UNL     1      -2.168   6.409  14.685  1.00  0.00     0.014 A 
ATOM     43  C   UNL     1      -3.651   4.479  16.049  1.00  0.00     0.010 A 
ATOM     44  C   UNL     1      -1.731   5.086  14.713  1.00  0.00     0.010 A 
ATOM     45  C   UNL     1      -2.460   4.109  15.406  1.00  0.00    -0.014 A 
BRANCH  45  46
ATOM     46  C   UNL     1      -1.949   2.715  15.465  1.00  0.00     0.031 A 
ATOM     47  C   UNL     1      -0.635   2.419  16.134  1.00  0.00     0.074 A 
ATOM     48  C   UNL     1      -2.633   1.727  14.858  1.00  0.00     0.049 A 
ATOM     49  N   UNL     1       0.019   1.287  16.216  1.00  0.00    -0.248 NA
ATOM     50  C   UNL     1       0.052   3.553  16.772  1.00  0.00     0.031 C 
ATOM     51  C   UNL     1      -3.894   1.893  14.134  1.00  0.00     0.029 A 
ATOM     52  N   UNL     1      -2.356   0.387  14.740  1.00  0.00    -0.354 N 
ATOM     53  C   UNL     1       1.199   1.578  16.888  1.00  0.00     0.074 A 
ATOM     54  C   UNL     1       1.195   3.001  17.152  1.00  0.00     0.031 C 
ATOM     55  C   UNL     1      -4.289   0.701  13.660  1.00  0.00     0.029 A 
ATOM     56  C   UNL     1      -3.294  -0.306  14.015  1.00  0.00     0.049 A 
ATOM     57  H   UNL     1      -1.561  -0.036  15.136  1.00  0.00     0.167 HD
ATOM     58  C   UNL     1       2.187   0.733  17.268  1.00  0.00     0.037 A 
ATOM     59  C   UNL     1      -3.342  -1.607  13.669  1.00  0.00     0.037 A 
ATOM     60  C   UNL     1       2.171  -0.687  17.035  1.00  0.00     0.049 A 
ATOM     61  C   UNL     1      -2.242  -2.528  14.118  1.00  0.00     0.074 A 
ATOM     62  C   UNL     1       3.087  -1.640  17.445  1.00  0.00     0.029 A 
ATOM     63  N   UNL     1       1.186  -1.359  16.327  1.00  0.00    -0.354 N 
ATOM     64  N   UNL     1      -1.166  -2.254  14.815  1.00  0.00    -0.248 NA
ATOM     65  C   UNL     1      -2.366  -3.943  13.739  1.00  0.00     0.031 C 
ATOM     66  C   UNL     1       2.678  -2.882  16.949  1.00  0.00     0.029 A 
ATOM     67  C   UNL     1       1.482  -2.712  16.271  1.00  0.00     0.049 A 
ATOM     68  H   UNL     1       0.393  -0.937  15.923  1.00  0.00     0.167 HD
ATOM     69  C   UNL     1      -0.500  -3.460  14.980  1.00  0.00     0.074 A 
ATOM     70  C   UNL     1      -1.300  -4.473  14.322  1.00  0.00     0.031 C 
ATOM     71  C   UNL     1       0.670  -3.707  15.619  1.00  0.00     0.037 A 
BRANCH  58  72
ATOM     72  C   UNL     1       3.370   1.323  17.981  1.00  0.00     0.064 A 
ATOM     73  C   UNL     1       3.267   1.827  19.287  1.00  0.00     0.173 A 
ATOM     74  C   UNL     1       4.629   1.358  17.363  1.00  0.00     0.173 A 
ATOM     75  F   UNL     1       2.084   1.827  19.920  1.00  0.00    -0.203 F 
ATOM     76  C   UNL     1       4.373   2.373  19.934  1.00  0.00     0.198 A 
ATOM     77  C   UNL     1       5.739   1.877  18.024  1.00  0.00     0.198 A 
ATOM     78  F   UNL     1       4.785   0.883  16.118  1.00  0.00    -0.203 F 
ATOM     79  F   UNL     1       4.239   2.895  21.161  1.00  0.00    -0.200 F 
ATOM     80  C   UNL     1       5.609   2.392  19.305  1.00  0.00     0.200 A 
ATOM     81  F   UNL     1       6.936   1.882  17.421  1.00  0.00    -0.200 F 
ATOM     82  F   UNL     1       6.673   2.913  19.932  1.00  0.00    -0.200 F 
ENDBRANCH  58  72
BRANCH  59  83
ATOM     83  C   UNL     1      -4.491  -2.117  12.877  1.00  0.00     0.064 A 
ATOM     84  C   UNL     1      -5.450  -2.955  13.463  1.00  0.00     0.173 A 
ATOM     85  C   UNL     1      -4.662  -1.771  11.529  1.00  0.00     0.173 A 
ATOM     86  F   UNL     1      -5.319  -3.329  14.744  1.00  0.00    -0.203 F 
ATOM     87  C   UNL     1      -6.529  -3.439  12.726  1.00  0.00     0.198 A 
ATOM     88  C   UNL     1      -5.756  -2.235  10.801  1.00  0.00     0.198 A 
ATOM     89  F   UNL     1      -3.775  -0.969  10.924  1.00  0.00    -0.203 F 
ATOM     90  F   UNL     1      -7.410  -4.270  13.300  1.00  0.00    -0.200 F 
ATOM     91  C   UNL     1      -6.684  -3.074  11.398  1.00  0.00     0.200 A 
ATOM     92  F   UNL     1      -5.912  -1.867   9.521  1.00  0.00    -0.200 F 
ATOM     93  F   UNL     1      -7.726  -3.533  10.692  1.00  0.00    -0.200 F 
ENDBRANCH  59  83
BRANCH  71  94
ATOM     94  C   UNL     1       1.139  -5.131  15.669  1.00  0.00     0.064 A 
ATOM     95  C   UNL     1       1.655  -5.776  14.536  1.00  0.00     0.173 A 
ATOM     96  C   UNL     1       1.113  -5.844  16.878  1.00  0.00     0.173 A 
ATOM     97  F   UNL     1       1.687  -5.142  13.354  1.00  0.00    -0.203 F 
ATOM     98  C   UNL     1       2.107  -7.091  14.606  1.00  0.00     0.198 A 
ATOM     99  C   UNL     1       1.591  -7.149  16.950  1.00  0.00     0.198 A 
ATOM    100  F   UNL     1       0.634  -5.269  17.991  1.00  0.00    -0.203 F 
ATOM    101  F   UNL     1       2.556  -7.703  13.501  1.00  0.00    -0.200 F 
ATOM    102  C   UNL     1       2.082  -7.773  15.814  1.00  0.00     0.200 A 
ATOM    103  F   UNL     1       1.578  -7.802  18.120  1.00  0.00    -0.200 F 
ATOM    104  F   UNL     1       2.525  -9.036  15.880  1.00  0.00    -0.200 F 
ENDBRANCH  71  94
ENDBRANCH  45  46
ENDBRANCH  37  40
ENDBRANCH  35  36
ENDBRANCH  34  35
ENDBRANCH  33  34
ENDBRANCH  31  33
ENDBRANCH  27  29
ENDBRANCH   4  27
TORSDOF 20
