REMARK SMILES O=C(CSc1ccc2ccccc2n1)NCc1ccc(C(=O)NCCCNC(=O)c2ccc(-c3c4nc(c(-c5c(F)c(F)c(F)c(F)c5F)c5ccc([nH]5)c(-c5c(F)c(F)c(F)c(F)c5F)c5nc(c(-c6c(F)c(F)c(F)c(F)c6F)c6ccc3[nH]6)C=C5)C=C4)cc2)cc1
REMARK SMILES IDX 21 1 22 2 23 3 20 5 17 6 18 7 94 8 19 9 93 10 16 11 15 12
REMARK SMILES IDX 1 13 2 14 3 16 4 17 5 18 6 19 14 20 7 21 13 22 8 23 12 24
REMARK SMILES IDX 9 25 11 26 10 27 24 28 25 29 26 30 27 31 28 32 29 34 30 35
REMARK SMILES IDX 31 36 92 37 32 38 91 39 33 40 34 41 35 42 85 43 36 44 90 45
REMARK SMILES IDX 84 46 86 47 37 48 89 49 83 50 82 51 38 53 70 54 50 55 69 56
REMARK SMILES IDX 51 57 54 58 68 59 87 60 52 61 53 62 67 64 88 65 55 66 39 67
REMARK SMILES IDX 40 68 48 69 41 70 42 71 46 72 49 73 43 74 44 75 47 76 45 77
REMARK SMILES IDX 71 78 72 79 80 80 73 81 74 82 78 83 81 84 75 85 76 86 79 87
REMARK SMILES IDX 77 88 56 89 57 90 65 91 58 92 59 93 63 94 66 95 60 96 61 97
REMARK SMILES IDX 64 98 62 99
REMARK H PARENT 23 4 15 15 27 33 86 52 54 63
REMARK Flexibility Score: inf
ROOT
ATOM      1  C   UNL     1       2.889  -1.133   7.205  1.00  0.00     0.251 C 
ATOM      2  O   UNL     1       2.633  -2.334   7.293  1.00  0.00    -0.269 OA
ATOM      3  N   UNL     1       3.337  -0.497   8.336  1.00  0.00    -0.352 N 
ATOM      4  H   UNL     1       3.327  -1.063   9.142  1.00  0.00     0.163 HD
ENDROOT
BRANCH   1   5
ATOM      5  C   UNL     1       2.737  -0.454   5.889  1.00  0.00     0.039 A 
ATOM      6  C   UNL     1       2.418   0.667   3.307  1.00  0.00    -0.029 A 
ATOM      7  C   UNL     1       2.735  -0.687   3.462  1.00  0.00     0.006 A 
ATOM      8  C   UNL     1       2.223   1.440   4.461  1.00  0.00     0.006 A 
ATOM      9  C   UNL     1       2.901  -1.238   4.738  1.00  0.00     0.014 A 
ATOM     10  C   UNL     1       2.362   0.881   5.736  1.00  0.00     0.014 A 
BRANCH   6  11
ATOM     11  C   UNL     1       2.171   1.304   1.960  1.00  0.00     0.151 C 
BRANCH  11  12
ATOM     12  N   UNL     1       2.822   0.632   0.861  1.00  0.00    -0.351 N 
ATOM     13  O   UNL     1       0.886   0.004  -0.191  1.00  0.00    -0.274 OA
ATOM     14  C   UNL     1       2.112   0.080  -0.186  1.00  0.00     0.230 C 
ATOM     15  H   UNL     1       3.804   0.564   0.859  1.00  0.00     0.163 HD
BRANCH  14  16
ATOM     16  C   UNL     1       2.966  -0.525  -1.290  1.00  0.00     0.176 C 
BRANCH  16  17
ATOM     17  S   UNL     1       4.284   0.619  -1.829  1.00  0.00    -0.096 SA
BRANCH  17  18
ATOM     18  C   UNL     1       3.283   1.941  -2.484  1.00  0.00     0.097 A 
ATOM     19  C   UNL     1       3.704   3.252  -2.319  1.00  0.00     0.036 A 
ATOM     20  N   UNL     1       2.157   1.607  -3.148  1.00  0.00    -0.241 NA
ATOM     21  C   UNL     1       2.920   4.271  -2.848  1.00  0.00     0.013 A 
ATOM     22  C   UNL     1       1.400   2.593  -3.664  1.00  0.00     0.072 A 
ATOM     23  C   UNL     1       1.745   3.955  -3.537  1.00  0.00     0.000 A 
ATOM     24  C   UNL     1       0.236   2.276  -4.353  1.00  0.00     0.029 A 
ATOM     25  C   UNL     1       0.926   4.952  -4.097  1.00  0.00     0.010 A 
ATOM     26  C   UNL     1      -0.579   3.264  -4.915  1.00  0.00     0.002 A 
ATOM     27  C   UNL     1      -0.234   4.604  -4.786  1.00  0.00     0.001 A 
ENDBRANCH  17  18
ENDBRANCH  16  17
ENDBRANCH  14  16
ENDBRANCH  11  12
ENDBRANCH   6  11
ENDBRANCH   1   5
BRANCH   3  28
ATOM     28  C   UNL     1       3.822   0.850   8.568  1.00  0.00     0.118 C 
BRANCH  28  29
ATOM     29  C   UNL     1       2.772   1.710   9.270  1.00  0.00     0.042 C 
BRANCH  29  30
ATOM     30  C   UNL     1       2.558   1.347  10.738  1.00  0.00     0.118 C 
BRANCH  30  31
ATOM     31  N   UNL     1       3.690   1.732  11.570  1.00  0.00    -0.352 N 
ATOM     32  C   UNL     1       3.737   2.527  12.687  1.00  0.00     0.251 C 
ATOM     33  H   UNL     1       4.558   1.365  11.286  1.00  0.00     0.163 HD
ATOM     34  O   UNL     1       4.825   2.892  13.120  1.00  0.00    -0.269 OA
BRANCH  32  35
ATOM     35  C   UNL     1       2.498   2.960  13.372  1.00  0.00     0.039 A 
ATOM     36  C   UNL     1       2.437   4.263  13.881  1.00  0.00     0.014 A 
ATOM     37  C   UNL     1       1.428   2.084  13.579  1.00  0.00     0.014 A 
ATOM     38  C   UNL     1       1.293   4.699  14.553  1.00  0.00     0.010 A 
ATOM     39  C   UNL     1       0.263   2.538  14.196  1.00  0.00     0.010 A 
ATOM     40  C   UNL     1       0.187   3.846  14.697  1.00  0.00    -0.014 A 
BRANCH  40  41
ATOM     41  C   UNL     1      -1.050   4.307  15.375  1.00  0.00     0.031 A 
ATOM     42  C   UNL     1      -1.468   3.703  16.686  1.00  0.00     0.074 A 
ATOM     43  C   UNL     1      -1.828   5.231  14.782  1.00  0.00     0.049 A 
ATOM     44  N   UNL     1      -2.537   3.941  17.405  1.00  0.00    -0.248 NA
ATOM     45  C   UNL     1      -0.580   2.678  17.252  1.00  0.00     0.031 C 
ATOM     46  C   UNL     1      -1.550   5.865  13.493  1.00  0.00     0.029 A 
ATOM     47  N   UNL     1      -3.013   5.795  15.183  1.00  0.00    -0.354 N 
ATOM     48  C   UNL     1      -2.460   3.082  18.493  1.00  0.00     0.074 A 
ATOM     49  C   UNL     1      -1.261   2.289  18.320  1.00  0.00     0.031 C 
ATOM     50  C   UNL     1      -2.522   6.750  13.221  1.00  0.00     0.029 A 
ATOM     51  C   UNL     1      -3.507   6.722  14.299  1.00  0.00     0.049 A 
ATOM     52  H   UNL     1      -3.466   5.556  16.023  1.00  0.00     0.167 HD
ATOM     53  C   UNL     1      -3.303   2.976  19.549  1.00  0.00     0.037 A 
ATOM     54  C   UNL     1      -4.627   7.466  14.354  1.00  0.00     0.037 A 
ATOM     55  C   UNL     1      -4.476   3.789  19.736  1.00  0.00     0.049 A 
ATOM     56  C   UNL     1      -5.546   7.331  15.535  1.00  0.00     0.074 A 
ATOM     57  C   UNL     1      -5.347   3.817  20.811  1.00  0.00     0.029 A 
ATOM     58  N   UNL     1      -4.945   4.718  18.818  1.00  0.00    -0.354 N 
ATOM     59  N   UNL     1      -5.426   6.567  16.593  1.00  0.00    -0.248 NA
ATOM     60  C   UNL     1      -6.756   8.165  15.529  1.00  0.00     0.031 C 
ATOM     61  C   UNL     1      -6.367   4.732  20.526  1.00  0.00     0.029 A 
ATOM     62  C   UNL     1      -6.109   5.305  19.291  1.00  0.00     0.049 A 
ATOM     63  H   UNL     1      -4.516   4.929  17.958  1.00  0.00     0.167 HD
ATOM     64  C   UNL     1      -6.528   6.844  17.390  1.00  0.00     0.074 A 
ATOM     65  C   UNL     1      -7.301   7.855  16.697  1.00  0.00     0.031 C 
ATOM     66  C   UNL     1      -6.866   6.310  18.589  1.00  0.00     0.037 A 
BRANCH  53  67
ATOM     67  C   UNL     1      -2.985   1.934  20.582  1.00  0.00     0.064 A 
ATOM     68  C   UNL     1      -1.891   2.065  21.451  1.00  0.00     0.173 A 
ATOM     69  C   UNL     1      -3.793   0.794  20.713  1.00  0.00     0.173 A 
ATOM     70  F   UNL     1      -1.081   3.131  21.359  1.00  0.00    -0.203 F 
ATOM     71  C   UNL     1      -1.596   1.077  22.386  1.00  0.00     0.198 A 
ATOM     72  C   UNL     1      -3.512  -0.178  21.669  1.00  0.00     0.198 A 
ATOM     73  F   UNL     1      -4.856   0.623  19.913  1.00  0.00    -0.203 F 
ATOM     74  F   UNL     1      -0.513   1.197  23.166  1.00  0.00    -0.200 F 
ATOM     75  C   UNL     1      -2.408  -0.042  22.497  1.00  0.00     0.200 A 
ATOM     76  F   UNL     1      -4.304  -1.253  21.783  1.00  0.00    -0.200 F 
ATOM     77  F   UNL     1      -2.122  -0.993  23.397  1.00  0.00    -0.200 F 
ENDBRANCH  53  67
BRANCH  54  78
ATOM     78  C   UNL     1      -4.913   8.442  13.273  1.00  0.00     0.064 A 
ATOM     79  C   UNL     1      -4.773   9.818  13.501  1.00  0.00     0.173 A 
ATOM     80  C   UNL     1      -5.305   8.027  11.993  1.00  0.00     0.173 A 
ATOM     81  F   UNL     1      -4.419  10.262  14.716  1.00  0.00    -0.203 F 
ATOM     82  C   UNL     1      -5.022  10.743  12.490  1.00  0.00     0.198 A 
ATOM     83  C   UNL     1      -5.532   8.952  10.976  1.00  0.00     0.198 A 
ATOM     84  F   UNL     1      -5.448   6.721  11.725  1.00  0.00    -0.203 F 
ATOM     85  F   UNL     1      -4.908  12.054  12.742  1.00  0.00    -0.200 F 
ATOM     86  C   UNL     1      -5.395  10.309  11.227  1.00  0.00     0.200 A 
ATOM     87  F   UNL     1      -5.880   8.529   9.753  1.00  0.00    -0.200 F 
ATOM     88  F   UNL     1      -5.624  11.199  10.252  1.00  0.00    -0.200 F 
ENDBRANCH  54  78
BRANCH  66  89
ATOM     89  C   UNL     1      -8.114   6.829  19.241  1.00  0.00     0.064 A 
ATOM     90  C   UNL     1      -9.388   6.482  18.767  1.00  0.00     0.173 A 
ATOM     91  C   UNL     1      -8.034   7.660  20.369  1.00  0.00     0.173 A 
ATOM     92  F   UNL     1      -9.515   5.705  17.681  1.00  0.00    -0.203 F 
ATOM     93  C   UNL     1     -10.537   6.967  19.387  1.00  0.00     0.198 A 
ATOM     94  C   UNL     1      -9.185   8.121  21.001  1.00  0.00     0.198 A 
ATOM     95  F   UNL     1      -6.839   8.017  20.862  1.00  0.00    -0.203 F 
ATOM     96  F   UNL     1     -11.743   6.659  18.891  1.00  0.00    -0.200 F 
ATOM     97  C   UNL     1     -10.434   7.780  20.506  1.00  0.00     0.200 A 
ATOM     98  F   UNL     1      -9.085   8.899  22.087  1.00  0.00    -0.200 F 
ATOM     99  F   UNL     1     -11.542   8.242  21.103  1.00  0.00    -0.200 F 
ENDBRANCH  66  89
ENDBRANCH  40  41
ENDBRANCH  32  35
ENDBRANCH  30  31
ENDBRANCH  29  30
ENDBRANCH  28  29
ENDBRANCH   3  28
TORSDOF 15
