REMARK SMILES CCC[N@@H+](CC1CC[NH2+]CC1)[C@@H](CC)C(=O)NCCCNC(=O)c1ccc(-c2c3nc(c(-c4c(F)c(F)c(F)c(F)c4F)c4ccc([nH]4)c(-c4c(F)c(F)c(F)c(F)c4F)c4nc(c(-c5c(F)c(F)c(F)c(F)c5F)c5ccc2[nH]5)C=C4)C=C3)cc1
REMARK SMILES IDX 18 1 17 2 15 3 16 4 12 6 4 7 3 9 2 10 1 11 5 12 6 13 7 14
REMARK SMILES IDX 11 15 8 16 10 17 9 18 13 21 14 22 19 23 20 24 21 25 22 26
REMARK SMILES IDX 23 28 24 29 25 30 86 31 26 32 85 33 27 34 28 35 29 36 79 37
REMARK SMILES IDX 30 38 84 39 78 40 80 41 31 42 83 43 77 44 76 45 32 47 64 48
REMARK SMILES IDX 44 49 63 50 45 51 48 52 62 53 81 54 46 55 47 56 61 58 82 59
REMARK SMILES IDX 49 60 33 61 34 62 42 63 35 64 36 65 40 66 43 67 37 68 38 69
REMARK SMILES IDX 41 70 39 71 65 72 66 73 74 74 67 75 68 76 72 77 75 78 69 79
REMARK SMILES IDX 70 80 73 81 71 82 50 83 51 84 59 85 52 86 53 87 57 88 60 89
REMARK SMILES IDX 54 90 55 91 58 92 56 93
REMARK H PARENT 17 5 4 8 9 19 9 20 21 27 80 46 48 57
REMARK Flexibility Score: inf
ROOT
ATOM      1  C   UNL     1       0.358  -0.378   1.096  1.00  0.00     0.118 C 
ENDROOT
BRANCH   1   2
ATOM      2  N   UNL     1      -0.266  -0.317  -0.228  1.00  0.00    -0.351 N 
ATOM      3  C   UNL     1       0.033  -0.141  -1.532  1.00  0.00     0.278 C 
ATOM      4  O   UNL     1      -0.796  -0.764  -2.234  1.00  0.00    -0.268 OA
ATOM      5  H   UNL     1      -1.237  -0.452  -0.134  1.00  0.00     0.163 HD
BRANCH   3   6
ATOM      6  C   UNL     1       1.172   0.638  -2.313  1.00  0.00     0.273 C 
BRANCH   6   7
ATOM      7  N   UNL     1       1.210   2.134  -2.247  1.00  0.00    -0.324 N 
ATOM      8  H   UNL     1       0.275   2.218  -1.847  1.00  0.00     0.348 HD
BRANCH   7   9
ATOM      9  C   UNL     1       1.960   2.868  -1.230  1.00  0.00     0.262 C 
BRANCH   9  10
ATOM     10  C   UNL     1       2.021   2.306   0.161  1.00  0.00     0.058 C 
ATOM     11  C   UNL     1       3.118   1.293   0.419  1.00  0.00     0.010 C 
ENDBRANCH   9  10
ENDBRANCH   7   9
BRANCH   7  12
ATOM     12  C   UNL     1       1.323   2.801  -3.585  1.00  0.00     0.266 C 
BRANCH  12  13
ATOM     13  C   UNL     1       2.748   3.276  -3.993  1.00  0.00     0.055 C 
ATOM     14  C   UNL     1       2.996   4.762  -3.657  1.00  0.00     0.071 C 
ATOM     15  C   UNL     1       3.122   2.949  -5.444  1.00  0.00     0.071 C 
ATOM     16  C   UNL     1       2.580   5.719  -4.768  1.00  0.00     0.261 C 
ATOM     17  C   UNL     1       2.703   4.013  -6.447  1.00  0.00     0.261 C 
ATOM     18  N   UNL     1       3.183   5.330  -6.037  1.00  0.00    -0.346 N 
ATOM     19  H   UNL     1       4.197   5.300  -5.933  1.00  0.00     0.346 HD
ATOM     20  H   UNL     1       2.923   6.012  -6.749  1.00  0.00     0.346 HD
ENDBRANCH  12  13
ENDBRANCH   7  12
ENDBRANCH   6   7
BRANCH   6  21
ATOM     21  C   UNL     1       2.344  -0.200  -2.887  1.00  0.00     0.072 C 
ATOM     22  C   UNL     1       3.782   0.139  -2.538  1.00  0.00     0.011 C 
ENDBRANCH   6  21
ENDBRANCH   3   6
ENDBRANCH   1   2
BRANCH   1  23
ATOM     23  C   UNL     1      -0.141   0.709   2.052  1.00  0.00     0.042 C 
BRANCH  23  24
ATOM     24  C   UNL     1      -0.015   0.403   3.531  1.00  0.00     0.118 C 
BRANCH  24  25
ATOM     25  N   UNL     1       1.336   0.168   4.024  1.00  0.00    -0.352 N 
ATOM     26  C   UNL     1       1.921   0.573   5.209  1.00  0.00     0.251 C 
ATOM     27  H   UNL     1       1.917  -0.355   3.425  1.00  0.00     0.163 HD
ATOM     28  O   UNL     1       3.089   0.273   5.446  1.00  0.00    -0.269 OA
BRANCH  26  29
ATOM     29  C   UNL     1       1.172   1.423   6.171  1.00  0.00     0.039 A 
ATOM     30  C   UNL     1       1.838   2.442   6.859  1.00  0.00     0.014 A 
ATOM     31  C   UNL     1      -0.200   1.265   6.350  1.00  0.00     0.014 A 
ATOM     32  C   UNL     1       1.109   3.351   7.635  1.00  0.00     0.010 A 
ATOM     33  C   UNL     1      -0.937   2.264   6.968  1.00  0.00     0.010 A 
ATOM     34  C   UNL     1      -0.295   3.302   7.650  1.00  0.00    -0.014 A 
BRANCH  34  35
ATOM     35  C   UNL     1      -1.118   4.289   8.399  1.00  0.00     0.031 A 
ATOM     36  C   UNL     1      -2.116   3.809   9.425  1.00  0.00     0.074 A 
ATOM     37  C   UNL     1      -1.047   5.598   8.087  1.00  0.00     0.049 A 
ATOM     38  N   UNL     1      -2.987   4.494  10.122  1.00  0.00    -0.248 NA
ATOM     39  C   UNL     1      -2.197   2.356   9.645  1.00  0.00     0.031 C 
ATOM     40  C   UNL     1      -0.219   6.175   7.026  1.00  0.00     0.029 A 
ATOM     41  N   UNL     1      -1.690   6.682   8.628  1.00  0.00    -0.354 N 
ATOM     42  C   UNL     1      -3.740   3.552  10.812  1.00  0.00     0.074 A 
ATOM     43  C   UNL     1      -3.290   2.250  10.381  1.00  0.00     0.031 C 
ATOM     44  C   UNL     1      -0.367   7.509   7.026  1.00  0.00     0.029 A 
ATOM     45  C   UNL     1      -1.318   7.880   8.068  1.00  0.00     0.049 A 
ATOM     46  H   UNL     1      -2.356   6.609   9.350  1.00  0.00     0.167 HD
ATOM     47  C   UNL     1      -4.688   3.750  11.759  1.00  0.00     0.037 A 
ATOM     48  C   UNL     1      -1.690   9.136   8.378  1.00  0.00     0.037 A 
ATOM     49  C   UNL     1      -5.065   5.050  12.242  1.00  0.00     0.049 A 
ATOM     50  C   UNL     1      -2.647   9.343   9.520  1.00  0.00     0.074 A 
ATOM     51  C   UNL     1      -5.915   5.376  13.282  1.00  0.00     0.029 A 
ATOM     52  N   UNL     1      -4.593   6.245  11.717  1.00  0.00    -0.354 N 
ATOM     53  N   UNL     1      -3.271   8.448  10.248  1.00  0.00    -0.248 NA
ATOM     54  C   UNL     1      -2.933  10.732   9.900  1.00  0.00     0.031 C 
ATOM     55  C   UNL     1      -5.986   6.772  13.362  1.00  0.00     0.029 A 
ATOM     56  C   UNL     1      -5.146   7.314  12.402  1.00  0.00     0.049 A 
ATOM     57  H   UNL     1      -3.958   6.321  10.968  1.00  0.00     0.167 HD
ATOM     58  C   UNL     1      -4.016   9.160  11.176  1.00  0.00     0.074 A 
ATOM     59  C   UNL     1      -3.738  10.563  10.940  1.00  0.00     0.031 C 
ATOM     60  C   UNL     1      -4.861   8.700  12.133  1.00  0.00     0.037 A 
BRANCH  47  61
ATOM     61  C   UNL     1      -5.353   2.531  12.339  1.00  0.00     0.064 A 
ATOM     62  C   UNL     1      -4.644   1.595  13.111  1.00  0.00     0.173 A 
ATOM     63  C   UNL     1      -6.713   2.282  12.103  1.00  0.00     0.173 A 
ATOM     64  F   UNL     1      -3.338   1.775  13.359  1.00  0.00    -0.203 F 
ATOM     65  C   UNL     1      -5.255   0.431  13.572  1.00  0.00     0.198 A 
ATOM     66  C   UNL     1      -7.331   1.135  12.599  1.00  0.00     0.198 A 
ATOM     67  F   UNL     1      -7.444   3.143  11.379  1.00  0.00    -0.203 F 
ATOM     68  F   UNL     1      -4.533  -0.484  14.233  1.00  0.00    -0.200 F 
ATOM     69  C   UNL     1      -6.598   0.204  13.319  1.00  0.00     0.200 A 
ATOM     70  F   UNL     1      -8.633   0.922  12.365  1.00  0.00    -0.200 F 
ATOM     71  F   UNL     1      -7.183  -0.919  13.757  1.00  0.00    -0.200 F 
ENDBRANCH  47  61
BRANCH  48  72
ATOM     72  C   UNL     1      -1.096  10.284   7.643  1.00  0.00     0.064 A 
ATOM     73  C   UNL     1      -0.150  11.118   8.256  1.00  0.00     0.173 A 
ATOM     74  C   UNL     1      -1.429  10.549   6.307  1.00  0.00     0.173 A 
ATOM     75  F   UNL     1       0.191  10.915   9.537  1.00  0.00    -0.203 F 
ATOM     76  C   UNL     1       0.430  12.181   7.565  1.00  0.00     0.198 A 
ATOM     77  C   UNL     1      -0.829  11.597   5.609  1.00  0.00     0.198 A 
ATOM     78  F   UNL     1      -2.320   9.775   5.671  1.00  0.00    -0.203 F 
ATOM     79  F   UNL     1       1.308  12.981   8.186  1.00  0.00    -0.200 F 
ATOM     80  C   UNL     1       0.096  12.414   6.240  1.00  0.00     0.200 A 
ATOM     81  F   UNL     1      -1.141  11.808   4.323  1.00  0.00    -0.200 F 
ATOM     82  F   UNL     1       0.665  13.427   5.572  1.00  0.00    -0.200 F 
ENDBRANCH  48  72
BRANCH  60  83
ATOM     83  C   UNL     1      -5.540   9.729  12.987  1.00  0.00     0.064 A 
ATOM     84  C   UNL     1      -6.552  10.553  12.472  1.00  0.00     0.173 A 
ATOM     85  C   UNL     1      -5.194   9.874  14.339  1.00  0.00     0.173 A 
ATOM     86  F   UNL     1      -6.908  10.458  11.182  1.00  0.00    -0.203 F 
ATOM     87  C   UNL     1      -7.169  11.510  13.271  1.00  0.00     0.198 A 
ATOM     88  C   UNL     1      -5.836  10.811  15.143  1.00  0.00     0.198 A 
ATOM     89  F   UNL     1      -4.240   9.103  14.880  1.00  0.00    -0.203 F 
ATOM     90  F   UNL     1      -8.093  12.325  12.744  1.00  0.00    -0.200 F 
ATOM     91  C   UNL     1      -6.814  11.635  14.607  1.00  0.00     0.200 A 
ATOM     92  F   UNL     1      -5.503  10.921  16.436  1.00  0.00    -0.200 F 
ATOM     93  F   UNL     1      -7.411  12.556  15.375  1.00  0.00    -0.200 F 
ENDBRANCH  60  83
ENDBRANCH  34  35
ENDBRANCH  26  29
ENDBRANCH  24  25
ENDBRANCH  23  24
ENDBRANCH   1  23
TORSDOF 16
