REMARK SMILES C=C(C)CN(CC)c1ccc(F)cc1C(=O)NCCCNC(=O)c1ccc(-c2c3nc(c(-c4c(F)c(F)c(F)c(F)c4F)c4ccc([nH]4)c(-c4c(F)c(F)c(F)c(F)c4F)c4nc(c(-c5c(F)c(F)c(F)c(F)c5F)c5ccc2[nH]5)C=C4)C=C3)cc1
REMARK SMILES IDX 18 1 17 2 15 3 16 4 14 6 8 7 9 8 10 9 13 10 11 11 12 12 5 13
REMARK SMILES IDX 4 14 2 15 1 16 3 17 6 18 7 19 19 20 20 21 21 22 22 23 23 25
REMARK SMILES IDX 24 26 25 27 86 28 26 29 85 30 27 31 28 32 29 33 79 34 30 35
REMARK SMILES IDX 84 36 78 37 80 38 31 39 83 40 77 41 76 42 32 44 64 45 44 46
REMARK SMILES IDX 63 47 45 48 48 49 62 50 81 51 46 52 47 53 61 55 82 56 49 57
REMARK SMILES IDX 33 58 34 59 42 60 35 61 36 62 40 63 43 64 37 65 38 66 41 67
REMARK SMILES IDX 39 68 65 69 66 70 74 71 67 72 68 73 72 74 75 75 69 76 70 77
REMARK SMILES IDX 73 78 71 79 50 80 51 81 59 82 52 83 53 84 57 85 60 86 54 87
REMARK SMILES IDX 55 88 58 89 56 90
REMARK H PARENT 17 5 21 24 80 43 48 54
REMARK Flexibility Score: inf
ROOT
ATOM      1  C   UNL     1       2.025  -3.377   3.534  1.00  0.00     0.118 C 
ENDROOT
BRANCH   1   2
ATOM      2  N   UNL     1       2.518  -4.668   3.150  1.00  0.00    -0.352 N 
ATOM      3  C   UNL     1       2.374  -5.298   1.942  1.00  0.00     0.253 C 
ATOM      4  O   UNL     1       2.989  -6.356   1.788  1.00  0.00    -0.269 OA
ATOM      5  H   UNL     1       3.020  -5.162   3.838  1.00  0.00     0.163 HD
BRANCH   3   6
ATOM      6  C   UNL     1       1.449  -4.841   0.862  1.00  0.00     0.066 A 
ATOM      7  C   UNL     1       1.342  -3.552   0.275  1.00  0.00     0.050 A 
ATOM      8  C   UNL     1       0.485  -3.427  -0.844  1.00  0.00     0.030 A 
ATOM      9  C   UNL     1      -0.268  -4.492  -1.339  1.00  0.00     0.041 A 
ATOM     10  C   UNL     1       0.689  -5.913   0.341  1.00  0.00     0.055 A 
ATOM     11  C   UNL     1      -0.162  -5.728  -0.736  1.00  0.00     0.124 A 
ATOM     12  F   UNL     1      -0.868  -6.761  -1.210  1.00  0.00    -0.207 F 
BRANCH   7  13
ATOM     13  N   UNL     1       2.049  -2.418   0.676  1.00  0.00    -0.367 N 
BRANCH  13  14
ATOM     14  C   UNL     1       1.325  -1.277   1.272  1.00  0.00     0.146 C 
BRANCH  14  15
ATOM     15  C   UNL     1       0.524  -0.435   0.312  1.00  0.00    -0.061 C 
ATOM     16  C   UNL     1       1.079   0.356  -0.621  1.00  0.00     0.009 C 
ATOM     17  C   UNL     1      -0.967  -0.459   0.534  1.00  0.00     0.041 C 
ENDBRANCH  14  15
ENDBRANCH  13  14
BRANCH  13  18
ATOM     18  C   UNL     1       3.365  -2.161   0.075  1.00  0.00     0.113 C 
ATOM     19  C   UNL     1       4.417  -3.190   0.461  1.00  0.00     0.027 C 
ENDBRANCH  13  18
ENDBRANCH   7  13
ENDBRANCH   3   6
ENDBRANCH   1   2
BRANCH   1  20
ATOM     20  C   UNL     1       2.192  -3.022   4.994  1.00  0.00     0.042 C 
BRANCH  20  21
ATOM     21  C   UNL     1       3.633  -3.082   5.484  1.00  0.00     0.118 C 
BRANCH  21  22
ATOM     22  N   UNL     1       4.567  -2.203   4.782  1.00  0.00    -0.352 N 
ATOM     23  C   UNL     1       5.252  -1.066   5.153  1.00  0.00     0.251 C 
ATOM     24  H   UNL     1       4.742  -2.481   3.854  1.00  0.00     0.163 HD
ATOM     25  O   UNL     1       5.960  -0.499   4.329  1.00  0.00    -0.269 OA
BRANCH  23  26
ATOM     26  C   UNL     1       5.088  -0.472   6.501  1.00  0.00     0.039 A 
ATOM     27  C   UNL     1       5.088   0.921   6.634  1.00  0.00     0.014 A 
ATOM     28  C   UNL     1       4.890  -1.257   7.629  1.00  0.00     0.014 A 
ATOM     29  C   UNL     1       4.742   1.504   7.857  1.00  0.00     0.010 A 
ATOM     30  C   UNL     1       4.380  -0.687   8.788  1.00  0.00     0.010 A 
ATOM     31  C   UNL     1       4.294   0.705   8.921  1.00  0.00    -0.014 A 
BRANCH  31  32
ATOM     32  C   UNL     1       3.724   1.285  10.168  1.00  0.00     0.031 A 
ATOM     33  C   UNL     1       4.267   0.883  11.515  1.00  0.00     0.074 A 
ATOM     34  C   UNL     1       2.651   2.099  10.099  1.00  0.00     0.049 A 
ATOM     35  N   UNL     1       3.812   1.166  12.711  1.00  0.00    -0.248 NA
ATOM     36  C   UNL     1       5.444   0.000  11.522  1.00  0.00     0.031 C 
ATOM     37  C   UNL     1       1.970   2.509   8.869  1.00  0.00     0.029 A 
ATOM     38  N   UNL     1       1.940   2.730  11.091  1.00  0.00    -0.354 N 
ATOM     39  C   UNL     1       4.618   0.463  13.597  1.00  0.00     0.074 A 
ATOM     40  C   UNL     1       5.541  -0.316  12.804  1.00  0.00     0.031 C 
ATOM     41  C   UNL     1       0.990   3.373   9.172  1.00  0.00     0.029 A 
ATOM     42  C   UNL     1       0.935   3.540  10.620  1.00  0.00     0.049 A 
ATOM     43  H   UNL     1       2.132   2.613  12.049  1.00  0.00     0.167 HD
ATOM     44  C   UNL     1       4.620   0.493  14.951  1.00  0.00     0.037 A 
ATOM     45  C   UNL     1       0.072   4.336  11.278  1.00  0.00     0.037 A 
ATOM     46  C   UNL     1       3.750   1.322  15.742  1.00  0.00     0.049 A 
ATOM     47  C   UNL     1       0.129   4.399  12.778  1.00  0.00     0.074 A 
ATOM     48  C   UNL     1       3.716   1.474  17.116  1.00  0.00     0.029 A 
ATOM     49  N   UNL     1       2.773   2.159  15.222  1.00  0.00    -0.354 N 
ATOM     50  N   UNL     1       0.918   3.755  13.602  1.00  0.00    -0.248 NA
ATOM     51  C   UNL     1      -0.825   5.301  13.439  1.00  0.00     0.031 C 
ATOM     52  C   UNL     1       2.704   2.386  17.430  1.00  0.00     0.029 A 
ATOM     53  C   UNL     1       2.132   2.831  16.249  1.00  0.00     0.049 A 
ATOM     54  H   UNL     1       2.566   2.260  14.264  1.00  0.00     0.167 HD
ATOM     55  C   UNL     1       0.571   4.184  14.875  1.00  0.00     0.074 A 
ATOM     56  C   UNL     1      -0.489   5.158  14.714  1.00  0.00     0.031 C 
ATOM     57  C   UNL     1       1.082   3.800  16.070  1.00  0.00     0.037 A 
BRANCH  44  58
ATOM     58  C   UNL     1       5.622  -0.372  15.661  1.00  0.00     0.064 A 
ATOM     59  C   UNL     1       5.205  -1.474  16.422  1.00  0.00     0.173 A 
ATOM     60  C   UNL     1       6.997  -0.096  15.605  1.00  0.00     0.173 A 
ATOM     61  F   UNL     1       3.903  -1.781  16.515  1.00  0.00    -0.203 F 
ATOM     62  C   UNL     1       6.130  -2.269  17.097  1.00  0.00     0.198 A 
ATOM     63  C   UNL     1       7.920  -0.912  16.253  1.00  0.00     0.198 A 
ATOM     64  F   UNL     1       7.448   0.938  14.879  1.00  0.00    -0.203 F 
ATOM     65  F   UNL     1       5.708  -3.306  17.833  1.00  0.00    -0.200 F 
ATOM     66  C   UNL     1       7.486  -1.993  17.004  1.00  0.00     0.200 A 
ATOM     67  F   UNL     1       9.231  -0.661  16.134  1.00  0.00    -0.200 F 
ATOM     68  F   UNL     1       8.375  -2.774  17.631  1.00  0.00    -0.200 F 
ENDBRANCH  44  58
BRANCH  45  69
ATOM     69  C   UNL     1      -0.866   5.194  10.510  1.00  0.00     0.064 A 
ATOM     70  C   UNL     1      -1.967   4.660   9.828  1.00  0.00     0.173 A 
ATOM     71  C   UNL     1      -0.642   6.575  10.414  1.00  0.00     0.173 A 
ATOM     72  F   UNL     1      -2.218   3.344   9.882  1.00  0.00    -0.203 F 
ATOM     73  C   UNL     1      -2.801   5.475   9.064  1.00  0.00     0.198 A 
ATOM     74  C   UNL     1      -1.489   7.391   9.669  1.00  0.00     0.198 A 
ATOM     75  F   UNL     1       0.390   7.131  11.064  1.00  0.00    -0.203 F 
ATOM     76  F   UNL     1      -3.830   4.937   8.394  1.00  0.00    -0.200 F 
ATOM     77  C   UNL     1      -2.563   6.839   8.987  1.00  0.00     0.200 A 
ATOM     78  F   UNL     1      -1.266   8.711   9.613  1.00  0.00    -0.200 F 
ATOM     79  F   UNL     1      -3.369   7.622   8.258  1.00  0.00    -0.200 F 
ENDBRANCH  45  69
BRANCH  57  80
ATOM     80  C   UNL     1       0.518   4.446  17.300  1.00  0.00     0.064 A 
ATOM     81  C   UNL     1       1.283   5.364  18.034  1.00  0.00     0.173 A 
ATOM     82  C   UNL     1      -0.755   4.113  17.783  1.00  0.00     0.173 A 
ATOM     83  F   UNL     1       2.510   5.710  17.616  1.00  0.00    -0.203 F 
ATOM     84  C   UNL     1       0.796   5.919  19.214  1.00  0.00     0.198 A 
ATOM     85  C   UNL     1      -1.249   4.689  18.950  1.00  0.00     0.198 A 
ATOM     86  F   UNL     1      -1.529   3.249  17.108  1.00  0.00    -0.203 F 
ATOM     87  F   UNL     1       1.554   6.775  19.913  1.00  0.00    -0.200 F 
ATOM     88  C   UNL     1      -0.471   5.585  19.668  1.00  0.00     0.200 A 
ATOM     89  F   UNL     1      -2.483   4.384  19.375  1.00  0.00    -0.200 F 
ATOM     90  F   UNL     1      -0.944   6.131  20.796  1.00  0.00    -0.200 F 
ENDBRANCH  57  80
ENDBRANCH  31  32
ENDBRANCH  23  26
ENDBRANCH  21  22
ENDBRANCH  20  21
ENDBRANCH   1  20
TORSDOF 14
