REMARK SMILES CC[NH2+][C@]1(C(=O)NCCCNC(=O)c2ccc(-c3c4nc(c(-c5c(F)c(F)c(F)c(F)c5F)c5ccc([nH]5)c(-c5c(F)c(F)c(F)c(F)c5F)c5nc(c(-c6c(F)c(F)c(F)c(F)c6F)c6ccc3[nH]6)C=C5)C=C4)cc2)CC[C@@H]([N@@H+]2CCO[C@@H](CC)C2)C1
REMARK SMILES IDX 9 1 8 2 7 3 5 4 6 5 4 7 77 8 88 9 78 10 79 11 3 12 2 15 1 16
REMARK SMILES IDX 80 17 81 18 87 19 82 21 84 22 83 23 85 24 86 25 10 26 11 27
REMARK SMILES IDX 12 28 13 30 14 31 15 32 76 33 16 34 75 35 17 36 18 37 19 38
REMARK SMILES IDX 69 39 20 40 74 41 68 42 70 43 21 44 73 45 67 46 66 47 22 49
REMARK SMILES IDX 54 50 34 51 53 52 35 53 38 54 52 55 71 56 36 57 37 58 51 60
REMARK SMILES IDX 72 61 39 62 23 63 24 64 32 65 25 66 26 67 30 68 33 69 27 70
REMARK SMILES IDX 28 71 31 72 29 73 55 74 56 75 64 76 57 77 58 78 62 79 65 80
REMARK SMILES IDX 59 81 60 82 63 83 61 84 40 85 41 86 49 87 42 88 43 89 47 90
REMARK SMILES IDX 50 91 44 92 45 93 48 94 46 95
REMARK H PARENT 7 6 3 13 3 14 80 20 11 29 70 48 38 59
REMARK Flexibility Score: inf
ROOT
ATOM      1  C   UNL     1       2.422  -0.188  -4.704  1.00  0.00     0.042 C 
ENDROOT
BRANCH   1   2
ATOM      2  C   UNL     1       1.009  -0.082  -4.127  1.00  0.00     0.118 C 
BRANCH   2   3
ATOM      3  N   UNL     1       1.030   0.294  -2.725  1.00  0.00    -0.351 N 
ATOM      4  C   UNL     1       0.842   1.486  -2.089  1.00  0.00     0.281 C 
ATOM      5  O   UNL     1       1.042   1.477  -0.869  1.00  0.00    -0.268 OA
ATOM      6  H   UNL     1       1.218  -0.456  -2.115  1.00  0.00     0.163 HD
BRANCH   4   7
ATOM      7  C   UNL     1       0.299   2.762  -2.810  1.00  0.00     0.181 C 
ATOM      8  C   UNL     1       0.713   4.007  -1.991  1.00  0.00     0.085 C 
ATOM      9  C   UNL     1       0.962   3.076  -4.164  1.00  0.00     0.144 C 
ATOM     10  C   UNL     1       0.572   5.166  -2.962  1.00  0.00     0.072 C 
ATOM     11  C   UNL     1       1.093   4.607  -4.295  1.00  0.00     0.191 C 
BRANCH   7  12
ATOM     12  N   UNL     1      -1.163   2.618  -3.044  1.00  0.00    -0.334 N 
ATOM     13  H   UNL     1      -1.441   3.301  -3.749  1.00  0.00     0.347 HD
ATOM     14  H   UNL     1      -1.315   1.654  -3.339  1.00  0.00     0.347 HD
BRANCH  12  15
ATOM     15  C   UNL     1      -1.993   2.825  -1.856  1.00  0.00     0.257 C 
ATOM     16  C   UNL     1      -3.439   2.465  -2.167  1.00  0.00     0.071 C 
ENDBRANCH  12  15
ENDBRANCH   7  12
BRANCH  11  17
ATOM     17  N   UNL     1       2.396   5.133  -4.730  1.00  0.00    -0.328 N 
ATOM     18  C   UNL     1       2.881   4.630  -6.027  1.00  0.00     0.291 C 
ATOM     19  C   UNL     1       3.504   5.165  -3.764  1.00  0.00     0.294 C 
ATOM     20  H   UNL     1       2.112   6.107  -4.835  1.00  0.00     0.348 HD
ATOM     21  C   UNL     1       3.810   3.402  -5.962  1.00  0.00     0.222 C 
ATOM     22  C   UNL     1       4.309   3.853  -3.673  1.00  0.00     0.173 C 
ATOM     23  O   UNL     1       4.836   3.510  -4.968  1.00  0.00    -0.367 OA
BRANCH  22  24
ATOM     24  C   UNL     1       5.496   3.950  -2.707  1.00  0.00     0.034 C 
ATOM     25  C   UNL     1       5.100   4.301  -1.280  1.00  0.00     0.007 C 
ENDBRANCH  22  24
ENDBRANCH  11  17
ENDBRANCH   4   7
ENDBRANCH   2   3
ENDBRANCH   1   2
BRANCH   1  26
ATOM     26  C   UNL     1       3.181  -1.446  -4.284  1.00  0.00     0.118 C 
BRANCH  26  27
ATOM     27  N   UNL     1       2.610  -2.655  -4.859  1.00  0.00    -0.352 N 
ATOM     28  C   UNL     1       3.168  -3.609  -5.669  1.00  0.00     0.251 C 
ATOM     29  H   UNL     1       1.666  -2.814  -4.627  1.00  0.00     0.163 HD
ATOM     30  O   UNL     1       2.433  -4.445  -6.200  1.00  0.00    -0.269 OA
BRANCH  28  31
ATOM     31  C   UNL     1       4.624  -3.654  -5.929  1.00  0.00     0.039 A 
ATOM     32  C   UNL     1       5.064  -4.013  -7.208  1.00  0.00     0.014 A 
ATOM     33  C   UNL     1       5.560  -3.416  -4.919  1.00  0.00     0.014 A 
ATOM     34  C   UNL     1       6.432  -4.082  -7.487  1.00  0.00     0.010 A 
ATOM     35  C   UNL     1       6.924  -3.418  -5.215  1.00  0.00     0.010 A 
ATOM     36  C   UNL     1       7.374  -3.756  -6.500  1.00  0.00    -0.014 A 
BRANCH  36  37
ATOM     37  C   UNL     1       8.831  -3.767  -6.793  1.00  0.00     0.031 A 
ATOM     38  C   UNL     1       9.741  -4.740  -6.094  1.00  0.00     0.074 A 
ATOM     39  C   UNL     1       9.346  -2.857  -7.643  1.00  0.00     0.049 A 
ATOM     40  N   UNL     1      11.045  -4.849  -6.157  1.00  0.00    -0.248 NA
ATOM     41  C   UNL     1       9.102  -5.705  -5.185  1.00  0.00     0.031 C 
ATOM     42  C   UNL     1       8.576  -1.835  -8.352  1.00  0.00     0.029 A 
ATOM     43  N   UNL     1      10.640  -2.637  -8.044  1.00  0.00    -0.354 N 
ATOM     44  C   UNL     1      11.382  -5.877  -5.286  1.00  0.00     0.074 A 
ATOM     45  C   UNL     1      10.152  -6.329  -4.671  1.00  0.00     0.031 C 
ATOM     46  C   UNL     1       9.409  -1.107  -9.113  1.00  0.00     0.029 A 
ATOM     47  C   UNL     1      10.774  -1.585  -8.917  1.00  0.00     0.049 A 
ATOM     48  H   UNL     1      11.400  -3.181  -7.735  1.00  0.00     0.167 HD
ATOM     49  C   UNL     1      12.603  -6.408  -5.036  1.00  0.00     0.037 A 
ATOM     50  C   UNL     1      11.874  -1.058  -9.487  1.00  0.00     0.037 A 
ATOM     51  C   UNL     1      13.822  -5.974  -5.669  1.00  0.00     0.049 A 
ATOM     52  C   UNL     1      13.219  -1.664  -9.190  1.00  0.00     0.074 A 
ATOM     53  C   UNL     1      15.099  -6.488  -5.527  1.00  0.00     0.029 A 
ATOM     54  N   UNL     1      13.913  -4.918  -6.564  1.00  0.00    -0.354 N 
ATOM     55  N   UNL     1      13.517  -2.676  -8.413  1.00  0.00    -0.248 NA
ATOM     56  C   UNL     1      14.380  -1.057  -9.855  1.00  0.00     0.031 C 
ATOM     57  C   UNL     1      15.971  -5.716  -6.303  1.00  0.00     0.029 A 
ATOM     58  C   UNL     1      15.229  -4.752  -6.966  1.00  0.00     0.049 A 
ATOM     59  H   UNL     1      13.156  -4.367  -6.868  1.00  0.00     0.167 HD
ATOM     60  C   UNL     1      14.891  -2.845  -8.516  1.00  0.00     0.074 A 
ATOM     61  C   UNL     1      15.367  -1.840  -9.443  1.00  0.00     0.031 C 
ATOM     62  C   UNL     1      15.686  -3.752  -7.897  1.00  0.00     0.037 A 
BRANCH  49  63
ATOM     63  C   UNL     1      12.684  -7.524  -4.034  1.00  0.00     0.064 A 
ATOM     64  C   UNL     1      12.166  -8.799  -4.309  1.00  0.00     0.173 A 
ATOM     65  C   UNL     1      13.323  -7.329  -2.800  1.00  0.00     0.173 A 
ATOM     66  F   UNL     1      11.538  -9.036  -5.470  1.00  0.00    -0.203 F 
ATOM     67  C   UNL     1      12.257  -9.827  -3.374  1.00  0.00     0.198 A 
ATOM     68  C   UNL     1      13.439  -8.368  -1.880  1.00  0.00     0.198 A 
ATOM     69  F   UNL     1      13.843  -6.132  -2.489  1.00  0.00    -0.203 F 
ATOM     70  F   UNL     1      11.712 -11.022  -3.640  1.00  0.00    -0.200 F 
ATOM     71  C   UNL     1      12.899  -9.613  -2.164  1.00  0.00     0.200 A 
ATOM     72  F   UNL     1      14.072  -8.163  -0.716  1.00  0.00    -0.200 F 
ATOM     73  F   UNL     1      12.992 -10.605  -1.268  1.00  0.00    -0.200 F 
ENDBRANCH  49  63
BRANCH  50  74
ATOM     74  C   UNL     1      11.748   0.094 -10.417  1.00  0.00     0.064 A 
ATOM     75  C   UNL     1      11.986  -0.061 -11.790  1.00  0.00     0.173 A 
ATOM     76  C   UNL     1      11.390   1.369  -9.956  1.00  0.00     0.173 A 
ATOM     77  F   UNL     1      12.351  -1.257 -12.274  1.00  0.00    -0.203 F 
ATOM     78  C   UNL     1      11.889   1.020 -12.663  1.00  0.00     0.198 A 
ATOM     79  C   UNL     1      11.267   2.443 -10.835  1.00  0.00     0.198 A 
ATOM     80  F   UNL     1      11.148   1.569  -8.652  1.00  0.00    -0.203 F 
ATOM     81  F   UNL     1      12.165   0.853 -13.964  1.00  0.00    -0.200 F 
ATOM     82  C   UNL     1      11.524   2.270 -12.187  1.00  0.00     0.200 A 
ATOM     83  F   UNL     1      10.900   3.646 -10.373  1.00  0.00    -0.200 F 
ATOM     84  F   UNL     1      11.427   3.308 -13.028  1.00  0.00    -0.200 F 
ENDBRANCH  50  74
BRANCH  62  85
ATOM     85  C   UNL     1      17.150  -3.724  -8.231  1.00  0.00     0.064 A 
ATOM     86  C   UNL     1      17.990  -2.699  -7.772  1.00  0.00     0.173 A 
ATOM     87  C   UNL     1      17.724  -4.756  -8.988  1.00  0.00     0.173 A 
ATOM     88  F   UNL     1      17.486  -1.681  -7.058  1.00  0.00    -0.203 F 
ATOM     89  C   UNL     1      19.348  -2.697  -8.079  1.00  0.00     0.198 A 
ATOM     90  C   UNL     1      19.087  -4.766  -9.268  1.00  0.00     0.198 A 
ATOM     91  F   UNL     1      16.964  -5.763  -9.446  1.00  0.00    -0.203 F 
ATOM     92  F   UNL     1      20.124  -1.684  -7.670  1.00  0.00    -0.200 F 
ATOM     93  C   UNL     1      19.897  -3.733  -8.820  1.00  0.00     0.200 A 
ATOM     94  F   UNL     1      19.618  -5.775  -9.973  1.00  0.00    -0.200 F 
ATOM     95  F   UNL     1      21.205  -3.733  -9.108  1.00  0.00    -0.200 F 
ENDBRANCH  62  85
ENDBRANCH  36  37
ENDBRANCH  28  31
ENDBRANCH  26  27
ENDBRANCH   1  26
TORSDOF 14
