REMARK SMILES CC[C@H]1CCC[C@H](O[C@@H]2CC[C@]([NH2+]C(C)C)(C(=O)NCCCNC(=O)c3ccc(-c4c5nc(c(-c6c(F)c(F)c(F)c(F)c6F)c6ccc([nH]6)c(-c6c(F)c(F)c(F)c(F)c6F)c6nc(c(-c7c(F)c(F)c(F)c(F)c7F)c7ccc4[nH]7)C=C6)C=C5)cc3)C2)C1
REMARK SMILES IDX 20 1 19 2 17 3 18 4 12 6 9 7 10 8 89 9 11 10 8 11 7 12 3 13
REMARK SMILES IDX 4 14 90 15 5 16 6 17 2 18 1 19 13 20 14 23 15 24 16 25 21 26
REMARK SMILES IDX 22 27 23 28 24 29 25 31 26 32 27 33 88 34 28 35 87 36 29 37
REMARK SMILES IDX 30 38 31 39 81 40 32 41 86 42 80 43 82 44 33 45 85 46 79 47
REMARK SMILES IDX 78 48 34 50 66 51 46 52 65 53 47 54 50 55 64 56 83 57 48 58
REMARK SMILES IDX 49 59 63 61 84 62 51 63 35 64 36 65 44 66 37 67 38 68 42 69
REMARK SMILES IDX 45 70 39 71 40 72 43 73 41 74 67 75 68 76 76 77 69 78 70 79
REMARK SMILES IDX 74 80 77 81 71 82 72 83 75 84 73 85 52 86 53 87 61 88 54 89
REMARK SMILES IDX 55 90 59 91 62 92 56 93 57 94 60 95 58 96
REMARK H PARENT 19 5 13 21 13 22 23 30 82 49 50 60
REMARK Flexibility Score: inf
ROOT
ATOM      1  C   UNL     1      -1.980   0.348  -0.113  1.00  0.00     0.118 C 
ENDROOT
BRANCH   1   2
ATOM      2  N   UNL     1      -3.257   0.874   0.337  1.00  0.00    -0.351 N 
ATOM      3  C   UNL     1      -3.695   2.076   0.805  1.00  0.00     0.281 C 
ATOM      4  O   UNL     1      -4.914   2.118   1.031  1.00  0.00    -0.268 OA
ATOM      5  H   UNL     1      -3.977   0.203   0.293  1.00  0.00     0.163 HD
BRANCH   3   6
ATOM      6  C   UNL     1      -2.808   3.347   1.050  1.00  0.00     0.178 C 
ATOM      7  C   UNL     1      -0.888   4.326   2.163  1.00  0.00     0.125 C 
ATOM      8  C   UNL     1      -2.069   4.641   3.074  1.00  0.00     0.039 C 
ATOM      9  C   UNL     1      -1.340   3.109   1.367  1.00  0.00     0.111 C 
ATOM     10  C   UNL     1      -3.275   3.942   2.425  1.00  0.00     0.082 C 
BRANCH   7  11
ATOM     11  O   UNL     1       0.396   4.317   2.768  1.00  0.00    -0.375 OA
BRANCH  11  12
ATOM     12  C   UNL     1       0.987   3.158   3.356  1.00  0.00     0.118 C 
ATOM     13  C   UNL     1       1.836   0.728   2.853  1.00  0.00    -0.009 C 
ATOM     14  C   UNL     1       0.968   0.296   4.046  1.00  0.00     0.004 C 
ATOM     15  C   UNL     1       1.465   2.123   2.319  1.00  0.00     0.035 C 
ATOM     16  C   UNL     1       0.840   1.371   5.114  1.00  0.00     0.003 C 
ATOM     17  C   UNL     1       0.176   2.602   4.520  1.00  0.00     0.032 C 
BRANCH  13  18
ATOM     18  C   UNL     1       3.335   0.577   3.163  1.00  0.00     0.000 C 
ATOM     19  C   UNL     1       4.212   0.700   1.921  1.00  0.00     0.004 C 
ENDBRANCH  13  18
ENDBRANCH  11  12
ENDBRANCH   7  11
BRANCH   6  20
ATOM     20  N   UNL     1      -3.090   4.354   0.002  1.00  0.00    -0.332 N 
ATOM     21  H   UNL     1      -2.980   5.269   0.438  1.00  0.00     0.347 HD
ATOM     22  H   UNL     1      -4.021   4.091  -0.324  1.00  0.00     0.347 HD
BRANCH  20  23
ATOM     23  C   UNL     1      -2.307   4.380  -1.231  1.00  0.00     0.176 C 
ATOM     24  C   UNL     1      -3.232   4.889  -2.344  1.00  0.00     0.075 C 
ATOM     25  C   UNL     1      -1.107   5.334  -1.151  1.00  0.00     0.075 C 
ENDBRANCH  20  23
ENDBRANCH   6  20
ENDBRANCH   3   6
ENDBRANCH   1   2
BRANCH   1  26
ATOM     26  C   UNL     1      -1.355  -0.646   0.877  1.00  0.00     0.042 C 
BRANCH  26  27
ATOM     27  C   UNL     1      -2.039  -2.017   0.997  1.00  0.00     0.118 C 
BRANCH  27  28
ATOM     28  N   UNL     1      -1.924  -2.826  -0.207  1.00  0.00    -0.352 N 
ATOM     29  C   UNL     1      -1.555  -4.132  -0.424  1.00  0.00     0.251 C 
ATOM     30  H   UNL     1      -2.158  -2.341  -1.031  1.00  0.00     0.163 HD
ATOM     31  O   UNL     1      -1.458  -4.506  -1.592  1.00  0.00    -0.269 OA
BRANCH  29  32
ATOM     32  C   UNL     1      -1.247  -5.106   0.662  1.00  0.00     0.039 A 
ATOM     33  C   UNL     1      -0.308  -6.110   0.377  1.00  0.00     0.014 A 
ATOM     34  C   UNL     1      -1.902  -5.138   1.895  1.00  0.00     0.014 A 
ATOM     35  C   UNL     1       0.004  -7.097   1.321  1.00  0.00     0.010 A 
ATOM     36  C   UNL     1      -1.553  -6.098   2.863  1.00  0.00     0.010 A 
ATOM     37  C   UNL     1      -0.593  -7.086   2.590  1.00  0.00    -0.014 A 
BRANCH  37  38
ATOM     38  C   UNL     1      -0.184  -8.084   3.623  1.00  0.00     0.031 A 
ATOM     39  C   UNL     1      -1.134  -9.146   4.114  1.00  0.00     0.074 A 
ATOM     40  C   UNL     1       1.061  -8.033   4.139  1.00  0.00     0.049 A 
ATOM     41  N   UNL     1      -0.935 -10.088   5.006  1.00  0.00    -0.248 NA
ATOM     42  C   UNL     1      -2.486  -9.145   3.539  1.00  0.00     0.031 C 
ATOM     43  C   UNL     1       2.077  -7.040   3.788  1.00  0.00     0.029 A 
ATOM     44  N   UNL     1       1.685  -8.831   5.068  1.00  0.00    -0.354 N 
ATOM     45  C   UNL     1      -2.131 -10.788   5.099  1.00  0.00     0.074 A 
ATOM     46  C   UNL     1      -3.066 -10.136   4.204  1.00  0.00     0.031 C 
ATOM     47  C   UNL     1       3.200  -7.295   4.479  1.00  0.00     0.029 A 
ATOM     48  C   UNL     1       2.978  -8.453   5.342  1.00  0.00     0.049 A 
ATOM     49  H   UNL     1       1.247  -9.601   5.498  1.00  0.00     0.167 HD
ATOM     50  C   UNL     1      -2.421 -11.884   5.844  1.00  0.00     0.037 A 
ATOM     51  C   UNL     1       3.885  -8.972   6.192  1.00  0.00     0.037 A 
ATOM     52  C   UNL     1      -1.498 -12.550   6.729  1.00  0.00     0.049 A 
ATOM     53  C   UNL     1       3.537 -10.189   7.004  1.00  0.00     0.074 A 
ATOM     54  C   UNL     1      -1.703 -13.685   7.498  1.00  0.00     0.029 A 
ATOM     55  N   UNL     1      -0.194 -12.144   6.965  1.00  0.00    -0.354 N 
ATOM     56  N   UNL     1       2.417 -10.867   7.040  1.00  0.00    -0.248 NA
ATOM     57  C   UNL     1       4.588 -10.720   7.886  1.00  0.00     0.031 C 
ATOM     58  C   UNL     1      -0.535 -13.946   8.223  1.00  0.00     0.029 A 
ATOM     59  C   UNL     1       0.412 -12.998   7.875  1.00  0.00     0.049 A 
ATOM     60  H   UNL     1       0.239 -11.364   6.548  1.00  0.00     0.167 HD
ATOM     61  C   UNL     1       2.633 -11.911   7.931  1.00  0.00     0.074 A 
ATOM     62  C   UNL     1       3.999 -11.793   8.393  1.00  0.00     0.031 C 
ATOM     63  C   UNL     1       1.771 -12.876   8.333  1.00  0.00     0.037 A 
BRANCH  50  64
ATOM     64  C   UNL     1      -3.805 -12.457   5.730  1.00  0.00     0.064 A 
ATOM     65  C   UNL     1      -4.209 -13.163   4.587  1.00  0.00     0.173 A 
ATOM     66  C   UNL     1      -4.710 -12.364   6.798  1.00  0.00     0.173 A 
ATOM     67  F   UNL     1      -3.382 -13.275   3.536  1.00  0.00    -0.203 F 
ATOM     68  C   UNL     1      -5.474 -13.740   4.511  1.00  0.00     0.198 A 
ATOM     69  C   UNL     1      -5.965 -12.964   6.728  1.00  0.00     0.198 A 
ATOM     70  F   UNL     1      -4.369 -11.710   7.919  1.00  0.00    -0.203 F 
ATOM     71  F   UNL     1      -5.849 -14.383   3.396  1.00  0.00    -0.200 F 
ATOM     72  C   UNL     1      -6.347 -13.647   5.584  1.00  0.00     0.200 A 
ATOM     73  F   UNL     1      -6.803 -12.886   7.772  1.00  0.00    -0.200 F 
ATOM     74  F   UNL     1      -7.559 -14.214   5.514  1.00  0.00    -0.200 F 
ENDBRANCH  50  64
BRANCH  51  75
ATOM     75  C   UNL     1       5.228  -8.347   6.314  1.00  0.00     0.064 A 
ATOM     76  C   UNL     1       6.374  -8.998   5.837  1.00  0.00     0.173 A 
ATOM     77  C   UNL     1       5.394  -7.100   6.932  1.00  0.00     0.173 A 
ATOM     78  F   UNL     1       6.267 -10.205   5.261  1.00  0.00    -0.203 F 
ATOM     79  C   UNL     1       7.638  -8.436   5.994  1.00  0.00     0.198 A 
ATOM     80  C   UNL     1       6.656  -6.525   7.063  1.00  0.00     0.198 A 
ATOM     81  F   UNL     1       4.328  -6.436   7.403  1.00  0.00    -0.203 F 
ATOM     82  F   UNL     1       8.723  -9.102   5.575  1.00  0.00    -0.200 F 
ATOM     83  C   UNL     1       7.778  -7.197   6.603  1.00  0.00     0.200 A 
ATOM     84  F   UNL     1       6.785  -5.323   7.641  1.00  0.00    -0.200 F 
ATOM     85  F   UNL     1       8.995  -6.657   6.754  1.00  0.00    -0.200 F 
ENDBRANCH  51  75
BRANCH  63  86
ATOM     86  C   UNL     1       2.289 -13.892   9.310  1.00  0.00     0.064 A 
ATOM     87  C   UNL     1       2.538 -13.561  10.650  1.00  0.00     0.173 A 
ATOM     88  C   UNL     1       2.532 -15.213   8.904  1.00  0.00     0.173 A 
ATOM     89  F   UNL     1       2.337 -12.307  11.084  1.00  0.00    -0.203 F 
ATOM     90  C   UNL     1       3.041 -14.506  11.540  1.00  0.00     0.198 A 
ATOM     91  C   UNL     1       3.010 -16.163   9.804  1.00  0.00     0.198 A 
ATOM     92  F   UNL     1       2.306 -15.583   7.635  1.00  0.00    -0.203 F 
ATOM     93  F   UNL     1       3.323 -14.152  12.802  1.00  0.00    -0.200 F 
ATOM     94  C   UNL     1       3.273 -15.806  11.118  1.00  0.00     0.200 A 
ATOM     95  F   UNL     1       3.226 -17.421   9.396  1.00  0.00    -0.200 F 
ATOM     96  F   UNL     1       3.761 -16.714  11.975  1.00  0.00    -0.200 F 
ENDBRANCH  63  86
ENDBRANCH  37  38
ENDBRANCH  29  32
ENDBRANCH  27  28
ENDBRANCH  26  27
ENDBRANCH   1  26
TORSDOF 15
