REMARK SMILES [NH3+][C@]1(C(=O)NCCCNC(=O)c2ccc(-c3c4nc(c(-c5c(F)c(F)c(F)c(F)c5F)c5ccc([nH]5)c(-c5c(F)c(F)c(F)c(F)c5F)c5nc(c(-c6c(F)c(F)c(F)c(F)c6F)c6ccc3[nH]6)C=C5)C=C4)cc2)CC[C@@H](Sc2ccc(Cl)c(Cl)c2)C1
REMARK SMILES IDX 7 1 6 2 5 3 3 4 4 5 2 7 75 8 87 9 76 10 77 11 1 12 78 16
REMARK SMILES IDX 79 17 80 18 86 19 81 20 84 21 82 22 85 23 83 24 8 25 9 26
REMARK SMILES IDX 10 27 11 29 12 30 13 31 74 32 14 33 73 34 15 35 16 36 17 37
REMARK SMILES IDX 67 38 18 39 72 40 66 41 68 42 19 43 71 44 65 45 64 46 20 48
REMARK SMILES IDX 52 49 32 50 51 51 33 52 36 53 50 54 69 55 34 56 35 57 49 59
REMARK SMILES IDX 70 60 37 61 21 62 22 63 30 64 23 65 24 66 28 67 31 68 25 69
REMARK SMILES IDX 26 70 29 71 27 72 53 73 54 74 62 75 55 76 56 77 60 78 63 79
REMARK SMILES IDX 57 80 58 81 61 82 59 83 38 84 39 85 47 86 40 87 41 88 45 89
REMARK SMILES IDX 48 90 42 91 43 92 46 93 44 94
REMARK H PARENT 5 6 1 13 1 14 1 15 9 28 68 47 36 58
REMARK Flexibility Score: inf
ROOT
ATOM      1  C   UNL     1       1.278  -1.774   3.119  1.00  0.00     0.042 C 
ENDROOT
BRANCH   1   2
ATOM      2  C   UNL     1       2.016  -0.660   2.394  1.00  0.00     0.118 C 
BRANCH   2   3
ATOM      3  N   UNL     1       1.755  -0.641   0.969  1.00  0.00    -0.351 N 
ATOM      4  C   UNL     1       1.107   0.255   0.177  1.00  0.00     0.281 C 
ATOM      5  O   UNL     1       0.994  -0.062  -1.013  1.00  0.00    -0.268 OA
ATOM      6  H   UNL     1       2.112  -1.420   0.484  1.00  0.00     0.163 HD
BRANCH   4   7
ATOM      7  C   UNL     1       0.438   1.555   0.724  1.00  0.00     0.175 C 
ATOM      8  C   UNL     1       1.249   2.345   1.762  1.00  0.00     0.080 C 
ATOM      9  C   UNL     1       0.229   2.568  -0.442  1.00  0.00     0.094 C 
ATOM     10  C   UNL     1       0.933   3.810   1.529  1.00  0.00     0.022 C 
ATOM     11  C   UNL     1       0.750   3.930   0.028  1.00  0.00     0.058 C 
BRANCH   7  12
ATOM     12  N   UNL     1      -0.874   1.171   1.299  1.00  0.00    -0.345 N 
ATOM     13  H   UNL     1      -1.339   2.001   1.667  1.00  0.00     0.345 HD
ATOM     14  H   UNL     1      -0.731   0.499   2.053  1.00  0.00     0.345 HD
ATOM     15  H   UNL     1      -1.453   0.750   0.573  1.00  0.00     0.345 HD
ENDBRANCH   7  12
BRANCH  11  16
ATOM     16  S   UNL     1       2.213   4.589  -0.881  1.00  0.00    -0.122 SA
BRANCH  16  17
ATOM     17  C   UNL     1       3.549   3.474  -0.501  1.00  0.00     0.009 A 
ATOM     18  C   UNL     1       4.598   3.914   0.314  1.00  0.00     0.017 A 
ATOM     19  C   UNL     1       3.649   2.221  -1.114  1.00  0.00     0.037 A 
ATOM     20  C   UNL     1       5.721   3.106   0.529  1.00  0.00     0.023 A 
ATOM     21  C   UNL     1       4.761   1.401  -0.886  1.00  0.00     0.060 A 
ATOM     22  C   UNL     1       5.804   1.847  -0.069  1.00  0.00     0.059 A 
ATOM     23  Cl  UNL     1       4.790  -0.146  -1.655  1.00  0.00    -0.083 Cl
ATOM     24  Cl  UNL     1       7.223   0.907   0.222  1.00  0.00    -0.083 Cl
ENDBRANCH  16  17
ENDBRANCH  11  16
ENDBRANCH   4   7
ENDBRANCH   2   3
ENDBRANCH   1   2
BRANCH   1  25
ATOM     25  C   UNL     1       1.760  -3.172   2.754  1.00  0.00     0.118 C 
BRANCH  25  26
ATOM     26  N   UNL     1       3.162  -3.393   3.092  1.00  0.00    -0.352 N 
ATOM     27  C   UNL     1       3.741  -4.159   4.073  1.00  0.00     0.251 C 
ATOM     28  H   UNL     1       3.802  -2.911   2.520  1.00  0.00     0.163 HD
ATOM     29  O   UNL     1       4.940  -4.032   4.318  1.00  0.00    -0.269 OA
BRANCH  27  30
ATOM     30  C   UNL     1       2.935  -5.117   4.858  1.00  0.00     0.039 A 
ATOM     31  C   UNL     1       3.160  -5.225   6.234  1.00  0.00     0.014 A 
ATOM     32  C   UNL     1       1.967  -5.915   4.246  1.00  0.00     0.014 A 
ATOM     33  C   UNL     1       2.344  -6.053   7.007  1.00  0.00     0.010 A 
ATOM     34  C   UNL     1       1.097  -6.669   5.027  1.00  0.00     0.010 A 
ATOM     35  C   UNL     1       1.266  -6.733   6.418  1.00  0.00    -0.014 A 
BRANCH  35  36
ATOM     36  C   UNL     1       0.274  -7.475   7.237  1.00  0.00     0.031 A 
ATOM     37  C   UNL     1       0.080  -8.952   7.045  1.00  0.00     0.074 A 
ATOM     38  C   UNL     1      -0.520  -6.792   8.085  1.00  0.00     0.049 A 
ATOM     39  N   UNL     1      -0.811  -9.746   7.582  1.00  0.00    -0.248 NA
ATOM     40  C   UNL     1       0.991  -9.622   6.104  1.00  0.00     0.031 C 
ATOM     41  C   UNL     1      -0.459  -5.349   8.322  1.00  0.00     0.029 A 
ATOM     42  N   UNL     1      -1.549  -7.216   8.889  1.00  0.00    -0.354 N 
ATOM     43  C   UNL     1      -0.577 -11.001   7.037  1.00  0.00     0.074 A 
ATOM     44  C   UNL     1       0.506 -10.854   6.088  1.00  0.00     0.031 C 
ATOM     45  C   UNL     1      -1.394  -5.010   9.223  1.00  0.00     0.029 A 
ATOM     46  C   UNL     1      -2.156  -6.199   9.587  1.00  0.00     0.049 A 
ATOM     47  H   UNL     1      -1.825  -8.158   8.960  1.00  0.00     0.167 HD
ATOM     48  C   UNL     1      -1.198 -12.171   7.318  1.00  0.00     0.037 A 
ATOM     49  C   UNL     1      -3.223  -6.218  10.408  1.00  0.00     0.037 A 
ATOM     50  C   UNL     1      -2.265 -12.310   8.275  1.00  0.00     0.049 A 
ATOM     51  C   UNL     1      -3.919  -7.525  10.673  1.00  0.00     0.074 A 
ATOM     52  C   UNL     1      -2.911 -13.463   8.684  1.00  0.00     0.029 A 
ATOM     53  N   UNL     1      -2.854 -11.258   8.962  1.00  0.00    -0.354 N 
ATOM     54  N   UNL     1      -3.637  -8.720  10.215  1.00  0.00    -0.248 NA
ATOM     55  C   UNL     1      -5.086  -7.486  11.566  1.00  0.00     0.031 C 
ATOM     56  C   UNL     1      -3.932 -13.103   9.569  1.00  0.00     0.029 A 
ATOM     57  C   UNL     1      -3.884 -11.731   9.759  1.00  0.00     0.049 A 
ATOM     58  H   UNL     1      -2.580 -10.314   8.893  1.00  0.00     0.167 HD
ATOM     59  C   UNL     1      -4.574  -9.576  10.777  1.00  0.00     0.074 A 
ATOM     60  C   UNL     1      -5.421  -8.767  11.627  1.00  0.00     0.031 C 
ATOM     61  C   UNL     1      -4.721 -10.912  10.599  1.00  0.00     0.037 A 
BRANCH  48  62
ATOM     62  C   UNL     1      -0.744 -13.398   6.580  1.00  0.00     0.064 A 
ATOM     63  C   UNL     1       0.517 -13.971   6.805  1.00  0.00     0.173 A 
ATOM     64  C   UNL     1      -1.599 -14.037   5.669  1.00  0.00     0.173 A 
ATOM     65  F   UNL     1       1.377 -13.397   7.661  1.00  0.00    -0.203 F 
ATOM     66  C   UNL     1       0.916 -15.118   6.124  1.00  0.00     0.198 A 
ATOM     67  C   UNL     1      -1.210 -15.203   5.015  1.00  0.00     0.198 A 
ATOM     68  F   UNL     1      -2.819 -13.537   5.421  1.00  0.00    -0.203 F 
ATOM     69  F   UNL     1       2.144 -15.618   6.320  1.00  0.00    -0.200 F 
ATOM     70  C   UNL     1       0.050 -15.738   5.236  1.00  0.00     0.200 A 
ATOM     71  F   UNL     1      -2.054 -15.809   4.169  1.00  0.00    -0.200 F 
ATOM     72  F   UNL     1       0.432 -16.848   4.590  1.00  0.00    -0.200 F 
ENDBRANCH  48  62
BRANCH  49  73
ATOM     73  C   UNL     1      -3.698  -4.957  11.037  1.00  0.00     0.064 A 
ATOM     74  C   UNL     1      -3.589  -4.756  12.420  1.00  0.00     0.173 A 
ATOM     75  C   UNL     1      -4.271  -3.929  10.273  1.00  0.00     0.173 A 
ATOM     76  F   UNL     1      -3.067  -5.717  13.197  1.00  0.00    -0.203 F 
ATOM     77  C   UNL     1      -4.051  -3.584  13.017  1.00  0.00     0.198 A 
ATOM     78  C   UNL     1      -4.703  -2.745  10.866  1.00  0.00     0.198 A 
ATOM     79  F   UNL     1      -4.396  -4.068   8.945  1.00  0.00    -0.203 F 
ATOM     80  F   UNL     1      -3.976  -3.438  14.346  1.00  0.00    -0.200 F 
ATOM     81  C   UNL     1      -4.601  -2.577  12.239  1.00  0.00     0.200 A 
ATOM     82  F   UNL     1      -5.217  -1.767  10.108  1.00  0.00    -0.200 F 
ATOM     83  F   UNL     1      -5.038  -1.448  12.812  1.00  0.00    -0.200 F 
ENDBRANCH  49  73
BRANCH  61  84
ATOM     84  C   UNL     1      -5.832 -11.590  11.349  1.00  0.00     0.064 A 
ATOM     85  C   UNL     1      -7.176 -11.401  10.997  1.00  0.00     0.173 A 
ATOM     86  C   UNL     1      -5.545 -12.484  12.392  1.00  0.00     0.173 A 
ATOM     87  F   UNL     1      -7.504 -10.544  10.019  1.00  0.00    -0.203 F 
ATOM     88  C   UNL     1      -8.193 -12.070  11.673  1.00  0.00     0.198 A 
ATOM     89  C   UNL     1      -6.562 -13.175  13.044  1.00  0.00     0.198 A 
ATOM     90  F   UNL     1      -4.275 -12.704  12.764  1.00  0.00    -0.203 F 
ATOM     91  F   UNL     1      -9.473 -11.842  11.348  1.00  0.00    -0.200 F 
ATOM     92  C   UNL     1      -7.885 -12.964  12.688  1.00  0.00     0.200 A 
ATOM     93  F   UNL     1      -6.261 -14.051  14.013  1.00  0.00    -0.200 F 
ATOM     94  F   UNL     1      -8.865 -13.618  13.326  1.00  0.00    -0.200 F 
ENDBRANCH  61  84
ENDBRANCH  35  36
ENDBRANCH  27  30
ENDBRANCH  25  26
ENDBRANCH   1  25
TORSDOF 13
