REMARK SMILES O=C(CC1(NC(=O)c2ccc3cc[nH]c3c2)CCC1)NCCCNC(=O)c1ccc(-c2c3nc(c(-c4c(F)c(F)c(F)c(F)c4F)c4ccc([nH]4)c(-c4c(F)c(F)c(F)c(F)c4F)c4nc(c(-c5c(F)c(F)c(F)c(F)c5F)c5ccc2[nH]5)C=C4)C=C3)cc1
REMARK SMILES IDX 21 1 20 2 1 3 2 4 3 6 4 7 17 8 19 9 18 10 5 11 6 12 7 14
REMARK SMILES IDX 8 15 9 16 16 17 10 18 15 19 11 20 14 21 12 22 13 23 22 25
REMARK SMILES IDX 23 26 24 27 25 28 26 30 27 31 28 32 89 33 29 34 88 35 30 36
REMARK SMILES IDX 31 37 32 38 82 39 33 40 87 41 81 42 83 43 34 44 86 45 80 46
REMARK SMILES IDX 79 47 35 49 67 50 47 51 66 52 48 53 51 54 65 55 84 56 49 57
REMARK SMILES IDX 50 58 64 60 85 61 52 62 36 63 37 64 45 65 38 66 39 67 43 68
REMARK SMILES IDX 46 69 40 70 41 71 44 72 42 73 68 74 69 75 77 76 70 77 71 78
REMARK SMILES IDX 75 79 78 80 72 81 73 82 76 83 74 84 53 85 54 86 62 87 55 88
REMARK SMILES IDX 56 89 60 90 63 91 57 92 58 93 61 94 59 95
REMARK H PARENT 20 5 5 13 14 24 24 29 83 48 51 59
REMARK Flexibility Score: inf
ROOT
ATOM      1  C   UNL     1       2.148   0.681   2.870  1.00  0.00     0.117 C 
ENDROOT
BRANCH   1   2
ATOM      2  N   UNL     1       2.937   0.535   1.669  1.00  0.00    -0.356 N 
ATOM      3  O   UNL     1       1.258   0.949   0.163  1.00  0.00    -0.275 OA
ATOM      4  C   UNL     1       2.388   0.548   0.415  1.00  0.00     0.222 C 
ATOM      5  H   UNL     1       3.911   0.420   1.756  1.00  0.00     0.163 HD
BRANCH   4   6
ATOM      6  C   UNL     1       3.301  -0.054  -0.622  1.00  0.00     0.128 C 
BRANCH   6   7
ATOM      7  C   UNL     1       3.941   0.914  -1.610  1.00  0.00     0.049 C 
ATOM      8  C   UNL     1       3.621   2.447  -1.551  1.00  0.00     0.029 C 
ATOM      9  C   UNL     1       5.362   1.266  -1.043  1.00  0.00     0.029 C 
ATOM     10  C   UNL     1       5.087   2.755  -1.222  1.00  0.00     0.005 C 
BRANCH   7  11
ATOM     11  N   UNL     1       4.063   0.449  -3.035  1.00  0.00    -0.346 N 
ATOM     12  C   UNL     1       3.428  -0.481  -3.836  1.00  0.00     0.251 C 
ATOM     13  H   UNL     1       4.774   0.927  -3.519  1.00  0.00     0.164 HD
ATOM     14  O   UNL     1       3.799  -0.625  -4.999  1.00  0.00    -0.269 OA
BRANCH  12  15
ATOM     15  C   UNL     1       2.383  -1.374  -3.317  1.00  0.00     0.041 A 
ATOM     16  C   UNL     1       1.143  -0.874  -2.914  1.00  0.00     0.014 A 
ATOM     17  C   UNL     1       2.732  -2.723  -3.136  1.00  0.00     0.040 A 
ATOM     18  C   UNL     1       0.274  -1.690  -2.174  1.00  0.00     0.011 A 
ATOM     19  C   UNL     1       1.849  -3.512  -2.389  1.00  0.00     0.046 A 
ATOM     20  C   UNL     1       0.654  -3.014  -1.867  1.00  0.00    -0.001 A 
ATOM     21  N   UNL     1       1.950  -4.827  -1.993  1.00  0.00    -0.361 N 
ATOM     22  C   UNL     1       0.095  -4.045  -1.061  1.00  0.00     0.028 A 
ATOM     23  C   UNL     1       0.919  -5.144  -1.149  1.00  0.00     0.083 A 
ATOM     24  H   UNL     1       2.660  -5.448  -2.274  1.00  0.00     0.166 HD
ENDBRANCH  12  15
ENDBRANCH   7  11
ENDBRANCH   6   7
ENDBRANCH   4   6
ENDBRANCH   1   2
BRANCH   1  25
ATOM     25  C   UNL     1       2.444  -0.462   3.836  1.00  0.00     0.042 C 
BRANCH  25  26
ATOM     26  C   UNL     1       3.928  -0.654   4.137  1.00  0.00     0.118 C 
BRANCH  26  27
ATOM     27  N   UNL     1       4.585   0.576   4.556  1.00  0.00    -0.352 N 
ATOM     28  C   UNL     1       5.398   0.804   5.637  1.00  0.00     0.251 C 
ATOM     29  H   UNL     1       4.422   1.357   3.979  1.00  0.00     0.163 HD
ATOM     30  O   UNL     1       5.719   1.944   5.938  1.00  0.00    -0.269 OA
BRANCH  28  31
ATOM     31  C   UNL     1       5.860  -0.338   6.448  1.00  0.00     0.039 A 
ATOM     32  C   UNL     1       5.794  -0.239   7.838  1.00  0.00     0.014 A 
ATOM     33  C   UNL     1       6.342  -1.501   5.840  1.00  0.00     0.014 A 
ATOM     34  C   UNL     1       6.163  -1.333   8.619  1.00  0.00     0.010 A 
ATOM     35  C   UNL     1       6.625  -2.619   6.617  1.00  0.00     0.010 A 
ATOM     36  C   UNL     1       6.547  -2.543   8.014  1.00  0.00    -0.014 A 
BRANCH  36  37
ATOM     37  C   UNL     1       6.853  -3.732   8.848  1.00  0.00     0.031 A 
ATOM     38  C   UNL     1       8.231  -4.331   8.852  1.00  0.00     0.074 A 
ATOM     39  C   UNL     1       5.872  -4.282   9.589  1.00  0.00     0.049 A 
ATOM     40  N   UNL     1       8.693  -5.336   9.553  1.00  0.00    -0.248 NA
ATOM     41  C   UNL     1       9.215  -3.745   7.928  1.00  0.00     0.031 C 
ATOM     42  C   UNL     1       4.478  -3.834   9.610  1.00  0.00     0.029 A 
ATOM     43  N   UNL     1       5.896  -5.331  10.473  1.00  0.00    -0.354 N 
ATOM     44  C   UNL     1      10.013  -5.500   9.155  1.00  0.00     0.074 A 
ATOM     45  C   UNL     1      10.259  -4.541   8.102  1.00  0.00     0.031 C 
ATOM     46  C   UNL     1       3.793  -4.569  10.500  1.00  0.00     0.029 A 
ATOM     47  C   UNL     1       4.688  -5.561  11.085  1.00  0.00     0.049 A 
ATOM     48  H   UNL     1       6.702  -5.867  10.651  1.00  0.00     0.167 HD
ATOM     49  C   UNL     1      10.943  -6.354   9.645  1.00  0.00     0.037 A 
ATOM     50  C   UNL     1       4.346  -6.465  12.021  1.00  0.00     0.037 A 
ATOM     51  C   UNL     1      10.692  -7.300  10.702  1.00  0.00     0.049 A 
ATOM     52  C   UNL     1       5.402  -7.393  12.556  1.00  0.00     0.074 A 
ATOM     53  C   UNL     1      11.578  -8.175  11.307  1.00  0.00     0.029 A 
ATOM     54  N   UNL     1       9.459  -7.500  11.306  1.00  0.00    -0.354 N 
ATOM     55  N   UNL     1       6.670  -7.482  12.235  1.00  0.00    -0.248 NA
ATOM     56  C   UNL     1       4.980  -8.336  13.600  1.00  0.00     0.031 C 
ATOM     57  C   UNL     1      10.868  -8.943  12.237  1.00  0.00     0.029 A 
ATOM     58  C   UNL     1       9.555  -8.501  12.261  1.00  0.00     0.049 A 
ATOM     59  H   UNL     1       8.636  -7.005  11.088  1.00  0.00     0.167 HD
ATOM     60  C   UNL     1       7.205  -8.466  13.055  1.00  0.00     0.074 A 
ATOM     61  C   UNL     1       6.126  -8.924  13.907  1.00  0.00     0.031 C 
ATOM     62  C   UNL     1       8.472  -8.949  13.100  1.00  0.00     0.037 A 
BRANCH  49  63
ATOM     63  C   UNL     1      12.320  -6.300   9.045  1.00  0.00     0.064 A 
ATOM     64  C   UNL     1      13.161  -5.190   9.224  1.00  0.00     0.173 A 
ATOM     65  C   UNL     1      12.821  -7.385   8.310  1.00  0.00     0.173 A 
ATOM     66  F   UNL     1      12.729  -4.119   9.907  1.00  0.00    -0.203 F 
ATOM     67  C   UNL     1      14.436  -5.155   8.664  1.00  0.00     0.198 A 
ATOM     68  C   UNL     1      14.109  -7.362   7.780  1.00  0.00     0.198 A 
ATOM     69  F   UNL     1      12.063  -8.474   8.109  1.00  0.00    -0.203 F 
ATOM     70  F   UNL     1      15.197  -4.061   8.802  1.00  0.00    -0.200 F 
ATOM     71  C   UNL     1      14.912  -6.244   7.950  1.00  0.00     0.200 A 
ATOM     72  F   UNL     1      14.573  -8.421   7.103  1.00  0.00    -0.200 F 
ATOM     73  F   UNL     1      16.142  -6.213   7.419  1.00  0.00    -0.200 F 
ENDBRANCH  49  63
BRANCH  50  74
ATOM     74  C   UNL     1       2.954  -6.508  12.541  1.00  0.00     0.064 A 
ATOM     75  C   UNL     1       2.664  -6.146  13.865  1.00  0.00     0.173 A 
ATOM     76  C   UNL     1       1.886  -6.919  11.731  1.00  0.00     0.173 A 
ATOM     77  F   UNL     1       3.654  -5.761  14.685  1.00  0.00    -0.203 F 
ATOM     78  C   UNL     1       1.367  -6.222  14.366  1.00  0.00     0.198 A 
ATOM     79  C   UNL     1       0.583  -6.962  12.223  1.00  0.00     0.198 A 
ATOM     80  F   UNL     1       2.106  -7.267  10.454  1.00  0.00    -0.203 F 
ATOM     81  F   UNL     1       1.128  -5.924  15.650  1.00  0.00    -0.200 F 
ATOM     82  C   UNL     1       0.326  -6.625  13.543  1.00  0.00     0.200 A 
ATOM     83  F   UNL     1      -0.422  -7.334  11.418  1.00  0.00    -0.200 F 
ATOM     84  F   UNL     1      -0.923  -6.695  14.023  1.00  0.00    -0.200 F 
ENDBRANCH  50  74
BRANCH  62  85
ATOM     85  C   UNL     1       8.763 -10.002  14.133  1.00  0.00     0.064 A 
ATOM     86  C   UNL     1       8.209 -11.289  14.056  1.00  0.00     0.173 A 
ATOM     87  C   UNL     1       9.604  -9.715  15.219  1.00  0.00     0.173 A 
ATOM     88  F   UNL     1       7.388 -11.613  13.045  1.00  0.00    -0.203 F 
ATOM     89  C   UNL     1       8.444 -12.230  15.055  1.00  0.00     0.198 A 
ATOM     90  C   UNL     1       9.869 -10.672  16.194  1.00  0.00     0.198 A 
ATOM     91  F   UNL     1      10.171  -8.504  15.335  1.00  0.00    -0.203 F 
ATOM     92  F   UNL     1       7.840 -13.426  15.001  1.00  0.00    -0.200 F 
ATOM     93  C   UNL     1       9.277 -11.923  16.120  1.00  0.00     0.200 A 
ATOM     94  F   UNL     1      10.689 -10.378  17.213  1.00  0.00    -0.200 F 
ATOM     95  F   UNL     1       9.497 -12.828  17.084  1.00  0.00    -0.200 F 
ENDBRANCH  62  85
ENDBRANCH  36  37
ENDBRANCH  28  31
ENDBRANCH  26  27
ENDBRANCH  25  26
ENDBRANCH   1  25
TORSDOF 13
