REMARK SMILES CC(C)C[C@H](NS(=O)(=O)N1C[C@@H](C)C[C@H](C)C1)C(=O)NCCCNC(=O)c1ccc(-c2c3nc(c(-c4c(F)c(F)c(F)c(F)c4F)c4ccc([nH]4)c(-c4c(F)c(F)c(F)c(F)c4F)c4nc(c(-c5c(F)c(F)c(F)c(F)c5F)c5ccc2[nH]5)C=C4)C=C3)cc1
REMARK SMILES IDX 21 1 20 2 18 3 19 4 5 6 4 7 2 8 1 9 3 10 6 11 7 13 8 14 9 15
REMARK SMILES IDX 10 16 11 17 17 18 12 19 15 20 13 21 14 22 16 23 22 24 23 25
REMARK SMILES IDX 24 26 25 27 26 29 27 30 28 31 89 32 29 33 88 34 30 35 31 36
REMARK SMILES IDX 32 37 82 38 33 39 87 40 81 41 83 42 34 43 86 44 80 45 79 46
REMARK SMILES IDX 35 48 67 49 47 50 66 51 48 52 51 53 65 54 84 55 49 56 50 57
REMARK SMILES IDX 64 59 85 60 52 61 36 62 37 63 45 64 38 65 39 66 43 67 46 68
REMARK SMILES IDX 40 69 41 70 44 71 42 72 68 73 69 74 77 75 70 76 71 77 75 78
REMARK SMILES IDX 78 79 72 80 73 81 76 82 74 83 53 84 54 85 62 86 55 87 56 88
REMARK SMILES IDX 60 89 63 90 57 91 58 92 61 93 59 94
REMARK H PARENT 20 5 6 12 24 28 83 47 51 58
REMARK Flexibility Score: inf
ROOT
ATOM      1  C   UNL     1      -3.065  -3.294   0.757  1.00  0.00     0.117 C 
ENDROOT
BRANCH   1   2
ATOM      2  N   UNL     1      -3.578  -2.103   0.091  1.00  0.00    -0.355 N 
ATOM      3  C   UNL     1      -2.967  -1.315  -0.857  1.00  0.00     0.238 C 
ATOM      4  O   UNL     1      -3.682  -0.547  -1.507  1.00  0.00    -0.273 OA
ATOM      5  H   UNL     1      -4.485  -1.826   0.354  1.00  0.00     0.163 HD
BRANCH   3   6
ATOM      6  C   UNL     1      -1.434  -1.350  -1.061  1.00  0.00     0.160 C 
BRANCH   6   7
ATOM      7  C   UNL     1      -0.930  -2.431  -2.045  1.00  0.00     0.033 C 
BRANCH   7   8
ATOM      8  C   UNL     1      -1.424  -3.893  -1.936  1.00  0.00    -0.015 C 
ATOM      9  C   UNL     1      -2.804  -4.110  -2.573  1.00  0.00     0.007 C 
ATOM     10  C   UNL     1      -0.445  -4.868  -2.603  1.00  0.00     0.007 C 
ENDBRANCH   7   8
ENDBRANCH   6   7
BRANCH   6  11
ATOM     11  N   UNL     1      -0.874  -1.371   0.300  1.00  0.00    -0.190 NA
ATOM     12  H   UNL     1      -1.115  -2.291   0.670  1.00  0.00     0.143 HD
BRANCH  11  13
ATOM     13  S   UNL     1       0.696  -1.143   0.726  1.00  0.00     0.280 S 
ATOM     14  O   UNL     1       0.658  -1.272   2.166  1.00  0.00    -0.195 OA
ATOM     15  O   UNL     1       1.529  -1.976  -0.097  1.00  0.00    -0.195 OA
BRANCH  13  16
ATOM     16  N   UNL     1       0.913   0.479   0.332  1.00  0.00    -0.188 NA
ATOM     17  C   UNL     1       1.215   1.439   1.427  1.00  0.00     0.106 C 
ATOM     18  C   UNL     1       1.672   0.795  -0.904  1.00  0.00     0.106 C 
ATOM     19  C   UNL     1       2.715   1.497   1.769  1.00  0.00     0.001 C 
ATOM     20  C   UNL     1       3.181   0.720  -0.628  1.00  0.00     0.001 C 
ATOM     21  C   UNL     1       3.196   0.303   2.595  1.00  0.00     0.009 C 
ATOM     22  C   UNL     1       3.572   1.681   0.506  1.00  0.00     0.009 C 
ATOM     23  C   UNL     1       3.994   1.018  -1.887  1.00  0.00     0.009 C 
ENDBRANCH  13  16
ENDBRANCH  11  13
ENDBRANCH   6  11
ENDBRANCH   3   6
ENDBRANCH   1   2
BRANCH   1  24
ATOM     24  C   UNL     1      -3.591  -3.506   2.158  1.00  0.00     0.042 C 
BRANCH  24  25
ATOM     25  C   UNL     1      -5.074  -3.819   2.197  1.00  0.00     0.118 C 
BRANCH  25  26
ATOM     26  N   UNL     1      -5.429  -5.058   1.507  1.00  0.00    -0.352 N 
ATOM     27  C   UNL     1      -5.981  -6.220   1.994  1.00  0.00     0.251 C 
ATOM     28  H   UNL     1      -5.245  -5.060   0.540  1.00  0.00     0.163 HD
ATOM     29  O   UNL     1      -6.075  -7.208   1.274  1.00  0.00    -0.269 OA
BRANCH  27  30
ATOM     30  C   UNL     1      -6.426  -6.284   3.400  1.00  0.00     0.039 A 
ATOM     31  C   UNL     1      -6.128  -7.414   4.163  1.00  0.00     0.014 A 
ATOM     32  C   UNL     1      -7.091  -5.203   3.978  1.00  0.00     0.014 A 
ATOM     33  C   UNL     1      -6.410  -7.412   5.530  1.00  0.00     0.010 A 
ATOM     34  C   UNL     1      -7.239  -5.146   5.354  1.00  0.00     0.010 A 
ATOM     35  C   UNL     1      -6.913  -6.255   6.147  1.00  0.00    -0.014 A 
BRANCH  35  36
ATOM     36  C   UNL     1      -7.124  -6.180   7.615  1.00  0.00     0.031 A 
ATOM     37  C   UNL     1      -8.495  -5.885   8.159  1.00  0.00     0.074 A 
ATOM     38  C   UNL     1      -6.073  -6.301   8.450  1.00  0.00     0.049 A 
ATOM     39  N   UNL     1      -8.873  -5.700   9.399  1.00  0.00    -0.248 NA
ATOM     40  C   UNL     1      -9.583  -5.739   7.178  1.00  0.00     0.031 C 
ATOM     41  C   UNL     1      -4.685  -6.525   8.040  1.00  0.00     0.029 A 
ATOM     42  N   UNL     1      -6.008  -6.245   9.819  1.00  0.00    -0.354 N 
ATOM     43  C   UNL     1     -10.228  -5.402   9.339  1.00  0.00     0.074 A 
ATOM     44  C   UNL     1     -10.592  -5.352   7.942  1.00  0.00     0.031 C 
ATOM     45  C   UNL     1      -3.913  -6.625   9.133  1.00  0.00     0.029 A 
ATOM     46  C   UNL     1      -4.740  -6.424  10.319  1.00  0.00     0.049 A 
ATOM     47  H   UNL     1      -6.795  -6.091  10.390  1.00  0.00     0.167 HD
ATOM     48  C   UNL     1     -11.099  -5.220  10.359  1.00  0.00     0.037 A 
ATOM     49  C   UNL     1      -4.295  -6.419  11.590  1.00  0.00     0.037 A 
ATOM     50  C   UNL     1     -10.736  -5.298  11.748  1.00  0.00     0.049 A 
ATOM     51  C   UNL     1      -5.283  -6.202  12.706  1.00  0.00     0.074 A 
ATOM     52  C   UNL     1     -11.551  -5.191  12.860  1.00  0.00     0.029 A 
ATOM     53  N   UNL     1      -9.444  -5.497  12.215  1.00  0.00    -0.354 N 
ATOM     54  N   UNL     1      -6.577  -6.000  12.640  1.00  0.00    -0.248 NA
ATOM     55  C   UNL     1      -4.748  -6.219  14.074  1.00  0.00     0.031 C 
ATOM     56  C   UNL     1     -10.745  -5.263  14.000  1.00  0.00     0.029 A 
ATOM     57  C   UNL     1      -9.437  -5.486  13.601  1.00  0.00     0.049 A 
ATOM     58  H   UNL     1      -8.651  -5.627  11.647  1.00  0.00     0.167 HD
ATOM     59  C   UNL     1      -7.015  -5.900  13.954  1.00  0.00     0.074 A 
ATOM     60  C   UNL     1      -5.851  -6.081  14.796  1.00  0.00     0.031 C 
ATOM     61  C   UNL     1      -8.268  -5.678  14.423  1.00  0.00     0.037 A 
BRANCH  48  62
ATOM     62  C   UNL     1     -12.530  -4.925  10.007  1.00  0.00     0.064 A 
ATOM     63  C   UNL     1     -13.352  -5.880   9.387  1.00  0.00     0.173 A 
ATOM     64  C   UNL     1     -13.097  -3.680  10.319  1.00  0.00     0.173 A 
ATOM     65  F   UNL     1     -12.858  -7.082   9.054  1.00  0.00    -0.203 F 
ATOM     66  C   UNL     1     -14.674  -5.588   9.062  1.00  0.00     0.198 A 
ATOM     67  C   UNL     1     -14.430  -3.405  10.027  1.00  0.00     0.198 A 
ATOM     68  F   UNL     1     -12.360  -2.731  10.915  1.00  0.00    -0.203 F 
ATOM     69  F   UNL     1     -15.419  -6.495   8.415  1.00  0.00    -0.200 F 
ATOM     70  C   UNL     1     -15.214  -4.354   9.390  1.00  0.00     0.200 A 
ATOM     71  F   UNL     1     -14.956  -2.217  10.359  1.00  0.00    -0.200 F 
ATOM     72  F   UNL     1     -16.489  -4.078   9.085  1.00  0.00    -0.200 F 
ENDBRANCH  48  62
BRANCH  49  73
ATOM     73  C   UNL     1      -2.854  -6.648  11.879  1.00  0.00     0.064 A 
ATOM     74  C   UNL     1      -2.427  -7.807  12.543  1.00  0.00     0.173 A 
ATOM     75  C   UNL     1      -1.876  -5.711  11.513  1.00  0.00     0.173 A 
ATOM     76  F   UNL     1      -3.325  -8.724  12.932  1.00  0.00    -0.203 F 
ATOM     77  C   UNL     1      -1.084  -8.006  12.855  1.00  0.00     0.198 A 
ATOM     78  C   UNL     1      -0.529  -5.928  11.794  1.00  0.00     0.198 A 
ATOM     79  F   UNL     1      -2.228  -4.588  10.870  1.00  0.00    -0.203 F 
ATOM     80  F   UNL     1      -0.712  -9.096  13.541  1.00  0.00    -0.200 F 
ATOM     81  C   UNL     1      -0.135  -7.070  12.475  1.00  0.00     0.200 A 
ATOM     82  F   UNL     1       0.387  -5.028  11.410  1.00  0.00    -0.200 F 
ATOM     83  F   UNL     1       1.157  -7.263  12.774  1.00  0.00    -0.200 F 
ENDBRANCH  49  73
BRANCH  61  84
ATOM     84  C   UNL     1      -8.456  -5.663  15.913  1.00  0.00     0.064 A 
ATOM     85  C   UNL     1      -7.949  -4.629  16.714  1.00  0.00     0.173 A 
ATOM     86  C   UNL     1      -9.190  -6.681  16.543  1.00  0.00     0.173 A 
ATOM     87  F   UNL     1      -7.230  -3.639  16.164  1.00  0.00    -0.203 F 
ATOM     88  C   UNL     1      -8.143  -4.631  18.093  1.00  0.00     0.198 A 
ATOM     89  C   UNL     1      -9.415  -6.660  17.916  1.00  0.00     0.198 A 
ATOM     90  F   UNL     1      -9.705  -7.689  15.823  1.00  0.00    -0.203 F 
ATOM     91  F   UNL     1      -7.602  -3.663  18.845  1.00  0.00    -0.200 F 
ATOM     92  C   UNL     1      -8.883  -5.641  18.691  1.00  0.00     0.200 A 
ATOM     93  F   UNL     1     -10.146  -7.625  18.488  1.00  0.00    -0.200 F 
ATOM     94  F   UNL     1      -9.077  -5.635  20.017  1.00  0.00    -0.200 F 
ENDBRANCH  61  84
ENDBRANCH  35  36
ENDBRANCH  27  30
ENDBRANCH  25  26
ENDBRANCH  24  25
ENDBRANCH   1  24
TORSDOF 15
