REMARK SMILES O=C(NCCCNC(=O)[C@@H]1C[C@H]1C(=O)N[C@@H]1CONC1=O)c1ccc(-c2c3nc(c(-c4c(F)c(F)c(F)c(F)c4F)c4ccc([nH]4)c(-c4c(F)c(F)c(F)c(F)c4F)c4nc(c(-c5c(F)c(F)c(F)c(F)c5F)c5ccc2[nH]5)C=C4)C=C3)cc1
REMARK SMILES IDX 5 1 4 2 3 3 1 4 2 5 22 7 23 8 84 9 24 10 83 11 25 12 26 13
REMARK SMILES IDX 27 14 77 15 28 16 82 17 76 18 78 19 29 20 81 21 75 22 74 23
REMARK SMILES IDX 30 25 62 26 42 27 61 28 43 29 46 30 60 31 79 32 44 33 45 34
REMARK SMILES IDX 59 36 80 37 47 38 31 39 32 40 40 41 33 42 34 43 38 44 41 45
REMARK SMILES IDX 35 46 36 47 39 48 37 49 63 50 64 51 72 52 65 53 66 54 70 55
REMARK SMILES IDX 73 56 67 57 68 58 71 59 69 60 48 61 49 62 57 63 50 64 51 65
REMARK SMILES IDX 55 66 58 67 52 68 53 69 56 70 54 71 6 72 7 73 8 74 9 76
REMARK SMILES IDX 10 77 11 78 12 79 13 80 14 81 15 82 16 84 17 85 20 86 18 87
REMARK SMILES IDX 19 88 21 89
REMARK H PARENT 3 6 78 24 46 35 7 75 15 83 19 90
REMARK Flexibility Score: inf
ROOT
ATOM      1  C   UNL     1       4.629   0.326   2.498  1.00  0.00     0.042 C 
ENDROOT
BRANCH   1   2
ATOM      2  C   UNL     1       4.443  -0.503   1.232  1.00  0.00     0.118 C 
BRANCH   2   3
ATOM      3  N   UNL     1       3.038  -0.647   0.884  1.00  0.00    -0.352 N 
ATOM      4  O   UNL     1       1.118  -0.142  -0.172  1.00  0.00    -0.269 OA
ATOM      5  C   UNL     1       2.345  -0.145  -0.187  1.00  0.00     0.251 C 
ATOM      6  H   UNL     1       2.504  -1.186   1.512  1.00  0.00     0.163 HD
BRANCH   5   7
ATOM      7  C   UNL     1       3.070   0.389  -1.359  1.00  0.00     0.039 A 
ATOM      8  C   UNL     1       4.196  -0.268  -1.864  1.00  0.00     0.014 A 
ATOM      9  C   UNL     1       2.573   1.526  -2.002  1.00  0.00     0.014 A 
ATOM     10  C   UNL     1       4.890   0.273  -2.939  1.00  0.00     0.010 A 
ATOM     11  C   UNL     1       3.222   2.019  -3.135  1.00  0.00     0.010 A 
ATOM     12  C   UNL     1       4.394   1.404  -3.603  1.00  0.00    -0.014 A 
BRANCH  12  13
ATOM     13  C   UNL     1       5.062   1.885  -4.835  1.00  0.00     0.031 A 
ATOM     14  C   UNL     1       5.705   3.238  -4.886  1.00  0.00     0.074 A 
ATOM     15  C   UNL     1       5.059   1.090  -5.922  1.00  0.00     0.049 A 
ATOM     16  N   UNL     1       6.284   3.840  -5.895  1.00  0.00    -0.248 NA
ATOM     17  C   UNL     1       5.685   4.026  -3.646  1.00  0.00     0.031 C 
ATOM     18  C   UNL     1       4.446  -0.238  -5.988  1.00  0.00     0.029 A 
ATOM     19  N   UNL     1       5.575   1.282  -7.178  1.00  0.00    -0.354 N 
ATOM     20  C   UNL     1       6.679   5.082  -5.418  1.00  0.00     0.074 A 
ATOM     21  C   UNL     1       6.247   5.160  -4.039  1.00  0.00     0.031 C 
ATOM     22  C   UNL     1       4.632  -0.747  -7.214  1.00  0.00     0.029 A 
ATOM     23  C   UNL     1       5.316   0.244  -8.037  1.00  0.00     0.049 A 
ATOM     24  H   UNL     1       6.081   2.086  -7.437  1.00  0.00     0.167 HD
ATOM     25  C   UNL     1       7.347   6.061  -6.076  1.00  0.00     0.037 A 
ATOM     26  C   UNL     1       5.567   0.116  -9.353  1.00  0.00     0.037 A 
ATOM     27  C   UNL     1       7.770   5.964  -7.451  1.00  0.00     0.049 A 
ATOM     28  C   UNL     1       6.276   1.228 -10.069  1.00  0.00     0.074 A 
ATOM     29  C   UNL     1       8.498   6.876  -8.195  1.00  0.00     0.029 A 
ATOM     30  N   UNL     1       7.487   4.897  -8.293  1.00  0.00    -0.354 N 
ATOM     31  N   UNL     1       6.696   2.376  -9.597  1.00  0.00    -0.248 NA
ATOM     32  C   UNL     1       6.548   1.028 -11.498  1.00  0.00     0.031 C 
ATOM     33  C   UNL     1       8.596   6.392  -9.504  1.00  0.00     0.029 A 
ATOM     34  C   UNL     1       7.992   5.146  -9.560  1.00  0.00     0.049 A 
ATOM     35  H   UNL     1       7.000   4.083  -8.029  1.00  0.00     0.167 HD
ATOM     36  C   UNL     1       7.299   3.030 -10.662  1.00  0.00     0.074 A 
ATOM     37  C   UNL     1       7.200   2.142 -11.804  1.00  0.00     0.031 C 
ATOM     38  C   UNL     1       7.883   4.253 -10.688  1.00  0.00     0.037 A 
BRANCH  25  39
ATOM     39  C   UNL     1       7.625   7.335  -5.329  1.00  0.00     0.064 A 
ATOM     40  C   UNL     1       8.519   7.385  -4.249  1.00  0.00     0.173 A 
ATOM     41  C   UNL     1       6.994   8.531  -5.709  1.00  0.00     0.173 A 
ATOM     42  F   UNL     1       9.144   6.271  -3.836  1.00  0.00    -0.203 F 
ATOM     43  C   UNL     1       8.739   8.572  -3.552  1.00  0.00     0.198 A 
ATOM     44  C   UNL     1       7.243   9.722  -5.033  1.00  0.00     0.198 A 
ATOM     45  F   UNL     1       6.136   8.545  -6.740  1.00  0.00    -0.203 F 
ATOM     46  F   UNL     1       9.548   8.579  -2.483  1.00  0.00    -0.200 F 
ATOM     47  C   UNL     1       8.105   9.740  -3.947  1.00  0.00     0.200 A 
ATOM     48  F   UNL     1       6.641  10.853  -5.427  1.00  0.00    -0.200 F 
ATOM     49  F   UNL     1       8.316  10.880  -3.275  1.00  0.00    -0.200 F 
ENDBRANCH  25  39
BRANCH  26  50
ATOM     50  C   UNL     1       5.118  -1.111 -10.059  1.00  0.00     0.064 A 
ATOM     51  C   UNL     1       6.037  -2.062 -10.519  1.00  0.00     0.173 A 
ATOM     52  C   UNL     1       3.752  -1.379 -10.241  1.00  0.00     0.173 A 
ATOM     53  F   UNL     1       7.353  -1.843 -10.382  1.00  0.00    -0.203 F 
ATOM     54  C   UNL     1       5.607  -3.234 -11.139  1.00  0.00     0.198 A 
ATOM     55  C   UNL     1       3.324  -2.564 -10.832  1.00  0.00     0.198 A 
ATOM     56  F   UNL     1       2.832  -0.504  -9.809  1.00  0.00    -0.203 F 
ATOM     57  F   UNL     1       6.507  -4.115 -11.597  1.00  0.00    -0.200 F 
ATOM     58  C   UNL     1       4.252  -3.489 -11.286  1.00  0.00     0.200 A 
ATOM     59  F   UNL     1       2.013  -2.816 -10.951  1.00  0.00    -0.200 F 
ATOM     60  F   UNL     1       3.840  -4.625 -11.865  1.00  0.00    -0.200 F 
ENDBRANCH  26  50
BRANCH  38  61
ATOM     61  C   UNL     1       8.493   4.697 -11.986  1.00  0.00     0.064 A 
ATOM     62  C   UNL     1       7.704   5.072 -13.083  1.00  0.00     0.173 A 
ATOM     63  C   UNL     1       9.887   4.808 -12.111  1.00  0.00     0.173 A 
ATOM     64  F   UNL     1       6.368   4.968 -13.021  1.00  0.00    -0.203 F 
ATOM     65  C   UNL     1       8.288   5.528 -14.262  1.00  0.00     0.198 A 
ATOM     66  C   UNL     1      10.466   5.293 -13.279  1.00  0.00     0.198 A 
ATOM     67  F   UNL     1      10.686   4.465 -11.090  1.00  0.00    -0.203 F 
ATOM     68  F   UNL     1       7.517   5.844 -15.311  1.00  0.00    -0.200 F 
ATOM     69  C   UNL     1       9.667   5.649 -14.355  1.00  0.00     0.200 A 
ATOM     70  F   UNL     1      11.797   5.424 -13.361  1.00  0.00    -0.200 F 
ATOM     71  F   UNL     1      10.226   6.104 -15.485  1.00  0.00    -0.200 F 
ENDBRANCH  38  61
ENDBRANCH  12  13
ENDBRANCH   5   7
ENDBRANCH   2   3
ENDBRANCH   1   2
BRANCH   1  72
ATOM     72  C   UNL     1       4.094  -0.366   3.751  1.00  0.00     0.117 C 
BRANCH  72  73
ATOM     73  N   UNL     1       4.911  -1.510   4.090  1.00  0.00    -0.356 N 
ATOM     74  C   UNL     1       5.989  -1.601   4.920  1.00  0.00     0.223 C 
ATOM     75  H   UNL     1       4.648  -2.353   3.655  1.00  0.00     0.163 HD
ATOM     76  O   UNL     1       6.614  -2.654   4.975  1.00  0.00    -0.275 OA
BRANCH  74  77
ATOM     77  C   UNL     1       6.376  -0.482   5.815  1.00  0.00     0.091 C 
ATOM     78  C   UNL     1       6.367   0.998   5.494  1.00  0.00     0.028 C 
ATOM     79  C   UNL     1       7.662   0.246   5.484  1.00  0.00     0.091 C 
BRANCH  79  80
ATOM     80  C   UNL     1       8.777   0.541   6.412  1.00  0.00     0.224 C 
ATOM     81  O   UNL     1       9.914   0.568   5.947  1.00  0.00    -0.275 OA
ATOM     82  N   UNL     1       8.634   0.861   7.730  1.00  0.00    -0.342 N 
ATOM     83  H   UNL     1       9.468   1.168   8.152  1.00  0.00     0.164 HD
BRANCH  82  84
ATOM     84  C   UNL     1       7.500   0.838   8.637  1.00  0.00     0.202 C 
ATOM     85  C   UNL     1       7.465   2.008   9.608  1.00  0.00     0.228 C 
ATOM     86  C   UNL     1       7.538  -0.306   9.622  1.00  0.00     0.268 C 
ATOM     87  O   UNL     1       6.728   1.542  10.748  1.00  0.00    -0.271 OA
ATOM     88  N   UNL     1       6.972   0.150  10.787  1.00  0.00    -0.233 N 
ATOM     89  O   UNL     1       7.927  -1.444   9.416  1.00  0.00    -0.270 OA
ATOM     90  H   UNL     1       6.761  -0.424  11.558  1.00  0.00     0.199 HD
ENDBRANCH  82  84
ENDBRANCH  79  80
ENDBRANCH  74  77
ENDBRANCH  72  73
ENDBRANCH   1  72
TORSDOF 12
