REMARK SMILES Nc1ccc(-c2cc3ccccc3s2)c(C(=O)NCCCNC(=O)c2ccc(-c3c4nc(c(-c5c(F)c(F)c(F)c(F)c5F)c5ccc([nH]5)c(-c5c(F)c(F)c(F)c(F)c5F)c5nc(c(-c6c(F)c(F)c(F)c(F)c6F)c6ccc3[nH]6)C=C5)C=C4)cc2)n1
REMARK SMILES IDX 20 1 19 2 18 3 16 4 17 5 15 7 2 8 3 9 88 10 4 11 5 12 1 13
REMARK SMILES IDX 6 16 7 17 14 18 8 19 13 20 9 21 12 22 10 23 11 24 21 25
REMARK SMILES IDX 22 26 23 27 24 29 25 30 26 31 87 32 27 33 86 34 28 35 29 36
REMARK SMILES IDX 30 37 80 38 31 39 85 40 79 41 81 42 32 43 84 44 78 45 77 46
REMARK SMILES IDX 33 48 65 49 45 50 64 51 46 52 49 53 63 54 82 55 47 56 48 57
REMARK SMILES IDX 62 59 83 60 50 61 34 62 35 63 43 64 36 65 37 66 41 67 44 68
REMARK SMILES IDX 38 69 39 70 42 71 40 72 66 73 67 74 75 75 68 76 69 77 73 78
REMARK SMILES IDX 76 79 70 80 71 81 74 82 72 83 51 84 52 85 60 86 53 87 54 88
REMARK SMILES IDX 58 89 61 90 55 91 56 92 59 93 57 94
REMARK H PARENT 18 6 1 14 1 15 22 28 81 47 49 58
REMARK Flexibility Score: inf
ROOT
ATOM      1  C   UNL     1      -4.722   2.363   2.069  1.00  0.00     0.042 C 
ENDROOT
BRANCH   1   2
ATOM      2  C   UNL     1      -3.877   1.786   0.951  1.00  0.00     0.118 C 
BRANCH   2   3
ATOM      3  N   UNL     1      -2.836   2.618   0.403  1.00  0.00    -0.351 N 
ATOM      4  C   UNL     1      -1.707   2.244  -0.302  1.00  0.00     0.270 C 
ATOM      5  O   UNL     1      -1.115   3.142  -0.908  1.00  0.00    -0.267 OA
ATOM      6  H   UNL     1      -2.943   3.585   0.551  1.00  0.00     0.163 HD
BRANCH   4   7
ATOM      7  C   UNL     1      -1.111   0.854  -0.286  1.00  0.00     0.139 A 
ATOM      8  C   UNL     1       0.940  -0.217   0.053  1.00  0.00     0.124 A 
ATOM      9  C   UNL     1       0.369  -1.453  -0.169  1.00  0.00     0.047 A 
ATOM     10  N   UNL     1       0.224   0.912   0.029  1.00  0.00    -0.225 NA
ATOM     11  C   UNL     1      -0.981  -1.518  -0.505  1.00  0.00     0.016 A 
ATOM     12  C   UNL     1      -1.759  -0.352  -0.597  1.00  0.00     0.023 A 
BRANCH   8  13
ATOM     13  N   UNL     1       2.279  -0.100   0.362  1.00  0.00    -0.384 N 
ATOM     14  H   UNL     1       2.849  -0.902   0.392  1.00  0.00     0.158 HD
ATOM     15  H   UNL     1       2.665   0.785   0.553  1.00  0.00     0.158 HD
ENDBRANCH   8  13
BRANCH  12  16
ATOM     16  C   UNL     1      -3.163  -0.485  -0.997  1.00  0.00     0.038 A 
ATOM     17  C   UNL     1      -3.865   0.140  -2.008  1.00  0.00     0.029 A 
ATOM     18  S   UNL     1      -4.199  -1.534  -0.106  1.00  0.00    -0.135 S 
ATOM     19  C   UNL     1      -5.293   0.013  -1.848  1.00  0.00    -0.007 A 
ATOM     20  C   UNL     1      -5.612  -0.820  -0.773  1.00  0.00     0.035 A 
ATOM     21  C   UNL     1      -6.352   0.665  -2.521  1.00  0.00     0.009 A 
ATOM     22  C   UNL     1      -6.937  -0.988  -0.327  1.00  0.00     0.019 A 
ATOM     23  C   UNL     1      -7.668   0.518  -2.069  1.00  0.00     0.001 A 
ATOM     24  C   UNL     1      -7.954  -0.289  -0.977  1.00  0.00     0.001 A 
ENDBRANCH  12  16
ENDBRANCH   4   7
ENDBRANCH   2   3
ENDBRANCH   1   2
BRANCH   1  25
ATOM     25  C   UNL     1      -5.513   3.612   1.702  1.00  0.00     0.118 C 
BRANCH  25  26
ATOM     26  N   UNL     1      -6.508   3.442   0.645  1.00  0.00    -0.352 N 
ATOM     27  C   UNL     1      -7.873   3.269   0.649  1.00  0.00     0.251 C 
ATOM     28  H   UNL     1      -6.121   3.454  -0.260  1.00  0.00     0.163 HD
ATOM     29  O   UNL     1      -8.473   3.199  -0.424  1.00  0.00    -0.269 OA
BRANCH  27  30
ATOM     30  C   UNL     1      -8.647   3.116   1.901  1.00  0.00     0.039 A 
ATOM     31  C   UNL     1      -9.715   2.207   1.929  1.00  0.00     0.014 A 
ATOM     32  C   UNL     1      -8.376   3.875   3.034  1.00  0.00     0.014 A 
ATOM     33  C   UNL     1     -10.437   2.000   3.110  1.00  0.00     0.010 A 
ATOM     34  C   UNL     1      -9.006   3.583   4.237  1.00  0.00     0.010 A 
ATOM     35  C   UNL     1     -10.055   2.653   4.289  1.00  0.00    -0.014 A 
BRANCH  35  36
ATOM     36  C   UNL     1     -10.753   2.445   5.585  1.00  0.00     0.031 A 
ATOM     37  C   UNL     1     -11.373   3.625   6.285  1.00  0.00     0.074 A 
ATOM     38  C   UNL     1     -10.728   1.238   6.184  1.00  0.00     0.049 A 
ATOM     39  N   UNL     1     -11.836   3.721   7.506  1.00  0.00    -0.248 NA
ATOM     40  C   UNL     1     -11.431   4.884   5.524  1.00  0.00     0.031 C 
ATOM     41  C   UNL     1     -10.119   0.028   5.632  1.00  0.00     0.029 A 
ATOM     42  N   UNL     1     -11.206   0.840   7.408  1.00  0.00    -0.354 N 
ATOM     43  C   UNL     1     -12.187   5.055   7.670  1.00  0.00     0.074 A 
ATOM     44  C   UNL     1     -11.838   5.741   6.447  1.00  0.00     0.031 C 
ATOM     45  C   UNL     1     -10.273  -0.981   6.505  1.00  0.00     0.029 A 
ATOM     46  C   UNL     1     -10.948  -0.478   7.697  1.00  0.00     0.049 A 
ATOM     47  H   UNL     1     -11.689   1.441   8.020  1.00  0.00     0.167 HD
ATOM     48  C   UNL     1     -12.772   5.650   8.737  1.00  0.00     0.037 A 
ATOM     49  C   UNL     1     -11.211  -1.194   8.808  1.00  0.00     0.037 A 
ATOM     50  C   UNL     1     -13.178   4.947   9.924  1.00  0.00     0.049 A 
ATOM     51  C   UNL     1     -11.902  -0.521   9.964  1.00  0.00     0.074 A 
ATOM     52  C   UNL     1     -13.852   5.434  11.029  1.00  0.00     0.029 A 
ATOM     53  N   UNL     1     -12.955   3.596  10.152  1.00  0.00    -0.354 N 
ATOM     54  N   UNL     1     -12.275   0.730  10.091  1.00  0.00    -0.248 NA
ATOM     55  C   UNL     1     -12.213  -1.360  11.129  1.00  0.00     0.031 C 
ATOM     56  C   UNL     1     -14.007   4.386  11.942  1.00  0.00     0.029 A 
ATOM     57  C   UNL     1     -13.470   3.236  11.386  1.00  0.00     0.049 A 
ATOM     58  H   UNL     1     -12.499   2.986   9.529  1.00  0.00     0.167 HD
ATOM     59  C   UNL     1     -12.887   0.822  11.333  1.00  0.00     0.074 A 
ATOM     60  C   UNL     1     -12.849  -0.503  11.916  1.00  0.00     0.031 C 
ATOM     61  C   UNL     1     -13.431   1.906  11.939  1.00  0.00     0.037 A 
BRANCH  48  62
ATOM     62  C   UNL     1     -13.015   7.131   8.663  1.00  0.00     0.064 A 
ATOM     63  C   UNL     1     -13.961   7.682   7.784  1.00  0.00     0.173 A 
ATOM     64  C   UNL     1     -12.308   8.010   9.497  1.00  0.00     0.173 A 
ATOM     65  F   UNL     1     -14.655   6.887   6.955  1.00  0.00    -0.203 F 
ATOM     66  C   UNL     1     -14.162   9.058   7.717  1.00  0.00     0.198 A 
ATOM     67  C   UNL     1     -12.537   9.383   9.452  1.00  0.00     0.198 A 
ATOM     68  F   UNL     1     -11.396   7.538  10.361  1.00  0.00    -0.203 F 
ATOM     69  F   UNL     1     -15.027   9.563   6.827  1.00  0.00    -0.200 F 
ATOM     70  C   UNL     1     -13.456   9.907   8.555  1.00  0.00     0.200 A 
ATOM     71  F   UNL     1     -11.863  10.201  10.272  1.00  0.00    -0.200 F 
ATOM     72  F   UNL     1     -13.655  11.230   8.493  1.00  0.00    -0.200 F 
ENDBRANCH  48  62
BRANCH  49  73
ATOM     73  C   UNL     1     -10.846  -2.633   8.869  1.00  0.00     0.064 A 
ATOM     74  C   UNL     1     -11.836  -3.626   8.849  1.00  0.00     0.173 A 
ATOM     75  C   UNL     1      -9.509  -3.049   8.944  1.00  0.00     0.173 A 
ATOM     76  F   UNL     1     -13.130  -3.277   8.798  1.00  0.00    -0.203 F 
ATOM     77  C   UNL     1     -11.505  -4.977   8.921  1.00  0.00     0.198 A 
ATOM     78  C   UNL     1      -9.177  -4.403   8.988  1.00  0.00     0.198 A 
ATOM     79  F   UNL     1      -8.522  -2.141   8.960  1.00  0.00    -0.203 F 
ATOM     80  F   UNL     1     -12.475  -5.902   8.943  1.00  0.00    -0.200 F 
ATOM     81  C   UNL     1     -10.175  -5.365   8.984  1.00  0.00     0.200 A 
ATOM     82  F   UNL     1      -7.890  -4.774   9.034  1.00  0.00    -0.200 F 
ATOM     83  F   UNL     1      -9.857  -6.665   9.047  1.00  0.00    -0.200 F 
ENDBRANCH  49  73
BRANCH  61  84
ATOM     84  C   UNL     1     -14.064   1.697  13.283  1.00  0.00     0.064 A 
ATOM     85  C   UNL     1     -13.293   1.476  14.433  1.00  0.00     0.173 A 
ATOM     86  C   UNL     1     -15.458   1.771  13.427  1.00  0.00     0.173 A 
ATOM     87  F   UNL     1     -11.958   1.384  14.343  1.00  0.00    -0.203 F 
ATOM     88  C   UNL     1     -13.897   1.313  15.676  1.00  0.00     0.198 A 
ATOM     89  C   UNL     1     -16.056   1.637  14.677  1.00  0.00     0.198 A 
ATOM     90  F   UNL     1     -16.238   1.989  12.358  1.00  0.00    -0.203 F 
ATOM     91  F   UNL     1     -13.145   1.059  16.756  1.00  0.00    -0.200 F 
ATOM     92  C   UNL     1     -15.276   1.401  15.799  1.00  0.00     0.200 A 
ATOM     93  F   UNL     1     -17.387   1.737  14.795  1.00  0.00    -0.200 F 
ATOM     94  F   UNL     1     -15.854   1.254  16.998  1.00  0.00    -0.200 F 
ENDBRANCH  61  84
ENDBRANCH  35  36
ENDBRANCH  27  30
ENDBRANCH  25  26
ENDBRANCH   1  25
TORSDOF 12
