REMARK SMILES Cn1ccc(C(=O)NCc2ccc(C(=O)NCCCNC(=O)c3ccc(-c4c5nc(c(-c6c(F)c(F)c(F)c(F)c6F)c6ccc([nH]6)c(-c6c(F)c(F)c(F)c(F)c6F)c6nc(c(-c7c(F)c(F)c(F)c(F)c7F)c7ccc4[nH]7)C=C6)C=C5)cc3)cc2)cc1=O
REMARK SMILES IDX 17 1 16 2 14 3 15 4 13 6 10 7 11 8 87 9 12 10 86 11 9 12
REMARK SMILES IDX 8 13 6 14 7 15 5 17 1 18 2 19 3 20 89 21 4 22 88 23 90 24
REMARK SMILES IDX 18 25 19 26 20 27 21 28 22 30 23 31 24 32 85 33 25 34 84 35
REMARK SMILES IDX 26 36 27 37 28 38 78 39 29 40 83 41 77 42 79 43 30 44 82 45
REMARK SMILES IDX 76 46 75 47 31 49 63 50 43 51 62 52 44 53 47 54 61 55 80 56
REMARK SMILES IDX 45 57 46 58 60 60 81 61 48 62 32 63 33 64 41 65 34 66 35 67
REMARK SMILES IDX 39 68 42 69 36 70 37 71 40 72 38 73 64 74 65 75 73 76 66 77
REMARK SMILES IDX 67 78 71 79 74 80 68 81 69 82 72 83 70 84 49 85 50 86 58 87
REMARK SMILES IDX 51 88 52 89 56 90 59 91 53 92 54 93 57 94 55 95
REMARK H PARENT 16 5 8 16 20 29 79 48 47 59
REMARK Flexibility Score: inf
ROOT
ATOM      1  C   UNL     1       3.413   6.112   5.632  1.00  0.00     0.118 C 
ENDROOT
BRANCH   1   2
ATOM      2  N   UNL     1       2.469   7.147   5.245  1.00  0.00    -0.352 N 
ATOM      3  C   UNL     1       1.692   7.308   4.124  1.00  0.00     0.251 C 
ATOM      4  O   UNL     1       0.878   8.232   4.121  1.00  0.00    -0.269 OA
ATOM      5  H   UNL     1       2.368   7.866   5.910  1.00  0.00     0.163 HD
BRANCH   3   6
ATOM      6  C   UNL     1       1.773   6.415   2.934  1.00  0.00     0.039 A 
ATOM      7  C   UNL     1       1.806   4.801   0.600  1.00  0.00    -0.029 A 
ATOM      8  C   UNL     1       0.636   5.460   0.995  1.00  0.00     0.006 A 
ATOM      9  C   UNL     1       2.964   4.998   1.367  1.00  0.00     0.006 A 
ATOM     10  C   UNL     1       0.620   6.254   2.152  1.00  0.00     0.014 A 
ATOM     11  C   UNL     1       2.949   5.803   2.509  1.00  0.00     0.014 A 
BRANCH   7  12
ATOM     12  C   UNL     1       1.840   3.979  -0.672  1.00  0.00     0.152 C 
BRANCH  12  13
ATOM     13  N   UNL     1       2.850   2.939  -0.605  1.00  0.00    -0.348 N 
ATOM     14  C   UNL     1       2.846   1.638  -0.230  1.00  0.00     0.251 C 
ATOM     15  O   UNL     1       3.948   1.093  -0.120  1.00  0.00    -0.269 OA
ATOM     16  H   UNL     1       3.738   3.250  -0.897  1.00  0.00     0.164 HD
BRANCH  14  17
ATOM     17  C   UNL     1       1.601   0.824  -0.059  1.00  0.00     0.046 A 
ATOM     18  C   UNL     1      -1.729  -1.813   0.077  1.00  0.00     0.153 C 
ATOM     19  N   UNL     1      -0.593  -0.905   0.077  1.00  0.00    -0.319 N 
ATOM     20  C   UNL     1       0.649  -1.406  -0.252  1.00  0.00     0.089 A 
ATOM     21  C   UNL     1      -0.781   0.430   0.424  1.00  0.00     0.251 A 
ATOM     22  C   UNL     1       1.714  -0.603  -0.326  1.00  0.00     0.032 A 
ATOM     23  C   UNL     1       0.427   1.301   0.381  1.00  0.00     0.085 A 
ATOM     24  O   UNL     1      -1.857   0.931   0.739  1.00  0.00    -0.269 OA
ENDBRANCH  14  17
ENDBRANCH  12  13
ENDBRANCH   7  12
ENDBRANCH   3   6
ENDBRANCH   1   2
BRANCH   1  25
ATOM     25  C   UNL     1       4.861   6.566   5.445  1.00  0.00     0.042 C 
BRANCH  25  26
ATOM     26  C   UNL     1       5.337   7.566   6.494  1.00  0.00     0.118 C 
BRANCH  26  27
ATOM     27  N   UNL     1       5.532   6.947   7.796  1.00  0.00    -0.352 N 
ATOM     28  C   UNL     1       6.648   6.896   8.591  1.00  0.00     0.251 C 
ATOM     29  H   UNL     1       4.739   6.495   8.165  1.00  0.00     0.163 HD
ATOM     30  O   UNL     1       6.661   6.147   9.568  1.00  0.00    -0.269 OA
BRANCH  28  31
ATOM     31  C   UNL     1       7.841   7.719   8.290  1.00  0.00     0.039 A 
ATOM     32  C   UNL     1       9.109   7.160   8.490  1.00  0.00     0.014 A 
ATOM     33  C   UNL     1       7.726   9.048   7.875  1.00  0.00     0.014 A 
ATOM     34  C   UNL     1      10.255   7.917   8.233  1.00  0.00     0.010 A 
ATOM     35  C   UNL     1       8.868   9.780   7.553  1.00  0.00     0.010 A 
ATOM     36  C   UNL     1      10.143   9.226   7.740  1.00  0.00    -0.014 A 
BRANCH  36  37
ATOM     37  C   UNL     1      11.346  10.039   7.433  1.00  0.00     0.031 A 
ATOM     38  C   UNL     1      11.648  11.275   8.234  1.00  0.00     0.074 A 
ATOM     39  C   UNL     1      12.132   9.702   6.393  1.00  0.00     0.049 A 
ATOM     40  N   UNL     1      12.605  12.154   8.075  1.00  0.00    -0.248 NA
ATOM     41  C   UNL     1      10.733  11.576   9.345  1.00  0.00     0.031 C 
ATOM     42  C   UNL     1      11.927   8.546   5.521  1.00  0.00     0.029 A 
ATOM     43  N   UNL     1      13.256  10.306   5.889  1.00  0.00    -0.354 N 
ATOM     44  C   UNL     1      12.393  13.122   9.049  1.00  0.00     0.074 A 
ATOM     45  C   UNL     1      11.191  12.746   9.762  1.00  0.00     0.031 C 
ATOM     46  C   UNL     1      12.908   8.507   4.606  1.00  0.00     0.029 A 
ATOM     47  C   UNL     1      13.789   9.655   4.804  1.00  0.00     0.049 A 
ATOM     48  H   UNL     1      13.644  11.126   6.270  1.00  0.00     0.167 HD
ATOM     49  C   UNL     1      13.143  14.214   9.333  1.00  0.00     0.037 A 
ATOM     50  C   UNL     1      14.864   9.954   4.052  1.00  0.00     0.037 A 
ATOM     51  C   UNL     1      14.354  14.568   8.639  1.00  0.00     0.049 A 
ATOM     52  C   UNL     1      15.675  11.177   4.379  1.00  0.00     0.074 A 
ATOM     53  C   UNL     1      15.226  15.611   8.897  1.00  0.00     0.029 A 
ATOM     54  N   UNL     1      14.861  13.885   7.543  1.00  0.00    -0.354 N 
ATOM     55  N   UNL     1      15.504  12.050   5.341  1.00  0.00    -0.248 NA
ATOM     56  C   UNL     1      16.830  11.454   3.514  1.00  0.00     0.031 C 
ATOM     57  C   UNL     1      16.236  15.586   7.929  1.00  0.00     0.029 A 
ATOM     58  C   UNL     1      16.020  14.500   7.096  1.00  0.00     0.049 A 
ATOM     59  H   UNL     1      14.457  13.082   7.141  1.00  0.00     0.167 HD
ATOM     60  C   UNL     1      16.543  12.963   5.218  1.00  0.00     0.074 A 
ATOM     61  C   UNL     1      17.344  12.532   4.090  1.00  0.00     0.031 C 
ATOM     62  C   UNL     1      16.809  14.056   5.974  1.00  0.00     0.037 A 
BRANCH  49  63
ATOM     63  C   UNL     1      12.661  15.111  10.438  1.00  0.00     0.064 A 
ATOM     64  C   UNL     1      12.680  14.704  11.781  1.00  0.00     0.173 A 
ATOM     65  C   UNL     1      12.177  16.396  10.150  1.00  0.00     0.173 A 
ATOM     66  F   UNL     1      13.123  13.480  12.109  1.00  0.00    -0.203 F 
ATOM     67  C   UNL     1      12.190  15.531  12.788  1.00  0.00     0.198 A 
ATOM     68  C   UNL     1      11.718  17.233  11.164  1.00  0.00     0.198 A 
ATOM     69  F   UNL     1      12.144  16.840   8.885  1.00  0.00    -0.203 F 
ATOM     70  F   UNL     1      12.159  15.095  14.055  1.00  0.00    -0.200 F 
ATOM     71  C   UNL     1      11.713  16.796  12.480  1.00  0.00     0.200 A 
ATOM     72  F   UNL     1      11.269  18.460  10.866  1.00  0.00    -0.200 F 
ATOM     73  F   UNL     1      11.239  17.590  13.450  1.00  0.00    -0.200 F 
ENDBRANCH  49  63
BRANCH  50  74
ATOM     74  C   UNL     1      15.261   9.047   2.945  1.00  0.00     0.064 A 
ATOM     75  C   UNL     1      16.396   8.235   3.063  1.00  0.00     0.173 A 
ATOM     76  C   UNL     1      14.507   8.952   1.766  1.00  0.00     0.173 A 
ATOM     77  F   UNL     1      17.159   8.307   4.164  1.00  0.00    -0.203 F 
ATOM     78  C   UNL     1      16.768   7.364   2.041  1.00  0.00     0.198 A 
ATOM     79  C   UNL     1      14.867   8.064   0.754  1.00  0.00     0.198 A 
ATOM     80  F   UNL     1      13.410   9.706   1.608  1.00  0.00    -0.203 F 
ATOM     81  F   UNL     1      17.874   6.619   2.168  1.00  0.00    -0.200 F 
ATOM     82  C   UNL     1      15.999   7.274   0.891  1.00  0.00     0.200 A 
ATOM     83  F   UNL     1      14.114   7.970  -0.350  1.00  0.00    -0.200 F 
ATOM     84  F   UNL     1      16.350   6.429  -0.087  1.00  0.00    -0.200 F 
ENDBRANCH  50  74
BRANCH  62  85
ATOM     85  C   UNL     1      18.038  14.845   5.629  1.00  0.00     0.064 A 
ATOM     86  C   UNL     1      18.093  15.660   4.489  1.00  0.00     0.173 A 
ATOM     87  C   UNL     1      19.160  14.815   6.471  1.00  0.00     0.173 A 
ATOM     88  F   UNL     1      17.052  15.709   3.643  1.00  0.00    -0.203 F 
ATOM     89  C   UNL     1      19.235  16.399   4.192  1.00  0.00     0.198 A 
ATOM     90  C   UNL     1      20.290  15.576   6.186  1.00  0.00     0.198 A 
ATOM     91  F   UNL     1      19.156  14.055   7.576  1.00  0.00    -0.203 F 
ATOM     92  F   UNL     1      19.283  17.137   3.075  1.00  0.00    -0.200 F 
ATOM     93  C   UNL     1      20.329  16.362   5.045  1.00  0.00     0.200 A 
ATOM     94  F   UNL     1      21.342  15.548   7.016  1.00  0.00    -0.200 F 
ATOM     95  F   UNL     1      21.425  17.079   4.761  1.00  0.00    -0.200 F 
ENDBRANCH  62  85
ENDBRANCH  36  37
ENDBRANCH  28  31
ENDBRANCH  26  27
ENDBRANCH  25  26
ENDBRANCH   1  25
TORSDOF 13
