REMARK SMILES Cc1nonc1-c1noc(CCC(=O)NCCCNC(=O)c2ccc(-c3c4nc(c(-c5c(F)c(F)c(F)c(F)c5F)c5ccc([nH]5)c(-c5c(F)c(F)c(F)c(F)c5F)c5nc(c(-c6c(F)c(F)c(F)c(F)c6F)c6ccc3[nH]6)C=C5)C=C4)cc2)n1
REMARK SMILES IDX 16 1 15 2 13 3 14 4 12 6 11 7 10 8 7 9 8 10 85 11 9 12 6 13
REMARK SMILES IDX 1 14 2 15 3 16 4 17 5 18 17 19 18 20 19 21 20 22 21 24 22 25
REMARK SMILES IDX 23 26 84 27 24 28 83 29 25 30 26 31 27 32 77 33 28 34 82 35
REMARK SMILES IDX 76 36 78 37 29 38 81 39 75 40 74 41 30 43 62 44 42 45 61 46
REMARK SMILES IDX 43 47 46 48 60 49 79 50 44 51 45 52 59 54 80 55 47 56 31 57
REMARK SMILES IDX 32 58 40 59 33 60 34 61 38 62 41 63 35 64 36 65 39 66 37 67
REMARK SMILES IDX 63 68 64 69 72 70 65 71 66 72 70 73 73 74 67 75 68 76 71 77
REMARK SMILES IDX 69 78 48 79 49 80 57 81 50 82 51 83 55 84 58 85 52 86 53 87
REMARK SMILES IDX 56 88 54 89
REMARK H PARENT 15 5 19 23 78 42 46 53
REMARK Flexibility Score: inf
ROOT
ATOM      1  C   UNL     1      -1.401   5.436   0.196  1.00  0.00     0.117 C 
ENDROOT
BRANCH   1   2
ATOM      2  N   UNL     1      -0.673   6.695   0.158  1.00  0.00    -0.356 N 
ATOM      3  C   UNL     1       0.246   7.155  -0.731  1.00  0.00     0.220 C 
ATOM      4  O   UNL     1       0.829   8.210  -0.474  1.00  0.00    -0.275 OA
ATOM      5  H   UNL     1      -0.879   7.314   0.895  1.00  0.00     0.163 HD
BRANCH   3   6
ATOM      6  C   UNL     1       0.560   6.396  -1.999  1.00  0.00     0.110 C 
BRANCH   6   7
ATOM      7  C   UNL     1       1.893   5.667  -1.889  1.00  0.00     0.110 C 
BRANCH   7   8
ATOM      8  C   UNL     1       1.763   4.333  -1.256  1.00  0.00     0.227 A 
ATOM      9  C   UNL     1       1.314   2.380  -0.640  1.00  0.00     0.226 A 
ATOM     10  N   UNL     1       2.420   2.678   0.058  1.00  0.00    -0.055 NA
ATOM     11  N   UNL     1       0.869   3.393  -1.458  1.00  0.00    -0.190 NA
ATOM     12  O   UNL     1       2.724   3.978  -0.354  1.00  0.00    -0.339 OA
BRANCH   9  13
ATOM     13  C   UNL     1       0.575   1.124  -0.535  1.00  0.00     0.178 A 
ATOM     14  C   UNL     1       2.475  -0.588   0.083  1.00  0.00     0.073 C 
ATOM     15  C   UNL     1       1.096  -0.140  -0.201  1.00  0.00     0.113 A 
ATOM     16  N   UNL     1       0.100  -1.033  -0.191  1.00  0.00    -0.054 NA
ATOM     17  O   UNL     1      -1.039  -0.314  -0.535  1.00  0.00    -0.244 OA
ATOM     18  N   UNL     1      -0.741   1.026  -0.754  1.00  0.00    -0.046 NA
ENDBRANCH   9  13
ENDBRANCH   7   8
ENDBRANCH   6   7
ENDBRANCH   3   6
ENDBRANCH   1   2
BRANCH   1  19
ATOM     19  C   UNL     1      -0.847   4.513   1.279  1.00  0.00     0.042 C 
BRANCH  19  20
ATOM     20  C   UNL     1      -1.214   4.936   2.697  1.00  0.00     0.118 C 
BRANCH  20  21
ATOM     21  N   UNL     1      -2.587   4.598   3.034  1.00  0.00    -0.352 N 
ATOM     22  C   UNL     1      -3.103   3.630   3.857  1.00  0.00     0.251 C 
ATOM     23  H   UNL     1      -3.264   5.162   2.594  1.00  0.00     0.163 HD
ATOM     24  O   UNL     1      -4.312   3.398   3.807  1.00  0.00    -0.269 OA
BRANCH  22  25
ATOM     25  C   UNL     1      -2.262   2.855   4.802  1.00  0.00     0.039 A 
ATOM     26  C   UNL     1      -2.615   1.525   5.064  1.00  0.00     0.014 A 
ATOM     27  C   UNL     1      -1.207   3.431   5.515  1.00  0.00     0.014 A 
ATOM     28  C   UNL     1      -1.905   0.777   6.010  1.00  0.00     0.010 A 
ATOM     29  C   UNL     1      -0.446   2.661   6.399  1.00  0.00     0.010 A 
ATOM     30  C   UNL     1      -0.803   1.334   6.677  1.00  0.00    -0.014 A 
BRANCH  30  31
ATOM     31  C   UNL     1      -0.058   0.553   7.701  1.00  0.00     0.031 A 
ATOM     32  C   UNL     1      -0.066   0.982   9.145  1.00  0.00     0.074 A 
ATOM     33  C   UNL     1       0.647  -0.536   7.338  1.00  0.00     0.049 A 
ATOM     34  N   UNL     1       0.533   0.438  10.177  1.00  0.00    -0.248 NA
ATOM     35  C   UNL     1      -0.825   2.199   9.469  1.00  0.00     0.031 C 
ATOM     36  C   UNL     1       0.774  -1.043   5.972  1.00  0.00     0.029 A 
ATOM     37  N   UNL     1       1.382  -1.417   8.091  1.00  0.00    -0.354 N 
ATOM     38  C   UNL     1       0.248   1.261  11.259  1.00  0.00     0.074 A 
ATOM     39  C   UNL     1      -0.544   2.362  10.754  1.00  0.00     0.031 C 
ATOM     40  C   UNL     1       1.503  -2.171   5.990  1.00  0.00     0.029 A 
ATOM     41  C   UNL     1       1.916  -2.450   7.362  1.00  0.00     0.049 A 
ATOM     42  H   UNL     1       1.514  -1.317   9.062  1.00  0.00     0.167 HD
ATOM     43  C   UNL     1       0.594   1.105  12.560  1.00  0.00     0.037 A 
ATOM     44  C   UNL     1       2.643  -3.512   7.758  1.00  0.00     0.037 A 
ATOM     45  C   UNL     1       1.333  -0.014  13.082  1.00  0.00     0.049 A 
ATOM     46  C   UNL     1       2.980  -3.685   9.212  1.00  0.00     0.074 A 
ATOM     47  C   UNL     1       1.665  -0.295  14.396  1.00  0.00     0.029 A 
ATOM     48  N   UNL     1       1.848  -1.044  12.311  1.00  0.00    -0.354 N 
ATOM     49  N   UNL     1       2.663  -2.927  10.231  1.00  0.00    -0.248 NA
ATOM     50  C   UNL     1       3.775  -4.870   9.568  1.00  0.00     0.031 C 
ATOM     51  C   UNL     1       2.404  -1.484  14.417  1.00  0.00     0.029 A 
ATOM     52  C   UNL     1       2.506  -1.958  13.119  1.00  0.00     0.049 A 
ATOM     53  H   UNL     1       1.759  -1.117  11.333  1.00  0.00     0.167 HD
ATOM     54  C   UNL     1       3.199  -3.548  11.350  1.00  0.00     0.074 A 
ATOM     55  C   UNL     1       3.853  -4.755  10.886  1.00  0.00     0.031 C 
ATOM     56  C   UNL     1       3.153  -3.153  12.646  1.00  0.00     0.037 A 
BRANCH  43  57
ATOM     57  C   UNL     1       0.169   2.182  13.515  1.00  0.00     0.064 A 
ATOM     58  C   UNL     1      -1.170   2.333  13.905  1.00  0.00     0.173 A 
ATOM     59  C   UNL     1       1.115   3.068  14.052  1.00  0.00     0.173 A 
ATOM     60  F   UNL     1      -2.113   1.519  13.408  1.00  0.00    -0.203 F 
ATOM     61  C   UNL     1      -1.552   3.354  14.771  1.00  0.00     0.198 A 
ATOM     62  C   UNL     1       0.732   4.072  14.938  1.00  0.00     0.198 A 
ATOM     63  F   UNL     1       2.409   2.963  13.715  1.00  0.00    -0.203 F 
ATOM     64  F   UNL     1      -2.845   3.513  15.088  1.00  0.00    -0.200 F 
ATOM     65  C   UNL     1      -0.601   4.220  15.290  1.00  0.00     0.200 A 
ATOM     66  F   UNL     1       1.653   4.904  15.445  1.00  0.00    -0.200 F 
ATOM     67  F   UNL     1      -0.971   5.205  16.120  1.00  0.00    -0.200 F 
ENDBRANCH  43  57
BRANCH  44  68
ATOM     68  C   UNL     1       3.049  -4.532   6.760  1.00  0.00     0.064 A 
ATOM     69  C   UNL     1       2.400  -5.773   6.710  1.00  0.00     0.173 A 
ATOM     70  C   UNL     1       4.070  -4.286   5.833  1.00  0.00     0.173 A 
ATOM     71  F   UNL     1       1.432  -6.058   7.594  1.00  0.00    -0.203 F 
ATOM     72  C   UNL     1       2.763  -6.736   5.772  1.00  0.00     0.198 A 
ATOM     73  C   UNL     1       4.419  -5.242   4.883  1.00  0.00     0.198 A 
ATOM     74  F   UNL     1       4.717  -3.112   5.843  1.00  0.00    -0.203 F 
ATOM     75  F   UNL     1       2.146  -7.925   5.762  1.00  0.00    -0.200 F 
ATOM     76  C   UNL     1       3.768  -6.467   4.855  1.00  0.00     0.200 A 
ATOM     77  F   UNL     1       5.385  -4.977   3.992  1.00  0.00    -0.200 F 
ATOM     78  F   UNL     1       4.113  -7.391   3.947  1.00  0.00    -0.200 F 
ENDBRANCH  44  68
BRANCH  56  79
ATOM     79  C   UNL     1       3.812  -4.046  13.653  1.00  0.00     0.064 A 
ATOM     80  C   UNL     1       5.207  -4.100  13.780  1.00  0.00     0.173 A 
ATOM     81  C   UNL     1       3.040  -4.842  14.512  1.00  0.00     0.173 A 
ATOM     82  F   UNL     1       5.987  -3.369  12.969  1.00  0.00    -0.203 F 
ATOM     83  C   UNL     1       5.808  -4.939  14.714  1.00  0.00     0.198 A 
ATOM     84  C   UNL     1       3.643  -5.664  15.459  1.00  0.00     0.198 A 
ATOM     85  F   UNL     1       1.701  -4.822  14.431  1.00  0.00    -0.203 F 
ATOM     86  F   UNL     1       7.144  -5.008  14.789  1.00  0.00    -0.200 F 
ATOM     87  C   UNL     1       5.026  -5.717  15.555  1.00  0.00     0.200 A 
ATOM     88  F   UNL     1       2.887  -6.411  16.275  1.00  0.00    -0.200 F 
ATOM     89  F   UNL     1       5.606  -6.526  16.452  1.00  0.00    -0.200 F 
ENDBRANCH  56  79
ENDBRANCH  30  31
ENDBRANCH  22  25
ENDBRANCH  20  21
ENDBRANCH  19  20
ENDBRANCH   1  19
TORSDOF 13
