REMARK SMILES O=C(NCCCNC(=O)[C@@H](CCOC(F)(F)F)Cc1ccccc1Cl)c1ccc(-c2c3nc(c(-c4c(F)c(F)c(F)c(F)c4F)c4ccc([nH]4)c(-c4c(F)c(F)c(F)c(F)c4F)c4nc(c(-c5c(F)c(F)c(F)c(F)c5F)c5ccc2[nH]5)C=C4)C=C3)cc1
REMARK SMILES IDX 6 1 5 2 4 3 3 4 1 5 2 6 26 8 27 9 88 10 28 11 87 12 29 13
REMARK SMILES IDX 30 14 31 15 81 16 32 17 86 18 80 19 82 20 33 21 85 22 79 23
REMARK SMILES IDX 78 24 34 26 66 27 46 28 65 29 47 30 50 31 64 32 83 33 48 34
REMARK SMILES IDX 49 35 63 37 84 38 51 39 35 40 36 41 44 42 37 43 38 44 42 45
REMARK SMILES IDX 45 46 39 47 40 48 43 49 41 50 67 51 68 52 76 53 69 54 70 55
REMARK SMILES IDX 74 56 77 57 71 58 72 59 75 60 73 61 52 62 53 63 61 64 54 65
REMARK SMILES IDX 55 66 59 67 62 68 56 69 57 70 60 71 58 72 7 73 8 74 9 76
REMARK SMILES IDX 10 77 11 78 12 79 13 80 14 81 15 82 16 83 17 84 18 85 19 86
REMARK SMILES IDX 20 87 24 88 21 89 23 90 25 91 22 92
REMARK H PARENT 3 7 82 25 50 36 7 75
REMARK Flexibility Score: inf
ROOT
ATOM      1  C   UNL     1       4.101  -3.450   1.137  1.00  0.00     0.117 C 
ENDROOT
BRANCH   1   2
ATOM      2  C   UNL     1       4.568  -2.001   1.119  1.00  0.00     0.042 C 
BRANCH   2   3
ATOM      3  C   UNL     1       4.228  -1.310  -0.188  1.00  0.00     0.118 C 
BRANCH   3   4
ATOM      4  N   UNL     1       2.802  -1.016  -0.287  1.00  0.00    -0.352 N 
ATOM      5  O   UNL     1       0.916   0.199  -0.106  1.00  0.00    -0.269 OA
ATOM      6  C   UNL     1       2.138   0.184  -0.246  1.00  0.00     0.251 C 
ATOM      7  H   UNL     1       2.224  -1.805  -0.400  1.00  0.00     0.163 HD
BRANCH   6   8
ATOM      8  C   UNL     1       2.881   1.456  -0.360  1.00  0.00     0.039 A 
ATOM      9  C   UNL     1       3.980   1.562  -1.212  1.00  0.00     0.014 A 
ATOM     10  C   UNL     1       2.454   2.574   0.364  1.00  0.00     0.014 A 
ATOM     11  C   UNL     1       4.756   2.709  -1.204  1.00  0.00     0.010 A 
ATOM     12  C   UNL     1       3.158   3.777   0.265  1.00  0.00     0.010 A 
ATOM     13  C   UNL     1       4.331   3.847  -0.502  1.00  0.00    -0.014 A 
BRANCH  13  14
ATOM     14  C   UNL     1       5.084   5.114  -0.675  1.00  0.00     0.031 A 
ATOM     15  C   UNL     1       5.737   5.802   0.488  1.00  0.00     0.074 A 
ATOM     16  C   UNL     1       5.193   5.624  -1.919  1.00  0.00     0.049 A 
ATOM     17  N   UNL     1       6.420   6.919   0.505  1.00  0.00    -0.248 NA
ATOM     18  C   UNL     1       5.599   5.164   1.805  1.00  0.00     0.031 C 
ATOM     19  C   UNL     1       4.592   5.041  -3.122  1.00  0.00     0.029 A 
ATOM     20  N   UNL     1       5.859   6.726  -2.387  1.00  0.00    -0.354 N 
ATOM     21  C   UNL     1       6.772   7.130   1.832  1.00  0.00     0.074 A 
ATOM     22  C   UNL     1       6.206   6.039   2.596  1.00  0.00     0.031 C 
ATOM     23  C   UNL     1       4.964   5.753  -4.193  1.00  0.00     0.029 A 
ATOM     24  C   UNL     1       5.751   6.894  -3.746  1.00  0.00     0.049 A 
ATOM     25  H   UNL     1       6.367   7.338  -1.806  1.00  0.00     0.167 HD
ATOM     26  C   UNL     1       7.505   8.142   2.356  1.00  0.00     0.037 A 
ATOM     27  C   UNL     1       6.204   7.875  -4.545  1.00  0.00     0.037 A 
ATOM     28  C   UNL     1       8.071   9.217   1.578  1.00  0.00     0.049 A 
ATOM     29  C   UNL     1       6.978   9.003  -3.928  1.00  0.00     0.074 A 
ATOM     30  C   UNL     1       8.853  10.275   2.007  1.00  0.00     0.029 A 
ATOM     31  N   UNL     1       7.907   9.374   0.208  1.00  0.00    -0.354 N 
ATOM     32  N   UNL     1       7.325   9.179  -2.676  1.00  0.00    -0.248 NA
ATOM     33  C   UNL     1       7.418  10.071  -4.833  1.00  0.00     0.031 C 
ATOM     34  C   UNL     1       9.112  11.102   0.910  1.00  0.00     0.029 A 
ATOM     35  C   UNL     1       8.550  10.527  -0.218  1.00  0.00     0.049 A 
ATOM     36  H   UNL     1       7.408   8.757  -0.376  1.00  0.00     0.167 HD
ATOM     37  C   UNL     1       8.040  10.367  -2.644  1.00  0.00     0.074 A 
ATOM     38  C   UNL     1       8.096  10.855  -4.007  1.00  0.00     0.031 C 
ATOM     39  C   UNL     1       8.596  10.997  -1.581  1.00  0.00     0.037 A 
BRANCH  26  40
ATOM     40  C   UNL     1       7.716   8.157   3.845  1.00  0.00     0.064 A 
ATOM     41  C   UNL     1       8.528   7.212   4.489  1.00  0.00     0.173 A 
ATOM     42  C   UNL     1       7.129   9.159   4.634  1.00  0.00     0.173 A 
ATOM     43  F   UNL     1       9.107   6.226   3.787  1.00  0.00    -0.203 F 
ATOM     44  C   UNL     1       8.722   7.253   5.869  1.00  0.00     0.198 A 
ATOM     45  C   UNL     1       7.350   9.216   6.008  1.00  0.00     0.198 A 
ATOM     46  F   UNL     1       6.348  10.093   4.070  1.00  0.00    -0.203 F 
ATOM     47  F   UNL     1       9.462   6.310   6.468  1.00  0.00    -0.200 F 
ATOM     48  C   UNL     1       8.139   8.258   6.625  1.00  0.00     0.200 A 
ATOM     49  F   UNL     1       6.798  10.198   6.734  1.00  0.00    -0.200 F 
ATOM     50  F   UNL     1       8.333   8.301   7.951  1.00  0.00    -0.200 F 
ENDBRANCH  26  40
BRANCH  27  51
ATOM     51  C   UNL     1       5.914   7.837  -6.002  1.00  0.00     0.064 A 
ATOM     52  C   UNL     1       6.939   7.660  -6.940  1.00  0.00     0.173 A 
ATOM     53  C   UNL     1       4.601   7.958  -6.485  1.00  0.00     0.173 A 
ATOM     54  F   UNL     1       8.211   7.554  -6.529  1.00  0.00    -0.203 F 
ATOM     55  C   UNL     1       6.665   7.625  -8.306  1.00  0.00     0.198 A 
ATOM     56  C   UNL     1       4.325   7.886  -7.847  1.00  0.00     0.198 A 
ATOM     57  F   UNL     1       3.582   8.120  -5.628  1.00  0.00    -0.203 F 
ATOM     58  F   UNL     1       7.669   7.500  -9.184  1.00  0.00    -0.200 F 
ATOM     59  C   UNL     1       5.358   7.729  -8.758  1.00  0.00     0.200 A 
ATOM     60  F   UNL     1       3.058   7.964  -8.277  1.00  0.00    -0.200 F 
ATOM     61  F   UNL     1       5.095   7.684 -10.070  1.00  0.00    -0.200 F 
ENDBRANCH  27  51
BRANCH  39  62
ATOM     62  C   UNL     1       9.348  12.266  -1.860  1.00  0.00     0.064 A 
ATOM     63  C   UNL     1       8.691  13.446  -2.238  1.00  0.00     0.173 A 
ATOM     64  C   UNL     1      10.744  12.305  -1.726  1.00  0.00     0.173 A 
ATOM     65  F   UNL     1       7.359  13.456  -2.400  1.00  0.00    -0.203 F 
ATOM     66  C   UNL     1       9.408  14.610  -2.502  1.00  0.00     0.198 A 
ATOM     67  C   UNL     1      11.454  13.479  -1.955  1.00  0.00     0.198 A 
ATOM     68  F   UNL     1      11.420  11.204  -1.362  1.00  0.00    -0.203 F 
ATOM     69  F   UNL     1       8.766  15.710  -2.918  1.00  0.00    -0.200 F 
ATOM     70  C   UNL     1      10.787  14.628  -2.352  1.00  0.00     0.200 A 
ATOM     71  F   UNL     1      12.784  13.498  -1.796  1.00  0.00    -0.200 F 
ATOM     72  F   UNL     1      11.475  15.751  -2.600  1.00  0.00    -0.200 F 
ENDBRANCH  39  62
ENDBRANCH  13  14
ENDBRANCH   6   8
ENDBRANCH   3   4
ENDBRANCH   2   3
ENDBRANCH   1   2
BRANCH   1  73
ATOM     73  N   UNL     1       5.102  -4.320   0.564  1.00  0.00    -0.356 N 
ATOM     74  C   UNL     1       6.003  -5.164   1.117  1.00  0.00     0.223 C 
ATOM     75  H   UNL     1       5.134  -4.294  -0.420  1.00  0.00     0.163 HD
ATOM     76  O   UNL     1       6.806  -5.677   0.328  1.00  0.00    -0.275 OA
BRANCH  74  77
ATOM     77  C   UNL     1       6.088  -5.505   2.606  1.00  0.00     0.085 C 
BRANCH  77  78
ATOM     78  C   UNL     1       6.859  -4.498   3.494  1.00  0.00     0.042 C 
BRANCH  78  79
ATOM     79  C   UNL     1       6.317  -3.119   3.894  1.00  0.00     0.171 C 
BRANCH  79  80
ATOM     80  O   UNL     1       4.916  -2.992   3.939  1.00  0.00    -0.292 OA
BRANCH  80  81
ATOM     81  C   UNL     1       4.307  -3.358   5.156  1.00  0.00     0.522 C 
ATOM     82  F   UNL     1       3.059  -3.789   4.879  1.00  0.00    -0.144 F 
ATOM     83  F   UNL     1       4.985  -4.347   5.764  1.00  0.00    -0.144 F 
ATOM     84  F   UNL     1       4.229  -2.291   5.968  1.00  0.00    -0.144 F 
ENDBRANCH  80  81
ENDBRANCH  79  80
ENDBRANCH  78  79
ENDBRANCH  77  78
BRANCH  77  85
ATOM     85  C   UNL     1       4.824  -6.086   3.252  1.00  0.00     0.050 C 
BRANCH  85  86
ATOM     86  C   UNL     1       4.227  -7.313   2.595  1.00  0.00    -0.029 A 
ATOM     87  C   UNL     1       3.126  -7.143   1.737  1.00  0.00     0.005 A 
ATOM     88  C   UNL     1       4.668  -8.620   2.859  1.00  0.00     0.044 A 
ATOM     89  C   UNL     1       2.462  -8.242   1.190  1.00  0.00     0.000 A 
ATOM     90  C   UNL     1       3.999  -9.720   2.311  1.00  0.00     0.021 A 
ATOM     91  Cl  UNL     1       6.017  -8.941   3.890  1.00  0.00    -0.084 Cl
ATOM     92  C   UNL     1       2.891  -9.531   1.486  1.00  0.00     0.002 A 
ENDBRANCH  85  86
ENDBRANCH  77  85
ENDBRANCH  74  77
ENDBRANCH   1  73
TORSDOF 16
