REMARK SMILES O=C(NCCCNC(=O)c1ccc(-c2c3nc(c(-c4c(F)c(F)c(F)c(F)c4F)c4ccc([nH]4)c(-c4c(F)c(F)c(F)c(F)c4F)c4nc(c(-c5c(F)c(F)c(F)c(F)c5F)c5ccc2[nH]5)C=C4)C=C3)cc1)C1=Cc2c(Cl)ccc(Cl)c2O[C@@H]1C(F)(F)F
REMARK SMILES IDX 5 1 4 2 3 3 1 4 2 5 73 7 74 8 84 9 75 10 83 11 76 12 82 13
REMARK SMILES IDX 77 14 78 15 80 16 79 17 81 18 85 19 86 20 87 21 88 22 6 23
REMARK SMILES IDX 7 24 8 25 9 27 10 28 11 29 72 30 12 31 71 32 13 33 14 34
REMARK SMILES IDX 15 35 65 36 16 37 70 38 64 39 66 40 17 41 69 42 63 43 62 44
REMARK SMILES IDX 18 46 50 47 30 48 49 49 31 50 34 51 48 52 67 53 32 54 33 55
REMARK SMILES IDX 47 57 68 58 35 59 19 60 20 61 28 62 21 63 22 64 26 65 29 66
REMARK SMILES IDX 23 67 24 68 27 69 25 70 51 71 52 72 60 73 53 74 54 75 58 76
REMARK SMILES IDX 61 77 55 78 56 79 59 80 57 81 36 82 37 83 45 84 38 85 39 86
REMARK SMILES IDX 43 87 46 88 40 89 41 90 44 91 42 92
REMARK H PARENT 3 6 7 26 66 45 34 56
REMARK Flexibility Score: inf
ROOT
ATOM      1  C   UNL     1       4.074   2.876   0.225  1.00  0.00     0.042 C 
ENDROOT
BRANCH   1   2
ATOM      2  C   UNL     1       3.452   1.533   0.577  1.00  0.00     0.118 C 
BRANCH   2   3
ATOM      3  N   UNL     1       2.434   1.094  -0.378  1.00  0.00    -0.352 N 
ATOM      4  O   UNL     1       1.190  -0.392  -1.550  1.00  0.00    -0.270 OA
ATOM      5  C   UNL     1       2.225  -0.139  -0.950  1.00  0.00     0.251 C 
ATOM      6  H   UNL     1       1.797   1.792  -0.655  1.00  0.00     0.163 HD
BRANCH   5   7
ATOM      7  C   UNL     1       3.245  -1.179  -0.715  1.00  0.00     0.067 C 
ATOM      8  C   UNL     1       4.465  -1.033  -1.246  1.00  0.00     0.027 C 
ATOM      9  C   UNL     1       2.980  -2.142   0.393  1.00  0.00     0.314 C 
ATOM     10  C   UNL     1       5.542  -1.122  -0.230  1.00  0.00     0.037 A 
ATOM     11  O   UNL     1       3.975  -2.043   1.431  1.00  0.00    -0.474 OA
ATOM     12  C   UNL     1       6.762  -0.445  -0.437  1.00  0.00     0.052 A 
ATOM     13  C   UNL     1       5.199  -1.505   1.093  1.00  0.00     0.148 A 
ATOM     14  Cl  UNL     1       7.246   0.155  -1.988  1.00  0.00    -0.084 Cl
ATOM     15  C   UNL     1       7.577  -0.100   0.647  1.00  0.00     0.023 A 
ATOM     16  C   UNL     1       6.035  -1.161   2.169  1.00  0.00     0.083 A 
ATOM     17  C   UNL     1       7.206  -0.441   1.947  1.00  0.00     0.026 A 
ATOM     18  Cl  UNL     1       5.565  -1.465   3.804  1.00  0.00    -0.080 Cl
BRANCH   9  19
ATOM     19  C   UNL     1       2.882  -3.580  -0.143  1.00  0.00     0.429 C 
ATOM     20  F   UNL     1       2.527  -4.444   0.837  1.00  0.00    -0.167 F 
ATOM     21  F   UNL     1       1.954  -3.692  -1.121  1.00  0.00    -0.167 F 
ATOM     22  F   UNL     1       4.059  -4.016  -0.653  1.00  0.00    -0.167 F 
ENDBRANCH   9  19
ENDBRANCH   5   7
ENDBRANCH   2   3
ENDBRANCH   1   2
BRANCH   1  23
ATOM     23  C   UNL     1       3.866   3.913   1.319  1.00  0.00     0.118 C 
BRANCH  23  24
ATOM     24  N   UNL     1       4.636   3.655   2.536  1.00  0.00    -0.352 N 
ATOM     25  C   UNL     1       5.609   4.410   3.167  1.00  0.00     0.251 C 
ATOM     26  H   UNL     1       4.426   2.802   2.980  1.00  0.00     0.163 HD
ATOM     27  O   UNL     1       6.209   3.960   4.126  1.00  0.00    -0.269 OA
BRANCH  25  28
ATOM     28  C   UNL     1       5.958   5.748   2.635  1.00  0.00     0.039 A 
ATOM     29  C   UNL     1       7.303   6.114   2.523  1.00  0.00     0.014 A 
ATOM     30  C   UNL     1       4.965   6.609   2.182  1.00  0.00     0.014 A 
ATOM     31  C   UNL     1       7.649   7.275   1.824  1.00  0.00     0.010 A 
ATOM     32  C   UNL     1       5.311   7.678   1.370  1.00  0.00     0.010 A 
ATOM     33  C   UNL     1       6.657   8.022   1.171  1.00  0.00    -0.014 A 
BRANCH  33  34
ATOM     34  C   UNL     1       6.961   9.170   0.274  1.00  0.00     0.031 A 
ATOM     35  C   UNL     1       6.289  10.493   0.524  1.00  0.00     0.074 A 
ATOM     36  C   UNL     1       7.705   8.993  -0.837  1.00  0.00     0.049 A 
ATOM     37  N   UNL     1       6.168  11.530  -0.265  1.00  0.00    -0.248 NA
ATOM     38  C   UNL     1       5.601  10.639   1.817  1.00  0.00     0.031 C 
ATOM     39  C   UNL     1       8.378   7.754  -1.227  1.00  0.00     0.029 A 
ATOM     40  N   UNL     1       7.998   9.863  -1.859  1.00  0.00    -0.354 N 
ATOM     41  C   UNL     1       5.337  12.416   0.409  1.00  0.00     0.074 A 
ATOM     42  C   UNL     1       4.940  11.772   1.642  1.00  0.00     0.031 C 
ATOM     43  C   UNL     1       9.032   7.951  -2.384  1.00  0.00     0.029 A 
ATOM     44  C   UNL     1       8.775   9.309  -2.848  1.00  0.00     0.049 A 
ATOM     45  H   UNL     1       7.681  10.794  -1.882  1.00  0.00     0.167 HD
ATOM     46  C   UNL     1       4.958  13.664   0.045  1.00  0.00     0.037 A 
ATOM     47  C   UNL     1       9.217   9.836  -4.006  1.00  0.00     0.037 A 
ATOM     48  C   UNL     1       5.421  14.328  -1.143  1.00  0.00     0.049 A 
ATOM     49  C   UNL     1       8.824  11.242  -4.370  1.00  0.00     0.074 A 
ATOM     50  C   UNL     1       5.162  15.617  -1.572  1.00  0.00     0.029 A 
ATOM     51  N   UNL     1       6.264  13.753  -2.085  1.00  0.00    -0.354 N 
ATOM     52  N   UNL     1       8.058  12.081  -3.717  1.00  0.00    -0.248 NA
ATOM     53  C   UNL     1       9.354  11.772  -5.634  1.00  0.00     0.031 C 
ATOM     54  C   UNL     1       5.830  15.816  -2.785  1.00  0.00     0.029 A 
ATOM     55  C   UNL     1       6.536  14.663  -3.092  1.00  0.00     0.049 A 
ATOM     56  H   UNL     1       6.616  12.835  -2.042  1.00  0.00     0.167 HD
ATOM     57  C   UNL     1       8.042  13.248  -4.468  1.00  0.00     0.074 A 
ATOM     58  C   UNL     1       8.877  13.009  -5.627  1.00  0.00     0.031 C 
ATOM     59  C   UNL     1       7.396  14.413  -4.220  1.00  0.00     0.037 A 
BRANCH  46  60
ATOM     60  C   UNL     1       4.008  14.389   0.955  1.00  0.00     0.064 A 
ATOM     61  C   UNL     1       4.391  14.809   2.239  1.00  0.00     0.173 A 
ATOM     62  C   UNL     1       2.694  14.657   0.544  1.00  0.00     0.173 A 
ATOM     63  F   UNL     1       5.631  14.564   2.687  1.00  0.00    -0.203 F 
ATOM     64  C   UNL     1       3.480  15.423   3.094  1.00  0.00     0.198 A 
ATOM     65  C   UNL     1       1.796  15.306   1.389  1.00  0.00     0.198 A 
ATOM     66  F   UNL     1       2.275  14.284  -0.675  1.00  0.00    -0.203 F 
ATOM     67  F   UNL     1       3.849  15.744   4.342  1.00  0.00    -0.200 F 
ATOM     68  C   UNL     1       2.186  15.675   2.667  1.00  0.00     0.200 A 
ATOM     69  F   UNL     1       0.548  15.560   0.971  1.00  0.00    -0.200 F 
ATOM     70  F   UNL     1       1.309  16.262   3.494  1.00  0.00    -0.200 F 
ENDBRANCH  46  60
BRANCH  47  71
ATOM     71  C   UNL     1      10.118   9.046  -4.886  1.00  0.00     0.064 A 
ATOM     72  C   UNL     1      11.475   9.382  -4.992  1.00  0.00     0.173 A 
ATOM     73  C   UNL     1       9.658   7.946  -5.622  1.00  0.00     0.173 A 
ATOM     74  F   UNL     1      11.957  10.439  -4.322  1.00  0.00    -0.203 F 
ATOM     75  C   UNL     1      12.335   8.657  -5.814  1.00  0.00     0.198 A 
ATOM     76  C   UNL     1      10.525   7.206  -6.425  1.00  0.00     0.198 A 
ATOM     77  F   UNL     1       8.370   7.579  -5.549  1.00  0.00    -0.203 F 
ATOM     78  F   UNL     1      13.619   9.024  -5.925  1.00  0.00    -0.200 F 
ATOM     79  C   UNL     1      11.861   7.566  -6.525  1.00  0.00     0.200 A 
ATOM     80  F   UNL     1      10.067   6.144  -7.101  1.00  0.00    -0.200 F 
ATOM     81  F   UNL     1      12.690   6.865  -7.311  1.00  0.00    -0.200 F 
ENDBRANCH  47  71
BRANCH  59  82
ATOM     82  C   UNL     1       7.614  15.541  -5.183  1.00  0.00     0.064 A 
ATOM     83  C   UNL     1       7.012  15.557  -6.449  1.00  0.00     0.173 A 
ATOM     84  C   UNL     1       8.387  16.648  -4.804  1.00  0.00     0.173 A 
ATOM     85  F   UNL     1       6.277  14.513  -6.860  1.00  0.00    -0.203 F 
ATOM     86  C   UNL     1       7.189  16.638  -7.308  1.00  0.00     0.198 A 
ATOM     87  C   UNL     1       8.541  17.738  -5.656  1.00  0.00     0.198 A 
ATOM     88  F   UNL     1       8.979  16.680  -3.600  1.00  0.00    -0.203 F 
ATOM     89  F   UNL     1       6.633  16.619  -8.527  1.00  0.00    -0.200 F 
ATOM     90  C   UNL     1       7.946  17.730  -6.908  1.00  0.00     0.200 A 
ATOM     91  F   UNL     1       9.262  18.797  -5.263  1.00  0.00    -0.200 F 
ATOM     92  F   UNL     1       8.104  18.775  -7.732  1.00  0.00    -0.200 F 
ENDBRANCH  59  82
ENDBRANCH  33  34
ENDBRANCH  25  28
ENDBRANCH  23  24
ENDBRANCH   1  23
TORSDOF 11
