REMARK SMILES C[C@@H]1CCC[N@@H+]([C@@H]2CCC[C@]([NH3+])(C(=O)NCCCNC(=O)c3ccc(-c4c5nc(c(-c6c(F)c(F)c(F)c(F)c6F)c6ccc([nH]6)c(-c6c(F)c(F)c(F)c(F)c6F)c6nc(c(-c7c(F)c(F)c(F)c(F)c7F)c7ccc4[nH]7)C=C6)C=C5)cc3)C2)C1
REMARK SMILES IDX 17 1 16 2 15 3 13 4 14 5 11 7 7 8 8 9 85 10 9 11 10 12 6 13
REMARK SMILES IDX 1 14 2 15 3 16 86 17 4 18 5 19 12 21 18 25 19 26 20 27 21 29
REMARK SMILES IDX 22 30 23 31 84 32 24 33 83 34 25 35 26 36 27 37 77 38 28 39
REMARK SMILES IDX 82 40 76 41 78 42 29 43 81 44 75 45 74 46 30 48 62 49 42 50
REMARK SMILES IDX 61 51 43 52 46 53 60 54 79 55 44 56 45 57 59 59 80 60 47 61
REMARK SMILES IDX 31 62 32 63 40 64 33 65 34 66 38 67 41 68 35 69 36 70 39 71
REMARK SMILES IDX 37 72 63 73 64 74 72 75 65 76 66 77 70 78 73 79 67 80 68 81
REMARK SMILES IDX 71 82 69 83 48 84 49 85 57 86 50 87 51 88 55 89 58 90 52 91
REMARK SMILES IDX 53 92 56 93 54 94
REMARK H PARENT 15 6 6 20 12 22 12 23 12 24 19 28 78 47 46 58
REMARK Flexibility Score: inf
ROOT
ATOM      1  C   UNL     1       3.537   2.311  -7.639  1.00  0.00     0.042 C 
ENDROOT
BRANCH   1   2
ATOM      2  C   UNL     1       3.458   1.101  -6.733  1.00  0.00     0.118 C 
BRANCH   2   3
ATOM      3  N   UNL     1       4.367   1.197  -5.597  1.00  0.00    -0.351 N 
ATOM      4  C   UNL     1       4.115   1.230  -4.248  1.00  0.00     0.281 C 
ATOM      5  O   UNL     1       5.079   1.330  -3.488  1.00  0.00    -0.268 OA
ATOM      6  H   UNL     1       5.321   1.245  -5.838  1.00  0.00     0.163 HD
BRANCH   4   7
ATOM      7  C   UNL     1       2.648   1.192  -3.751  1.00  0.00     0.179 C 
ATOM      8  C   UNL     1       1.048   1.080  -1.739  1.00  0.00     0.190 C 
ATOM      9  C   UNL     1       0.180   0.092  -2.558  1.00  0.00     0.065 C 
ATOM     10  C   UNL     1       2.531   1.175  -2.209  1.00  0.00     0.144 C 
ATOM     11  C   UNL     1       0.502  -0.066  -4.031  1.00  0.00     0.013 C 
ATOM     12  C   UNL     1       1.997  -0.128  -4.219  1.00  0.00     0.079 C 
BRANCH   8  13
ATOM     13  N   UNL     1       0.908   0.956  -0.267  1.00  0.00    -0.332 N 
ATOM     14  C   UNL     1      -2.661  -0.046   0.814  1.00  0.00     0.013 C 
ATOM     15  C   UNL     1      -1.280  -0.245   0.196  1.00  0.00     0.041 C 
ATOM     16  C   UNL     1      -0.520  -1.399   0.860  1.00  0.00     0.015 C 
ATOM     17  C   UNL     1      -0.470   1.066   0.232  1.00  0.00     0.265 C 
ATOM     18  C   UNL     1       0.939  -1.480   0.412  1.00  0.00     0.062 C 
ATOM     19  C   UNL     1       1.628  -0.116   0.423  1.00  0.00     0.262 C 
ATOM     20  H   UNL     1       1.423   1.795  -0.002  1.00  0.00     0.348 HD
ENDBRANCH   8  13
BRANCH   7  21
ATOM     21  N   UNL     1       1.981   2.440  -4.213  1.00  0.00    -0.345 N 
ATOM     22  H   UNL     1       1.011   2.443  -3.900  1.00  0.00     0.345 HD
ATOM     23  H   UNL     1       2.010   2.484  -5.232  1.00  0.00     0.345 HD
ATOM     24  H   UNL     1       2.467   3.249  -3.824  1.00  0.00     0.345 HD
ENDBRANCH   7  21
ENDBRANCH   4   7
ENDBRANCH   2   3
ENDBRANCH   1   2
BRANCH   1  25
ATOM     25  C   UNL     1       4.872   2.415  -8.345  1.00  0.00     0.118 C 
BRANCH  25  26
ATOM     26  N   UNL     1       5.116   1.282  -9.230  1.00  0.00    -0.352 N 
ATOM     27  C   UNL     1       5.183   1.236 -10.601  1.00  0.00     0.251 C 
ATOM     28  H   UNL     1       5.254   0.419  -8.776  1.00  0.00     0.163 HD
ATOM     29  O   UNL     1       5.165   0.163 -11.187  1.00  0.00    -0.269 OA
BRANCH  27  30
ATOM     30  C   UNL     1       5.255   2.501 -11.359  1.00  0.00     0.039 A 
ATOM     31  C   UNL     1       4.500   2.646 -12.524  1.00  0.00     0.014 A 
ATOM     32  C   UNL     1       6.051   3.550 -10.897  1.00  0.00     0.014 A 
ATOM     33  C   UNL     1       4.486   3.877 -13.181  1.00  0.00     0.010 A 
ATOM     34  C   UNL     1       5.937   4.803 -11.476  1.00  0.00     0.010 A 
ATOM     35  C   UNL     1       5.169   4.976 -12.635  1.00  0.00    -0.014 A 
BRANCH  35  36
ATOM     36  C   UNL     1       5.129   6.316 -13.269  1.00  0.00     0.031 A 
ATOM     37  C   UNL     1       6.409   6.955 -13.732  1.00  0.00     0.074 A 
ATOM     38  C   UNL     1       3.963   6.986 -13.349  1.00  0.00     0.049 A 
ATOM     39  N   UNL     1       6.612   8.158 -14.204  1.00  0.00    -0.248 NA
ATOM     40  C   UNL     1       7.634   6.145 -13.611  1.00  0.00     0.031 C 
ATOM     41  C   UNL     1       2.666   6.489 -12.887  1.00  0.00     0.029 A 
ATOM     42  N   UNL     1       3.685   8.237 -13.836  1.00  0.00    -0.354 N 
ATOM     43  C   UNL     1       7.981   8.252 -14.415  1.00  0.00     0.074 A 
ATOM     44  C   UNL     1       8.570   7.015 -13.955  1.00  0.00     0.031 C 
ATOM     45  C   UNL     1       1.726   7.414 -13.138  1.00  0.00     0.029 A 
ATOM     46  C   UNL     1       2.361   8.587 -13.733  1.00  0.00     0.049 A 
ATOM     47  H   UNL     1       4.370   8.829 -14.223  1.00  0.00     0.167 HD
ATOM     48  C   UNL     1       8.681   9.268 -14.971  1.00  0.00     0.037 A 
ATOM     49  C   UNL     1       1.734   9.730 -14.069  1.00  0.00     0.037 A 
ATOM     50  C   UNL     1       8.084  10.484 -15.453  1.00  0.00     0.049 A 
ATOM     51  C   UNL     1       2.538  10.851 -14.673  1.00  0.00     0.074 A 
ATOM     52  C   UNL     1       8.692  11.552 -16.087  1.00  0.00     0.029 A 
ATOM     53  N   UNL     1       6.734  10.792 -15.351  1.00  0.00    -0.354 N 
ATOM     54  N   UNL     1       3.822  10.903 -14.932  1.00  0.00    -0.248 NA
ATOM     55  C   UNL     1       1.803  12.070 -15.037  1.00  0.00     0.031 C 
ATOM     56  C   UNL     1       7.721  12.531 -16.318  1.00  0.00     0.029 A 
ATOM     57  C   UNL     1       6.496  12.046 -15.889  1.00  0.00     0.049 A 
ATOM     58  H   UNL     1       6.049  10.207 -14.956  1.00  0.00     0.167 HD
ATOM     59  C   UNL     1       4.043  12.142 -15.521  1.00  0.00     0.074 A 
ATOM     60  C   UNL     1       2.757  12.804 -15.591  1.00  0.00     0.031 C 
ATOM     61  C   UNL     1       5.205  12.682 -15.964  1.00  0.00     0.037 A 
BRANCH  48  62
ATOM     62  C   UNL     1      10.169   9.103 -15.092  1.00  0.00     0.064 A 
ATOM     63  C   UNL     1      10.739   8.158 -15.961  1.00  0.00     0.173 A 
ATOM     64  C   UNL     1      11.039   9.918 -14.352  1.00  0.00     0.173 A 
ATOM     65  F   UNL     1       9.954   7.343 -16.682  1.00  0.00    -0.203 F 
ATOM     66  C   UNL     1      12.121   8.013 -16.057  1.00  0.00     0.198 A 
ATOM     67  C   UNL     1      12.420   9.795 -14.478  1.00  0.00     0.198 A 
ATOM     68  F   UNL     1      10.549  10.840 -13.509  1.00  0.00    -0.203 F 
ATOM     69  F   UNL     1      12.639   7.064 -16.849  1.00  0.00    -0.200 F 
ATOM     70  C   UNL     1      12.960   8.837 -15.323  1.00  0.00     0.200 A 
ATOM     71  F   UNL     1      13.229  10.602 -13.779  1.00  0.00    -0.200 F 
ATOM     72  F   UNL     1      14.289   8.702 -15.423  1.00  0.00    -0.200 F 
ENDBRANCH  48  62
BRANCH  49  73
ATOM     73  C   UNL     1       0.268   9.865 -13.865  1.00  0.00     0.064 A 
ATOM     74  C   UNL     1      -0.607   9.947 -14.958  1.00  0.00     0.173 A 
ATOM     75  C   UNL     1      -0.291   9.925 -12.580  1.00  0.00     0.173 A 
ATOM     76  F   UNL     1      -0.120   9.912 -16.208  1.00  0.00    -0.203 F 
ATOM     77  C   UNL     1      -1.978  10.111 -14.775  1.00  0.00     0.198 A 
ATOM     78  C   UNL     1      -1.666  10.056 -12.397  1.00  0.00     0.198 A 
ATOM     79  F   UNL     1       0.499   9.842 -11.499  1.00  0.00    -0.203 F 
ATOM     80  F   UNL     1      -2.783  10.241 -15.838  1.00  0.00    -0.200 F 
ATOM     81  C   UNL     1      -2.507  10.161 -13.494  1.00  0.00     0.200 A 
ATOM     82  F   UNL     1      -2.175  10.085 -11.158  1.00  0.00    -0.200 F 
ATOM     83  F   UNL     1      -3.826  10.316 -13.318  1.00  0.00    -0.200 F 
ENDBRANCH  49  73
BRANCH  61  84
ATOM     84  C   UNL     1       5.136  14.034 -16.612  1.00  0.00     0.064 A 
ATOM     85  C   UNL     1       4.880  15.198 -15.872  1.00  0.00     0.173 A 
ATOM     86  C   UNL     1       5.383  14.171 -17.987  1.00  0.00     0.173 A 
ATOM     87  F   UNL     1       4.624  15.120 -14.558  1.00  0.00    -0.203 F 
ATOM     88  C   UNL     1       4.849  16.445 -16.490  1.00  0.00     0.198 A 
ATOM     89  C   UNL     1       5.386  15.423 -18.595  1.00  0.00     0.198 A 
ATOM     90  F   UNL     1       5.641  13.090 -18.739  1.00  0.00    -0.203 F 
ATOM     91  F   UNL     1       4.555  17.538 -15.773  1.00  0.00    -0.200 F 
ATOM     92  C   UNL     1       5.112  16.558 -17.848  1.00  0.00     0.200 A 
ATOM     93  F   UNL     1       5.657  15.530 -19.903  1.00  0.00    -0.200 F 
ATOM     94  F   UNL     1       5.094  17.761 -18.437  1.00  0.00    -0.200 F 
ENDBRANCH  61  84
ENDBRANCH  35  36
ENDBRANCH  27  30
ENDBRANCH  25  26
ENDBRANCH   1  25
TORSDOF 12
