REMARK SMILES Cc1ccc(-c2cc(Cl)ccc2Cl)c(C(=O)NCCCNC(=O)c2ccc(-c3c4nc(c(-c5c(F)c(F)c(F)c(F)c5F)c5ccc([nH]5)c(-c5c(F)c(F)c(F)c(F)c5F)c5nc(c(-c6c(F)c(F)c(F)c(F)c6F)c6ccc3[nH]6)C=C5)C=C4)cc2)c1
REMARK SMILES IDX 19 1 18 2 17 3 15 4 16 5 14 7 1 8 2 9 3 10 87 11 4 12 5 13
REMARK SMILES IDX 6 14 7 15 12 16 8 17 11 18 13 19 9 20 10 21 20 22 21 23
REMARK SMILES IDX 22 24 23 26 24 27 25 28 86 29 26 30 85 31 27 32 28 33 29 34
REMARK SMILES IDX 79 35 30 36 84 37 78 38 80 39 31 40 83 41 77 42 76 43 32 45
REMARK SMILES IDX 64 46 44 47 63 48 45 49 48 50 62 51 81 52 46 53 47 54 61 56
REMARK SMILES IDX 82 57 49 58 33 59 34 60 42 61 35 62 36 63 40 64 43 65 37 66
REMARK SMILES IDX 38 67 41 68 39 69 65 70 66 71 74 72 67 73 68 74 72 75 75 76
REMARK SMILES IDX 69 77 70 78 73 79 71 80 50 81 51 82 59 83 52 84 53 85 57 86
REMARK SMILES IDX 60 87 54 88 55 89 58 90 56 91
REMARK H PARENT 17 6 21 25 80 44 48 55
REMARK Flexibility Score: inf
ROOT
ATOM      1  C   UNL     1       1.304   3.986  -0.402  1.00  0.00     0.042 C 
ENDROOT
BRANCH   1   2
ATOM      2  C   UNL     1       0.409   3.810   0.827  1.00  0.00     0.118 C 
BRANCH   2   3
ATOM      3  N   UNL     1      -0.965   3.514   0.451  1.00  0.00    -0.352 N 
ATOM      4  C   UNL     1      -1.657   2.367   0.133  1.00  0.00     0.251 C 
ATOM      5  O   UNL     1      -2.853   2.556  -0.091  1.00  0.00    -0.269 OA
ATOM      6  H   UNL     1      -1.530   4.320   0.416  1.00  0.00     0.163 HD
BRANCH   4   7
ATOM      7  C   UNL     1      -1.063   0.977   0.042  1.00  0.00     0.047 A 
ATOM      8  C   UNL     1       2.420  -0.617  -0.170  1.00  0.00     0.044 C 
ATOM      9  C   UNL     1       0.925  -0.485  -0.107  1.00  0.00    -0.050 A 
ATOM     10  C   UNL     1       0.113  -1.609  -0.116  1.00  0.00     0.004 A 
ATOM     11  C   UNL     1       0.326   0.780  -0.040  1.00  0.00     0.018 A 
ATOM     12  C   UNL     1      -1.271  -1.456  -0.077  1.00  0.00     0.010 A 
ATOM     13  C   UNL     1      -1.888  -0.181  -0.001  1.00  0.00    -0.004 A 
BRANCH  13  14
ATOM     14  C   UNL     1      -3.367  -0.168   0.007  1.00  0.00     0.003 A 
ATOM     15  C   UNL     1      -4.060   0.206  -1.163  1.00  0.00     0.030 A 
ATOM     16  C   UNL     1      -4.131  -0.560   1.125  1.00  0.00     0.049 A 
ATOM     17  C   UNL     1      -5.455   0.232  -1.196  1.00  0.00     0.041 A 
ATOM     18  C   UNL     1      -5.531  -0.560   1.076  1.00  0.00     0.023 A 
ATOM     19  Cl  UNL     1      -3.390  -1.065   2.607  1.00  0.00    -0.084 Cl
ATOM     20  Cl  UNL     1      -6.268   0.749  -2.622  1.00  0.00    -0.084 Cl
ATOM     21  C   UNL     1      -6.193  -0.155  -0.083  1.00  0.00     0.022 A 
ENDBRANCH  13  14
ENDBRANCH   4   7
ENDBRANCH   2   3
ENDBRANCH   1   2
BRANCH   1  22
ATOM     22  C   UNL     1       1.362   5.412  -0.924  1.00  0.00     0.118 C 
BRANCH  22  23
ATOM     23  N   UNL     1       2.589   6.117  -0.569  1.00  0.00    -0.352 N 
ATOM     24  C   UNL     1       2.966   7.419  -0.868  1.00  0.00     0.251 C 
ATOM     25  H   UNL     1       3.241   5.597  -0.045  1.00  0.00     0.163 HD
ATOM     26  O   UNL     1       4.040   7.856  -0.512  1.00  0.00    -0.269 OA
BRANCH  24  27
ATOM     27  C   UNL     1       1.965   8.304  -1.509  1.00  0.00     0.039 A 
ATOM     28  C   UNL     1       1.649   9.500  -0.856  1.00  0.00     0.014 A 
ATOM     29  C   UNL     1       1.183   7.837  -2.560  1.00  0.00     0.014 A 
ATOM     30  C   UNL     1       0.406  10.082  -1.081  1.00  0.00     0.010 A 
ATOM     31  C   UNL     1      -0.091   8.344  -2.701  1.00  0.00     0.010 A 
ATOM     32  C   UNL     1      -0.500   9.421  -1.906  1.00  0.00    -0.014 A 
BRANCH  32  33
ATOM     33  C   UNL     1      -1.925   9.723  -1.929  1.00  0.00     0.031 A 
ATOM     34  C   UNL     1      -2.507  10.450  -3.073  1.00  0.00     0.074 A 
ATOM     35  C   UNL     1      -2.714   9.238  -0.944  1.00  0.00     0.049 A 
ATOM     36  N   UNL     1      -3.642  11.059  -3.050  1.00  0.00    -0.248 NA
ATOM     37  C   UNL     1      -1.807  10.587  -4.343  1.00  0.00     0.031 C 
ATOM     38  C   UNL     1      -4.172   9.155  -0.930  1.00  0.00     0.029 A 
ATOM     39  N   UNL     1      -2.334   8.893   0.365  1.00  0.00    -0.354 N 
ATOM     40  C   UNL     1      -3.945  11.438  -4.339  1.00  0.00     0.074 A 
ATOM     41  C   UNL     1      -2.744  11.172  -5.095  1.00  0.00     0.031 C 
ATOM     42  C   UNL     1      -4.589   9.086   0.344  1.00  0.00     0.029 A 
ATOM     43  C   UNL     1      -3.420   9.287   1.182  1.00  0.00     0.049 A 
ATOM     44  H   UNL     1      -1.493   8.469   0.652  1.00  0.00     0.167 HD
ATOM     45  C   UNL     1      -5.223  11.816  -4.634  1.00  0.00     0.037 A 
ATOM     46  C   UNL     1      -3.293  10.274   2.116  1.00  0.00     0.037 A 
ATOM     47  C   UNL     1      -6.043  11.866  -3.426  1.00  0.00     0.049 A 
ATOM     48  C   UNL     1      -4.259  11.419   1.926  1.00  0.00     0.074 A 
ATOM     49  C   UNL     1      -6.917  10.958  -2.850  1.00  0.00     0.029 A 
ATOM     50  N   UNL     1      -5.778  12.828  -2.459  1.00  0.00    -0.354 N 
ATOM     51  N   UNL     1      -4.820  11.712   0.786  1.00  0.00    -0.248 NA
ATOM     52  C   UNL     1      -4.640  12.340   2.993  1.00  0.00     0.031 C 
ATOM     53  C   UNL     1      -7.135  11.351  -1.506  1.00  0.00     0.029 A 
ATOM     54  C   UNL     1      -6.415  12.510  -1.276  1.00  0.00     0.049 A 
ATOM     55  H   UNL     1      -5.215  13.624  -2.597  1.00  0.00     0.167 HD
ATOM     56  C   UNL     1      -5.606  12.824   0.939  1.00  0.00     0.074 A 
ATOM     57  C   UNL     1      -5.471  13.173   2.341  1.00  0.00     0.031 C 
ATOM     58  C   UNL     1      -6.294  13.367  -0.107  1.00  0.00     0.037 A 
BRANCH  45  59
ATOM     59  C   UNL     1      -5.799  11.847  -6.035  1.00  0.00     0.064 A 
ATOM     60  C   UNL     1      -7.170  11.584  -6.258  1.00  0.00     0.173 A 
ATOM     61  C   UNL     1      -5.049  12.057  -7.207  1.00  0.00     0.173 A 
ATOM     62  F   UNL     1      -8.038  11.483  -5.243  1.00  0.00    -0.203 F 
ATOM     63  C   UNL     1      -7.707  11.413  -7.537  1.00  0.00     0.198 A 
ATOM     64  C   UNL     1      -5.571  11.829  -8.486  1.00  0.00     0.198 A 
ATOM     65  F   UNL     1      -3.808  12.553  -7.160  1.00  0.00    -0.203 F 
ATOM     66  F   UNL     1      -9.014  11.155  -7.681  1.00  0.00    -0.200 F 
ATOM     67  C   UNL     1      -6.898  11.493  -8.650  1.00  0.00     0.200 A 
ATOM     68  F   UNL     1      -4.774  11.944  -9.558  1.00  0.00    -0.200 F 
ATOM     69  F   UNL     1      -7.399  11.280  -9.874  1.00  0.00    -0.200 F 
ENDBRANCH  45  59
BRANCH  46  70
ATOM     70  C   UNL     1      -1.908  10.416   2.642  1.00  0.00     0.064 A 
ATOM     71  C   UNL     1      -1.320   9.313   3.293  1.00  0.00     0.173 A 
ATOM     72  C   UNL     1      -1.056  11.433   2.198  1.00  0.00     0.173 A 
ATOM     73  F   UNL     1      -2.091   8.309   3.740  1.00  0.00    -0.203 F 
ATOM     74  C   UNL     1       0.063   9.174   3.378  1.00  0.00     0.198 A 
ATOM     75  C   UNL     1       0.330  11.300   2.303  1.00  0.00     0.198 A 
ATOM     76  F   UNL     1      -1.550  12.503   1.559  1.00  0.00    -0.203 F 
ATOM     77  F   UNL     1       0.593   8.053   3.889  1.00  0.00    -0.200 F 
ATOM     78  C   UNL     1       0.888  10.156   2.857  1.00  0.00     0.200 A 
ATOM     79  F   UNL     1       1.131  12.235   1.772  1.00  0.00    -0.200 F 
ATOM     80  F   UNL     1       2.217   9.981   2.847  1.00  0.00    -0.200 F 
ENDBRANCH  46  70
BRANCH  58  81
ATOM     81  C   UNL     1      -6.992  14.705  -0.118  1.00  0.00     0.064 A 
ATOM     82  C   UNL     1      -6.587  15.805   0.655  1.00  0.00     0.173 A 
ATOM     83  C   UNL     1      -8.019  14.966  -1.059  1.00  0.00     0.173 A 
ATOM     84  F   UNL     1      -5.550  15.719   1.499  1.00  0.00    -0.203 F 
ATOM     85  C   UNL     1      -7.200  17.056   0.538  1.00  0.00     0.198 A 
ATOM     86  C   UNL     1      -8.587  16.230  -1.214  1.00  0.00     0.198 A 
ATOM     87  F   UNL     1      -8.482  14.010  -1.876  1.00  0.00    -0.203 F 
ATOM     88  F   UNL     1      -6.802  18.064   1.326  1.00  0.00    -0.200 F 
ATOM     89  C   UNL     1      -8.188  17.272  -0.404  1.00  0.00     0.200 A 
ATOM     90  F   UNL     1      -9.507  16.434  -2.168  1.00  0.00    -0.200 F 
ATOM     91  F   UNL     1      -8.736  18.486  -0.547  1.00  0.00    -0.200 F 
ENDBRANCH  58  81
ENDBRANCH  32  33
ENDBRANCH  24  27
ENDBRANCH  22  23
ENDBRANCH   1  22
TORSDOF 11
