REMARK SMILES O=C(NCCCNC(=O)c1ccc(-c2c3nc(c(-c4c(F)c(F)c(F)c(F)c4F)c4ccc([nH]4)c(-c4c(F)c(F)c(F)c(F)c4F)c4nc(c(-c5c(F)c(F)c(F)c(F)c5F)c5ccc2[nH]5)C=C4)C=C3)cc1)c1ccc(N[C@H]2OC[C@@H](O)[C@@H](O)[C@H]2O)cc1
REMARK SMILES IDX 4 1 3 2 1 3 2 4 73 6 74 7 88 8 75 9 87 10 76 11 77 12 78 14
REMARK SMILES IDX 79 15 85 16 80 17 83 18 81 19 86 20 84 22 82 24 5 26 6 27
REMARK SMILES IDX 7 28 8 29 9 31 10 32 11 33 72 34 12 35 71 36 13 37 14 38
REMARK SMILES IDX 15 39 65 40 16 41 70 42 64 43 66 44 17 45 69 46 63 47 62 48
REMARK SMILES IDX 18 50 50 51 30 52 49 53 31 54 34 55 48 56 67 57 32 58 33 59
REMARK SMILES IDX 47 61 68 62 35 63 19 64 20 65 28 66 21 67 22 68 26 69 29 70
REMARK SMILES IDX 23 71 24 72 27 73 25 74 51 75 52 76 60 77 53 78 54 79 58 80
REMARK SMILES IDX 61 81 55 82 56 83 59 84 57 85 36 86 37 87 45 88 38 89 39 90
REMARK SMILES IDX 43 91 46 92 40 93 41 94 44 95 42 96
REMARK H PARENT 3 5 77 13 86 21 84 23 82 25 7 30 66 49 34 60
REMARK Flexibility Score: inf
ROOT
ATOM      1  C   UNL     1       2.219  -9.728   3.626  1.00  0.00     0.118 C 
ENDROOT
BRANCH   1   2
ATOM      2  N   UNL     1       3.183 -10.695   4.135  1.00  0.00    -0.352 N 
ATOM      3  O   UNL     1       5.185 -11.704   4.365  1.00  0.00    -0.269 OA
ATOM      4  C   UNL     1       4.553 -10.703   4.041  1.00  0.00     0.251 C 
ATOM      5  H   UNL     1       2.793 -11.458   4.620  1.00  0.00     0.163 HD
BRANCH   4   6
ATOM      6  C   UNL     1       5.262  -9.515   3.524  1.00  0.00     0.039 A 
ATOM      7  C   UNL     1       4.944  -8.240   3.984  1.00  0.00     0.016 A 
ATOM      8  C   UNL     1       6.266  -9.675   2.572  1.00  0.00     0.016 A 
ATOM      9  C   UNL     1       5.524  -7.121   3.387  1.00  0.00     0.026 A 
ATOM     10  C   UNL     1       6.875  -8.545   2.015  1.00  0.00     0.026 A 
ATOM     11  C   UNL     1       6.478  -7.246   2.374  1.00  0.00     0.036 A 
BRANCH  11  12
ATOM     12  N   UNL     1       7.081  -6.165   1.750  1.00  0.00    -0.358 N 
ATOM     13  H   UNL     1       7.964  -6.305   1.338  1.00  0.00     0.163 HD
BRANCH  12  14
ATOM     14  C   UNL     1       6.491  -4.832   1.664  1.00  0.00     0.244 C 
ATOM     15  O   UNL     1       6.256  -4.316   2.975  1.00  0.00    -0.353 OA
ATOM     16  C   UNL     1       7.514  -3.903   0.965  1.00  0.00     0.195 C 
ATOM     17  C   UNL     1       5.628  -3.029   2.964  1.00  0.00     0.197 C 
ATOM     18  C   UNL     1       6.960  -2.475   0.919  1.00  0.00     0.178 C 
ATOM     19  C   UNL     1       6.544  -1.990   2.317  1.00  0.00     0.171 C 
BRANCH  16  20
ATOM     20  O   UNL     1       8.754  -3.911   1.718  1.00  0.00    -0.386 OA
ATOM     21  H   UNL     1       8.586  -3.597   2.621  1.00  0.00     0.211 HD
ENDBRANCH  16  20
BRANCH  18  22
ATOM     22  O   UNL     1       7.936  -1.592   0.363  1.00  0.00    -0.387 OA
ATOM     23  H   UNL     1       8.727  -1.590   0.925  1.00  0.00     0.211 HD
ENDBRANCH  18  22
BRANCH  19  24
ATOM     24  O   UNL     1       7.703  -1.796   3.140  1.00  0.00    -0.388 OA
ATOM     25  H   UNL     1       8.179  -2.636   3.232  1.00  0.00     0.211 HD
ENDBRANCH  19  24
ENDBRANCH  12  14
ENDBRANCH  11  12
ENDBRANCH   4   6
ENDBRANCH   1   2
BRANCH   1  26
ATOM     26  C   UNL     1       1.367 -10.292   2.499  1.00  0.00     0.042 C 
BRANCH  26  27
ATOM     27  C   UNL     1       0.468 -11.443   2.922  1.00  0.00     0.118 C 
BRANCH  27  28
ATOM     28  N   UNL     1      -0.523 -11.052   3.917  1.00  0.00    -0.352 N 
ATOM     29  C   UNL     1      -1.893 -11.005   3.841  1.00  0.00     0.251 C 
ATOM     30  H   UNL     1      -0.149 -10.777   4.785  1.00  0.00     0.163 HD
ATOM     31  O   UNL     1      -2.535 -10.471   4.742  1.00  0.00    -0.269 OA
BRANCH  29  32
ATOM     32  C   UNL     1      -2.599 -11.566   2.670  1.00  0.00     0.039 A 
ATOM     33  C   UNL     1      -3.684 -10.866   2.135  1.00  0.00     0.014 A 
ATOM     34  C   UNL     1      -2.205 -12.779   2.101  1.00  0.00     0.014 A 
ATOM     35  C   UNL     1      -4.314 -11.338   0.981  1.00  0.00     0.010 A 
ATOM     36  C   UNL     1      -2.767 -13.196   0.899  1.00  0.00     0.010 A 
ATOM     37  C   UNL     1      -3.828 -12.480   0.325  1.00  0.00    -0.014 A 
BRANCH  37  38
ATOM     38  C   UNL     1      -4.407 -12.944  -0.962  1.00  0.00     0.031 A 
ATOM     39  C   UNL     1      -5.039 -14.304  -1.060  1.00  0.00     0.074 A 
ATOM     40  C   UNL     1      -4.290 -12.173  -2.061  1.00  0.00     0.049 A 
ATOM     41  N   UNL     1      -5.508 -14.927  -2.112  1.00  0.00    -0.248 NA
ATOM     42  C   UNL     1      -5.130 -15.082   0.186  1.00  0.00     0.031 C 
ATOM     43  C   UNL     1      -3.657 -10.854  -2.107  1.00  0.00     0.029 A 
ATOM     44  N   UNL     1      -4.686 -12.394  -3.357  1.00  0.00    -0.354 N 
ATOM     45  C   UNL     1      -5.931 -16.169  -1.658  1.00  0.00     0.074 A 
ATOM     46  C   UNL     1      -5.612 -16.237  -0.249  1.00  0.00     0.031 C 
ATOM     47  C   UNL     1      -3.726 -10.375  -3.359  1.00  0.00     0.029 A 
ATOM     48  C   UNL     1      -4.365 -11.370  -4.214  1.00  0.00     0.049 A 
ATOM     49  H   UNL     1      -5.157 -13.210  -3.645  1.00  0.00     0.167 HD
ATOM     50  C   UNL     1      -6.551 -17.155  -2.350  1.00  0.00     0.037 A 
ATOM     51  C   UNL     1      -4.551 -11.252  -5.543  1.00  0.00     0.037 A 
ATOM     52  C   UNL     1      -6.888 -17.074  -3.747  1.00  0.00     0.049 A 
ATOM     53  C   UNL     1      -5.226 -12.371  -6.291  1.00  0.00     0.074 A 
ATOM     54  C   UNL     1      -7.571 -17.993  -4.524  1.00  0.00     0.029 A 
ATOM     55  N   UNL     1      -6.559 -16.013  -4.579  1.00  0.00    -0.354 N 
ATOM     56  N   UNL     1      -5.685 -13.511  -5.838  1.00  0.00    -0.248 NA
ATOM     57  C   UNL     1      -5.412 -12.182  -7.737  1.00  0.00     0.031 C 
ATOM     58  C   UNL     1      -7.606 -17.515  -5.837  1.00  0.00     0.029 A 
ATOM     59  C   UNL     1      -7.001 -16.268  -5.867  1.00  0.00     0.049 A 
ATOM     60  H   UNL     1      -6.083 -15.199  -4.295  1.00  0.00     0.167 HD
ATOM     61  C   UNL     1      -6.241 -14.161  -6.931  1.00  0.00     0.074 A 
ATOM     62  C   UNL     1      -6.074 -13.281  -8.069  1.00  0.00     0.031 C 
ATOM     63  C   UNL     1      -6.837 -15.378  -6.988  1.00  0.00     0.037 A 
BRANCH  50  64
ATOM     64  C   UNL     1      -6.908 -18.410  -1.605  1.00  0.00     0.064 A 
ATOM     65  C   UNL     1      -7.902 -18.422  -0.614  1.00  0.00     0.173 A 
ATOM     66  C   UNL     1      -6.276 -19.624  -1.912  1.00  0.00     0.173 A 
ATOM     67  F   UNL     1      -8.531 -17.287  -0.274  1.00  0.00    -0.203 F 
ATOM     68  C   UNL     1      -8.227 -19.595   0.063  1.00  0.00     0.198 A 
ATOM     69  C   UNL     1      -6.627 -20.802  -1.257  1.00  0.00     0.198 A 
ATOM     70  F   UNL     1      -5.323 -19.672  -2.855  1.00  0.00    -0.203 F 
ATOM     71  F   UNL     1      -9.142 -19.571   1.042  1.00  0.00    -0.200 F 
ATOM     72  C   UNL     1      -7.596 -20.785  -0.265  1.00  0.00     0.200 A 
ATOM     73  F   UNL     1      -6.027 -21.954  -1.586  1.00  0.00    -0.200 F 
ATOM     74  F   UNL     1      -7.916 -21.915   0.381  1.00  0.00    -0.200 F 
ENDBRANCH  50  64
BRANCH  51  75
ATOM     75  C   UNL     1      -4.106 -10.022  -6.251  1.00  0.00     0.064 A 
ATOM     76  C   UNL     1      -5.039  -9.130  -6.798  1.00  0.00     0.173 A 
ATOM     77  C   UNL     1      -2.746  -9.717  -6.403  1.00  0.00     0.173 A 
ATOM     78  F   UNL     1      -6.351  -9.387  -6.696  1.00  0.00    -0.203 F 
ATOM     79  C   UNL     1      -4.628  -7.992  -7.490  1.00  0.00     0.198 A 
ATOM     80  C   UNL     1      -2.336  -8.563  -7.067  1.00  0.00     0.198 A 
ATOM     81  F   UNL     1      -1.812 -10.534  -5.893  1.00  0.00    -0.203 F 
ATOM     82  F   UNL     1      -5.539  -7.183  -8.046  1.00  0.00    -0.200 F 
ATOM     83  C   UNL     1      -3.277  -7.707  -7.619  1.00  0.00     0.200 A 
ATOM     84  F   UNL     1      -1.030  -8.281  -7.174  1.00  0.00    -0.200 F 
ATOM     85  F   UNL     1      -2.882  -6.611  -8.281  1.00  0.00    -0.200 F 
ENDBRANCH  51  75
BRANCH  63  86
ATOM     86  C   UNL     1      -7.393 -15.815  -8.313  1.00  0.00     0.064 A 
ATOM     87  C   UNL     1      -6.560 -16.174  -9.382  1.00  0.00     0.173 A 
ATOM     88  C   UNL     1      -8.781 -15.920  -8.498  1.00  0.00     0.173 A 
ATOM     89  F   UNL     1      -5.228 -16.077  -9.262  1.00  0.00    -0.203 F 
ATOM     90  C   UNL     1      -7.096 -16.600 -10.595  1.00  0.00     0.198 A 
ATOM     91  C   UNL     1      -9.312 -16.377  -9.700  1.00  0.00     0.198 A 
ATOM     92  F   UNL     1      -9.622 -15.594  -7.505  1.00  0.00    -0.203 F 
ATOM     93  F   UNL     1      -6.282 -16.892 -11.619  1.00  0.00    -0.200 F 
ATOM     94  C   UNL     1      -8.470 -16.710 -10.750  1.00  0.00     0.200 A 
ATOM     95  F   UNL     1     -10.639 -16.498  -9.841  1.00  0.00    -0.200 F 
ATOM     96  F   UNL     1      -8.983 -17.130 -11.914  1.00  0.00    -0.200 F 
ENDBRANCH  63  86
ENDBRANCH  37  38
ENDBRANCH  29  32
ENDBRANCH  27  28
ENDBRANCH  26  27
ENDBRANCH   1  26
TORSDOF 15
