REMARK SMILES N#C/C(=C/c1cccn1-c1ccc(C(=O)NCCCNC(=O)c2ccc(-c3c4nc(c(-c5c(F)c(F)c(F)c(F)c5F)c5ccc([nH]5)c(-c5c(F)c(F)c(F)c(F)c5F)c5nc(c(-c6c(F)c(F)c(F)c(F)c6F)c6ccc3[nH]6)C=C5)C=C4)cc2)cc1)C(=O)Nc1ccc(O)cc1
REMARK SMILES IDX 14 1 15 2 16 3 13 5 10 6 11 7 87 8 12 9 86 10 9 11 5 12 6 13
REMARK SMILES IDX 7 14 8 15 4 16 3 17 2 18 1 19 88 20 89 21 90 22 91 24 92 25
REMARK SMILES IDX 97 26 93 27 96 28 94 29 95 30 17 32 18 33 19 34 20 35 21 36
REMARK SMILES IDX 22 38 23 39 24 40 85 41 25 42 84 43 26 44 27 45 28 46 78 47
REMARK SMILES IDX 29 48 83 49 77 50 79 51 30 52 82 53 76 54 75 55 31 57 63 58
REMARK SMILES IDX 43 59 62 60 44 61 47 62 61 63 80 64 45 65 46 66 60 68 81 69
REMARK SMILES IDX 48 70 32 71 33 72 41 73 34 74 35 75 39 76 42 77 36 78 37 79
REMARK SMILES IDX 40 80 38 81 64 82 65 83 73 84 66 85 67 86 71 87 74 88 68 89
REMARK SMILES IDX 69 90 72 91 70 92 49 93 50 94 58 95 51 96 52 97 56 98 59 99
REMARK SMILES IDX 53 100 54 101 57 102 55 103
REMARK H PARENT 16 4 90 23 95 31 20 37 79 56 47 67
REMARK Flexibility Score: inf
ROOT
ATOM      1  C   UNL     1       4.890   0.974  -7.251  1.00  0.00     0.251 C 
ATOM      2  O   UNL     1       5.435   0.433  -8.211  1.00  0.00    -0.269 OA
ATOM      3  N   UNL     1       3.970   1.969  -7.494  1.00  0.00    -0.352 N 
ATOM      4  H   UNL     1       3.845   2.168  -8.450  1.00  0.00     0.163 HD
ENDROOT
BRANCH   1   5
ATOM      5  C   UNL     1       5.221   0.521  -5.873  1.00  0.00     0.039 A 
ATOM      6  C   UNL     1       5.893  -0.287  -3.284  1.00  0.00     0.046 A 
ATOM      7  C   UNL     1       6.138  -1.163  -4.358  1.00  0.00     0.027 A 
ATOM      8  C   UNL     1       5.194   0.902  -3.493  1.00  0.00     0.027 A 
ATOM      9  C   UNL     1       5.771  -0.756  -5.655  1.00  0.00     0.016 A 
ATOM     10  C   UNL     1       5.018   1.352  -4.780  1.00  0.00     0.016 A 
BRANCH   6  11
ATOM     11  N   UNL     1       6.651  -0.476  -1.815  1.00  0.00    -0.317 N 
ATOM     12  C   UNL     1       5.651  -0.835  -0.956  1.00  0.00     0.047 A 
ATOM     13  C   UNL     1       6.801  -1.499  -0.865  1.00  0.00     0.028 A 
ATOM     14  C   UNL     1       8.559  -0.552  -0.252  1.00  0.00     0.020 A 
ATOM     15  C   UNL     1       8.304   0.281  -1.019  1.00  0.00     0.092 A 
BRANCH  12  16
ATOM     16  C   UNL     1       4.277  -0.774  -0.968  1.00  0.00     0.052 C 
ATOM     17  C   UNL     1       3.695   0.024  -0.045  1.00  0.00     0.119 C 
BRANCH  17  18
ATOM     18  C   UNL     1       2.175   0.024  -0.045  1.00  0.00     0.105 C 
ATOM     19  N   UNL     1       0.914   0.024  -0.045  1.00  0.00    -0.192 NA
ENDBRANCH  17  18
BRANCH  17  20
ATOM     20  C   UNL     1       4.382   0.818   1.064  1.00  0.00     0.266 C 
ATOM     21  O   UNL     1       3.675   1.319   1.945  1.00  0.00    -0.268 OA
ATOM     22  N   UNL     1       5.750   0.976   1.199  1.00  0.00    -0.321 N 
ATOM     23  H   UNL     1       6.049   1.512   1.969  1.00  0.00     0.170 HD
BRANCH  22  24
ATOM     24  C   UNL     1       6.779   0.460   0.364  1.00  0.00     0.041 A 
ATOM     25  C   UNL     1       7.425  -1.331   0.927  1.00  0.00     0.030 A 
ATOM     26  C   UNL     1       6.935   1.379  -1.391  1.00  0.00     0.030 A 
ATOM     27  C   UNL     1       8.445  -2.354  -0.481  1.00  0.00     0.048 A 
ATOM     28  C   UNL     1       8.006   0.393  -2.795  1.00  0.00     0.048 A 
ATOM     29  C   UNL     1       8.616  -1.400  -2.207  1.00  0.00     0.115 A 
BRANCH  29  30
ATOM     30  O   UNL     1       9.248  -2.152  -3.193  1.00  0.00    -0.508 OA
ATOM     31  H   UNL     1       9.566  -3.011  -2.996  1.00  0.00     0.293 HD
ENDBRANCH  29  30
ENDBRANCH  22  24
ENDBRANCH  17  20
ENDBRANCH  12  16
ENDBRANCH   6  11
ENDBRANCH   1   5
BRANCH   3  32
ATOM     32  C   UNL     1       3.143   2.786  -6.612  1.00  0.00     0.118 C 
BRANCH  32  33
ATOM     33  C   UNL     1       3.771   4.177  -6.404  1.00  0.00     0.042 C 
BRANCH  33  34
ATOM     34  C   UNL     1       3.316   5.114  -7.506  1.00  0.00     0.118 C 
BRANCH  34  35
ATOM     35  N   UNL     1       1.897   5.406  -7.348  1.00  0.00    -0.352 N 
ATOM     36  C   UNL     1       1.113   6.320  -7.993  1.00  0.00     0.251 C 
ATOM     37  H   UNL     1       1.433   4.861  -6.673  1.00  0.00     0.163 HD
ATOM     38  O   UNL     1       0.084   6.715  -7.453  1.00  0.00    -0.269 OA
BRANCH  36  39
ATOM     39  C   UNL     1       1.446   6.774  -9.353  1.00  0.00     0.039 A 
ATOM     40  C   UNL     1       0.969   8.019  -9.781  1.00  0.00     0.014 A 
ATOM     41  C   UNL     1       2.088   5.913 -10.250  1.00  0.00     0.014 A 
ATOM     42  C   UNL     1       1.120   8.382 -11.113  1.00  0.00     0.010 A 
ATOM     43  C   UNL     1       2.297   6.291 -11.557  1.00  0.00     0.010 A 
ATOM     44  C   UNL     1       1.780   7.506 -11.992  1.00  0.00    -0.014 A 
BRANCH  44  45
ATOM     45  C   UNL     1       2.207   7.981 -13.315  1.00  0.00     0.031 A 
ATOM     46  C   UNL     1       3.466   8.920 -13.060  1.00  0.00     0.074 A 
ATOM     47  C   UNL     1       1.452   7.508 -14.381  1.00  0.00     0.049 A 
ATOM     48  N   UNL     1       3.929   9.904 -13.757  1.00  0.00    -0.248 NA
ATOM     49  C   UNL     1       4.306   8.780 -11.815  1.00  0.00     0.031 C 
ATOM     50  C   UNL     1       0.397   6.449 -14.311  1.00  0.00     0.029 A 
ATOM     51  N   UNL     1       1.415   7.735 -15.746  1.00  0.00    -0.354 N 
ATOM     52  C   UNL     1       5.187  10.301 -13.227  1.00  0.00     0.074 A 
ATOM     53  C   UNL     1       5.295   9.672 -11.953  1.00  0.00     0.031 C 
ATOM     54  C   UNL     1      -0.243   6.272 -15.500  1.00  0.00     0.029 A 
ATOM     55  C   UNL     1       0.313   7.169 -16.490  1.00  0.00     0.049 A 
ATOM     56  H   UNL     1       2.114   8.263 -16.194  1.00  0.00     0.167 HD
ATOM     57  C   UNL     1       6.105  10.975 -13.991  1.00  0.00     0.037 A 
ATOM     58  C   UNL     1      -0.098   7.473 -17.780  1.00  0.00     0.037 A 
ATOM     59  C   UNL     1       5.519  11.218 -15.265  1.00  0.00     0.049 A 
ATOM     60  C   UNL     1       0.997   8.322 -18.246  1.00  0.00     0.074 A 
ATOM     61  C   UNL     1       4.499  12.064 -15.615  1.00  0.00     0.029 A 
ATOM     62  N   UNL     1       5.613  10.188 -16.172  1.00  0.00    -0.354 N 
ATOM     63  N   UNL     1       2.192   7.884 -18.502  1.00  0.00    -0.248 NA
ATOM     64  C   UNL     1       0.797   9.770 -18.212  1.00  0.00     0.031 C 
ATOM     65  C   UNL     1       3.655  11.182 -16.310  1.00  0.00     0.029 A 
ATOM     66  C   UNL     1       4.392  10.089 -16.781  1.00  0.00     0.049 A 
ATOM     67  H   UNL     1       6.405   9.631 -16.348  1.00  0.00     0.167 HD
ATOM     68  C   UNL     1       2.950   9.004 -18.291  1.00  0.00     0.074 A 
ATOM     69  C   UNL     1       2.055  10.148 -18.404  1.00  0.00     0.031 C 
ATOM     70  C   UNL     1       4.081   8.915 -17.540  1.00  0.00     0.037 A 
BRANCH  57  71
ATOM     71  C   UNL     1       7.582  11.254 -13.918  1.00  0.00     0.064 A 
ATOM     72  C   UNL     1       8.109  12.216 -14.828  1.00  0.00     0.173 A 
ATOM     73  C   UNL     1       8.505  10.367 -13.359  1.00  0.00     0.173 A 
ATOM     74  F   UNL     1       7.315  13.149 -15.379  1.00  0.00    -0.203 F 
ATOM     75  C   UNL     1       9.424  12.170 -15.280  1.00  0.00     0.198 A 
ATOM     76  C   UNL     1       9.845  10.366 -13.772  1.00  0.00     0.198 A 
ATOM     77  F   UNL     1       8.112   9.423 -12.495  1.00  0.00    -0.203 F 
ATOM     78  F   UNL     1       9.819  12.981 -16.273  1.00  0.00    -0.200 F 
ATOM     79  C   UNL     1      10.290  11.231 -14.763  1.00  0.00     0.200 A 
ATOM     80  F   UNL     1      10.694   9.461 -13.265  1.00  0.00    -0.200 F 
ATOM     81  F   UNL     1      11.539  11.136 -15.239  1.00  0.00    -0.200 F 
ENDBRANCH  57  71
BRANCH  58  82
ATOM     82  C   UNL     1      -1.263   7.360 -18.782  1.00  0.00     0.064 A 
ATOM     83  C   UNL     1      -2.412   6.574 -18.657  1.00  0.00     0.173 A 
ATOM     84  C   UNL     1      -1.304   8.235 -19.923  1.00  0.00     0.173 A 
ATOM     85  F   UNL     1      -2.464   5.595 -17.746  1.00  0.00    -0.203 F 
ATOM     86  C   UNL     1      -3.551   6.772 -19.485  1.00  0.00     0.198 A 
ATOM     87  C   UNL     1      -2.450   8.491 -20.684  1.00  0.00     0.198 A 
ATOM     88  F   UNL     1      -0.217   8.895 -20.346  1.00  0.00    -0.203 F 
ATOM     89  F   UNL     1      -4.635   5.998 -19.331  1.00  0.00    -0.200 F 
ATOM     90  C   UNL     1      -3.591   7.774 -20.447  1.00  0.00     0.200 A 
ATOM     91  F   UNL     1      -2.432   9.456 -21.618  1.00  0.00    -0.200 F 
ATOM     92  F   UNL     1      -4.706   8.033 -21.145  1.00  0.00    -0.200 F 
ENDBRANCH  58  82
BRANCH  70  93
ATOM     93  C   UNL     1       4.676   7.519 -17.371  1.00  0.00     0.064 A 
ATOM     94  C   UNL     1       5.030   6.782 -18.514  1.00  0.00     0.173 A 
ATOM     95  C   UNL     1       4.834   6.843 -16.144  1.00  0.00     0.173 A 
ATOM     96  F   UNL     1       4.946   7.352 -19.725  1.00  0.00    -0.203 F 
ATOM     97  C   UNL     1       5.487   5.461 -18.440  1.00  0.00     0.198 A 
ATOM     98  C   UNL     1       5.290   5.517 -16.066  1.00  0.00     0.198 A 
ATOM     99  F   UNL     1       4.562   7.449 -14.987  1.00  0.00    -0.203 F 
ATOM    100  F   UNL     1       5.815   4.806 -19.562  1.00  0.00    -0.200 F 
ATOM    101  C   UNL     1       5.615   4.827 -17.217  1.00  0.00     0.200 A 
ATOM    102  F   UNL     1       5.421   4.917 -14.872  1.00  0.00    -0.200 F 
ATOM    103  F   UNL     1       6.070   3.567 -17.148  1.00  0.00    -0.200 F 
ENDBRANCH  70  93
ENDBRANCH  44  45
ENDBRANCH  36  39
ENDBRANCH  34  35
ENDBRANCH  33  34
ENDBRANCH  32  33
ENDBRANCH   3  32
TORSDOF 16
