REMARK SMILES CC(C)(CNC(=O)[C@H]1CCC[C@H](C(=O)NCCCNC(=O)c2ccc(-c3c4nc(c(-c5c(F)c(F)c(F)c(F)c5F)c5ccc([nH]5)c(-c5c(F)c(F)c(F)c(F)c5F)c5nc(c(-c6c(F)c(F)c(F)c(F)c6F)c6ccc3[nH]6)C=C5)C=C4)cc2)C1)S(C)(=O)=O
REMARK SMILES IDX 16 1 15 2 13 3 14 4 12 6 8 7 9 8 85 9 10 10 11 11 6 12 5 13
REMARK SMILES IDX 7 15 4 16 2 17 1 18 3 19 86 20 87 21 88 22 89 23 17 24 18 25
REMARK SMILES IDX 19 26 20 27 21 29 22 30 23 31 84 32 24 33 83 34 25 35 26 36
REMARK SMILES IDX 27 37 77 38 28 39 82 40 76 41 78 42 29 43 81 44 75 45 74 46
REMARK SMILES IDX 30 48 62 49 42 50 61 51 43 52 46 53 60 54 79 55 44 56 45 57
REMARK SMILES IDX 59 59 80 60 47 61 31 62 32 63 40 64 33 65 34 66 38 67 41 68
REMARK SMILES IDX 35 69 36 70 39 71 37 72 63 73 64 74 72 75 65 76 66 77 70 78
REMARK SMILES IDX 73 79 67 80 68 81 71 82 69 83 48 84 49 85 57 86 50 87 51 88
REMARK SMILES IDX 55 89 58 90 52 91 53 92 56 93 54 94
REMARK H PARENT 15 5 5 14 19 28 78 47 46 58
REMARK Flexibility Score: inf
ROOT
ATOM      1  C   UNL     1      -7.261   3.241  -1.555  1.00  0.00     0.117 C 
ENDROOT
BRANCH   1   2
ATOM      2  N   UNL     1      -7.025   2.189  -2.513  1.00  0.00    -0.356 N 
ATOM      3  C   UNL     1      -6.081   2.096  -3.474  1.00  0.00     0.223 C 
ATOM      4  O   UNL     1      -6.281   1.262  -4.357  1.00  0.00    -0.275 OA
ATOM      5  H   UNL     1      -7.644   1.425  -2.459  1.00  0.00     0.163 HD
BRANCH   3   6
ATOM      6  C   UNL     1      -4.766   2.844  -3.360  1.00  0.00     0.079 C 
ATOM      7  C   UNL     1      -2.572   2.818  -2.125  1.00  0.00     0.079 C 
ATOM      8  C   UNL     1      -2.604   4.365  -2.145  1.00  0.00     0.013 C 
ATOM      9  C   UNL     1      -4.004   2.322  -2.138  1.00  0.00     0.027 C 
ATOM     10  C   UNL     1      -3.361   4.936  -3.348  1.00  0.00     0.002 C 
ATOM     11  C   UNL     1      -4.775   4.363  -3.487  1.00  0.00     0.013 C 
BRANCH   7  12
ATOM     12  C   UNL     1      -1.530   2.269  -3.120  1.00  0.00     0.223 C 
ATOM     13  N   UNL     1      -1.694   1.288  -4.045  1.00  0.00    -0.354 N 
ATOM     14  H   UNL     1      -0.883   1.152  -4.586  1.00  0.00     0.163 HD
ATOM     15  O   UNL     1      -0.387   2.747  -3.094  1.00  0.00    -0.275 OA
BRANCH  13  16
ATOM     16  C   UNL     1      -2.772   0.385  -4.437  1.00  0.00     0.138 C 
BRANCH  16  17
ATOM     17  C   UNL     1      -3.027   0.175  -5.955  1.00  0.00     0.084 C 
ATOM     18  C   UNL     1      -1.844  -0.565  -6.599  1.00  0.00     0.030 C 
ATOM     19  C   UNL     1      -4.279  -0.730  -6.095  1.00  0.00     0.030 C 
BRANCH  17  20
ATOM     20  S   UNL     1      -3.355   1.705  -6.940  1.00  0.00     0.154 S 
ATOM     21  C   UNL     1      -2.032   2.849  -6.633  1.00  0.00     0.158 C 
ATOM     22  O   UNL     1      -3.244   1.352  -8.344  1.00  0.00    -0.229 OA
ATOM     23  O   UNL     1      -4.570   2.353  -6.483  1.00  0.00    -0.229 OA
ENDBRANCH  17  20
ENDBRANCH  16  17
ENDBRANCH  13  16
ENDBRANCH   7  12
ENDBRANCH   3   6
ENDBRANCH   1   2
BRANCH   1  24
ATOM     24  C   UNL     1      -8.221   4.263  -2.147  1.00  0.00     0.042 C 
BRANCH  24  25
ATOM     25  C   UNL     1      -9.523   3.621  -2.619  1.00  0.00     0.118 C 
BRANCH  25  26
ATOM     26  N   UNL     1     -10.165   2.861  -1.551  1.00  0.00    -0.352 N 
ATOM     27  C   UNL     1     -11.162   3.243  -0.691  1.00  0.00     0.251 C 
ATOM     28  H   UNL     1      -9.835   1.941  -1.431  1.00  0.00     0.163 HD
ATOM     29  O   UNL     1     -11.340   2.641   0.361  1.00  0.00    -0.269 OA
BRANCH  27  30
ATOM     30  C   UNL     1     -12.007   4.396  -1.046  1.00  0.00     0.039 A 
ATOM     31  C   UNL     1     -12.348   5.326  -0.064  1.00  0.00     0.014 A 
ATOM     32  C   UNL     1     -12.453   4.554  -2.360  1.00  0.00     0.014 A 
ATOM     33  C   UNL     1     -13.078   6.458  -0.422  1.00  0.00     0.010 A 
ATOM     34  C   UNL     1     -13.082   5.730  -2.735  1.00  0.00     0.010 A 
ATOM     35  C   UNL     1     -13.409   6.690  -1.768  1.00  0.00    -0.014 A 
BRANCH  35  36
ATOM     36  C   UNL     1     -14.094   7.934  -2.191  1.00  0.00     0.031 A 
ATOM     37  C   UNL     1     -15.447   7.865  -2.841  1.00  0.00     0.074 A 
ATOM     38  C   UNL     1     -13.456   9.113  -2.058  1.00  0.00     0.049 A 
ATOM     39  N   UNL     1     -16.174   8.831  -3.340  1.00  0.00    -0.248 NA
ATOM     40  C   UNL     1     -16.051   6.529  -2.978  1.00  0.00     0.031 C 
ATOM     41  C   UNL     1     -12.114   9.290  -1.502  1.00  0.00     0.029 A 
ATOM     42  N   UNL     1     -13.847  10.384  -2.392  1.00  0.00    -0.354 N 
ATOM     43  C   UNL     1     -17.307   8.220  -3.860  1.00  0.00     0.074 A 
ATOM     44  C   UNL     1     -17.146   6.796  -3.672  1.00  0.00     0.031 C 
ATOM     45  C   UNL     1     -11.804  10.596  -1.507  1.00  0.00     0.029 A 
ATOM     46  C   UNL     1     -12.904  11.341  -2.109  1.00  0.00     0.049 A 
ATOM     47  H   UNL     1     -14.721  10.591  -2.797  1.00  0.00     0.167 HD
ATOM     48  C   UNL     1     -18.394   8.800  -4.419  1.00  0.00     0.037 A 
ATOM     49  C   UNL     1     -12.921  12.670  -2.325  1.00  0.00     0.037 A 
ATOM     50  C   UNL     1     -18.552  10.222  -4.580  1.00  0.00     0.049 A 
ATOM     51  C   UNL     1     -14.140  13.287  -2.955  1.00  0.00     0.074 A 
ATOM     52  C   UNL     1     -19.645  10.918  -5.063  1.00  0.00     0.029 A 
ATOM     53  N   UNL     1     -17.582  11.164  -4.268  1.00  0.00    -0.354 N 
ATOM     54  N   UNL     1     -15.246  12.710  -3.359  1.00  0.00    -0.248 NA
ATOM     55  C   UNL     1     -14.114  14.742  -3.157  1.00  0.00     0.031 C 
ATOM     56  C   UNL     1     -19.314  12.276  -5.101  1.00  0.00     0.029 A 
ATOM     57  C   UNL     1     -18.038  12.433  -4.584  1.00  0.00     0.049 A 
ATOM     58  H   UNL     1     -16.700  10.960  -3.881  1.00  0.00     0.167 HD
ATOM     59  C   UNL     1     -16.054  13.729  -3.842  1.00  0.00     0.074 A 
ATOM     60  C   UNL     1     -15.321  14.964  -3.656  1.00  0.00     0.031 C 
ATOM     61  C   UNL     1     -17.290  13.651  -4.394  1.00  0.00     0.037 A 
BRANCH  48  62
ATOM     62  C   UNL     1     -19.498   7.902  -4.897  1.00  0.00     0.064 A 
ATOM     63  C   UNL     1     -20.297   7.173  -4.002  1.00  0.00     0.173 A 
ATOM     64  C   UNL     1     -19.790   7.800  -6.266  1.00  0.00     0.173 A 
ATOM     65  F   UNL     1     -20.055   7.224  -2.684  1.00  0.00    -0.203 F 
ATOM     66  C   UNL     1     -21.329   6.358  -4.461  1.00  0.00     0.198 A 
ATOM     67  C   UNL     1     -20.843   7.010  -6.719  1.00  0.00     0.198 A 
ATOM     68  F   UNL     1     -19.060   8.477  -7.165  1.00  0.00    -0.203 F 
ATOM     69  F   UNL     1     -22.046   5.634  -3.591  1.00  0.00    -0.200 F 
ATOM     70  C   UNL     1     -21.606   6.284  -5.818  1.00  0.00     0.200 A 
ATOM     71  F   UNL     1     -21.119   6.951  -8.029  1.00  0.00    -0.200 F 
ATOM     72  F   UNL     1     -22.607   5.508  -6.257  1.00  0.00    -0.200 F 
ENDBRANCH  48  62
BRANCH  49  73
ATOM     73  C   UNL     1     -11.755  13.503  -1.931  1.00  0.00     0.064 A 
ATOM     74  C   UNL     1     -11.852  14.437  -0.891  1.00  0.00     0.173 A 
ATOM     75  C   UNL     1     -10.521  13.388  -2.589  1.00  0.00     0.173 A 
ATOM     76  F   UNL     1     -13.015  14.597  -0.242  1.00  0.00    -0.203 F 
ATOM     77  C   UNL     1     -10.770  15.242  -0.540  1.00  0.00     0.198 A 
ATOM     78  C   UNL     1      -9.429  14.170  -2.216  1.00  0.00     0.198 A 
ATOM     79  F   UNL     1     -10.370  12.504  -3.586  1.00  0.00    -0.203 F 
ATOM     80  F   UNL     1     -10.907  16.162   0.424  1.00  0.00    -0.200 F 
ATOM     81  C   UNL     1      -9.558  15.103  -1.199  1.00  0.00     0.200 A 
ATOM     82  F   UNL     1      -8.255  14.019  -2.842  1.00  0.00    -0.200 F 
ATOM     83  F   UNL     1      -8.516  15.873  -0.858  1.00  0.00    -0.200 F 
ENDBRANCH  49  73
BRANCH  61  84
ATOM     84  C   UNL     1     -17.933  14.939  -4.820  1.00  0.00     0.064 A 
ATOM     85  C   UNL     1     -17.465  15.665  -5.925  1.00  0.00     0.173 A 
ATOM     86  C   UNL     1     -19.055  15.433  -4.136  1.00  0.00     0.173 A 
ATOM     87  F   UNL     1     -16.387  15.242  -6.602  1.00  0.00    -0.203 F 
ATOM     88  C   UNL     1     -18.078  16.853  -6.312  1.00  0.00     0.198 A 
ATOM     89  C   UNL     1     -19.687  16.603  -4.548  1.00  0.00     0.198 A 
ATOM     90  F   UNL     1     -19.548  14.774  -3.077  1.00  0.00    -0.203 F 
ATOM     91  F   UNL     1     -17.580  17.558  -7.337  1.00  0.00    -0.200 F 
ATOM     92  C   UNL     1     -19.193  17.316  -5.629  1.00  0.00     0.200 A 
ATOM     93  F   UNL     1     -20.774  17.040  -3.897  1.00  0.00    -0.200 F 
ATOM     94  F   UNL     1     -19.787  18.456  -6.009  1.00  0.00    -0.200 F 
ENDBRANCH  61  84
ENDBRANCH  35  36
ENDBRANCH  27  30
ENDBRANCH  25  26
ENDBRANCH  24  25
ENDBRANCH   1  24
TORSDOF 14
