REMARK SMILES O=C(CC1CCN(C(=O)[C@@H]2Cc3[nH]cnc3C[NH2+]2)CC1)NCCCNC(=O)c1ccc(-c2c3nc(c(-c4c(F)c(F)c(F)c(F)c4F)c4ccc([nH]4)c(-c4c(F)c(F)c(F)c(F)c4F)c4nc(c(-c5c(F)c(F)c(F)c(F)c5F)c5ccc2[nH]5)C=C4)C=C3)cc1
REMARK SMILES IDX 23 1 22 2 21 3 1 4 2 5 3 7 4 8 5 9 20 10 6 11 19 12 7 13
REMARK SMILES IDX 8 14 9 15 10 16 11 17 18 18 12 19 17 20 13 23 16 24 14 25
REMARK SMILES IDX 15 27 24 28 25 29 26 30 27 32 28 33 29 34 90 35 30 36 89 37
REMARK SMILES IDX 31 38 32 39 33 40 83 41 34 42 88 43 82 44 84 45 35 46 87 47
REMARK SMILES IDX 81 48 80 49 36 51 68 52 48 53 67 54 49 55 52 56 66 57 85 58
REMARK SMILES IDX 50 59 51 60 65 62 86 63 53 64 37 65 38 66 46 67 39 68 40 69
REMARK SMILES IDX 44 70 47 71 41 72 42 73 45 74 43 75 69 76 70 77 78 78 71 79
REMARK SMILES IDX 72 80 76 81 79 82 73 83 74 84 77 85 75 86 54 87 55 88 63 89
REMARK SMILES IDX 56 90 57 91 61 92 64 93 58 94 59 95 62 96 60 97
REMARK H PARENT 21 6 18 21 18 22 13 26 25 31 84 50 52 61
REMARK Flexibility Score: inf
ROOT
ATOM      1  C   UNL     1      15.930  -2.175  -4.853  1.00  0.00     0.042 C 
ENDROOT
BRANCH   1   2
ATOM      2  C   UNL     1      15.762  -0.914  -5.708  1.00  0.00     0.117 C 
BRANCH   2   3
ATOM      3  N   UNL     1      14.906   0.102  -5.105  1.00  0.00    -0.356 N 
ATOM      4  O   UNL     1      16.554   1.671  -4.850  1.00  0.00    -0.275 OA
ATOM      5  C   UNL     1      15.367   1.361  -4.777  1.00  0.00     0.220 C 
ATOM      6  H   UNL     1      13.963  -0.118  -4.926  1.00  0.00     0.163 HD
BRANCH   5   7
ATOM      7  C   UNL     1      14.336   2.349  -4.226  1.00  0.00     0.103 C 
BRANCH   7   8
ATOM      8  C   UNL     1      13.085   2.545  -5.114  1.00  0.00     0.002 C 
ATOM      9  C   UNL     1      12.586   4.016  -5.229  1.00  0.00     0.026 C 
ATOM     10  C   UNL     1      11.930   1.694  -4.595  1.00  0.00     0.026 C 
ATOM     11  C   UNL     1      11.728   4.553  -4.059  1.00  0.00     0.120 C 
ATOM     12  C   UNL     1      11.402   2.297  -3.310  1.00  0.00     0.120 C 
ATOM     13  N   UNL     1      10.776   3.558  -3.563  1.00  0.00    -0.338 N 
ATOM     14  C   UNL     1       9.429   3.847  -3.381  1.00  0.00     0.281 C 
ATOM     15  O   UNL     1       8.999   4.961  -3.714  1.00  0.00    -0.268 OA
BRANCH  14  16
ATOM     16  C   UNL     1       8.390   2.826  -2.766  1.00  0.00     0.279 C 
ATOM     17  C   UNL     1       8.649   2.340  -1.314  1.00  0.00     0.131 C 
ATOM     18  N   UNL     1       7.905   1.794  -3.727  1.00  0.00    -0.331 N 
ATOM     19  C   UNL     1       9.242   0.983  -1.346  1.00  0.00     0.050 A 
ATOM     20  C   UNL     1       8.529   0.460  -3.730  1.00  0.00     0.320 C 
ATOM     21  H   UNL     1       8.024   2.180  -4.663  1.00  0.00     0.347 HD
ATOM     22  H   UNL     1       6.948   1.612  -3.423  1.00  0.00     0.347 HD
ATOM     23  N   UNL     1      10.179   0.468  -0.497  1.00  0.00    -0.348 N 
ATOM     24  C   UNL     1       9.179   0.122  -2.422  1.00  0.00     0.116 A 
ATOM     25  C   UNL     1      10.705  -0.636  -1.117  1.00  0.00     0.197 A 
ATOM     26  H   UNL     1      10.429   0.821   0.387  1.00  0.00     0.167 HD
ATOM     27  N   UNL     1      10.138  -0.859  -2.285  1.00  0.00    -0.236 NA
ENDBRANCH  14  16
ENDBRANCH   7   8
ENDBRANCH   5   7
ENDBRANCH   2   3
ENDBRANCH   1   2
BRANCH   1  28
ATOM     28  C   UNL     1      14.677  -3.039  -4.797  1.00  0.00     0.118 C 
BRANCH  28  29
ATOM     29  N   UNL     1      14.377  -3.738  -6.046  1.00  0.00    -0.352 N 
ATOM     30  C   UNL     1      13.435  -4.730  -6.275  1.00  0.00     0.251 C 
ATOM     31  H   UNL     1      14.914  -3.470  -6.826  1.00  0.00     0.163 HD
ATOM     32  O   UNL     1      13.475  -5.405  -7.288  1.00  0.00    -0.269 OA
BRANCH  30  33
ATOM     33  C   UNL     1      12.386  -4.975  -5.261  1.00  0.00     0.039 A 
ATOM     34  C   UNL     1      11.965  -6.275  -4.959  1.00  0.00     0.014 A 
ATOM     35  C   UNL     1      11.828  -3.889  -4.596  1.00  0.00     0.014 A 
ATOM     36  C   UNL     1      11.047  -6.472  -3.925  1.00  0.00     0.010 A 
ATOM     37  C   UNL     1      11.040  -4.092  -3.490  1.00  0.00     0.010 A 
ATOM     38  C   UNL     1      10.602  -5.374  -3.175  1.00  0.00    -0.014 A 
BRANCH  38  39
ATOM     39  C   UNL     1       9.762  -5.553  -1.990  1.00  0.00     0.031 A 
ATOM     40  C   UNL     1      10.321  -6.455  -0.937  1.00  0.00     0.074 A 
ATOM     41  C   UNL     1       8.689  -4.771  -1.728  1.00  0.00     0.049 A 
ATOM     42  N   UNL     1       9.780  -7.508  -0.416  1.00  0.00    -0.248 NA
ATOM     43  C   UNL     1      11.688  -6.196  -0.452  1.00  0.00     0.031 C 
ATOM     44  C   UNL     1       8.198  -3.612  -2.481  1.00  0.00     0.029 A 
ATOM     45  N   UNL     1       7.874  -4.776  -0.637  1.00  0.00    -0.354 N 
ATOM     46  C   UNL     1      10.658  -7.963   0.568  1.00  0.00     0.074 A 
ATOM     47  C   UNL     1      11.867  -7.197   0.413  1.00  0.00     0.031 C 
ATOM     48  C   UNL     1       7.359  -2.890  -1.705  1.00  0.00     0.029 A 
ATOM     49  C   UNL     1       7.120  -3.619  -0.475  1.00  0.00     0.049 A 
ATOM     50  H   UNL     1       7.823  -5.536  -0.014  1.00  0.00     0.167 HD
ATOM     51  C   UNL     1      10.244  -8.806   1.557  1.00  0.00     0.037 A 
ATOM     52  C   UNL     1       6.400  -3.262   0.621  1.00  0.00     0.037 A 
ATOM     53  C   UNL     1       9.008  -9.455   1.202  1.00  0.00     0.049 A 
ATOM     54  C   UNL     1       6.187  -4.482   1.429  1.00  0.00     0.074 A 
ATOM     55  C   UNL     1       8.610 -10.264   0.153  1.00  0.00     0.029 A 
ATOM     56  N   UNL     1       7.842  -9.012   1.778  1.00  0.00    -0.354 N 
ATOM     57  N   UNL     1       5.416  -5.466   1.060  1.00  0.00    -0.248 NA
ATOM     58  C   UNL     1       7.202  -4.810   2.421  1.00  0.00     0.031 C 
ATOM     59  C   UNL     1       7.292  -9.822  -0.167  1.00  0.00     0.029 A 
ATOM     60  C   UNL     1       6.948  -8.833   0.753  1.00  0.00     0.049 A 
ATOM     61  H   UNL     1       7.680  -8.854   2.736  1.00  0.00     0.167 HD
ATOM     62  C   UNL     1       6.114  -6.604   1.424  1.00  0.00     0.074 A 
ATOM     63  C   UNL     1       7.163  -6.142   2.333  1.00  0.00     0.031 C 
ATOM     64  C   UNL     1       5.977  -7.770   0.729  1.00  0.00     0.037 A 
BRANCH  51  65
ATOM     65  C   UNL     1      10.760  -8.799   2.979  1.00  0.00     0.064 A 
ATOM     66  C   UNL     1      10.297  -9.782   3.882  1.00  0.00     0.173 A 
ATOM     67  C   UNL     1      11.427  -7.706   3.570  1.00  0.00     0.173 A 
ATOM     68  F   UNL     1       9.645 -10.868   3.438  1.00  0.00    -0.203 F 
ATOM     69  C   UNL     1      10.402  -9.626   5.267  1.00  0.00     0.198 A 
ATOM     70  C   UNL     1      11.578  -7.580   4.951  1.00  0.00     0.198 A 
ATOM     71  F   UNL     1      11.861  -6.663   2.853  1.00  0.00    -0.203 F 
ATOM     72  F   UNL     1       9.822 -10.517   6.082  1.00  0.00    -0.200 F 
ATOM     73  C   UNL     1      11.032  -8.519   5.801  1.00  0.00     0.200 A 
ATOM     74  F   UNL     1      12.182  -6.492   5.450  1.00  0.00    -0.200 F 
ATOM     75  F   UNL     1      11.072  -8.330   7.126  1.00  0.00    -0.200 F 
ENDBRANCH  51  65
BRANCH  52  76
ATOM     76  C   UNL     1       6.175  -1.905   1.169  1.00  0.00     0.064 A 
ATOM     77  C   UNL     1       5.138  -1.613   2.064  1.00  0.00     0.173 A 
ATOM     78  C   UNL     1       7.175  -0.929   1.045  1.00  0.00     0.173 A 
ATOM     79  F   UNL     1       4.198  -2.531   2.326  1.00  0.00    -0.203 F 
ATOM     80  C   UNL     1       5.100  -0.403   2.771  1.00  0.00     0.198 A 
ATOM     81  C   UNL     1       7.131   0.287   1.727  1.00  0.00     0.198 A 
ATOM     82  F   UNL     1       8.292  -1.218   0.373  1.00  0.00    -0.203 F 
ATOM     83  F   UNL     1       4.138  -0.188   3.678  1.00  0.00    -0.200 F 
ATOM     84  C   UNL     1       6.093   0.549   2.596  1.00  0.00     0.200 A 
ATOM     85  F   UNL     1       8.143   1.160   1.611  1.00  0.00    -0.200 F 
ATOM     86  F   UNL     1       6.090   1.681   3.312  1.00  0.00    -0.200 F 
ENDBRANCH  52  76
BRANCH  64  87
ATOM     87  C   UNL     1       4.901  -7.858  -0.317  1.00  0.00     0.064 A 
ATOM     88  C   UNL     1       4.848  -7.044  -1.462  1.00  0.00     0.173 A 
ATOM     89  C   UNL     1       3.990  -8.919  -0.243  1.00  0.00     0.173 A 
ATOM     90  F   UNL     1       5.746  -6.074  -1.663  1.00  0.00    -0.203 F 
ATOM     91  C   UNL     1       3.904  -7.260  -2.465  1.00  0.00     0.198 A 
ATOM     92  C   UNL     1       3.073  -9.157  -1.263  1.00  0.00     0.198 A 
ATOM     93  F   UNL     1       4.027  -9.765   0.799  1.00  0.00    -0.203 F 
ATOM     94  F   UNL     1       3.875  -6.464  -3.544  1.00  0.00    -0.200 F 
ATOM     95  C   UNL     1       3.024  -8.323  -2.368  1.00  0.00     0.200 A 
ATOM     96  F   UNL     1       2.257 -10.217  -1.189  1.00  0.00    -0.200 F 
ATOM     97  F   UNL     1       2.147  -8.562  -3.353  1.00  0.00    -0.200 F 
ENDBRANCH  64  87
ENDBRANCH  38  39
ENDBRANCH  30  33
ENDBRANCH  28  29
ENDBRANCH   1  28
TORSDOF 12
