REMARK SMILES CC[C@](C)(NC(=O)NC[C@@H](C)[NH+](C)C)C(=O)NCCCNC(=O)c1ccc(-c2c3nc(c(-c4c(F)c(F)c(F)c(F)c4F)c4ccc([nH]4)c(-c4c(F)c(F)c(F)c(F)c4F)c4nc(c(-c5c(F)c(F)c(F)c(F)c5F)c5ccc2[nH]5)C=C4)C=C3)cc1
REMARK SMILES IDX 18 1 17 2 15 3 16 4 3 6 4 7 2 8 1 9 5 10 6 11 7 13 8 14 9 16
REMARK SMILES IDX 10 17 11 18 12 19 13 20 14 21 19 23 20 24 21 25 22 26 23 28
REMARK SMILES IDX 24 29 25 30 86 31 26 32 85 33 27 34 28 35 29 36 79 37 30 38
REMARK SMILES IDX 84 39 78 40 80 41 31 42 83 43 77 44 76 45 32 47 64 48 44 49
REMARK SMILES IDX 63 50 45 51 48 52 62 53 81 54 46 55 47 56 61 58 82 59 49 60
REMARK SMILES IDX 33 61 34 62 42 63 35 64 36 65 40 66 43 67 37 68 38 69 41 70
REMARK SMILES IDX 39 71 65 72 66 73 74 74 67 75 68 76 72 77 75 78 69 79 70 80
REMARK SMILES IDX 73 81 71 82 50 83 51 84 59 85 52 86 53 87 57 88 60 89 54 90
REMARK SMILES IDX 55 91 58 92 56 93
REMARK H PARENT 17 5 5 12 8 15 12 22 21 27 80 46 48 57
REMARK Flexibility Score: inf
ROOT
ATOM      1  C   UNL     1       1.906   3.667  -3.642  1.00  0.00     0.117 C 
ENDROOT
BRANCH   1   2
ATOM      2  N   UNL     1       2.521   2.610  -2.848  1.00  0.00    -0.354 N 
ATOM      3  C   UNL     1       2.092   1.824  -1.807  1.00  0.00     0.245 C 
ATOM      4  O   UNL     1       2.666   0.743  -1.628  1.00  0.00    -0.272 OA
ATOM      5  H   UNL     1       3.449   2.417  -3.117  1.00  0.00     0.163 HD
BRANCH   3   6
ATOM      6  C   UNL     1       0.851   2.169  -0.971  1.00  0.00     0.117 C 
ATOM      7  C   UNL     1       0.754   1.433   0.380  1.00  0.00     0.045 C 
BRANCH   6   8
ATOM      8  C   UNL     1      -0.384   1.736  -1.835  1.00  0.00     0.035 C 
ATOM      9  C   UNL     1      -0.387   0.264  -2.278  1.00  0.00     0.007 C 
ENDBRANCH   6   8
BRANCH   6  10
ATOM     10  N   UNL     1       0.847   3.616  -0.695  1.00  0.00    -0.324 N 
ATOM     11  C   UNL     1       1.690   4.472  -0.103  1.00  0.00     0.315 C 
ATOM     12  H   UNL     1       0.031   4.059  -1.025  1.00  0.00     0.166 HD
ATOM     13  O   UNL     1       1.226   5.583   0.181  1.00  0.00    -0.249 OA
ATOM     14  N   UNL     1       2.993   4.297   0.140  1.00  0.00    -0.332 N 
ATOM     15  H   UNL     1       3.403   5.141   0.436  1.00  0.00     0.165 HD
BRANCH  14  16
ATOM     16  C   UNL     1       4.004   3.224   0.098  1.00  0.00     0.182 C 
BRANCH  16  17
ATOM     17  C   UNL     1       4.990   3.268  -1.125  1.00  0.00     0.200 C 
ATOM     18  C   UNL     1       6.208   4.162  -0.862  1.00  0.00     0.077 C 
BRANCH  17  19
ATOM     19  N   UNL     1       5.351   1.935  -1.647  1.00  0.00    -0.336 N 
ATOM     20  C   UNL     1       6.007   1.926  -2.951  1.00  0.00     0.332 C 
ATOM     21  C   UNL     1       6.031   1.057  -0.706  1.00  0.00     0.332 C 
ATOM     22  H   UNL     1       4.426   1.530  -1.793  1.00  0.00     0.347 HD
ENDBRANCH  17  19
ENDBRANCH  16  17
ENDBRANCH  14  16
ENDBRANCH   6  10
ENDBRANCH   3   6
ENDBRANCH   1   2
BRANCH   1  23
ATOM     23  C   UNL     1       2.172   5.153  -3.353  1.00  0.00     0.042 C 
BRANCH  23  24
ATOM     24  C   UNL     1       3.571   5.757  -3.439  1.00  0.00     0.118 C 
BRANCH  24  25
ATOM     25  N   UNL     1       4.364   5.326  -4.570  1.00  0.00    -0.352 N 
ATOM     26  C   UNL     1       5.312   6.037  -5.270  1.00  0.00     0.251 C 
ATOM     27  H   UNL     1       4.205   4.405  -4.879  1.00  0.00     0.163 HD
ATOM     28  O   UNL     1       5.835   5.550  -6.264  1.00  0.00    -0.269 OA
BRANCH  26  29
ATOM     29  C   UNL     1       5.688   7.406  -4.841  1.00  0.00     0.039 A 
ATOM     30  C   UNL     1       5.674   8.429  -5.793  1.00  0.00     0.014 A 
ATOM     31  C   UNL     1       6.100   7.677  -3.533  1.00  0.00     0.014 A 
ATOM     32  C   UNL     1       6.041   9.728  -5.429  1.00  0.00     0.010 A 
ATOM     33  C   UNL     1       6.424   8.986  -3.160  1.00  0.00     0.010 A 
ATOM     34  C   UNL     1       6.407  10.025  -4.105  1.00  0.00    -0.014 A 
BRANCH  34  35
ATOM     35  C   UNL     1       6.783  11.415  -3.720  1.00  0.00     0.031 A 
ATOM     36  C   UNL     1       8.194  11.744  -3.311  1.00  0.00     0.074 A 
ATOM     37  C   UNL     1       5.851  12.389  -3.730  1.00  0.00     0.049 A 
ATOM     38  N   UNL     1       8.710  12.898  -2.964  1.00  0.00    -0.248 NA
ATOM     39  C   UNL     1       9.148  10.627  -3.271  1.00  0.00     0.031 C 
ATOM     40  C   UNL     1       4.441  12.202  -4.072  1.00  0.00     0.029 A 
ATOM     41  N   UNL     1       5.949  13.730  -3.446  1.00  0.00    -0.354 N 
ATOM     42  C   UNL     1      10.043  12.645  -2.666  1.00  0.00     0.074 A 
ATOM     43  C   UNL     1      10.242  11.219  -2.816  1.00  0.00     0.031 C 
ATOM     44  C   UNL     1       3.812  13.386  -4.003  1.00  0.00     0.029 A 
ATOM     45  C   UNL     1       4.763  14.411  -3.580  1.00  0.00     0.049 A 
ATOM     46  H   UNL     1       6.790  14.162  -3.172  1.00  0.00     0.167 HD
ATOM     47  C   UNL     1      11.018  13.522  -2.321  1.00  0.00     0.037 A 
ATOM     48  C   UNL     1       4.473  15.712  -3.383  1.00  0.00     0.037 A 
ATOM     49  C   UNL     1      10.823  14.942  -2.177  1.00  0.00     0.049 A 
ATOM     50  C   UNL     1       5.569  16.661  -2.972  1.00  0.00     0.074 A 
ATOM     51  C   UNL     1      11.760  15.916  -1.874  1.00  0.00     0.029 A 
ATOM     52  N   UNL     1       9.606  15.593  -2.316  1.00  0.00    -0.354 N 
ATOM     53  N   UNL     1       6.840  16.421  -2.765  1.00  0.00    -0.248 NA
ATOM     54  C   UNL     1       5.188  18.068  -2.779  1.00  0.00     0.031 C 
ATOM     55  C   UNL     1      11.100  17.145  -1.771  1.00  0.00     0.029 A 
ATOM     56  C   UNL     1       9.764  16.950  -2.078  1.00  0.00     0.049 A 
ATOM     57  H   UNL     1       8.755  15.155  -2.549  1.00  0.00     0.167 HD
ATOM     58  C   UNL     1       7.417  17.646  -2.456  1.00  0.00     0.074 A 
ATOM     59  C   UNL     1       6.358  18.632  -2.516  1.00  0.00     0.031 C 
ATOM     60  C   UNL     1       8.707  17.928  -2.152  1.00  0.00     0.037 A 
BRANCH  47  61
ATOM     61  C   UNL     1      12.394  12.969  -2.068  1.00  0.00     0.064 A 
ATOM     62  C   UNL     1      13.177  12.437  -3.104  1.00  0.00     0.173 A 
ATOM     63  C   UNL     1      12.953  13.007  -0.781  1.00  0.00     0.173 A 
ATOM     64  F   UNL     1      12.691  12.370  -4.353  1.00  0.00    -0.203 F 
ATOM     65  C   UNL     1      14.452  11.934  -2.856  1.00  0.00     0.198 A 
ATOM     66  C   UNL     1      14.242  12.536  -0.542  1.00  0.00     0.198 A 
ATOM     67  F   UNL     1      12.254  13.514   0.246  1.00  0.00    -0.203 F 
ATOM     68  F   UNL     1      15.159  11.382  -3.852  1.00  0.00    -0.200 F 
ATOM     69  C   UNL     1      14.986  11.991  -1.577  1.00  0.00     0.200 A 
ATOM     70  F   UNL     1      14.762  12.607   0.690  1.00  0.00    -0.200 F 
ATOM     71  F   UNL     1      16.216  11.514  -1.341  1.00  0.00    -0.200 F 
ENDBRANCH  47  61
BRANCH  48  72
ATOM     72  C   UNL     1       3.084  16.206  -3.592  1.00  0.00     0.064 A 
ATOM     73  C   UNL     1       2.780  17.087  -4.640  1.00  0.00     0.173 A 
ATOM     74  C   UNL     1       2.039  15.826  -2.737  1.00  0.00     0.173 A 
ATOM     75  F   UNL     1       3.748  17.499  -5.471  1.00  0.00    -0.203 F 
ATOM     76  C   UNL     1       1.491  17.589  -4.808  1.00  0.00     0.198 A 
ATOM     77  C   UNL     1       0.744  16.302  -2.927  1.00  0.00     0.198 A 
ATOM     78  F   UNL     1       2.275  14.983  -1.721  1.00  0.00    -0.203 F 
ATOM     79  F   UNL     1       1.241  18.474  -5.783  1.00  0.00    -0.200 F 
ATOM     80  C   UNL     1       0.472  17.192  -3.955  1.00  0.00     0.200 A 
ATOM     81  F   UNL     1      -0.240  15.904  -2.109  1.00  0.00    -0.200 F 
ATOM     82  F   UNL     1      -0.767  17.674  -4.117  1.00  0.00    -0.200 F 
ENDBRANCH  48  72
BRANCH  60  83
ATOM     83  C   UNL     1       9.065  19.369  -1.910  1.00  0.00     0.064 A 
ATOM     84  C   UNL     1       8.623  20.065  -0.775  1.00  0.00     0.173 A 
ATOM     85  C   UNL     1       9.893  20.053  -2.815  1.00  0.00     0.173 A 
ATOM     86  F   UNL     1       7.820  19.464   0.115  1.00  0.00    -0.203 F 
ATOM     87  C   UNL     1       8.969  21.399  -0.573  1.00  0.00     0.198 A 
ATOM     88  C   UNL     1      10.266  21.375  -2.591  1.00  0.00     0.198 A 
ATOM     89  F   UNL     1      10.351  19.434  -3.914  1.00  0.00    -0.203 F 
ATOM     90  F   UNL     1       8.488  22.060   0.490  1.00  0.00    -0.200 F 
ATOM     91  C   UNL     1       9.796  22.051  -1.476  1.00  0.00     0.200 A 
ATOM     92  F   UNL     1      11.080  21.997  -3.456  1.00  0.00    -0.200 F 
ATOM     93  F   UNL     1      10.133  23.332  -1.275  1.00  0.00    -0.200 F 
ENDBRANCH  60  83
ENDBRANCH  34  35
ENDBRANCH  26  29
ENDBRANCH  24  25
ENDBRANCH  23  24
ENDBRANCH   1  23
TORSDOF 15
