REMARK SMILES C=Cc1cncc(-c2ccc([C@@H](C)C(=O)NCCCNC(=O)c3ccc(-c4c5nc(c(-c6c(F)c(F)c(F)c(F)c6F)c6ccc([nH]6)c(-c6c(F)c(F)c(F)c(F)c6F)c6nc(c(-c7c(F)c(F)c(F)c(F)c7F)c7ccc4[nH]7)C=C6)C=C5)cc3)cc2)c1
REMARK SMILES IDX 17 1 16 2 14 3 15 4 12 6 13 7 11 8 8 9 9 10 87 11 10 12
REMARK SMILES IDX 86 13 7 14 3 15 4 16 88 17 5 18 6 19 2 20 1 21 18 22 19 23
REMARK SMILES IDX 20 24 21 25 22 27 23 28 24 29 85 30 25 31 84 32 26 33 27 34
REMARK SMILES IDX 28 35 78 36 29 37 83 38 77 39 79 40 30 41 82 42 76 43 75 44
REMARK SMILES IDX 31 46 63 47 43 48 62 49 44 50 47 51 61 52 80 53 45 54 46 55
REMARK SMILES IDX 60 57 81 58 48 59 32 60 33 61 41 62 34 63 35 64 39 65 42 66
REMARK SMILES IDX 36 67 37 68 40 69 38 70 64 71 65 72 73 73 66 74 67 75 71 76
REMARK SMILES IDX 74 77 68 78 69 79 72 80 70 81 49 82 50 83 58 84 51 85 52 86
REMARK SMILES IDX 56 87 59 88 53 89 54 90 57 91 55 92
REMARK H PARENT 16 5 20 26 79 45 47 56
REMARK Flexibility Score: inf
ROOT
ATOM      1  C   UNL     1      -7.333   4.651  -1.801  1.00  0.00     0.117 C 
ENDROOT
BRANCH   1   2
ATOM      2  N   UNL     1      -6.571   4.952  -2.997  1.00  0.00    -0.356 N 
ATOM      3  C   UNL     1      -6.205   4.185  -4.060  1.00  0.00     0.227 C 
ATOM      4  O   UNL     1      -5.478   4.731  -4.900  1.00  0.00    -0.274 OA
ATOM      5  H   UNL     1      -6.261   5.885  -3.049  1.00  0.00     0.163 HD
BRANCH   3   6
ATOM      6  C   UNL     1      -6.635   2.723  -4.255  1.00  0.00     0.105 C 
ATOM      7  C   UNL     1      -8.148   2.511  -4.314  1.00  0.00     0.023 C 
BRANCH   6   8
ATOM      8  C   UNL     1      -5.852   1.753  -3.384  1.00  0.00    -0.036 A 
ATOM      9  C   UNL     1      -4.205   0.111  -1.723  1.00  0.00    -0.017 A 
ATOM     10  C   UNL     1      -5.460   0.570  -1.293  1.00  0.00     0.009 A 
ATOM     11  C   UNL     1      -3.817   0.449  -3.029  1.00  0.00     0.009 A 
ATOM     12  C   UNL     1      -6.280   1.353  -2.116  1.00  0.00     0.005 A 
ATOM     13  C   UNL     1      -4.617   1.268  -3.837  1.00  0.00     0.005 A 
BRANCH   9  14
ATOM     14  C   UNL     1      -3.325  -0.664  -0.824  1.00  0.00     0.001 A 
ATOM     15  C   UNL     1      -1.121  -1.201   0.089  1.00  0.00    -0.007 A 
ATOM     16  C   UNL     1      -1.756  -2.093   0.946  1.00  0.00     0.119 A 
ATOM     17  C   UNL     1      -1.930  -0.491  -0.807  1.00  0.00     0.020 A 
ATOM     18  N   UNL     1      -3.091  -2.307   0.972  1.00  0.00    -0.263 NA
ATOM     19  C   UNL     1      -3.831  -1.595   0.088  1.00  0.00     0.119 A 
BRANCH  15  20
ATOM     20  C   UNL     1       0.341  -1.077   0.114  1.00  0.00     0.002 C 
ATOM     21  C   UNL     1       1.003   0.076  -0.040  1.00  0.00     0.009 C 
ENDBRANCH  15  20
ENDBRANCH   9  14
ENDBRANCH   6   8
ENDBRANCH   3   6
ENDBRANCH   1   2
BRANCH   1  22
ATOM     22  C   UNL     1      -6.440   4.358  -0.598  1.00  0.00     0.042 C 
BRANCH  22  23
ATOM     23  C   UNL     1      -5.888   5.603   0.086  1.00  0.00     0.118 C 
BRANCH  23  24
ATOM     24  N   UNL     1      -6.917   6.340   0.808  1.00  0.00    -0.352 N 
ATOM     25  C   UNL     1      -7.057   6.612   2.146  1.00  0.00     0.251 C 
ATOM     26  H   UNL     1      -7.633   6.704   0.239  1.00  0.00     0.163 HD
ATOM     27  O   UNL     1      -8.118   7.082   2.549  1.00  0.00    -0.269 OA
BRANCH  25  28
ATOM     28  C   UNL     1      -5.967   6.347   3.115  1.00  0.00     0.039 A 
ATOM     29  C   UNL     1      -6.308   5.918   4.403  1.00  0.00     0.014 A 
ATOM     30  C   UNL     1      -4.626   6.582   2.802  1.00  0.00     0.014 A 
ATOM     31  C   UNL     1      -5.310   5.678   5.353  1.00  0.00     0.010 A 
ATOM     32  C   UNL     1      -3.626   6.269   3.723  1.00  0.00     0.010 A 
ATOM     33  C   UNL     1      -3.957   5.826   5.012  1.00  0.00    -0.014 A 
BRANCH  33  34
ATOM     34  C   UNL     1      -2.879   5.543   5.995  1.00  0.00     0.031 A 
ATOM     35  C   UNL     1      -1.976   6.649   6.468  1.00  0.00     0.074 A 
ATOM     36  C   UNL     1      -2.675   4.281   6.420  1.00  0.00     0.049 A 
ATOM     37  N   UNL     1      -0.932   6.589   7.258  1.00  0.00    -0.248 NA
ATOM     38  C   UNL     1      -2.268   8.001   5.965  1.00  0.00     0.031 C 
ATOM     39  C   UNL     1      -3.454   3.114   6.006  1.00  0.00     0.029 A 
ATOM     40  N   UNL     1      -1.742   3.768   7.287  1.00  0.00    -0.354 N 
ATOM     41  C   UNL     1      -0.436   7.884   7.329  1.00  0.00     0.074 A 
ATOM     42  C   UNL     1      -1.262   8.702   6.467  1.00  0.00     0.031 C 
ATOM     43  C   UNL     1      -2.982   2.025   6.635  1.00  0.00     0.029 A 
ATOM     44  C   UNL     1      -1.847   2.411   7.468  1.00  0.00     0.049 A 
ATOM     45  H   UNL     1      -1.062   4.321   7.736  1.00  0.00     0.167 HD
ATOM     46  C   UNL     1       0.601   8.354   8.064  1.00  0.00     0.037 A 
ATOM     47  C   UNL     1      -1.107   1.572   8.217  1.00  0.00     0.037 A 
ATOM     48  C   UNL     1       1.402   7.548   8.947  1.00  0.00     0.049 A 
ATOM     49  C   UNL     1       0.033   2.120   9.030  1.00  0.00     0.074 A 
ATOM     50  C   UNL     1       2.441   7.941   9.772  1.00  0.00     0.029 A 
ATOM     51  N   UNL     1       1.249   6.180   9.121  1.00  0.00    -0.354 N 
ATOM     52  N   UNL     1       0.462   3.355   9.127  1.00  0.00    -0.248 NA
ATOM     53  C   UNL     1       0.790   1.157   9.842  1.00  0.00     0.031 C 
ATOM     54  C   UNL     1       2.939   6.805  10.421  1.00  0.00     0.029 A 
ATOM     55  C   UNL     1       2.183   5.712  10.031  1.00  0.00     0.049 A 
ATOM     56  H   UNL     1       0.576   5.624   8.665  1.00  0.00     0.167 HD
ATOM     57  C   UNL     1       1.518   3.323  10.027  1.00  0.00     0.074 A 
ATOM     58  C   UNL     1       1.657   1.947  10.459  1.00  0.00     0.031 C 
ATOM     59  C   UNL     1       2.303   4.341  10.456  1.00  0.00     0.037 A 
BRANCH  46  60
ATOM     60  C   UNL     1       0.925   9.816   7.949  1.00  0.00     0.064 A 
ATOM     61  C   UNL     1       0.084  10.799   8.491  1.00  0.00     0.173 A 
ATOM     62  C   UNL     1       2.106  10.237   7.320  1.00  0.00     0.173 A 
ATOM     63  F   UNL     1      -1.063  10.449   9.093  1.00  0.00    -0.203 F 
ATOM     64  C   UNL     1       0.398  12.151   8.382  1.00  0.00     0.198 A 
ATOM     65  C   UNL     1       2.432  11.589   7.238  1.00  0.00     0.198 A 
ATOM     66  F   UNL     1       2.949   9.338   6.790  1.00  0.00    -0.203 F 
ATOM     67  F   UNL     1      -0.445  13.074   8.865  1.00  0.00    -0.200 F 
ATOM     68  C   UNL     1       1.574  12.545   7.762  1.00  0.00     0.200 A 
ATOM     69  F   UNL     1       3.575  11.967   6.649  1.00  0.00    -0.200 F 
ATOM     70  F   UNL     1       1.878  13.846   7.663  1.00  0.00    -0.200 F 
ENDBRANCH  46  60
BRANCH  47  71
ATOM     71  C   UNL     1      -1.444   0.126   8.259  1.00  0.00     0.064 A 
ATOM     72  C   UNL     1      -2.006  -0.445   9.409  1.00  0.00     0.173 A 
ATOM     73  C   UNL     1      -1.214  -0.711   7.159  1.00  0.00     0.173 A 
ATOM     74  F   UNL     1      -2.222   0.313  10.495  1.00  0.00    -0.203 F 
ATOM     75  C   UNL     1      -2.310  -1.803   9.463  1.00  0.00     0.198 A 
ATOM     76  C   UNL     1      -1.542  -2.065   7.205  1.00  0.00     0.198 A 
ATOM     77  F   UNL     1      -0.679  -0.212   6.035  1.00  0.00    -0.203 F 
ATOM     78  F   UNL     1      -2.807  -2.331  10.590  1.00  0.00    -0.200 F 
ATOM     79  C   UNL     1      -2.083  -2.611   8.359  1.00  0.00     0.200 A 
ATOM     80  F   UNL     1      -1.328  -2.841   6.134  1.00  0.00    -0.200 F 
ATOM     81  F   UNL     1      -2.377  -3.917   8.412  1.00  0.00    -0.200 F 
ENDBRANCH  47  71
BRANCH  59  82
ATOM     82  C   UNL     1       3.361   4.013  11.467  1.00  0.00     0.064 A 
ATOM     83  C   UNL     1       4.522   3.311  11.114  1.00  0.00     0.173 A 
ATOM     84  C   UNL     1       3.227   4.438  12.798  1.00  0.00     0.173 A 
ATOM     85  F   UNL     1       4.688   2.870   9.858  1.00  0.00    -0.203 F 
ATOM     86  C   UNL     1       5.501   3.027  12.062  1.00  0.00     0.198 A 
ATOM     87  C   UNL     1       4.220   4.176  13.736  1.00  0.00     0.198 A 
ATOM     88  F   UNL     1       2.137   5.118  13.184  1.00  0.00    -0.203 F 
ATOM     89  F   UNL     1       6.583   2.317  11.713  1.00  0.00    -0.200 F 
ATOM     90  C   UNL     1       5.353   3.465  13.370  1.00  0.00     0.200 A 
ATOM     91  F   UNL     1       4.080   4.609  14.997  1.00  0.00    -0.200 F 
ATOM     92  F   UNL     1       6.299   3.195  14.279  1.00  0.00    -0.200 F 
ENDBRANCH  59  82
ENDBRANCH  33  34
ENDBRANCH  25  28
ENDBRANCH  23  24
ENDBRANCH  22  23
ENDBRANCH   1  22
TORSDOF 13
