REMARK SMILES CC[C@H](C)[NH2+][C@H](CS)C(=O)NCCCNC(=O)c1ccc(-c2c3nc(c(-c4c(F)c(F)c(F)c(F)c4F)c4ccc([nH]4)c(-c4c(F)c(F)c(F)c(F)c4F)c4nc(c(-c5c(F)c(F)c(F)c(F)c5F)c5ccc2[nH]5)C=C4)C=C3)cc1
REMARK SMILES IDX 12 1 11 2 9 3 10 4 6 6 5 7 3 10 4 11 2 12 1 13 7 14 8 15
REMARK SMILES IDX 13 17 14 18 15 19 16 20 17 22 18 23 19 24 80 25 20 26 79 27
REMARK SMILES IDX 21 28 22 29 23 30 73 31 24 32 78 33 72 34 74 35 25 36 77 37
REMARK SMILES IDX 71 38 70 39 26 41 58 42 38 43 57 44 39 45 42 46 56 47 75 48
REMARK SMILES IDX 40 49 41 50 55 52 76 53 43 54 27 55 28 56 36 57 29 58 30 59
REMARK SMILES IDX 34 60 37 61 31 62 32 63 35 64 33 65 59 66 60 67 68 68 61 69
REMARK SMILES IDX 62 70 66 71 69 72 63 73 64 74 67 75 65 76 44 77 45 78 53 79
REMARK SMILES IDX 46 80 47 81 51 82 54 83 48 84 49 85 52 86 50 87
REMARK H PARENT 11 5 5 8 5 9 8 16 15 21 74 40 42 51
REMARK Flexibility Score: inf
ROOT
ATOM      1  C   UNL     1      -2.110  -5.412   1.221  1.00  0.00     0.118 C 
ENDROOT
BRANCH   1   2
ATOM      2  N   UNL     1      -1.058  -6.352   0.877  1.00  0.00    -0.351 N 
ATOM      3  C   UNL     1       0.278  -6.149   0.694  1.00  0.00     0.279 C 
ATOM      4  O   UNL     1       0.965  -7.126   0.386  1.00  0.00    -0.268 OA
ATOM      5  H   UNL     1      -1.357  -7.282   0.757  1.00  0.00     0.163 HD
BRANCH   3   6
ATOM      6  C   UNL     1       0.921  -4.756   0.904  1.00  0.00     0.282 C 
BRANCH   6   7
ATOM      7  N   UNL     1       0.745  -4.417   2.338  1.00  0.00    -0.333 N 
ATOM      8  H   UNL     1      -0.257  -4.420   2.531  1.00  0.00     0.347 HD
ATOM      9  H   UNL     1       1.290  -5.120   2.838  1.00  0.00     0.347 HD
BRANCH   7  10
ATOM     10  C   UNL     1       1.275  -3.141   2.804  1.00  0.00     0.179 C 
ATOM     11  C   UNL     1       0.471  -2.794   4.071  1.00  0.00     0.075 C 
BRANCH  10  12
ATOM     12  C   UNL     1       2.776  -3.101   3.172  1.00  0.00     0.061 C 
ATOM     13  C   UNL     1       3.731  -3.929   2.330  1.00  0.00     0.010 C 
ENDBRANCH  10  12
ENDBRANCH   7  10
ENDBRANCH   6   7
BRANCH   6  14
ATOM     14  C   UNL     1       0.361  -3.772  -0.143  1.00  0.00     0.141 C 
BRANCH  14  15
ATOM     15  S   UNL     1       1.612  -2.659  -0.877  1.00  0.00    -0.173 SA
ATOM     16  H   UNL     1       2.145  -1.872   0.095  1.00  0.00     0.102 HD
ENDBRANCH  14  15
ENDBRANCH   6  14
ENDBRANCH   3   6
ENDBRANCH   1   2
BRANCH   1  17
ATOM     17  C   UNL     1      -2.981  -5.077   0.015  1.00  0.00     0.042 C 
BRANCH  17  18
ATOM     18  C   UNL     1      -3.685  -6.287  -0.589  1.00  0.00     0.118 C 
BRANCH  18  19
ATOM     19  N   UNL     1      -4.637  -6.894   0.330  1.00  0.00    -0.352 N 
ATOM     20  C   UNL     1      -5.998  -7.038   0.219  1.00  0.00     0.251 C 
ATOM     21  H   UNL     1      -4.245  -7.256   1.157  1.00  0.00     0.163 HD
ATOM     22  O   UNL     1      -6.659  -7.392   1.188  1.00  0.00    -0.269 OA
BRANCH  20  23
ATOM     23  C   UNL     1      -6.671  -6.745  -1.064  1.00  0.00     0.039 A 
ATOM     24  C   UNL     1      -7.859  -6.011  -1.052  1.00  0.00     0.014 A 
ATOM     25  C   UNL     1      -6.138  -7.198  -2.273  1.00  0.00     0.014 A 
ATOM     26  C   UNL     1      -8.472  -5.667  -2.258  1.00  0.00     0.010 A 
ATOM     27  C   UNL     1      -6.704  -6.787  -3.476  1.00  0.00     0.010 A 
ATOM     28  C   UNL     1      -7.876  -6.015  -3.480  1.00  0.00    -0.014 A 
BRANCH  28  29
ATOM     29  C   UNL     1      -8.449  -5.569  -4.776  1.00  0.00     0.031 A 
ATOM     30  C   UNL     1      -8.937  -6.582  -5.773  1.00  0.00     0.074 A 
ATOM     31  C   UNL     1      -8.450  -4.258  -5.085  1.00  0.00     0.049 A 
ATOM     32  N   UNL     1      -9.375  -6.399  -6.994  1.00  0.00    -0.248 NA
ATOM     33  C   UNL     1      -8.904  -7.993  -5.355  1.00  0.00     0.031 C 
ATOM     34  C   UNL     1      -7.961  -3.184  -4.219  1.00  0.00     0.029 A 
ATOM     35  N   UNL     1      -8.859  -3.605  -6.222  1.00  0.00    -0.354 N 
ATOM     36  C   UNL     1      -9.646  -7.666  -7.493  1.00  0.00     0.074 A 
ATOM     37  C   UNL     1      -9.284  -8.614  -6.462  1.00  0.00     0.031 C 
ATOM     38  C   UNL     1      -8.111  -2.008  -4.847  1.00  0.00     0.029 A 
ATOM     39  C   UNL     1      -8.662  -2.245  -6.177  1.00  0.00     0.049 A 
ATOM     40  H   UNL     1      -9.256  -4.067  -6.995  1.00  0.00     0.167 HD
ATOM     41  C   UNL     1     -10.167  -8.004  -8.696  1.00  0.00     0.037 A 
ATOM     42  C   UNL     1      -8.881  -1.301  -7.112  1.00  0.00     0.037 A 
ATOM     43  C   UNL     1     -10.555  -7.052  -9.704  1.00  0.00     0.049 A 
ATOM     44  C   UNL     1      -9.446  -1.709  -8.447  1.00  0.00     0.074 A 
ATOM     45  C   UNL     1     -11.173  -7.289 -10.919  1.00  0.00     0.029 A 
ATOM     46  N   UNL     1     -10.354  -5.682  -9.617  1.00  0.00    -0.354 N 
ATOM     47  N   UNL     1      -9.782  -2.901  -8.874  1.00  0.00    -0.248 NA
ATOM     48  C   UNL     1      -9.662  -0.638  -9.430  1.00  0.00     0.031 C 
ATOM     49  C   UNL     1     -11.289  -6.071 -11.595  1.00  0.00     0.029 A 
ATOM     50  C   UNL     1     -10.801  -5.066 -10.775  1.00  0.00     0.049 A 
ATOM     51  H   UNL     1      -9.954  -5.217  -8.847  1.00  0.00     0.167 HD
ATOM     52  C   UNL     1     -10.275  -2.722 -10.159  1.00  0.00     0.074 A 
ATOM     53  C   UNL     1     -10.211  -1.303 -10.437  1.00  0.00     0.031 C 
ATOM     54  C   UNL     1     -10.739  -3.650 -11.032  1.00  0.00     0.037 A 
BRANCH  41  55
ATOM     55  C   UNL     1     -10.348  -9.463  -8.999  1.00  0.00     0.064 A 
ATOM     56  C   UNL     1     -11.315 -10.240  -8.345  1.00  0.00     0.173 A 
ATOM     57  C   UNL     1      -9.580 -10.078 -10.000  1.00  0.00     0.173 A 
ATOM     58  F   UNL     1     -12.069  -9.704  -7.374  1.00  0.00    -0.203 F 
ATOM     59  C   UNL     1     -11.491 -11.584  -8.665  1.00  0.00     0.198 A 
ATOM     60  C   UNL     1      -9.781 -11.414 -10.340  1.00  0.00     0.198 A 
ATOM     61  F   UNL     1      -8.646  -9.380 -10.662  1.00  0.00    -0.203 F 
ATOM     62  F   UNL     1     -12.392 -12.318  -7.997  1.00  0.00    -0.200 F 
ATOM     63  C   UNL     1     -10.731 -12.167  -9.668  1.00  0.00     0.200 A 
ATOM     64  F   UNL     1      -9.056 -11.970 -11.320  1.00  0.00    -0.200 F 
ATOM     65  F   UNL     1     -10.912 -13.457  -9.984  1.00  0.00    -0.200 F 
ENDBRANCH  41  55
BRANCH  42  66
ATOM     66  C   UNL     1      -8.567   0.125  -6.824  1.00  0.00     0.064 A 
ATOM     67  C   UNL     1      -9.587   1.082  -6.727  1.00  0.00     0.173 A 
ATOM     68  C   UNL     1      -7.245   0.564  -6.663  1.00  0.00     0.173 A 
ATOM     69  F   UNL     1     -10.867   0.716  -6.893  1.00  0.00    -0.203 F 
ATOM     70  C   UNL     1      -9.295   2.427  -6.510  1.00  0.00     0.198 A 
ATOM     71  C   UNL     1      -6.956   1.905  -6.413  1.00  0.00     0.198 A 
ATOM     72  F   UNL     1      -6.231  -0.310  -6.741  1.00  0.00    -0.203 F 
ATOM     73  F   UNL     1     -10.286   3.329  -6.480  1.00  0.00    -0.200 F 
ATOM     74  C   UNL     1      -7.981   2.837  -6.349  1.00  0.00     0.200 A 
ATOM     75  F   UNL     1      -5.686   2.293  -6.241  1.00  0.00    -0.200 F 
ATOM     76  F   UNL     1      -7.700   4.130  -6.141  1.00  0.00    -0.200 F 
ENDBRANCH  42  66
BRANCH  54  77
ATOM     77  C   UNL     1     -11.245  -3.161 -12.358  1.00  0.00     0.064 A 
ATOM     78  C   UNL     1     -10.374  -2.678 -13.346  1.00  0.00     0.173 A 
ATOM     79  C   UNL     1     -12.613  -3.227 -12.663  1.00  0.00     0.173 A 
ATOM     80  F   UNL     1      -9.060  -2.579 -13.098  1.00  0.00    -0.203 F 
ATOM     81  C   UNL     1     -10.858  -2.262 -14.584  1.00  0.00     0.198 A 
ATOM     82  C   UNL     1     -13.089  -2.841 -13.912  1.00  0.00     0.198 A 
ATOM     83  F   UNL     1     -13.487  -3.687 -11.755  1.00  0.00    -0.203 F 
ATOM     84  F   UNL     1     -10.014  -1.762 -15.497  1.00  0.00    -0.200 F 
ATOM     85  C   UNL     1     -12.213  -2.353 -14.869  1.00  0.00     0.200 A 
ATOM     86  F   UNL     1     -14.395  -2.946 -14.192  1.00  0.00    -0.200 F 
ATOM     87  F   UNL     1     -12.674  -1.965 -16.066  1.00  0.00    -0.200 F 
ENDBRANCH  54  77
ENDBRANCH  28  29
ENDBRANCH  20  23
ENDBRANCH  18  19
ENDBRANCH  17  18
ENDBRANCH   1  17
TORSDOF 15
