REMARK SMILES CC(C)(C)OC(=O)N1CCSC[C@@H]1CC(=O)NCCCNC(=O)c1ccc(-c2c3nc(c(-c4c(F)c(F)c(F)c(F)c4F)c4ccc([nH]4)c(-c4c(F)c(F)c(F)c(F)c4F)c4nc(c(-c5c(F)c(F)c(F)c(F)c5F)c5ccc2[nH]5)C=C4)C=C3)cc1
REMARK SMILES IDX 18 1 17 2 15 3 16 4 14 6 13 7 8 8 9 9 10 10 12 11 11 12 6 13
REMARK SMILES IDX 7 14 5 15 2 16 1 17 3 18 4 19 19 20 20 21 21 22 22 23 23 25
REMARK SMILES IDX 24 26 25 27 86 28 26 29 85 30 27 31 28 32 29 33 79 34 30 35
REMARK SMILES IDX 84 36 78 37 80 38 31 39 83 40 77 41 76 42 32 44 64 45 44 46
REMARK SMILES IDX 63 47 45 48 48 49 62 50 81 51 46 52 47 53 61 55 82 56 49 57
REMARK SMILES IDX 33 58 34 59 42 60 35 61 36 62 40 63 43 64 37 65 38 66 41 67
REMARK SMILES IDX 39 68 65 69 66 70 74 71 67 72 68 73 72 74 75 75 69 76 70 77
REMARK SMILES IDX 73 78 71 79 50 80 51 81 59 82 52 83 53 84 57 85 60 86 54 87
REMARK SMILES IDX 55 88 58 89 56 90
REMARK H PARENT 17 5 21 24 80 43 48 54
REMARK Flexibility Score: inf
ROOT
ATOM      1  C   UNL     1       0.106  -3.150   2.599  1.00  0.00     0.117 C 
ENDROOT
BRANCH   1   2
ATOM      2  N   UNL     1       1.105  -3.714   3.498  1.00  0.00    -0.356 N 
ATOM      3  C   UNL     1       1.258  -3.594   4.851  1.00  0.00     0.222 C 
ATOM      4  O   UNL     1       2.240  -4.135   5.362  1.00  0.00    -0.275 OA
ATOM      5  H   UNL     1       1.783  -4.275   3.057  1.00  0.00     0.163 HD
BRANCH   3   6
ATOM      6  C   UNL     1       0.241  -2.854   5.698  1.00  0.00     0.126 C 
BRANCH   6   7
ATOM      7  C   UNL     1       0.452  -1.358   6.026  1.00  0.00     0.107 C 
ATOM      8  N   UNL     1       1.100  -0.536   4.991  1.00  0.00    -0.303 N 
ATOM      9  C   UNL     1       2.560  -0.665   4.821  1.00  0.00     0.134 C 
ATOM     10  C   UNL     1       3.348  -0.364   6.099  1.00  0.00     0.091 C 
ATOM     11  C   UNL     1       1.048  -1.069   7.414  1.00  0.00     0.095 C 
ATOM     12  S   UNL     1       2.832  -1.390   7.513  1.00  0.00    -0.158 SA
BRANCH   8  13
ATOM     13  C   UNL     1       0.352   0.454   4.362  1.00  0.00     0.410 C 
ATOM     14  O   UNL     1      -0.762   0.788   4.724  1.00  0.00    -0.224 OA
BRANCH  13  15
ATOM     15  O   UNL     1       0.974   0.930   3.257  1.00  0.00    -0.444 OA
BRANCH  15  16
ATOM     16  C   UNL     1       0.325   1.822   2.314  1.00  0.00     0.106 C 
ATOM     17  C   UNL     1       0.975   1.478   0.979  1.00  0.00     0.056 C 
ATOM     18  C   UNL     1       0.683   3.261   2.669  1.00  0.00     0.056 C 
ATOM     19  C   UNL     1      -1.190   1.635   2.147  1.00  0.00     0.056 C 
ENDBRANCH  15  16
ENDBRANCH  13  15
ENDBRANCH   8  13
ENDBRANCH   6   7
ENDBRANCH   3   6
ENDBRANCH   1   2
BRANCH   1  20
ATOM     20  C   UNL     1       0.650  -1.971   1.793  1.00  0.00     0.042 C 
BRANCH  20  21
ATOM     21  C   UNL     1       1.534  -2.298   0.588  1.00  0.00     0.118 C 
BRANCH  21  22
ATOM     22  N   UNL     1       0.780  -2.487  -0.644  1.00  0.00    -0.352 N 
ATOM     23  C   UNL     1       0.516  -1.698  -1.740  1.00  0.00     0.251 C 
ATOM     24  H   UNL     1       0.368  -3.379  -0.707  1.00  0.00     0.163 HD
ATOM     25  O   UNL     1      -0.273  -2.150  -2.574  1.00  0.00    -0.269 OA
BRANCH  23  26
ATOM     26  C   UNL     1       1.070  -0.331  -1.975  1.00  0.00     0.039 A 
ATOM     27  C   UNL     1       0.242   0.593  -2.637  1.00  0.00     0.014 A 
ATOM     28  C   UNL     1       2.364   0.075  -1.648  1.00  0.00     0.014 A 
ATOM     29  C   UNL     1       0.671   1.905  -2.909  1.00  0.00     0.010 A 
ATOM     30  C   UNL     1       2.771   1.411  -1.861  1.00  0.00     0.010 A 
ATOM     31  C   UNL     1       1.931   2.352  -2.491  1.00  0.00    -0.014 A 
BRANCH  31  32
ATOM     32  C   UNL     1       2.373   3.771  -2.726  1.00  0.00     0.031 A 
ATOM     33  C   UNL     1       3.604   4.067  -3.554  1.00  0.00     0.074 A 
ATOM     34  C   UNL     1       1.706   4.820  -2.191  1.00  0.00     0.049 A 
ATOM     35  N   UNL     1       4.169   5.221  -3.826  1.00  0.00    -0.248 NA
ATOM     36  C   UNL     1       4.297   2.913  -4.146  1.00  0.00     0.031 C 
ATOM     37  C   UNL     1       0.504   4.734  -1.363  1.00  0.00     0.029 A 
ATOM     38  N   UNL     1       1.956   6.176  -2.255  1.00  0.00    -0.354 N 
ATOM     39  C   UNL     1       5.284   4.929  -4.604  1.00  0.00     0.074 A 
ATOM     40  C   UNL     1       5.348   3.487  -4.715  1.00  0.00     0.031 C 
ATOM     41  C   UNL     1       0.129   5.969  -0.990  1.00  0.00     0.029 A 
ATOM     42  C   UNL     1       1.069   6.945  -1.535  1.00  0.00     0.049 A 
ATOM     43  H   UNL     1       2.703   6.560  -2.770  1.00  0.00     0.167 HD
ATOM     44  C   UNL     1       6.161   5.774  -5.200  1.00  0.00     0.037 A 
ATOM     45  C   UNL     1       1.010   8.277  -1.326  1.00  0.00     0.037 A 
ATOM     46  C   UNL     1       6.100   7.212  -5.144  1.00  0.00     0.049 A 
ATOM     47  C   UNL     1       2.021   9.193  -1.970  1.00  0.00     0.074 A 
ATOM     48  C   UNL     1       6.913   8.132  -5.786  1.00  0.00     0.029 A 
ATOM     49  N   UNL     1       5.183   7.940  -4.405  1.00  0.00    -0.354 N 
ATOM     50  N   UNL     1       3.017   8.899  -2.768  1.00  0.00    -0.248 NA
ATOM     51  C   UNL     1       1.889  10.634  -1.692  1.00  0.00     0.031 C 
ATOM     52  C   UNL     1       6.524   9.416  -5.392  1.00  0.00     0.029 A 
ATOM     53  C   UNL     1       5.432   9.298  -4.551  1.00  0.00     0.049 A 
ATOM     54  H   UNL     1       4.462   7.553  -3.858  1.00  0.00     0.167 HD
ATOM     55  C   UNL     1       3.599  10.113  -3.117  1.00  0.00     0.074 A 
ATOM     56  C   UNL     1       2.841  11.151  -2.456  1.00  0.00     0.031 C 
ATOM     57  C   UNL     1       4.670  10.340  -3.915  1.00  0.00     0.037 A 
BRANCH  44  58
ATOM     58  C   UNL     1       7.283   5.165  -5.992  1.00  0.00     0.064 A 
ATOM     59  C   UNL     1       7.055   4.537  -7.225  1.00  0.00     0.173 A 
ATOM     60  C   UNL     1       8.609   5.274  -5.544  1.00  0.00     0.173 A 
ATOM     61  F   UNL     1       5.805   4.404  -7.694  1.00  0.00    -0.203 F 
ATOM     62  C   UNL     1       8.110   4.016  -7.969  1.00  0.00     0.198 A 
ATOM     63  C   UNL     1       9.664   4.779  -6.306  1.00  0.00     0.198 A 
ATOM     64  F   UNL     1       8.882   5.877  -4.378  1.00  0.00    -0.203 F 
ATOM     65  F   UNL     1       7.865   3.382  -9.123  1.00  0.00    -0.200 F 
ATOM     66  C   UNL     1       9.414   4.145  -7.513  1.00  0.00     0.200 A 
ATOM     67  F   UNL     1      10.925   4.921  -5.872  1.00  0.00    -0.200 F 
ATOM     68  F   UNL     1      10.430   3.655  -8.237  1.00  0.00    -0.200 F 
ENDBRANCH  44  58
BRANCH  45  69
ATOM     69  C   UNL     1      -0.054   8.858  -0.459  1.00  0.00     0.064 A 
ATOM     70  C   UNL     1      -1.051   9.689  -0.993  1.00  0.00     0.173 A 
ATOM     71  C   UNL     1      -0.051   8.657   0.929  1.00  0.00     0.173 A 
ATOM     72  F   UNL     1      -1.079   9.938  -2.311  1.00  0.00    -0.203 F 
ATOM     73  C   UNL     1      -1.978  10.325  -0.170  1.00  0.00     0.198 A 
ATOM     74  C   UNL     1      -0.999   9.269   1.748  1.00  0.00     0.198 A 
ATOM     75  F   UNL     1       0.880   7.875   1.493  1.00  0.00    -0.203 F 
ATOM     76  F   UNL     1      -2.873  11.170  -0.700  1.00  0.00    -0.200 F 
ATOM     77  C   UNL     1      -1.953  10.113   1.200  1.00  0.00     0.200 A 
ATOM     78  F   UNL     1      -0.976   9.055   3.071  1.00  0.00    -0.200 F 
ATOM     79  F   UNL     1      -2.836  10.735   1.993  1.00  0.00    -0.200 F 
ENDBRANCH  45  69
BRANCH  57  80
ATOM     80  C   UNL     1       5.070  11.767  -4.170  1.00  0.00     0.064 A 
ATOM     81  C   UNL     1       5.647  12.564  -3.171  1.00  0.00     0.173 A 
ATOM     82  C   UNL     1       4.918  12.330  -5.448  1.00  0.00     0.173 A 
ATOM     83  F   UNL     1       5.803  12.083  -1.929  1.00  0.00    -0.203 F 
ATOM     84  C   UNL     1       6.037  13.876  -3.435  1.00  0.00     0.198 A 
ATOM     85  C   UNL     1       5.338  13.630  -5.717  1.00  0.00     0.198 A 
ATOM     86  F   UNL     1       4.377  11.611  -6.444  1.00  0.00    -0.203 F 
ATOM     87  F   UNL     1       6.545  14.633  -2.452  1.00  0.00    -0.200 F 
ATOM     88  C   UNL     1       5.890  14.405  -4.709  1.00  0.00     0.200 A 
ATOM     89  F   UNL     1       5.209  14.133  -6.952  1.00  0.00    -0.200 F 
ATOM     90  F   UNL     1       6.276  15.663  -4.963  1.00  0.00    -0.200 F 
ENDBRANCH  57  80
ENDBRANCH  31  32
ENDBRANCH  23  26
ENDBRANCH  21  22
ENDBRANCH  20  21
ENDBRANCH   1  20
TORSDOF 14
