REMARK SMILES COc1ccc(/C=C/c2cc(OC)cc(OC)c2/C=C/C(=O)NCCCNC(=O)c2ccc(-c3c4nc(c(-c5c(F)c(F)c(F)c(F)c5F)c5ccc([nH]5)c(-c5c(F)c(F)c(F)c(F)c5F)c5nc(c(-c6c(F)c(F)c(F)c(F)c6F)c6ccc3[nH]6)C=C5)C=C4)cc2)cc1
REMARK SMILES IDX 24 1 23 2 21 3 22 4 20 6 19 7 18 8 9 9 10 10 11 11 15 12
REMARK SMILES IDX 14 13 8 14 7 15 6 16 3 17 4 18 94 19 5 20 93 21 2 22 1 23
REMARK SMILES IDX 12 24 13 25 16 26 17 27 25 28 26 29 27 30 28 31 29 33 30 34
REMARK SMILES IDX 31 35 92 36 32 37 91 38 33 39 34 40 35 41 85 42 36 43 90 44
REMARK SMILES IDX 84 45 86 46 37 47 89 48 83 49 82 50 38 52 70 53 50 54 69 55
REMARK SMILES IDX 51 56 54 57 68 58 87 59 52 60 53 61 67 63 88 64 55 65 39 66
REMARK SMILES IDX 40 67 48 68 41 69 42 70 46 71 49 72 43 73 44 74 47 75 45 76
REMARK SMILES IDX 71 77 72 78 80 79 73 80 74 81 78 82 81 83 75 84 76 85 79 86
REMARK SMILES IDX 77 87 56 88 57 89 65 90 58 91 59 92 63 93 66 94 60 95 61 96
REMARK SMILES IDX 64 97 62 98
REMARK H PARENT 23 5 27 32 86 51 54 62
REMARK Flexibility Score: inf
ROOT
ATOM      1  C   UNL     1       4.329  -6.611   0.091  1.00  0.00     0.118 C 
ENDROOT
BRANCH   1   2
ATOM      2  N   UNL     1       5.239  -7.721   0.272  1.00  0.00    -0.352 N 
ATOM      3  C   UNL     1       5.290  -8.873  -0.447  1.00  0.00     0.244 C 
ATOM      4  O   UNL     1       6.131  -9.733  -0.212  1.00  0.00    -0.270 OA
ATOM      5  H   UNL     1       5.896  -7.632   1.000  1.00  0.00     0.163 HD
BRANCH   3   6
ATOM      6  C   UNL     1       4.341  -9.037  -1.561  1.00  0.00     0.072 C 
ATOM      7  C   UNL     1       3.048  -9.294  -1.313  1.00  0.00     0.018 C 
BRANCH   7   8
ATOM      8  C   UNL     1       2.094  -9.624  -2.381  1.00  0.00     0.024 A 
ATOM      9  C   UNL     1       1.041  -8.701  -2.659  1.00  0.00    -0.011 A 
ATOM     10  C   UNL     1       0.069  -9.014  -3.627  1.00  0.00     0.055 A 
ATOM     11  C   UNL     1       0.099 -10.226  -4.308  1.00  0.00     0.123 A 
ATOM     12  C   UNL     1       2.131 -10.844  -3.096  1.00  0.00     0.130 A 
ATOM     13  C   UNL     1       1.138 -11.112  -4.056  1.00  0.00     0.093 A 
BRANCH   9  14
ATOM     14  C   UNL     1       0.808  -7.431  -1.930  1.00  0.00     0.009 C 
ATOM     15  C   UNL     1       1.488  -6.290  -2.141  1.00  0.00     0.009 C 
BRANCH  15  16
ATOM     16  C   UNL     1       1.244  -5.012  -1.431  1.00  0.00    -0.025 A 
ATOM     17  C   UNL     1       0.878  -2.550  -0.082  1.00  0.00     0.118 A 
ATOM     18  C   UNL     1      -0.166  -3.469  -0.175  1.00  0.00     0.047 A 
ATOM     19  C   UNL     1       2.112  -2.861  -0.645  1.00  0.00     0.047 A 
ATOM     20  C   UNL     1       0.011  -4.682  -0.853  1.00  0.00     0.012 A 
ATOM     21  C   UNL     1       2.285  -4.073  -1.331  1.00  0.00     0.012 A 
BRANCH  17  22
ATOM     22  O   UNL     1       0.612  -1.404   0.617  1.00  0.00    -0.497 OA
ATOM     23  C   UNL     1       1.162  -0.225   0.030  1.00  0.00     0.278 C 
ENDBRANCH  17  22
ENDBRANCH  15  16
ENDBRANCH   9  14
BRANCH  11  24
ATOM     24  O   UNL     1      -0.934 -10.448  -5.177  1.00  0.00    -0.497 OA
ATOM     25  C   UNL     1      -1.124 -11.802  -5.585  1.00  0.00     0.278 C 
ENDBRANCH  11  24
BRANCH  12  26
ATOM     26  O   UNL     1       2.970 -11.921  -3.015  1.00  0.00    -0.496 OA
ATOM     27  C   UNL     1       4.056 -12.011  -2.113  1.00  0.00     0.278 C 
ENDBRANCH  12  26
ENDBRANCH   7   8
ENDBRANCH   3   6
ENDBRANCH   1   2
BRANCH   1  28
ATOM     28  C   UNL     1       3.408  -6.450   1.289  1.00  0.00     0.042 C 
BRANCH  28  29
ATOM     29  C   UNL     1       4.136  -5.902   2.506  1.00  0.00     0.118 C 
BRANCH  29  30
ATOM     30  N   UNL     1       4.709  -4.584   2.247  1.00  0.00    -0.352 N 
ATOM     31  C   UNL     1       4.402  -3.373   2.812  1.00  0.00     0.251 C 
ATOM     32  H   UNL     1       5.419  -4.562   1.566  1.00  0.00     0.163 HD
ATOM     33  O   UNL     1       4.764  -2.333   2.275  1.00  0.00    -0.269 OA
BRANCH  31  34
ATOM     34  C   UNL     1       3.651  -3.340   4.081  1.00  0.00     0.039 A 
ATOM     35  C   UNL     1       2.670  -2.367   4.271  1.00  0.00     0.014 A 
ATOM     36  C   UNL     1       3.935  -4.266   5.088  1.00  0.00     0.014 A 
ATOM     37  C   UNL     1       1.940  -2.356   5.460  1.00  0.00     0.010 A 
ATOM     38  C   UNL     1       3.139  -4.319   6.222  1.00  0.00     0.010 A 
ATOM     39  C   UNL     1       2.147  -3.352   6.429  1.00  0.00    -0.014 A 
BRANCH  39  40
ATOM     40  C   UNL     1       1.347  -3.397   7.676  1.00  0.00     0.031 A 
ATOM     41  C   UNL     1       2.029  -3.261   9.009  1.00  0.00     0.074 A 
ATOM     42  C   UNL     1       0.024  -3.637   7.606  1.00  0.00     0.049 A 
ATOM     43  N   UNL     1       1.522  -3.349  10.213  1.00  0.00    -0.248 NA
ATOM     44  C   UNL     1       3.483  -3.029   8.990  1.00  0.00     0.031 C 
ATOM     45  C   UNL     1      -0.733  -3.845   6.371  1.00  0.00     0.029 A 
ATOM     46  N   UNL     1      -0.916  -3.756   8.597  1.00  0.00    -0.354 N 
ATOM     47  C   UNL     1       2.592  -3.200  11.085  1.00  0.00     0.074 A 
ATOM     48  C   UNL     1       3.786  -3.084  10.278  1.00  0.00     0.031 C 
ATOM     49  C   UNL     1      -2.026  -4.037   6.675  1.00  0.00     0.029 A 
ATOM     50  C   UNL     1      -2.181  -4.008   8.126  1.00  0.00     0.049 A 
ATOM     51  H   UNL     1      -0.705  -3.669   9.555  1.00  0.00     0.167 HD
ATOM     52  C   UNL     1       2.576  -3.138  12.438  1.00  0.00     0.037 A 
ATOM     53  C   UNL     1      -3.334  -4.202   8.793  1.00  0.00     0.037 A 
ATOM     54  C   UNL     1       1.378  -3.230  13.230  1.00  0.00     0.049 A 
ATOM     55  C   UNL     1      -3.325  -4.131  10.296  1.00  0.00     0.074 A 
ATOM     56  C   UNL     1       1.239  -3.115  14.601  1.00  0.00     0.029 A 
ATOM     57  N   UNL     1       0.110  -3.464  12.716  1.00  0.00    -0.354 N 
ATOM     58  N   UNL     1      -2.320  -3.911  11.109  1.00  0.00    -0.248 NA
ATOM     59  C   UNL     1      -4.613  -4.326  10.974  1.00  0.00     0.031 C 
ATOM     60  C   UNL     1      -0.104  -3.336  14.923  1.00  0.00     0.029 A 
ATOM     61  C   UNL     1      -0.813  -3.524  13.748  1.00  0.00     0.049 A 
ATOM     62  H   UNL     1      -0.102  -3.572  11.761  1.00  0.00     0.167 HD
ATOM     63  C   UNL     1      -2.856  -3.912  12.389  1.00  0.00     0.074 A 
ATOM     64  C   UNL     1      -4.279  -4.136  12.243  1.00  0.00     0.031 C 
ATOM     65  C   UNL     1      -2.228  -3.742  13.579  1.00  0.00     0.037 A 
BRANCH  52  66
ATOM     66  C   UNL     1       3.890  -2.959  13.143  1.00  0.00     0.064 A 
ATOM     67  C   UNL     1       4.627  -1.768  13.041  1.00  0.00     0.173 A 
ATOM     68  C   UNL     1       4.408  -3.979  13.955  1.00  0.00     0.173 A 
ATOM     69  F   UNL     1       4.185  -0.764  12.269  1.00  0.00    -0.203 F 
ATOM     70  C   UNL     1       5.846  -1.619  13.697  1.00  0.00     0.198 A 
ATOM     71  C   UNL     1       5.610  -3.813  14.639  1.00  0.00     0.198 A 
ATOM     72  F   UNL     1       3.744  -5.137  14.094  1.00  0.00    -0.203 F 
ATOM     73  F   UNL     1       6.558  -0.494  13.538  1.00  0.00    -0.200 F 
ATOM     74  C   UNL     1       6.333  -2.638  14.502  1.00  0.00     0.200 A 
ATOM     75  F   UNL     1       6.072  -4.793  15.427  1.00  0.00    -0.200 F 
ATOM     76  F   UNL     1       7.502  -2.490  15.139  1.00  0.00    -0.200 F 
ENDBRANCH  52  66
BRANCH  53  77
ATOM     77  C   UNL     1      -4.593  -4.453   8.044  1.00  0.00     0.064 A 
ATOM     78  C   UNL     1      -5.624  -3.503   8.030  1.00  0.00     0.173 A 
ATOM     79  C   UNL     1      -4.793  -5.642   7.327  1.00  0.00     0.173 A 
ATOM     80  F   UNL     1      -5.487  -2.357   8.714  1.00  0.00    -0.203 F 
ATOM     81  C   UNL     1      -6.816  -3.742   7.349  1.00  0.00     0.198 A 
ATOM     82  C   UNL     1      -5.973  -5.867   6.620  1.00  0.00     0.198 A 
ATOM     83  F   UNL     1      -3.836  -6.580   7.301  1.00  0.00    -0.203 F 
ATOM     84  F   UNL     1      -7.803  -2.838   7.394  1.00  0.00    -0.200 F 
ATOM     85  C   UNL     1      -6.987  -4.921   6.640  1.00  0.00     0.200 A 
ATOM     86  F   UNL     1      -6.127  -7.000   5.922  1.00  0.00    -0.200 F 
ATOM     87  F   UNL     1      -8.132  -5.149   5.982  1.00  0.00    -0.200 F 
ENDBRANCH  53  77
BRANCH  65  88
ATOM     88  C   UNL     1      -3.082  -3.753  14.814  1.00  0.00     0.064 A 
ATOM     89  C   UNL     1      -3.682  -4.929  15.287  1.00  0.00     0.173 A 
ATOM     90  C   UNL     1      -3.268  -2.576  15.557  1.00  0.00     0.173 A 
ATOM     91  F   UNL     1      -3.547  -6.077  14.607  1.00  0.00    -0.203 F 
ATOM     92  C   UNL     1      -4.460  -4.921  16.442  1.00  0.00     0.198 A 
ATOM     93  C   UNL     1      -4.017  -2.579  16.729  1.00  0.00     0.198 A 
ATOM     94  F   UNL     1      -2.709  -1.426  15.152  1.00  0.00    -0.203 F 
ATOM     95  F   UNL     1      -5.068  -6.045  16.846  1.00  0.00    -0.200 F 
ATOM     96  C   UNL     1      -4.620  -3.749  17.166  1.00  0.00     0.200 A 
ATOM     97  F   UNL     1      -4.155  -1.449  17.437  1.00  0.00    -0.200 F 
ATOM     98  F   UNL     1      -5.361  -3.745  18.282  1.00  0.00    -0.200 F 
ENDBRANCH  65  88
ENDBRANCH  39  40
ENDBRANCH  31  34
ENDBRANCH  29  30
ENDBRANCH  28  29
ENDBRANCH   1  28
TORSDOF 16
