REMARK SMILES O=C(NCCCNC(=O)[C@H](c1c[nH]c2ccc(Cl)cc12)[NH+]1CCN(c2cccc(Cl)c2)CC1)c1ccc(-c2c3nc(c(-c4c(F)c(F)c(F)c(F)c4F)c4ccc([nH]4)c(-c4c(F)c(F)c(F)c(F)c4F)c4nc(c(-c5c(F)c(F)c(F)c(F)c5F)c5ccc2[nH]5)C=C4)C=C3)cc1
REMARK SMILES IDX 5 1 4 2 3 3 1 4 2 5 34 7 35 8 96 9 36 10 95 11 37 12 38 13
REMARK SMILES IDX 39 14 89 15 40 16 94 17 88 18 90 19 41 20 93 21 87 22 86 23
REMARK SMILES IDX 42 25 74 26 54 27 73 28 55 29 58 30 72 31 91 32 56 33 57 34
REMARK SMILES IDX 71 36 92 37 59 38 43 39 44 40 52 41 45 42 46 43 50 44 53 45
REMARK SMILES IDX 47 46 48 47 51 48 49 49 75 50 76 51 84 52 77 53 78 54 82 55
REMARK SMILES IDX 85 56 79 57 80 58 83 59 81 60 60 61 61 62 69 63 62 64 63 65
REMARK SMILES IDX 67 66 70 67 64 68 65 69 68 70 66 71 6 72 7 73 8 74 9 76
REMARK SMILES IDX 10 77 21 78 22 79 33 80 23 82 32 83 24 84 25 85 26 86 31 87
REMARK SMILES IDX 27 88 29 89 28 90 30 91 11 92 12 93 20 94 13 95 14 96 19 97
REMARK SMILES IDX 15 99 17 100 16 101 18 102
REMARK H PARENT 3 6 90 24 58 35 7 75 21 81 13 98
REMARK Flexibility Score: inf
ROOT
ATOM      1  C   UNL     1       4.750   2.710  -2.520  1.00  0.00     0.042 C 
ENDROOT
BRANCH   1   2
ATOM      2  C   UNL     1       5.463   1.687  -3.376  1.00  0.00     0.118 C 
BRANCH   2   3
ATOM      3  N   UNL     1       5.510   0.374  -2.735  1.00  0.00    -0.352 N 
ATOM      4  O   UNL     1       4.766  -1.638  -2.047  1.00  0.00    -0.269 OA
ATOM      5  C   UNL     1       4.695  -0.726  -2.868  1.00  0.00     0.251 C 
ATOM      6  H   UNL     1       6.253   0.257  -2.100  1.00  0.00     0.163 HD
BRANCH   5   7
ATOM      7  C   UNL     1       3.723  -0.807  -3.978  1.00  0.00     0.039 A 
ATOM      8  C   UNL     1       4.041  -0.273  -5.222  1.00  0.00     0.014 A 
ATOM      9  C   UNL     1       2.494  -1.450  -3.795  1.00  0.00     0.014 A 
ATOM     10  C   UNL     1       3.069  -0.166  -6.199  1.00  0.00     0.010 A 
ATOM     11  C   UNL     1       1.572  -1.498  -4.848  1.00  0.00     0.010 A 
ATOM     12  C   UNL     1       1.844  -0.830  -6.050  1.00  0.00    -0.014 A 
BRANCH  12  13
ATOM     13  C   UNL     1       0.943  -0.893  -7.227  1.00  0.00     0.031 A 
ATOM     14  C   UNL     1      -0.444  -0.323  -7.186  1.00  0.00     0.074 A 
ATOM     15  C   UNL     1       1.433  -1.429  -8.364  1.00  0.00     0.049 A 
ATOM     16  N   UNL     1      -1.343  -0.289  -8.137  1.00  0.00    -0.248 NA
ATOM     17  C   UNL     1      -0.890   0.277  -5.920  1.00  0.00     0.031 C 
ATOM     18  C   UNL     1       2.769  -2.020  -8.507  1.00  0.00     0.029 A 
ATOM     19  N   UNL     1       0.896  -1.534  -9.620  1.00  0.00    -0.354 N 
ATOM     20  C   UNL     1      -2.468   0.302  -7.578  1.00  0.00     0.074 A 
ATOM     21  C   UNL     1      -2.145   0.604  -6.200  1.00  0.00     0.031 C 
ATOM     22  C   UNL     1       2.975  -2.350  -9.787  1.00  0.00     0.029 A 
ATOM     23  C   UNL     1       1.753  -2.095 -10.536  1.00  0.00     0.049 A 
ATOM     24  H   UNL     1      -0.015  -1.236  -9.844  1.00  0.00     0.167 HD
ATOM     25  C   UNL     1      -3.657   0.565  -8.170  1.00  0.00     0.037 A 
ATOM     26  C   UNL     1       1.568  -2.405 -11.831  1.00  0.00     0.037 A 
ATOM     27  C   UNL     1      -3.949   0.283  -9.553  1.00  0.00     0.049 A 
ATOM     28  C   UNL     1       0.234  -2.112 -12.448  1.00  0.00     0.074 A 
ATOM     29  C   UNL     1      -5.111   0.542 -10.259  1.00  0.00     0.029 A 
ATOM     30  N   UNL     1      -3.070  -0.322 -10.441  1.00  0.00    -0.354 N 
ATOM     31  N   UNL     1      -0.815  -1.540 -11.911  1.00  0.00    -0.248 NA
ATOM     32  C   UNL     1       0.052  -2.521 -13.845  1.00  0.00     0.031 C 
ATOM     33  C   UNL     1      -4.953   0.052 -11.559  1.00  0.00     0.029 A 
ATOM     34  C   UNL     1      -3.673  -0.466 -11.681  1.00  0.00     0.049 A 
ATOM     35  H   UNL     1      -2.153  -0.607 -10.222  1.00  0.00     0.167 HD
ATOM     36  C   UNL     1      -1.780  -1.510 -12.904  1.00  0.00     0.074 A 
ATOM     37  C   UNL     1      -1.179  -2.095 -14.087  1.00  0.00     0.031 C 
ATOM     38  C   UNL     1      -3.053  -1.050 -12.842  1.00  0.00     0.037 A 
BRANCH  25  39
ATOM     39  C   UNL     1      -4.747   1.165  -7.332  1.00  0.00     0.064 A 
ATOM     40  C   UNL     1      -4.713   2.505  -6.918  1.00  0.00     0.173 A 
ATOM     41  C   UNL     1      -5.882   0.407  -7.002  1.00  0.00     0.173 A 
ATOM     42  F   UNL     1      -3.646   3.269  -7.196  1.00  0.00    -0.203 F 
ATOM     43  C   UNL     1      -5.768   3.060  -6.198  1.00  0.00     0.198 A 
ATOM     44  C   UNL     1      -6.947   0.972  -6.304  1.00  0.00     0.198 A 
ATOM     45  F   UNL     1      -5.968  -0.878  -7.376  1.00  0.00    -0.203 F 
ATOM     46  F   UNL     1      -5.701   4.335  -5.789  1.00  0.00    -0.200 F 
ATOM     47  C   UNL     1      -6.888   2.297  -5.900  1.00  0.00     0.200 A 
ATOM     48  F   UNL     1      -8.032   0.236  -6.029  1.00  0.00    -0.200 F 
ATOM     49  F   UNL     1      -7.909   2.838  -5.222  1.00  0.00    -0.200 F 
ENDBRANCH  25  39
BRANCH  26  50
ATOM     50  C   UNL     1       2.657  -3.059 -12.601  1.00  0.00     0.064 A 
ATOM     51  C   UNL     1       3.283  -2.407 -13.671  1.00  0.00     0.173 A 
ATOM     52  C   UNL     1       3.099  -4.352 -12.277  1.00  0.00     0.173 A 
ATOM     53  F   UNL     1       2.886  -1.177 -14.030  1.00  0.00    -0.203 F 
ATOM     54  C   UNL     1       4.295  -3.029 -14.399  1.00  0.00     0.198 A 
ATOM     55  C   UNL     1       4.136  -4.957 -12.982  1.00  0.00     0.198 A 
ATOM     56  F   UNL     1       2.540  -5.018 -11.257  1.00  0.00    -0.203 F 
ATOM     57  F   UNL     1       4.844  -2.401 -15.448  1.00  0.00    -0.200 F 
ATOM     58  C   UNL     1       4.726  -4.300 -14.050  1.00  0.00     0.200 A 
ATOM     59  F   UNL     1       4.563  -6.176 -12.625  1.00  0.00    -0.200 F 
ATOM     60  F   UNL     1       5.705  -4.893 -14.746  1.00  0.00    -0.200 F 
ENDBRANCH  26  50
BRANCH  38  61
ATOM     61  C   UNL     1      -3.863  -1.140 -14.100  1.00  0.00     0.064 A 
ATOM     62  C   UNL     1      -4.332  -2.370 -14.584  1.00  0.00     0.173 A 
ATOM     63  C   UNL     1      -4.184   0.019 -14.821  1.00  0.00     0.173 A 
ATOM     64  F   UNL     1      -4.032  -3.508 -13.939  1.00  0.00    -0.203 F 
ATOM     65  C   UNL     1      -5.069  -2.439 -15.762  1.00  0.00     0.198 A 
ATOM     66  C   UNL     1      -4.948  -0.050 -15.981  1.00  0.00     0.198 A 
ATOM     67  F   UNL     1      -3.760   1.219 -14.396  1.00  0.00    -0.203 F 
ATOM     68  F   UNL     1      -5.460  -3.630 -16.236  1.00  0.00    -0.200 F 
ATOM     69  C   UNL     1      -5.382  -1.279 -16.456  1.00  0.00     0.200 A 
ATOM     70  F   UNL     1      -5.258   1.072 -16.645  1.00  0.00    -0.200 F 
ATOM     71  F   UNL     1      -6.094  -1.347 -17.589  1.00  0.00    -0.200 F 
ENDBRANCH  38  61
ENDBRANCH  12  13
ENDBRANCH   5   7
ENDBRANCH   2   3
ENDBRANCH   1   2
BRANCH   1  72
ATOM     72  C   UNL     1       5.555   3.070  -1.291  1.00  0.00     0.118 C 
BRANCH  72  73
ATOM     73  N   UNL     1       6.639   3.974  -1.561  1.00  0.00    -0.351 N 
ATOM     74  C   UNL     1       7.033   5.082  -0.876  1.00  0.00     0.283 C 
ATOM     75  H   UNL     1       7.176   3.760  -2.359  1.00  0.00     0.163 HD
ATOM     76  O   UNL     1       8.097   5.587  -1.268  1.00  0.00    -0.268 OA
BRANCH  74  77
ATOM     77  C   UNL     1       6.227   5.744   0.275  1.00  0.00     0.307 C 
BRANCH  77  78
ATOM     78  N   UNL     1       5.095   6.568  -0.228  1.00  0.00    -0.318 N 
ATOM     79  C   UNL     1       3.851   5.954  -0.695  1.00  0.00     0.284 C 
ATOM     80  C   UNL     1       4.756   7.733   0.613  1.00  0.00     0.284 C 
ATOM     81  H   UNL     1       5.563   6.838  -1.093  1.00  0.00     0.349 HD
ATOM     82  C   UNL     1       2.856   5.557   0.411  1.00  0.00     0.178 C 
ATOM     83  C   UNL     1       3.740   7.475   1.752  1.00  0.00     0.178 C 
ATOM     84  N   UNL     1       2.576   6.710   1.275  1.00  0.00    -0.360 N 
BRANCH  84  85
ATOM     85  C   UNL     1       1.548   6.546   2.197  1.00  0.00     0.038 A 
ATOM     86  C   UNL     1       0.448   7.408   2.138  1.00  0.00     0.026 A 
ATOM     87  C   UNL     1       1.562   5.540   3.170  1.00  0.00     0.046 A 
ATOM     88  C   UNL     1      -0.634   7.254   3.005  1.00  0.00     0.004 A 
ATOM     89  C   UNL     1       0.481   5.386   4.038  1.00  0.00     0.043 A 
ATOM     90  C   UNL     1      -0.621   6.235   3.955  1.00  0.00     0.020 A 
ATOM     91  Cl  UNL     1       0.504   4.128   5.213  1.00  0.00    -0.084 Cl
ENDBRANCH  84  85
ENDBRANCH  77  78
BRANCH  77  92
ATOM     92  C   UNL     1       6.034   4.952   1.569  1.00  0.00     0.044 A 
ATOM     93  C   UNL     1       5.479   3.706   1.817  1.00  0.00     0.094 A 
ATOM     94  C   UNL     1       6.476   5.412   2.876  1.00  0.00     0.011 A 
ATOM     95  N   UNL     1       5.471   3.453   3.162  1.00  0.00    -0.361 N 
ATOM     96  C   UNL     1       6.056   4.487   3.833  1.00  0.00     0.046 A 
ATOM     97  C   UNL     1       7.169   6.555   3.332  1.00  0.00     0.031 A 
ATOM     98  H   UNL     1       5.098   2.645   3.583  1.00  0.00     0.166 HD
ATOM     99  C   UNL     1       6.241   4.654   5.208  1.00  0.00     0.028 A 
ATOM    100  C   UNL     1       7.376   6.730   4.704  1.00  0.00     0.041 A 
ATOM    101  C   UNL     1       6.909   5.802   5.630  1.00  0.00     0.022 A 
ATOM    102  Cl  UNL     1       8.217   8.126   5.258  1.00  0.00    -0.084 Cl
ENDBRANCH  77  92
ENDBRANCH  74  77
ENDBRANCH  72  73
ENDBRANCH   1  72
TORSDOF 13
