REMARK SMILES Cc1ccc([C@H]2CC(c3cccs3)=NN2C(=O)CCC(=O)NCCCNC(=O)c2ccc(-c3c4nc(c(-c5c(F)c(F)c(F)c(F)c5F)c5ccc([nH]5)c(-c5c(F)c(F)c(F)c(F)c5F)c5nc(c(-c6c(F)c(F)c(F)c(F)c6F)c6ccc3[nH]6)C=C5)C=C4)cc2)o1
REMARK SMILES IDX 23 1 22 2 20 3 21 4 19 6 18 7 16 8 17 9 15 10 6 11 7 12 8 13
REMARK SMILES IDX 14 14 5 15 1 16 2 17 3 18 92 19 4 20 9 21 10 22 13 23 11 24
REMARK SMILES IDX 12 25 24 26 25 27 26 28 27 29 28 31 29 32 30 33 91 34 31 35
REMARK SMILES IDX 90 36 32 37 33 38 34 39 84 40 35 41 89 42 83 43 85 44 36 45
REMARK SMILES IDX 88 46 82 47 81 48 37 50 69 51 49 52 68 53 50 54 53 55 67 56
REMARK SMILES IDX 86 57 51 58 52 59 66 61 87 62 54 63 38 64 39 65 47 66 40 67
REMARK SMILES IDX 41 68 45 69 48 70 42 71 43 72 46 73 44 74 70 75 71 76 79 77
REMARK SMILES IDX 72 78 73 79 77 80 80 81 74 82 75 83 78 84 76 85 55 86 56 87
REMARK SMILES IDX 64 88 57 89 58 90 62 91 65 92 59 93 60 94 63 95 61 96
REMARK H PARENT 22 5 26 30 85 49 53 60
REMARK Flexibility Score: inf
ROOT
ATOM      1  C   UNL     1      -4.635   0.177   2.683  1.00  0.00     0.117 C 
ENDROOT
BRANCH   1   2
ATOM      2  N   UNL     1      -3.470  -0.138   1.876  1.00  0.00    -0.356 N 
ATOM      3  C   UNL     1      -2.170  -0.160   2.306  1.00  0.00     0.220 C 
ATOM      4  O   UNL     1      -1.447  -1.098   1.968  1.00  0.00    -0.275 OA
ATOM      5  H   UNL     1      -3.630  -0.357   0.930  1.00  0.00     0.163 HD
BRANCH   3   6
ATOM      6  C   UNL     1      -1.621   0.977   3.140  1.00  0.00     0.110 C 
BRANCH   6   7
ATOM      7  C   UNL     1      -1.153   2.182   2.314  1.00  0.00     0.112 C 
BRANCH   7   8
ATOM      8  C   UNL     1      -2.244   2.771   1.452  1.00  0.00     0.243 C 
ATOM      9  O   UNL     1      -2.966   3.650   1.939  1.00  0.00    -0.273 OA
BRANCH   8  10
ATOM     10  N   UNL     1      -2.488   2.215   0.209  1.00  0.00    -0.222 N 
ATOM     11  C   UNL     1      -1.568   1.960  -0.911  1.00  0.00     0.183 C 
ATOM     12  C   UNL     1      -2.494   1.838  -2.126  1.00  0.00     0.095 C 
ATOM     13  C   UNL     1      -3.822   1.883  -1.448  1.00  0.00     0.081 C 
ATOM     14  N   UNL     1      -3.792   2.209  -0.204  1.00  0.00    -0.173 NA
BRANCH  11  15
ATOM     15  C   UNL     1      -0.719   0.750  -0.758  1.00  0.00     0.129 A 
ATOM     16  C   UNL     1       2.674  -0.175  -0.138  1.00  0.00     0.087 C 
ATOM     17  C   UNL     1       1.232  -0.213  -0.445  1.00  0.00     0.101 A 
ATOM     18  C   UNL     1       0.331  -1.231  -0.662  1.00  0.00     0.045 A 
ATOM     19  O   UNL     1       0.605   0.991  -0.524  1.00  0.00    -0.464 OA
ATOM     20  C   UNL     1      -0.925  -0.611  -0.876  1.00  0.00     0.048 A 
ENDBRANCH  11  15
BRANCH  13  21
ATOM     21  C   UNL     1      -5.057   1.610  -2.130  1.00  0.00     0.050 A 
ATOM     22  C   UNL     1      -5.502   0.382  -3.211  1.00  0.00     0.022 A 
ATOM     23  S   UNL     1      -6.691   3.197  -1.801  1.00  0.00    -0.142 S 
ATOM     24  C   UNL     1      -7.199   0.499  -3.989  1.00  0.00     0.012 A 
ATOM     25  C   UNL     1      -8.094   1.924  -3.460  1.00  0.00     0.065 A 
ENDBRANCH  13  21
ENDBRANCH   8  10
ENDBRANCH   7   8
ENDBRANCH   6   7
ENDBRANCH   3   6
ENDBRANCH   1   2
BRANCH   1  26
ATOM     26  C   UNL     1      -5.498   1.378   2.309  1.00  0.00     0.042 C 
BRANCH  26  27
ATOM     27  C   UNL     1      -6.353   1.404   1.029  1.00  0.00     0.118 C 
BRANCH  27  28
ATOM     28  N   UNL     1      -6.486   0.185   0.236  1.00  0.00    -0.352 N 
ATOM     29  C   UNL     1      -6.864  -0.003  -1.093  1.00  0.00     0.251 C 
ATOM     30  H   UNL     1      -6.273  -0.644   0.722  1.00  0.00     0.163 HD
ATOM     31  O   UNL     1      -7.082  -1.153  -1.474  1.00  0.00    -0.269 OA
BRANCH  29  32
ATOM     32  C   UNL     1      -7.162   1.232  -2.040  1.00  0.00     0.039 A 
ATOM     33  C   UNL     1      -8.683   1.831  -1.384  1.00  0.00     0.014 A 
ATOM     34  C   UNL     1      -6.338   2.317  -3.582  1.00  0.00     0.014 A 
ATOM     35  C   UNL     1      -9.299   3.270  -1.997  1.00  0.00     0.010 A 
ATOM     36  C   UNL     1      -7.151   3.801  -4.070  1.00  0.00     0.010 A 
ATOM     37  C   UNL     1      -8.568   4.247  -3.223  1.00  0.00    -0.014 A 
BRANCH  37  38
ATOM     38  C   UNL     1      -9.170   5.607  -3.449  1.00  0.00     0.031 A 
ATOM     39  C   UNL     1      -9.339   6.141  -4.846  1.00  0.00     0.074 A 
ATOM     40  C   UNL     1      -9.532   6.382  -2.399  1.00  0.00     0.049 A 
ATOM     41  N   UNL     1      -9.700   7.338  -5.239  1.00  0.00    -0.248 NA
ATOM     42  C   UNL     1      -9.018   5.228  -5.951  1.00  0.00     0.031 C 
ATOM     43  C   UNL     1      -9.374   6.039  -0.983  1.00  0.00     0.029 A 
ATOM     44  N   UNL     1     -10.127   7.624  -2.349  1.00  0.00    -0.354 N 
ATOM     45  C   UNL     1      -9.589   7.329  -6.623  1.00  0.00     0.074 A 
ATOM     46  C   UNL     1      -9.054   6.040  -6.996  1.00  0.00     0.031 C 
ATOM     47  C   UNL     1      -9.952   6.975  -0.218  1.00  0.00     0.029 A 
ATOM     48  C   UNL     1     -10.402   8.062  -1.071  1.00  0.00     0.049 A 
ATOM     49  H   UNL     1     -10.337   8.151  -3.154  1.00  0.00     0.167 HD
ATOM     50  C   UNL     1      -9.939   8.290  -7.510  1.00  0.00     0.037 A 
ATOM     51  C   UNL     1     -10.918   9.223  -0.621  1.00  0.00     0.037 A 
ATOM     52  C   UNL     1     -10.533   9.547  -7.140  1.00  0.00     0.049 A 
ATOM     53  C   UNL     1     -11.270  10.285  -1.627  1.00  0.00     0.074 A 
ATOM     54  C   UNL     1     -10.967  10.570  -7.963  1.00  0.00     0.029 A 
ATOM     55  N   UNL     1     -10.783   9.947  -5.835  1.00  0.00    -0.354 N 
ATOM     56  N   UNL     1     -11.186  10.246  -2.935  1.00  0.00    -0.248 NA
ATOM     57  C   UNL     1     -11.778  11.557  -1.097  1.00  0.00     0.031 C 
ATOM     58  C   UNL     1     -11.414  11.618  -7.154  1.00  0.00     0.029 A 
ATOM     59  C   UNL     1     -11.338  11.216  -5.830  1.00  0.00     0.049 A 
ATOM     60  H   UNL     1     -10.594   9.409  -5.032  1.00  0.00     0.167 HD
ATOM     61  C   UNL     1     -11.655  11.472  -3.383  1.00  0.00     0.074 A 
ATOM     62  C   UNL     1     -12.052  12.221  -2.210  1.00  0.00     0.031 C 
ATOM     63  C   UNL     1     -11.743  11.939  -4.652  1.00  0.00     0.037 A 
BRANCH  50  64
ATOM     64  C   UNL     1      -9.688   8.019  -8.967  1.00  0.00     0.064 A 
ATOM     65  C   UNL     1     -10.373   7.012  -9.666  1.00  0.00     0.173 A 
ATOM     66  C   UNL     1      -8.756   8.789  -9.681  1.00  0.00     0.173 A 
ATOM     67  F   UNL     1     -11.267   6.237  -9.032  1.00  0.00    -0.203 F 
ATOM     68  C   UNL     1     -10.102   6.756 -11.008  1.00  0.00     0.198 A 
ATOM     69  C   UNL     1      -8.520   8.560 -11.034  1.00  0.00     0.198 A 
ATOM     70  F   UNL     1      -8.075   9.768  -9.067  1.00  0.00    -0.203 F 
ATOM     71  F   UNL     1     -10.713   5.739 -11.630  1.00  0.00    -0.200 F 
ATOM     72  C   UNL     1      -9.182   7.536 -11.692  1.00  0.00     0.200 A 
ATOM     73  F   UNL     1      -7.644   9.326 -11.698  1.00  0.00    -0.200 F 
ATOM     74  F   UNL     1      -8.927   7.293 -12.985  1.00  0.00    -0.200 F 
ENDBRANCH  50  64
BRANCH  51  75
ATOM     75  C   UNL     1     -11.105   9.470   0.841  1.00  0.00     0.064 A 
ATOM     76  C   UNL     1     -12.380   9.697   1.382  1.00  0.00     0.173 A 
ATOM     77  C   UNL     1     -10.014   9.534   1.723  1.00  0.00     0.173 A 
ATOM     78  F   UNL     1     -13.460   9.669   0.586  1.00  0.00    -0.203 F 
ATOM     79  C   UNL     1     -12.551  10.018   2.729  1.00  0.00     0.198 A 
ATOM     80  C   UNL     1     -10.190   9.810   3.078  1.00  0.00     0.198 A 
ATOM     81  F   UNL     1      -8.769   9.326   1.269  1.00  0.00    -0.203 F 
ATOM     82  F   UNL     1     -13.773  10.307   3.196  1.00  0.00    -0.200 F 
ATOM     83  C   UNL     1     -11.456  10.068   3.577  1.00  0.00     0.200 A 
ATOM     84  F   UNL     1      -9.130   9.837   3.898  1.00  0.00    -0.200 F 
ATOM     85  F   UNL     1     -11.620  10.381   4.870  1.00  0.00    -0.200 F 
ENDBRANCH  51  75
BRANCH  63  86
ATOM     86  C   UNL     1     -12.340  13.303  -4.844  1.00  0.00     0.064 A 
ATOM     87  C   UNL     1     -11.685  14.468  -4.418  1.00  0.00     0.173 A 
ATOM     88  C   UNL     1     -13.570  13.446  -5.506  1.00  0.00     0.173 A 
ATOM     89  F   UNL     1     -10.513  14.386  -3.770  1.00  0.00    -0.203 F 
ATOM     90  C   UNL     1     -12.256  15.722  -4.615  1.00  0.00     0.198 A 
ATOM     91  C   UNL     1     -14.115  14.704  -5.742  1.00  0.00     0.198 A 
ATOM     92  F   UNL     1     -14.234  12.365  -5.943  1.00  0.00    -0.203 F 
ATOM     93  F   UNL     1     -11.643  16.815  -4.143  1.00  0.00    -0.200 F 
ATOM     94  C   UNL     1     -13.464  15.839  -5.286  1.00  0.00     0.200 A 
ATOM     95  F   UNL     1     -15.269  14.816  -6.414  1.00  0.00    -0.200 F 
ATOM     96  F   UNL     1     -14.004  17.049  -5.488  1.00  0.00    -0.200 F 
ENDBRANCH  63  86
ENDBRANCH  37  38
ENDBRANCH  29  32
ENDBRANCH  27  28
ENDBRANCH  26  27
ENDBRANCH   1  26
TORSDOF 15
