REMARK SMILES C[C@@H](C(=O)NCCCNC(=O)c1ccc(-c2c3nc(c(-c4c(F)c(F)c(F)c(F)c4F)c4ccc([nH]4)c(-c4c(F)c(F)c(F)c(F)c4F)c4nc(c(-c5c(F)c(F)c(F)c(F)c5F)c5ccc2[nH]5)C=C4)C=C3)cc1)N(C)C(=O)NC[C@H]1C[N@@H+]2CCC[C@@H]2CO1
REMARK SMILES IDX 6 1 5 2 3 3 4 4 2 6 1 7 75 8 76 9 77 10 78 11 79 12 80 14
REMARK SMILES IDX 81 15 82 16 89 17 83 18 88 19 84 20 87 21 85 23 86 24 7 25
REMARK SMILES IDX 8 26 9 27 10 28 11 30 12 31 13 32 74 33 14 34 73 35 15 36
REMARK SMILES IDX 16 37 17 38 67 39 18 40 72 41 66 42 68 43 19 44 71 45 65 46
REMARK SMILES IDX 64 47 20 49 52 50 32 51 51 52 33 53 36 54 50 55 69 56 34 57
REMARK SMILES IDX 35 58 49 60 70 61 37 62 21 63 22 64 30 65 23 66 24 67 28 68
REMARK SMILES IDX 31 69 25 70 26 71 29 72 27 73 53 74 54 75 62 76 55 77 56 78
REMARK SMILES IDX 60 79 63 80 57 81 58 82 61 83 59 84 38 85 39 86 47 87 40 88
REMARK SMILES IDX 41 89 45 90 48 91 42 92 43 93 46 94 44 95
REMARK H PARENT 5 5 79 13 83 22 9 29 68 48 36 59
REMARK Flexibility Score: inf
ROOT
ATOM      1  C   UNL     1       3.459  -0.572   1.945  1.00  0.00     0.117 C 
ENDROOT
BRANCH   1   2
ATOM      2  N   UNL     1       2.378   0.021   2.707  1.00  0.00    -0.354 N 
ATOM      3  C   UNL     1       1.035   0.057   2.452  1.00  0.00     0.242 C 
ATOM      4  O   UNL     1       0.325   0.518   3.349  1.00  0.00    -0.273 OA
ATOM      5  H   UNL     1       2.654   0.468   3.539  1.00  0.00     0.163 HD
BRANCH   3   6
ATOM      6  C   UNL     1       0.474  -0.541   1.133  1.00  0.00     0.172 C 
ATOM      7  C   UNL     1       0.959   0.163  -0.140  1.00  0.00     0.042 C 
BRANCH   6   8
ATOM      8  N   UNL     1      -1.004  -0.664   1.193  1.00  0.00    -0.316 N 
ATOM      9  C   UNL     1      -1.512  -1.997   1.465  1.00  0.00     0.149 C 
BRANCH   8  10
ATOM     10  C   UNL     1      -1.748   0.474   1.042  1.00  0.00     0.317 C 
ATOM     11  O   UNL     1      -1.232   1.589   0.916  1.00  0.00    -0.249 OA
ATOM     12  N   UNL     1      -3.089   0.474   0.968  1.00  0.00    -0.335 N 
ATOM     13  H   UNL     1      -3.436   1.379   0.792  1.00  0.00     0.165 HD
BRANCH  12  14
ATOM     14  C   UNL     1      -4.171  -0.493   1.076  1.00  0.00     0.155 C 
BRANCH  14  15
ATOM     15  C   UNL     1      -4.766  -0.565   2.494  1.00  0.00     0.192 C 
ATOM     16  C   UNL     1      -5.455   0.762   2.925  1.00  0.00     0.296 C 
ATOM     17  O   UNL     1      -5.629  -1.725   2.551  1.00  0.00    -0.364 OA
ATOM     18  N   UNL     1      -6.822   0.911   2.406  1.00  0.00    -0.328 N 
ATOM     19  C   UNL     1      -6.845  -1.479   3.264  1.00  0.00     0.225 C 
ATOM     20  C   UNL     1      -7.534   2.037   3.026  1.00  0.00     0.262 C 
ATOM     21  C   UNL     1      -7.621  -0.319   2.622  1.00  0.00     0.210 C 
ATOM     22  H   UNL     1      -6.721   1.090   1.407  1.00  0.00     0.348 HD
ATOM     23  C   UNL     1      -8.979   1.580   3.107  1.00  0.00     0.068 C 
ATOM     24  C   UNL     1      -8.841   0.106   3.432  1.00  0.00     0.073 C 
ENDBRANCH  14  15
ENDBRANCH  12  14
ENDBRANCH   8  10
ENDBRANCH   6   8
ENDBRANCH   3   6
ENDBRANCH   1   2
BRANCH   1  25
ATOM     25  C   UNL     1       4.325   0.484   1.270  1.00  0.00     0.042 C 
BRANCH  25  26
ATOM     26  C   UNL     1       5.085   1.369   2.250  1.00  0.00     0.118 C 
BRANCH  26  27
ATOM     27  N   UNL     1       6.089   0.634   3.010  1.00  0.00    -0.352 N 
ATOM     28  C   UNL     1       7.446   0.830   3.084  1.00  0.00     0.251 C 
ATOM     29  H   UNL     1       5.743  -0.113   3.550  1.00  0.00     0.163 HD
ATOM     30  O   UNL     1       8.163  -0.002   3.634  1.00  0.00    -0.269 OA
BRANCH  28  31
ATOM     31  C   UNL     1       8.046   2.038   2.483  1.00  0.00     0.039 A 
ATOM     32  C   UNL     1       9.206   1.916   1.712  1.00  0.00     0.014 A 
ATOM     33  C   UNL     1       7.458   3.289   2.679  1.00  0.00     0.014 A 
ATOM     34  C   UNL     1       9.735   3.041   1.076  1.00  0.00     0.010 A 
ATOM     35  C   UNL     1       7.934   4.389   1.978  1.00  0.00     0.010 A 
ATOM     36  C   UNL     1       9.081   4.279   1.175  1.00  0.00    -0.014 A 
BRANCH  36  37
ATOM     37  C   UNL     1       9.575   5.493   0.479  1.00  0.00     0.031 A 
ATOM     38  C   UNL     1       9.991   6.688   1.289  1.00  0.00     0.074 A 
ATOM     39  C   UNL     1       9.540   5.564  -0.865  1.00  0.00     0.049 A 
ATOM     40  N   UNL     1      10.270   7.904   0.895  1.00  0.00    -0.248 NA
ATOM     41  C   UNL     1      10.062   6.494   2.745  1.00  0.00     0.031 C 
ATOM     42  C   UNL     1       9.127   4.482  -1.759  1.00  0.00     0.029 A 
ATOM     43  N   UNL     1       9.826   6.606  -1.711  1.00  0.00    -0.354 N 
ATOM     44  C   UNL     1      10.518   8.625   2.055  1.00  0.00     0.074 A 
ATOM     45  C   UNL     1      10.302   7.725   3.168  1.00  0.00     0.031 C 
ATOM     46  C   UNL     1       9.187   4.916  -3.028  1.00  0.00     0.029 A 
ATOM     47  C   UNL     1       9.592   6.319  -3.033  1.00  0.00     0.049 A 
ATOM     48  H   UNL     1      10.167   7.476  -1.400  1.00  0.00     0.167 HD
ATOM     49  C   UNL     1      10.907   9.916   2.180  1.00  0.00     0.037 A 
ATOM     50  C   UNL     1       9.667   7.107  -4.123  1.00  0.00     0.037 A 
ATOM     51  C   UNL     1      11.135  10.797   1.065  1.00  0.00     0.049 A 
ATOM     52  C   UNL     1      10.085   8.544  -3.965  1.00  0.00     0.074 A 
ATOM     53  C   UNL     1      11.583  12.105   1.076  1.00  0.00     0.029 A 
ATOM     54  N   UNL     1      10.924  10.457  -0.264  1.00  0.00    -0.354 N 
ATOM     55  N   UNL     1      10.369   9.206  -2.869  1.00  0.00    -0.248 NA
ATOM     56  C   UNL     1      10.196   9.343  -5.193  1.00  0.00     0.031 C 
ATOM     57  C   UNL     1      11.588  12.575  -0.240  1.00  0.00     0.029 A 
ATOM     58  C   UNL     1      11.210  11.539  -1.080  1.00  0.00     0.049 A 
ATOM     59  H   UNL     1      10.616   9.576  -0.580  1.00  0.00     0.167 HD
ATOM     60  C   UNL     1      10.729  10.484  -3.276  1.00  0.00     0.074 A 
ATOM     61  C   UNL     1      10.625  10.506  -4.720  1.00  0.00     0.031 C 
ATOM     62  C   UNL     1      11.120  11.539  -2.519  1.00  0.00     0.037 A 
BRANCH  49  63
ATOM     63  C   UNL     1      11.090  10.450   3.573  1.00  0.00     0.064 A 
ATOM     64  C   UNL     1      12.104   9.977   4.421  1.00  0.00     0.173 A 
ATOM     65  C   UNL     1      10.235  11.445   4.070  1.00  0.00     0.173 A 
ATOM     66  F   UNL     1      12.944   9.019   4.001  1.00  0.00    -0.203 F 
ATOM     67  C   UNL     1      12.222  10.442   5.729  1.00  0.00     0.198 A 
ATOM     68  C   UNL     1      10.382  11.937   5.365  1.00  0.00     0.198 A 
ATOM     69  F   UNL     1       9.254  11.942   3.302  1.00  0.00    -0.203 F 
ATOM     70  F   UNL     1      13.151   9.919   6.542  1.00  0.00    -0.200 F 
ATOM     71  C   UNL     1      11.365  11.425   6.198  1.00  0.00     0.200 A 
ATOM     72  F   UNL     1       9.562  12.899   5.811  1.00  0.00    -0.200 F 
ATOM     73  F   UNL     1      11.478  11.870   7.457  1.00  0.00    -0.200 F 
ENDBRANCH  49  63
BRANCH  50  74
ATOM     74  C   UNL     1       9.354   6.538  -5.460  1.00  0.00     0.064 A 
ATOM     75  C   UNL     1      10.366   6.319  -6.404  1.00  0.00     0.173 A 
ATOM     76  C   UNL     1       8.045   6.172  -5.810  1.00  0.00     0.173 A 
ATOM     77  F   UNL     1      11.630   6.670  -6.123  1.00  0.00    -0.203 F 
ATOM     78  C   UNL     1      10.081   5.765  -7.650  1.00  0.00     0.198 A 
ATOM     79  C   UNL     1       7.766   5.591  -7.045  1.00  0.00     0.198 A 
ATOM     80  F   UNL     1       7.042   6.353  -4.939  1.00  0.00    -0.203 F 
ATOM     81  F   UNL     1      11.063   5.597  -8.546  1.00  0.00    -0.200 F 
ATOM     82  C   UNL     1       8.783   5.393  -7.966  1.00  0.00     0.200 A 
ATOM     83  F   UNL     1       6.513   5.217  -7.340  1.00  0.00    -0.200 F 
ATOM     84  F   UNL     1       8.512   4.846  -9.159  1.00  0.00    -0.200 F 
ENDBRANCH  50  74
BRANCH  62  85
ATOM     85  C   UNL     1      11.528  12.796  -3.232  1.00  0.00     0.064 A 
ATOM     86  C   UNL     1      10.593  13.639  -3.849  1.00  0.00     0.173 A 
ATOM     87  C   UNL     1      12.873  13.202  -3.222  1.00  0.00     0.173 A 
ATOM     88  F   UNL     1       9.299  13.290  -3.899  1.00  0.00    -0.203 F 
ATOM     89  C   UNL     1      10.991  14.836  -4.440  1.00  0.00     0.198 A 
ATOM     90  C   UNL     1      13.261  14.413  -3.786  1.00  0.00     0.198 A 
ATOM     91  F   UNL     1      13.806  12.435  -2.639  1.00  0.00    -0.203 F 
ATOM     92  F   UNL     1      10.085  15.610  -5.054  1.00  0.00    -0.200 F 
ATOM     93  C   UNL     1      12.321  15.227  -4.398  1.00  0.00     0.200 A 
ATOM     94  F   UNL     1      14.544  14.797  -3.728  1.00  0.00    -0.200 F 
ATOM     95  F   UNL     1      12.697  16.390  -4.948  1.00  0.00    -0.200 F 
ENDBRANCH  62  85
ENDBRANCH  36  37
ENDBRANCH  28  31
ENDBRANCH  26  27
ENDBRANCH  25  26
ENDBRANCH   1  25
TORSDOF 14
