REMARK SMILES COc1ccc([C@@H](C(=O)NCCCNC(=O)c2ccc(-c3c4nc(c(-c5c(F)c(F)c(F)c(F)c5F)c5ccc([nH]5)c(-c5c(F)c(F)c(F)c(F)c5F)c5nc(c(-c6c(F)c(F)c(F)c(F)c6F)c6ccc3[nH]6)C=C5)C=C4)cc2)[NH+]2CCC(C(N)=O)CC2)c(C)c1
REMARK SMILES IDX 12 1 11 2 10 3 8 4 9 5 7 7 6 8 3 9 4 10 91 11 5 12 89 13
REMARK SMILES IDX 90 14 2 15 1 16 80 17 81 18 88 19 82 21 87 22 83 23 84 24
REMARK SMILES IDX 85 25 86 26 13 29 14 30 15 31 16 33 17 34 18 35 79 36 19 37
REMARK SMILES IDX 78 38 20 39 21 40 22 41 72 42 23 43 77 44 71 45 73 46 24 47
REMARK SMILES IDX 76 48 70 49 69 50 25 52 57 53 37 54 56 55 38 56 41 57 55 58
REMARK SMILES IDX 74 59 39 60 40 61 54 63 75 64 42 65 26 66 27 67 35 68 28 69
REMARK SMILES IDX 29 70 33 71 36 72 30 73 31 74 34 75 32 76 58 77 59 78 67 79
REMARK SMILES IDX 60 80 61 81 65 82 68 83 62 84 63 85 66 86 64 87 43 88 44 89
REMARK SMILES IDX 52 90 45 91 46 92 50 93 53 94 47 95 48 96 51 97 49 98
REMARK H PARENT 10 6 80 20 85 27 85 28 14 32 73 51 41 62
REMARK Flexibility Score: inf
ROOT
ATOM      1  C   UNL     1       3.240   3.233   4.728  1.00  0.00     0.042 C 
ENDROOT
BRANCH   1   2
ATOM      2  C   UNL     1       3.621   2.638   6.079  1.00  0.00     0.118 C 
BRANCH   2   3
ATOM      3  N   UNL     1       2.513   2.615   7.024  1.00  0.00    -0.351 N 
ATOM      4  C   UNL     1       1.566   1.640   7.259  1.00  0.00     0.283 C 
ATOM      5  O   UNL     1       0.789   1.861   8.192  1.00  0.00    -0.268 OA
ATOM      6  H   UNL     1       2.426   3.421   7.583  1.00  0.00     0.163 HD
BRANCH   4   7
ATOM      7  C   UNL     1       1.544   0.344   6.385  1.00  0.00     0.305 C 
BRANCH   7   8
ATOM      8  C   UNL     1       1.173   0.568   4.909  1.00  0.00     0.022 A 
ATOM      9  C   UNL     1       0.734   0.801   2.112  1.00  0.00     0.119 A 
ATOM     10  C   UNL     1       1.873   0.165   2.579  1.00  0.00     0.047 A 
ATOM     11  C   UNL     1      -0.165   1.344   3.029  1.00  0.00     0.050 A 
ATOM     12  C   UNL     1       2.080   0.041   3.955  1.00  0.00     0.014 A 
ATOM     13  C   UNL     1       0.034   1.250   4.425  1.00  0.00    -0.038 A 
ATOM     14  C   UNL     1      -1.039   1.882   5.270  1.00  0.00     0.045 C 
BRANCH   9  15
ATOM     15  O   UNL     1       0.406   0.980   0.797  1.00  0.00    -0.497 OA
ATOM     16  C   UNL     1       0.975   0.044  -0.112  1.00  0.00     0.278 C 
ENDBRANCH   9  15
ENDBRANCH   7   8
BRANCH   7  17
ATOM     17  N   UNL     1       0.879  -0.831   7.047  1.00  0.00    -0.321 N 
ATOM     18  C   UNL     1      -0.579  -0.725   7.168  1.00  0.00     0.263 C 
ATOM     19  C   UNL     1       1.286  -2.101   6.420  1.00  0.00     0.263 C 
ATOM     20  H   UNL     1       1.217  -0.822   8.009  1.00  0.00     0.349 HD
ATOM     21  C   UNL     1      -1.198  -1.923   7.893  1.00  0.00     0.075 C 
ATOM     22  C   UNL     1       0.696  -3.326   7.118  1.00  0.00     0.075 C 
ATOM     23  C   UNL     1      -0.825  -3.216   7.171  1.00  0.00     0.089 C 
BRANCH  23  24
ATOM     24  C   UNL     1      -1.440  -4.413   7.866  1.00  0.00     0.220 C 
ATOM     25  N   UNL     1      -2.508  -4.963   7.219  1.00  0.00    -0.369 N 
ATOM     26  O   UNL     1      -1.048  -4.871   8.932  1.00  0.00    -0.275 OA
ATOM     27  H   UNL     1      -2.812  -4.585   6.362  1.00  0.00     0.159 HD
ATOM     28  H   UNL     1      -2.974  -5.737   7.609  1.00  0.00     0.159 HD
ENDBRANCH  23  24
ENDBRANCH   7  17
ENDBRANCH   4   7
ENDBRANCH   2   3
ENDBRANCH   1   2
BRANCH   1  29
ATOM     29  C   UNL     1       3.278   4.753   4.680  1.00  0.00     0.118 C 
BRANCH  29  30
ATOM     30  N   UNL     1       4.451   5.287   3.988  1.00  0.00    -0.352 N 
ATOM     31  C   UNL     1       4.719   6.598   3.621  1.00  0.00     0.251 C 
ATOM     32  H   UNL     1       5.143   4.627   3.752  1.00  0.00     0.163 HD
ATOM     33  O   UNL     1       5.770   6.910   3.102  1.00  0.00    -0.269 OA
BRANCH  31  34
ATOM     34  C   UNL     1       3.725   7.630   3.994  1.00  0.00     0.039 A 
ATOM     35  C   UNL     1       4.128   8.626   4.887  1.00  0.00     0.014 A 
ATOM     36  C   UNL     1       2.381   7.437   3.689  1.00  0.00     0.014 A 
ATOM     37  C   UNL     1       3.166   9.251   5.673  1.00  0.00     0.010 A 
ATOM     38  C   UNL     1       1.434   7.986   4.530  1.00  0.00     0.010 A 
ATOM     39  C   UNL     1       1.839   8.829   5.573  1.00  0.00    -0.014 A 
BRANCH  39  40
ATOM     40  C   UNL     1       0.851   9.103   6.611  1.00  0.00     0.031 A 
ATOM     41  C   UNL     1      -0.196  10.120   6.403  1.00  0.00     0.074 A 
ATOM     42  C   UNL     1       0.871   8.368   7.745  1.00  0.00     0.049 A 
ATOM     43  N   UNL     1      -0.819  10.731   7.354  1.00  0.00    -0.248 NA
ATOM     44  C   UNL     1      -0.592  10.568   5.075  1.00  0.00     0.031 C 
ATOM     45  C   UNL     1      -0.158   8.302   8.781  1.00  0.00     0.029 A 
ATOM     46  N   UNL     1       1.961   7.665   8.291  1.00  0.00    -0.354 N 
ATOM     47  C   UNL     1      -1.860  11.436   6.792  1.00  0.00     0.074 A 
ATOM     48  C   UNL     1      -1.633  11.353   5.367  1.00  0.00     0.031 C 
ATOM     49  C   UNL     1       0.410   7.889   9.926  1.00  0.00     0.029 A 
ATOM     50  C   UNL     1       1.842   7.824   9.691  1.00  0.00     0.049 A 
ATOM     51  H   UNL     1       2.657   7.169   7.803  1.00  0.00     0.167 HD
ATOM     52  C   UNL     1      -2.866  11.893   7.596  1.00  0.00     0.037 A 
ATOM     53  C   UNL     1       2.783   8.489  10.421  1.00  0.00     0.037 A 
ATOM     54  C   UNL     1      -2.570  11.639   9.005  1.00  0.00     0.049 A 
ATOM     55  C   UNL     1       2.237   9.657  11.205  1.00  0.00     0.074 A 
ATOM     56  C   UNL     1      -2.964  10.638   9.879  1.00  0.00     0.029 A 
ATOM     57  N   UNL     1      -1.511  12.301   9.618  1.00  0.00    -0.354 N 
ATOM     58  N   UNL     1       1.126  10.272  10.911  1.00  0.00    -0.248 NA
ATOM     59  C   UNL     1       2.926  10.253  12.346  1.00  0.00     0.031 C 
ATOM     60  C   UNL     1      -2.102  10.668  11.002  1.00  0.00     0.029 A 
ATOM     61  C   UNL     1      -1.195  11.698  10.820  1.00  0.00     0.049 A 
ATOM     62  H   UNL     1      -1.051  13.089   9.247  1.00  0.00     0.167 HD
ATOM     63  C   UNL     1       0.956  11.332  11.763  1.00  0.00     0.074 A 
ATOM     64  C   UNL     1       2.097  11.264  12.657  1.00  0.00     0.031 C 
ATOM     65  C   UNL     1      -0.102  12.186  11.646  1.00  0.00     0.037 A 
BRANCH  52  66
ATOM     66  C   UNL     1      -4.244  12.273   7.087  1.00  0.00     0.064 A 
ATOM     67  C   UNL     1      -5.393  12.069   7.885  1.00  0.00     0.173 A 
ATOM     68  C   UNL     1      -4.512  12.768   5.799  1.00  0.00     0.173 A 
ATOM     69  F   UNL     1      -5.301  11.730   9.176  1.00  0.00    -0.203 F 
ATOM     70  C   UNL     1      -6.692  12.206   7.385  1.00  0.00     0.198 A 
ATOM     71  C   UNL     1      -5.809  12.851   5.278  1.00  0.00     0.198 A 
ATOM     72  F   UNL     1      -3.535  13.250   5.022  1.00  0.00    -0.203 F 
ATOM     73  F   UNL     1      -7.741  11.981   8.189  1.00  0.00    -0.200 F 
ATOM     74  C   UNL     1      -6.900  12.552   6.067  1.00  0.00     0.200 A 
ATOM     75  F   UNL     1      -5.991  13.224   4.003  1.00  0.00    -0.200 F 
ATOM     76  F   UNL     1      -8.142  12.630   5.571  1.00  0.00    -0.200 F 
ENDBRANCH  52  66
BRANCH  53  77
ATOM     77  C   UNL     1       4.146   8.441   9.829  1.00  0.00     0.064 A 
ATOM     78  C   UNL     1       4.767   7.187   9.662  1.00  0.00     0.173 A 
ATOM     79  C   UNL     1       4.679   9.525   9.124  1.00  0.00     0.173 A 
ATOM     80  F   UNL     1       4.293   6.112  10.312  1.00  0.00    -0.203 F 
ATOM     81  C   UNL     1       5.798   7.006   8.744  1.00  0.00     0.198 A 
ATOM     82  C   UNL     1       5.725   9.342   8.217  1.00  0.00     0.198 A 
ATOM     83  F   UNL     1       4.122  10.741   9.224  1.00  0.00    -0.203 F 
ATOM     84  F   UNL     1       6.287   5.777   8.523  1.00  0.00    -0.200 F 
ATOM     85  C   UNL     1       6.260   8.080   8.004  1.00  0.00     0.200 A 
ATOM     86  F   UNL     1       6.150  10.375   7.474  1.00  0.00    -0.200 F 
ATOM     87  F   UNL     1       7.186   7.892   7.054  1.00  0.00    -0.200 F 
ENDBRANCH  53  77
BRANCH  65  88
ATOM     88  C   UNL     1      -0.255  13.503  12.366  1.00  0.00     0.064 A 
ATOM     89  C   UNL     1       0.826  14.305  12.767  1.00  0.00     0.173 A 
ATOM     90  C   UNL     1      -1.538  14.075  12.546  1.00  0.00     0.173 A 
ATOM     91  F   UNL     1       2.093  13.934  12.536  1.00  0.00    -0.203 F 
ATOM     92  C   UNL     1       0.639  15.553  13.369  1.00  0.00     0.198 A 
ATOM     93  C   UNL     1      -1.718  15.345  13.094  1.00  0.00     0.198 A 
ATOM     94  F   UNL     1      -2.652  13.430  12.171  1.00  0.00    -0.203 F 
ATOM     95  F   UNL     1       1.704  16.259  13.774  1.00  0.00    -0.200 F 
ATOM     96  C   UNL     1      -0.631  16.077  13.523  1.00  0.00     0.200 A 
ATOM     97  F   UNL     1      -2.952  15.862  13.185  1.00  0.00    -0.200 F 
ATOM     98  F   UNL     1      -0.802  17.292  14.059  1.00  0.00    -0.200 F 
ENDBRANCH  65  88
ENDBRANCH  39  40
ENDBRANCH  31  34
ENDBRANCH  29  30
ENDBRANCH   1  29
TORSDOF 14
