REMARK SMILES COc1ccc(S(=O)(=O)N2CCC[C@H](C(=O)N3CCC[C@H](C(=O)NCCCNC(=O)c4ccc(-c5c6nc(c(-c7c(F)c(F)c(F)c(F)c7F)c7ccc([nH]7)c(-c7c(F)c(F)c(F)c(F)c7F)c7nc(c(-c8c(F)c(F)c(F)c(F)c8F)c8ccc5[nH]8)C=C7)C=C6)cc4)C3)C2)cc1
REMARK SMILES IDX 22 1 23 2 24 3 21 5 17 6 18 7 94 8 19 9 20 10 15 11 16 12
REMARK SMILES IDX 14 13 10 14 11 15 95 16 12 17 13 18 7 19 8 20 9 21 6 22 3 23
REMARK SMILES IDX 4 24 97 25 5 26 96 27 2 28 1 29 25 30 26 31 27 32 28 33
REMARK SMILES IDX 29 34 30 36 31 37 32 38 93 39 33 40 92 41 34 42 35 43 36 44
REMARK SMILES IDX 86 45 37 46 91 47 85 48 87 49 38 50 90 51 84 52 83 53 39 55
REMARK SMILES IDX 71 56 51 57 70 58 52 59 55 60 69 61 88 62 53 63 54 64 68 66
REMARK SMILES IDX 89 67 56 68 40 69 41 70 49 71 42 72 43 73 47 74 50 75 44 76
REMARK SMILES IDX 45 77 48 78 46 79 72 80 73 81 81 82 74 83 75 84 79 85 82 86
REMARK SMILES IDX 76 87 77 88 80 89 78 90 57 91 58 92 66 93 59 94 60 95 64 96
REMARK SMILES IDX 67 97 61 98 62 99 65 100 63 101
REMARK H PARENT 24 4 28 35 87 54 55 65
REMARK Flexibility Score: inf
ROOT
ATOM      1  C   UNL     1       7.832  -6.120   8.860  1.00  0.00     0.224 C 
ATOM      2  O   UNL     1       8.502  -7.140   8.663  1.00  0.00    -0.275 OA
ATOM      3  N   UNL     1       8.446  -5.115   9.538  1.00  0.00    -0.356 N 
ATOM      4  H   UNL     1       9.312  -5.347   9.944  1.00  0.00     0.163 HD
ENDROOT
BRANCH   1   5
ATOM      5  C   UNL     1       6.382  -6.059   8.356  1.00  0.00     0.098 C 
ATOM      6  N   UNL     1       5.451  -3.818   7.653  1.00  0.00    -0.342 N 
ATOM      7  C   UNL     1       4.336  -3.935   8.585  1.00  0.00     0.119 C 
ATOM      8  C   UNL     1       6.105  -5.053   7.232  1.00  0.00     0.133 C 
ATOM      9  C   UNL     1       4.668  -4.776   9.808  1.00  0.00     0.022 C 
ATOM     10  C   UNL     1       5.317  -6.110   9.457  1.00  0.00     0.017 C 
BRANCH   6  11
ATOM     11  C   UNL     1       5.944  -2.557   7.374  1.00  0.00     0.227 C 
ATOM     12  O   UNL     1       6.172  -1.747   8.280  1.00  0.00    -0.275 OA
BRANCH  11  13
ATOM     13  C   UNL     1       5.945  -2.053   5.936  1.00  0.00     0.094 C 
ATOM     14  N   UNL     1       3.537  -2.417   5.594  1.00  0.00    -0.197 NA
ATOM     15  C   UNL     1       3.748  -3.622   4.775  1.00  0.00     0.102 C 
ATOM     16  C   UNL     1       4.593  -1.396   5.700  1.00  0.00     0.116 C 
ATOM     17  C   UNL     1       5.165  -3.846   4.254  1.00  0.00     0.018 C 
ATOM     18  C   UNL     1       6.292  -2.963   4.776  1.00  0.00     0.016 C 
BRANCH  14  19
ATOM     19  S   UNL     1       1.934  -1.949   5.887  1.00  0.00     0.243 S 
ATOM     20  O   UNL     1       1.935  -0.939   6.917  1.00  0.00    -0.207 OA
ATOM     21  O   UNL     1       1.152  -3.165   6.020  1.00  0.00    -0.207 OA
BRANCH  19  22
ATOM     22  C   UNL     1       1.389  -1.160   4.389  1.00  0.00     0.082 A 
ATOM     23  C   UNL     1       0.411  -0.001   2.043  1.00  0.00     0.118 A 
ATOM     24  C   UNL     1      -0.417  -0.137   3.160  1.00  0.00     0.048 A 
ATOM     25  C   UNL     1       1.740  -0.412   2.117  1.00  0.00     0.048 A 
ATOM     26  C   UNL     1       0.065  -0.721   4.334  1.00  0.00     0.025 A 
ATOM     27  C   UNL     1       2.226  -0.998   3.284  1.00  0.00     0.025 A 
BRANCH  23  28
ATOM     28  O   UNL     1      -0.173   0.553   0.938  1.00  0.00    -0.497 OA
ATOM     29  C   UNL     1       0.482   0.290  -0.300  1.00  0.00     0.278 C 
ENDBRANCH  23  28
ENDBRANCH  19  22
ENDBRANCH  14  19
ENDBRANCH  11  13
ENDBRANCH   6  11
ENDBRANCH   1   5
BRANCH   3  30
ATOM     30  C   UNL     1       8.007  -3.760   9.746  1.00  0.00     0.117 C 
BRANCH  30  31
ATOM     31  C   UNL     1       7.753  -3.395  11.193  1.00  0.00     0.042 C 
BRANCH  31  32
ATOM     32  C   UNL     1       8.901  -2.634  11.817  1.00  0.00     0.118 C 
BRANCH  32  33
ATOM     33  N   UNL     1       9.068  -1.291  11.264  1.00  0.00    -0.352 N 
ATOM     34  C   UNL     1       9.138  -0.071  11.894  1.00  0.00     0.251 C 
ATOM     35  H   UNL     1       9.142  -1.255  10.284  1.00  0.00     0.163 HD
ATOM     36  O   UNL     1       9.205   0.962  11.233  1.00  0.00    -0.269 OA
BRANCH  34  37
ATOM     37  C   UNL     1       9.086   0.007  13.369  1.00  0.00     0.039 A 
ATOM     38  C   UNL     1       8.325   1.014  13.969  1.00  0.00     0.014 A 
ATOM     39  C   UNL     1       9.748  -0.931  14.160  1.00  0.00     0.014 A 
ATOM     40  C   UNL     1       8.162   1.024  15.356  1.00  0.00     0.010 A 
ATOM     41  C   UNL     1       9.476  -1.000  15.518  1.00  0.00     0.010 A 
ATOM     42  C   UNL     1       8.696  -0.012  16.136  1.00  0.00    -0.014 A 
BRANCH  42  43
ATOM     43  C   UNL     1       8.500  -0.073  17.606  1.00  0.00     0.031 A 
ATOM     44  C   UNL     1       9.702  -0.075  18.512  1.00  0.00     0.074 A 
ATOM     45  C   UNL     1       7.263  -0.217  18.117  1.00  0.00     0.049 A 
ATOM     46  N   UNL     1       9.767  -0.258  19.806  1.00  0.00    -0.248 NA
ATOM     47  C   UNL     1      11.015   0.100  17.869  1.00  0.00     0.031 C 
ATOM     48  C   UNL     1       6.025  -0.298  17.339  1.00  0.00     0.029 A 
ATOM     49  N   UNL     1       6.843  -0.333  19.419  1.00  0.00    -0.354 N 
ATOM     50  C   UNL     1      11.120  -0.263  20.117  1.00  0.00     0.074 A 
ATOM     51  C   UNL     1      11.845  -0.130  18.874  1.00  0.00     0.031 C 
ATOM     52  C   UNL     1       4.983  -0.415  18.179  1.00  0.00     0.029 A 
ATOM     53  C   UNL     1       5.481  -0.456  19.550  1.00  0.00     0.049 A 
ATOM     54  H   UNL     1       7.460  -0.329  20.186  1.00  0.00     0.167 HD
ATOM     55  C   UNL     1      11.708  -0.337  21.334  1.00  0.00     0.037 A 
ATOM     56  C   UNL     1       4.724  -0.587  20.655  1.00  0.00     0.037 A 
ATOM     57  C   UNL     1      10.980  -0.396  22.572  1.00  0.00     0.049 A 
ATOM     58  C   UNL     1       5.396  -0.606  22.001  1.00  0.00     0.074 A 
ATOM     59  C   UNL     1      11.471  -0.388  23.865  1.00  0.00     0.029 A 
ATOM     60  N   UNL     1       9.597  -0.457  22.666  1.00  0.00    -0.354 N 
ATOM     61  N   UNL     1       6.674  -0.546  22.288  1.00  0.00    -0.248 NA
ATOM     62  C   UNL     1       4.521  -0.702  23.177  1.00  0.00     0.031 C 
ATOM     63  C   UNL     1      10.386  -0.473  24.743  1.00  0.00     0.029 A 
ATOM     64  C   UNL     1       9.217  -0.495  23.997  1.00  0.00     0.049 A 
ATOM     65  H   UNL     1       8.978  -0.472  21.901  1.00  0.00     0.167 HD
ATOM     66  C   UNL     1       6.756  -0.571  23.673  1.00  0.00     0.074 A 
ATOM     67  C   UNL     1       5.397  -0.636  24.170  1.00  0.00     0.031 C 
ATOM     68  C   UNL     1       7.856  -0.545  24.465  1.00  0.00     0.037 A 
BRANCH  55  69
ATOM     69  C   UNL     1      13.208  -0.334  21.380  1.00  0.00     0.064 A 
ATOM     70  C   UNL     1      13.954   0.807  21.045  1.00  0.00     0.173 A 
ATOM     71  C   UNL     1      13.910  -1.483  21.775  1.00  0.00     0.173 A 
ATOM     72  F   UNL     1      13.331   1.926  20.645  1.00  0.00    -0.203 F 
ATOM     73  C   UNL     1      15.345   0.787  21.068  1.00  0.00     0.198 A 
ATOM     74  C   UNL     1      15.302  -1.489  21.828  1.00  0.00     0.198 A 
ATOM     75  F   UNL     1      13.248  -2.600  22.110  1.00  0.00    -0.203 F 
ATOM     76  F   UNL     1      16.035   1.870  20.685  1.00  0.00    -0.200 F 
ATOM     77  C   UNL     1      16.018  -0.358  21.465  1.00  0.00     0.200 A 
ATOM     78  F   UNL     1      15.951  -2.593  22.224  1.00  0.00    -0.200 F 
ATOM     79  F   UNL     1      17.358  -0.375  21.489  1.00  0.00    -0.200 F 
ENDBRANCH  55  69
BRANCH  56  80
ATOM     80  C   UNL     1       3.245  -0.661  20.539  1.00  0.00     0.064 A 
ATOM     81  C   UNL     1       2.440   0.411  20.950  1.00  0.00     0.173 A 
ATOM     82  C   UNL     1       2.605  -1.794  20.016  1.00  0.00     0.173 A 
ATOM     83  F   UNL     1       3.005   1.508  21.475  1.00  0.00    -0.203 F 
ATOM     84  C   UNL     1       1.051   0.345  20.861  1.00  0.00     0.198 A 
ATOM     85  C   UNL     1       1.217  -1.849  19.904  1.00  0.00     0.198 A 
ATOM     86  F   UNL     1       3.330  -2.844  19.604  1.00  0.00    -0.203 F 
ATOM     87  F   UNL     1       0.305   1.367  21.302  1.00  0.00    -0.200 F 
ATOM     88  C   UNL     1       0.441  -0.783  20.334  1.00  0.00     0.200 A 
ATOM     89  F   UNL     1       0.631  -2.936  19.384  1.00  0.00    -0.200 F 
ATOM     90  F   UNL     1      -0.895  -0.845  20.248  1.00  0.00    -0.200 F 
ENDBRANCH  56  80
BRANCH  68  91
ATOM     91  C   UNL     1       7.635  -0.552  25.947  1.00  0.00     0.064 A 
ATOM     92  C   UNL     1       7.227  -1.711  26.622  1.00  0.00     0.173 A 
ATOM     93  C   UNL     1       7.881   0.602  26.705  1.00  0.00     0.173 A 
ATOM     94  F   UNL     1       6.967  -2.835  25.936  1.00  0.00    -0.203 F 
ATOM     95  C   UNL     1       7.053  -1.708  28.002  1.00  0.00     0.198 A 
ATOM     96  C   UNL     1       7.732   0.594  28.088  1.00  0.00     0.198 A 
ATOM     97  F   UNL     1       8.280   1.734  26.104  1.00  0.00    -0.203 F 
ATOM     98  F   UNL     1       6.624  -2.816  28.623  1.00  0.00    -0.200 F 
ATOM     99  C   UNL     1       7.313  -0.559  28.735  1.00  0.00     0.200 A 
ATOM    100  F   UNL     1       7.995   1.701  28.796  1.00  0.00    -0.200 F 
ATOM    101  F   UNL     1       7.153  -0.562  30.065  1.00  0.00    -0.200 F 
ENDBRANCH  68  91
ENDBRANCH  42  43
ENDBRANCH  34  37
ENDBRANCH  32  33
ENDBRANCH  31  32
ENDBRANCH  30  31
ENDBRANCH   3  30
TORSDOF 15
