REMARK SMILES CSCc1ccc(C(=O)N[C@@H](Cc2cnc[nH]2)C(=O)NCCCNC(=O)c2ccc(-c3c4nc(c(-c5c(F)c(F)c(F)c(F)c5F)c5ccc([nH]5)c(-c5c(F)c(F)c(F)c(F)c5F)c5nc(c(-c6c(F)c(F)c(F)c(F)c6F)c6ccc3[nH]6)C=C5)C=C4)cc2)o1
REMARK SMILES IDX 21 1 20 2 18 3 19 4 11 6 10 7 8 8 9 9 7 11 4 12 5 13 90 14
REMARK SMILES IDX 6 15 3 16 2 17 1 18 12 19 13 20 14 21 17 22 15 23 16 24
REMARK SMILES IDX 22 26 23 27 24 28 25 29 26 31 27 32 28 33 89 34 29 35 88 36
REMARK SMILES IDX 30 37 31 38 32 39 82 40 33 41 87 42 81 43 83 44 34 45 86 46
REMARK SMILES IDX 80 47 79 48 35 50 67 51 47 52 66 53 48 54 51 55 65 56 84 57
REMARK SMILES IDX 49 58 50 59 64 61 85 62 52 63 36 64 37 65 45 66 38 67 39 68
REMARK SMILES IDX 43 69 46 70 40 71 41 72 44 73 42 74 68 75 69 76 77 77 70 78
REMARK SMILES IDX 71 79 75 80 78 81 72 82 73 83 76 84 74 85 53 86 54 87 62 88
REMARK SMILES IDX 55 89 56 90 60 91 63 92 57 93 58 94 61 95 59 96
REMARK H PARENT 20 5 10 10 17 25 24 30 83 49 51 60
REMARK Flexibility Score: inf
ROOT
ATOM      1  C   UNL     1       0.289   4.954  -7.649  1.00  0.00     0.117 C 
ENDROOT
BRANCH   1   2
ATOM      2  N   UNL     1       0.650   3.627  -8.104  1.00  0.00    -0.354 N 
ATOM      3  C   UNL     1       0.035   2.436  -7.875  1.00  0.00     0.242 C 
ATOM      4  O   UNL     1       0.212   1.555  -8.724  1.00  0.00    -0.273 OA
ATOM      5  H   UNL     1       1.460   3.580  -8.661  1.00  0.00     0.163 HD
BRANCH   3   6
ATOM      6  C   UNL     1      -0.938   2.187  -6.705  1.00  0.00     0.177 C 
BRANCH   6   7
ATOM      7  N   UNL     1      -0.460   2.677  -5.414  1.00  0.00    -0.337 N 
ATOM      8  C   UNL     1       0.163   2.033  -4.369  1.00  0.00     0.287 C 
ATOM      9  O   UNL     1       0.723   2.788  -3.568  1.00  0.00    -0.266 OA
ATOM     10  H   UNL     1      -0.611   3.638  -5.265  1.00  0.00     0.164 HD
BRANCH   8  11
ATOM     11  C   UNL     1       0.131   0.588  -4.186  1.00  0.00     0.191 A 
ATOM     12  C   UNL     1       0.664  -1.240  -3.032  1.00  0.00     0.114 A 
ATOM     13  C   UNL     1      -0.175  -1.652  -4.039  1.00  0.00     0.047 A 
ATOM     14  O   UNL     1       0.887   0.099  -3.140  1.00  0.00    -0.455 OA
ATOM     15  C   UNL     1      -0.534  -0.484  -4.758  1.00  0.00     0.056 A 
BRANCH  12  16
ATOM     16  C   UNL     1       1.328  -1.952  -1.913  1.00  0.00     0.144 C 
BRANCH  16  17
ATOM     17  S   UNL     1       0.431  -1.745  -0.341  1.00  0.00    -0.157 SA
ATOM     18  C   UNL     1       0.978  -0.071   0.082  1.00  0.00     0.085 C 
ENDBRANCH  16  17
ENDBRANCH  12  16
ENDBRANCH   8  11
ENDBRANCH   6   7
BRANCH   6  19
ATOM     19  C   UNL     1      -2.409   2.529  -7.007  1.00  0.00     0.090 C 
BRANCH  19  20
ATOM     20  C   UNL     1      -2.729   3.955  -7.303  1.00  0.00     0.037 A 
ATOM     21  C   UNL     1      -3.000   5.037  -6.492  1.00  0.00     0.134 A 
ATOM     22  N   UNL     1      -2.879   4.441  -8.583  1.00  0.00    -0.348 N 
ATOM     23  N   UNL     1      -3.200   6.168  -7.240  1.00  0.00    -0.245 NA
ATOM     24  C   UNL     1      -3.130   5.781  -8.492  1.00  0.00     0.196 A 
ATOM     25  H   UNL     1      -2.816   3.917  -9.414  1.00  0.00     0.167 HD
ENDBRANCH  19  20
ENDBRANCH   6  19
ENDBRANCH   3   6
ENDBRANCH   1   2
BRANCH   1  26
ATOM     26  C   UNL     1       1.453   5.917  -7.572  1.00  0.00     0.042 C 
BRANCH  26  27
ATOM     27  C   UNL     1       2.085   6.209  -8.923  1.00  0.00     0.118 C 
BRANCH  27  28
ATOM     28  N   UNL     1       1.159   6.796  -9.892  1.00  0.00    -0.352 N 
ATOM     29  C   UNL     1       1.135   8.048 -10.459  1.00  0.00     0.251 C 
ATOM     30  H   UNL     1       0.435   6.197 -10.185  1.00  0.00     0.163 HD
ATOM     31  O   UNL     1       0.178   8.397 -11.143  1.00  0.00    -0.269 OA
BRANCH  29  32
ATOM     32  C   UNL     1       2.256   8.977 -10.220  1.00  0.00     0.039 A 
ATOM     33  C   UNL     1       1.997  10.315  -9.914  1.00  0.00     0.014 A 
ATOM     34  C   UNL     1       3.568   8.506 -10.257  1.00  0.00     0.014 A 
ATOM     35  C   UNL     1       3.053  11.152  -9.545  1.00  0.00     0.010 A 
ATOM     36  C   UNL     1       4.592   9.296  -9.760  1.00  0.00     0.010 A 
ATOM     37  C   UNL     1       4.351  10.633  -9.411  1.00  0.00    -0.014 A 
BRANCH  37  38
ATOM     38  C   UNL     1       5.492  11.458  -8.939  1.00  0.00     0.031 A 
ATOM     39  C   UNL     1       6.709  11.604  -9.814  1.00  0.00     0.074 A 
ATOM     40  C   UNL     1       5.482  11.978  -7.696  1.00  0.00     0.049 A 
ATOM     41  N   UNL     1       7.872  12.136  -9.538  1.00  0.00    -0.248 NA
ATOM     42  C   UNL     1       6.624  11.026 -11.166  1.00  0.00     0.031 C 
ATOM     43  C   UNL     1       4.391  11.848  -6.728  1.00  0.00     0.029 A 
ATOM     44  N   UNL     1       6.431  12.708  -7.027  1.00  0.00    -0.354 N 
ATOM     45  C   UNL     1       8.660  11.921 -10.662  1.00  0.00     0.074 A 
ATOM     46  C   UNL     1       7.870  11.152 -11.596  1.00  0.00     0.031 C 
ATOM     47  C   UNL     1       4.719  12.503  -5.603  1.00  0.00     0.029 A 
ATOM     48  C   UNL     1       6.059  13.061  -5.752  1.00  0.00     0.049 A 
ATOM     49  H   UNL     1       7.298  12.957  -7.423  1.00  0.00     0.167 HD
ATOM     50  C   UNL     1       9.917  12.357 -10.909  1.00  0.00     0.037 A 
ATOM     51  C   UNL     1       6.730  13.751  -4.810  1.00  0.00     0.037 A 
ATOM     52  C   UNL     1      10.675  13.174 -10.001  1.00  0.00     0.049 A 
ATOM     53  C   UNL     1       8.112  14.258  -5.124  1.00  0.00     0.074 A 
ATOM     54  C   UNL     1      11.927  13.732 -10.181  1.00  0.00     0.029 A 
ATOM     55  N   UNL     1      10.238  13.561  -8.742  1.00  0.00    -0.354 N 
ATOM     56  N   UNL     1       8.822  14.104  -6.216  1.00  0.00    -0.248 NA
ATOM     57  C   UNL     1       8.784  15.041  -4.078  1.00  0.00     0.031 C 
ATOM     58  C   UNL     1      12.264  14.430  -9.016  1.00  0.00     0.029 A 
ATOM     59  C   UNL     1      11.201  14.345  -8.130  1.00  0.00     0.049 A 
ATOM     60  H   UNL     1       9.372  13.315  -8.343  1.00  0.00     0.167 HD
ATOM     61  C   UNL     1      10.006  14.798  -6.002  1.00  0.00     0.074 A 
ATOM     62  C   UNL     1       9.913  15.384  -4.681  1.00  0.00     0.031 C 
ATOM     63  C   UNL     1      11.075  14.936  -6.824  1.00  0.00     0.037 A 
BRANCH  50  64
ATOM     64  C   UNL     1      10.539  11.978 -12.222  1.00  0.00     0.064 A 
ATOM     65  C   UNL     1      10.068  12.499 -13.438  1.00  0.00     0.173 A 
ATOM     66  C   UNL     1      11.635  11.104 -12.267  1.00  0.00     0.173 A 
ATOM     67  F   UNL     1       9.012  13.328 -13.453  1.00  0.00    -0.203 F 
ATOM     68  C   UNL     1      10.648  12.134 -14.649  1.00  0.00     0.198 A 
ATOM     69  C   UNL     1      12.235  10.767 -13.477  1.00  0.00     0.198 A 
ATOM     70  F   UNL     1      12.129  10.578 -11.135  1.00  0.00    -0.203 F 
ATOM     71  F   UNL     1      10.143  12.600 -15.799  1.00  0.00    -0.200 F 
ATOM     72  C   UNL     1      11.736  11.275 -14.668  1.00  0.00     0.200 A 
ATOM     73  F   UNL     1      13.295   9.946 -13.493  1.00  0.00    -0.200 F 
ATOM     74  F   UNL     1      12.299  10.929 -15.834  1.00  0.00    -0.200 F 
ENDBRANCH  50  64
BRANCH  51  75
ATOM     75  C   UNL     1       6.093  14.040  -3.498  1.00  0.00     0.064 A 
ATOM     76  C   UNL     1       5.718  15.347  -3.156  1.00  0.00     0.173 A 
ATOM     77  C   UNL     1       5.861  13.028  -2.555  1.00  0.00     0.173 A 
ATOM     78  F   UNL     1       5.938  16.352  -4.016  1.00  0.00    -0.203 F 
ATOM     79  C   UNL     1       5.161  15.636  -1.912  1.00  0.00     0.198 A 
ATOM     80  C   UNL     1       5.276  13.314  -1.322  1.00  0.00     0.198 A 
ATOM     81  F   UNL     1       6.194  11.760  -2.834  1.00  0.00    -0.203 F 
ATOM     82  F   UNL     1       4.861  16.902  -1.593  1.00  0.00    -0.200 F 
ATOM     83  C   UNL     1       4.936  14.618  -0.998  1.00  0.00     0.200 A 
ATOM     84  F   UNL     1       5.048  12.326  -0.446  1.00  0.00    -0.200 F 
ATOM     85  F   UNL     1       4.401  14.897   0.199  1.00  0.00    -0.200 F 
ENDBRANCH  51  75
BRANCH  63  86
ATOM     86  C   UNL     1      12.206  15.795  -6.341  1.00  0.00     0.064 A 
ATOM     87  C   UNL     1      13.071  15.371  -5.323  1.00  0.00     0.173 A 
ATOM     88  C   UNL     1      12.453  17.039  -6.941  1.00  0.00     0.173 A 
ATOM     89  F   UNL     1      12.867  14.195  -4.710  1.00  0.00    -0.203 F 
ATOM     90  C   UNL     1      14.129  16.173  -4.905  1.00  0.00     0.198 A 
ATOM     91  C   UNL     1      13.530  17.825  -6.542  1.00  0.00     0.198 A 
ATOM     92  F   UNL     1      11.659  17.485  -7.926  1.00  0.00    -0.203 F 
ATOM     93  F   UNL     1      14.917  15.769  -3.899  1.00  0.00    -0.200 F 
ATOM     94  C   UNL     1      14.363  17.395  -5.520  1.00  0.00     0.200 A 
ATOM     95  F   UNL     1      13.763  18.997  -7.148  1.00  0.00    -0.200 F 
ATOM     96  F   UNL     1      15.388  18.161  -5.123  1.00  0.00    -0.200 F 
ENDBRANCH  63  86
ENDBRANCH  37  38
ENDBRANCH  29  32
ENDBRANCH  27  28
ENDBRANCH  26  27
ENDBRANCH   1  26
TORSDOF 16
