REMARK SMILES Cc1nc2nc(CNC(=O)OC(C)(C)C)nn2c(C)c1CCC(=O)NCCCNC(=O)c1ccc(-c2c3nc(c(-c4c(F)c(F)c(F)c(F)c4F)c4ccc([nH]4)c(-c4c(F)c(F)c(F)c(F)c4F)c4nc(c(-c5c(F)c(F)c(F)c(F)c5F)c5ccc2[nH]5)C=C4)C=C3)cc1
REMARK SMILES IDX 23 1 24 2 25 3 22 5 21 6 20 7 1 8 2 9 3 10 4 11 18 12 5 13
REMARK SMILES IDX 17 14 19 15 6 16 16 17 7 18 8 19 9 20 10 22 11 23 12 24
REMARK SMILES IDX 13 25 14 26 15 27 26 28 27 29 28 30 29 31 30 32 31 34 32 35
REMARK SMILES IDX 33 36 94 37 34 38 93 39 35 40 36 41 37 42 87 43 38 44 92 45
REMARK SMILES IDX 86 46 88 47 39 48 91 49 85 50 84 51 40 53 72 54 52 55 71 56
REMARK SMILES IDX 53 57 56 58 70 59 89 60 54 61 55 62 69 64 90 65 57 66 41 67
REMARK SMILES IDX 42 68 50 69 43 70 44 71 48 72 51 73 45 74 46 75 49 76 47 77
REMARK SMILES IDX 73 78 74 79 82 80 75 81 76 82 80 83 83 84 77 85 78 86 81 87
REMARK SMILES IDX 79 88 58 89 59 90 67 91 60 92 61 93 65 94 68 95 62 96 63 97
REMARK SMILES IDX 66 98 64 99
REMARK H PARENT 25 4 8 21 29 33 88 52 56 63
REMARK Flexibility Score: inf
ROOT
ATOM      1  C   UNL     1       1.475  -3.088   3.523  1.00  0.00     0.220 C 
ATOM      2  O   UNL     1       1.073  -4.222   3.798  1.00  0.00    -0.275 OA
ATOM      3  N   UNL     1       1.771  -2.237   4.553  1.00  0.00    -0.356 N 
ATOM      4  H   UNL     1       1.695  -2.671   5.434  1.00  0.00     0.163 HD
ENDROOT
BRANCH   1   5
ATOM      5  C   UNL     1       1.586  -2.671   2.068  1.00  0.00     0.105 C 
BRANCH   5   6
ATOM      6  C   UNL     1       0.203  -2.528   1.392  1.00  0.00     0.049 C 
BRANCH   6   7
ATOM      7  C   UNL     1      -0.580  -1.454   2.098  1.00  0.00    -0.005 A 
ATOM      8  C   UNL     1       0.609   0.354   0.603  1.00  0.00     0.067 C 
ATOM      9  C   UNL     1      -0.142  -0.025   1.876  1.00  0.00     0.046 A 
ATOM     10  N   UNL     1      -0.358   0.915   2.740  1.00  0.00    -0.216 NA
ATOM     11  C   UNL     1      -0.919   0.520   3.915  1.00  0.00     0.252 A 
ATOM     12  C   UNL     1      -1.432  -1.680   3.140  1.00  0.00     0.048 A 
ATOM     13  N   UNL     1      -0.836   1.113   5.058  1.00  0.00    -0.192 NA
ATOM     14  N   UNL     1      -1.505  -0.705   4.157  1.00  0.00    -0.201 N 
ATOM     15  C   UNL     1      -2.151  -2.959   3.400  1.00  0.00     0.067 C 
ATOM     16  C   UNL     1      -1.325   0.344   6.074  1.00  0.00     0.172 A 
ATOM     17  N   UNL     1      -1.849  -0.799   5.538  1.00  0.00    -0.148 NA
BRANCH  16  18
ATOM     18  C   UNL     1      -1.176   0.781   7.681  1.00  0.00     0.199 C 
BRANCH  18  19
ATOM     19  N   UNL     1      -0.401   2.055   8.398  1.00  0.00    -0.314 N 
ATOM     20  C   UNL     1      -0.229   3.425   8.768  1.00  0.00     0.408 C 
ATOM     21  H   UNL     1       0.391   1.626   8.796  1.00  0.00     0.167 HD
ATOM     22  O   UNL     1       0.677   3.666   9.546  1.00  0.00    -0.225 OA
BRANCH  20  23
ATOM     23  O   UNL     1      -1.030   4.440   8.299  1.00  0.00    -0.444 OA
BRANCH  23  24
ATOM     24  C   UNL     1      -1.077   5.933   8.571  1.00  0.00     0.106 C 
ATOM     25  C   UNL     1      -0.987   6.288  10.058  1.00  0.00     0.056 C 
ATOM     26  C   UNL     1      -0.019   6.689   7.761  1.00  0.00     0.056 C 
ATOM     27  C   UNL     1      -2.451   6.516   8.088  1.00  0.00     0.056 C 
ENDBRANCH  23  24
ENDBRANCH  20  23
ENDBRANCH  18  19
ENDBRANCH  16  18
ENDBRANCH   6   7
ENDBRANCH   5   6
ENDBRANCH   1   5
BRANCH   3  28
ATOM     28  C   UNL     1       2.185  -0.794   4.655  1.00  0.00     0.117 C 
BRANCH  28  29
ATOM     29  C   UNL     1       1.488  -0.110   5.873  1.00  0.00     0.042 C 
BRANCH  29  30
ATOM     30  C   UNL     1       1.466   1.508   6.212  1.00  0.00     0.118 C 
BRANCH  30  31
ATOM     31  N   UNL     1       0.472   2.793   5.809  1.00  0.00    -0.352 N 
ATOM     32  C   UNL     1      -0.889   3.444   5.779  1.00  0.00     0.251 C 
ATOM     33  H   UNL     1       1.071   3.446   5.379  1.00  0.00     0.163 HD
ATOM     34  O   UNL     1      -0.871   4.593   5.306  1.00  0.00    -0.269 OA
BRANCH  32  35
ATOM     35  C   UNL     1      -2.396   2.950   6.239  1.00  0.00     0.039 A 
ATOM     36  C   UNL     1      -3.063   3.285   7.425  1.00  0.00     0.014 A 
ATOM     37  C   UNL     1      -3.226   2.133   5.482  1.00  0.00     0.014 A 
ATOM     38  C   UNL     1      -3.950   2.436   8.111  1.00  0.00     0.010 A 
ATOM     39  C   UNL     1      -4.108   1.213   6.137  1.00  0.00     0.010 A 
ATOM     40  C   UNL     1      -4.335   1.253   7.521  1.00  0.00    -0.014 A 
BRANCH  40  41
ATOM     41  C   UNL     1      -5.260   0.371   8.273  1.00  0.00     0.031 A 
ATOM     42  C   UNL     1      -6.632   0.874   8.080  1.00  0.00     0.074 A 
ATOM     43  C   UNL     1      -5.122  -0.752   9.025  1.00  0.00     0.049 A 
ATOM     44  N   UNL     1      -7.355   1.542   8.917  1.00  0.00    -0.248 NA
ATOM     45  C   UNL     1      -7.146   0.816   6.707  1.00  0.00     0.031 C 
ATOM     46  C   UNL     1      -3.965  -1.627   9.226  1.00  0.00     0.029 A 
ATOM     47  N   UNL     1      -6.105  -1.410   9.745  1.00  0.00    -0.354 N 
ATOM     48  C   UNL     1      -8.477   1.891   8.186  1.00  0.00     0.074 A 
ATOM     49  C   UNL     1      -8.169   1.657   6.799  1.00  0.00     0.031 C 
ATOM     50  C   UNL     1      -4.365  -2.785   9.815  1.00  0.00     0.029 A 
ATOM     51  C   UNL     1      -5.783  -2.709  10.138  1.00  0.00     0.049 A 
ATOM     52  H   UNL     1      -6.969  -0.991   9.963  1.00  0.00     0.167 HD
ATOM     53  C   UNL     1      -9.693   2.070   8.757  1.00  0.00     0.037 A 
ATOM     54  C   UNL     1      -6.633  -3.656  10.631  1.00  0.00     0.037 A 
ATOM     55  C   UNL     1      -9.623   2.277  10.174  1.00  0.00     0.049 A 
ATOM     56  C   UNL     1      -7.850  -2.967  11.123  1.00  0.00     0.074 A 
ATOM     57  C   UNL     1      -8.972   3.182  10.991  1.00  0.00     0.029 A 
ATOM     58  N   UNL     1     -10.039   1.263  11.000  1.00  0.00    -0.354 N 
ATOM     59  N   UNL     1      -7.931  -2.311  12.242  1.00  0.00    -0.248 NA
ATOM     60  C   UNL     1      -8.947  -2.757  10.190  1.00  0.00     0.031 C 
ATOM     61  C   UNL     1      -8.639   2.458  12.171  1.00  0.00     0.029 A 
ATOM     62  C   UNL     1      -9.119   1.160  12.011  1.00  0.00     0.049 A 
ATOM     63  H   UNL     1     -10.847   0.712  10.887  1.00  0.00     0.167 HD
ATOM     64  C   UNL     1      -8.826  -1.290  11.975  1.00  0.00     0.074 A 
ATOM     65  C   UNL     1      -9.511  -1.687  10.752  1.00  0.00     0.031 C 
ATOM     66  C   UNL     1      -8.717  -0.089  12.608  1.00  0.00     0.037 A 
BRANCH  53  67
ATOM     67  C   UNL     1     -10.945   1.708   8.019  1.00  0.00     0.064 A 
ATOM     68  C   UNL     1     -12.171   2.257   8.411  1.00  0.00     0.173 A 
ATOM     69  C   UNL     1     -11.008   0.668   7.061  1.00  0.00     0.173 A 
ATOM     70  F   UNL     1     -12.220   3.194   9.370  1.00  0.00    -0.203 F 
ATOM     71  C   UNL     1     -13.375   1.800   7.874  1.00  0.00     0.198 A 
ATOM     72  C   UNL     1     -12.198   0.274   6.466  1.00  0.00     0.198 A 
ATOM     73  F   UNL     1      -9.937  -0.073   6.744  1.00  0.00    -0.203 F 
ATOM     74  F   UNL     1     -14.534   2.273   8.349  1.00  0.00    -0.200 F 
ATOM     75  C   UNL     1     -13.387   0.823   6.890  1.00  0.00     0.200 A 
ATOM     76  F   UNL     1     -12.183  -0.690   5.534  1.00  0.00    -0.200 F 
ATOM     77  F   UNL     1     -14.544   0.369   6.393  1.00  0.00    -0.200 F 
ENDBRANCH  53  67
BRANCH  54  78
ATOM     78  C   UNL     1      -6.616  -5.150  10.577  1.00  0.00     0.064 A 
ATOM     79  C   UNL     1      -7.504  -5.920  11.362  1.00  0.00     0.173 A 
ATOM     80  C   UNL     1      -5.962  -5.840   9.543  1.00  0.00     0.173 A 
ATOM     81  F   UNL     1      -8.202  -5.354  12.357  1.00  0.00    -0.203 F 
ATOM     82  C   UNL     1      -7.758  -7.272  11.093  1.00  0.00     0.198 A 
ATOM     83  C   UNL     1      -6.209  -7.193   9.281  1.00  0.00     0.198 A 
ATOM     84  F   UNL     1      -5.145  -5.196   8.700  1.00  0.00    -0.203 F 
ATOM     85  F   UNL     1      -8.670  -7.940  11.814  1.00  0.00    -0.200 F 
ATOM     86  C   UNL     1      -7.120  -7.903  10.042  1.00  0.00     0.200 A 
ATOM     87  F   UNL     1      -5.608  -7.788   8.241  1.00  0.00    -0.200 F 
ATOM     88  F   UNL     1      -7.412  -9.175   9.736  1.00  0.00    -0.200 F 
ENDBRANCH  54  78
BRANCH  66  89
ATOM     89  C   UNL     1      -7.874  -0.014  13.848  1.00  0.00     0.064 A 
ATOM     90  C   UNL     1      -6.500  -0.306  13.890  1.00  0.00     0.173 A 
ATOM     91  C   UNL     1      -8.460   0.515  15.008  1.00  0.00     0.173 A 
ATOM     92  F   UNL     1      -5.845  -0.723  12.796  1.00  0.00    -0.203 F 
ATOM     93  C   UNL     1      -5.760  -0.111  15.055  1.00  0.00     0.198 A 
ATOM     94  C   UNL     1      -7.709   0.749  16.155  1.00  0.00     0.198 A 
ATOM     95  F   UNL     1      -9.760   0.853  15.011  1.00  0.00    -0.203 F 
ATOM     96  F   UNL     1      -4.453  -0.411  15.078  1.00  0.00    -0.200 F 
ATOM     97  C   UNL     1      -6.362   0.427  16.182  1.00  0.00     0.200 A 
ATOM     98  F   UNL     1      -8.285   1.312  17.226  1.00  0.00    -0.200 F 
ATOM     99  F   UNL     1      -5.637   0.662  17.285  1.00  0.00    -0.200 F 
ENDBRANCH  66  89
ENDBRANCH  40  41
ENDBRANCH  32  35
ENDBRANCH  30  31
ENDBRANCH  29  30
ENDBRANCH  28  29
ENDBRANCH   3  28
TORSDOF 16
