REMARK SMILES COc1ccc(OC)c([C@H](C(=O)NCCCNC(=O)c2ccc(-c3c4nc(c(-c5c(F)c(F)c(F)c(F)c5F)c5ccc([nH]5)c(-c5c(F)c(F)c(F)c(F)c5F)c5nc(c(-c6c(F)c(F)c(F)c(F)c6F)c6ccc3[nH]6)C=C5)C=C4)cc2)[NH+]2CC[NH+](Cc3nccn3C)CC2)c1
REMARK SMILES IDX 14 1 13 2 11 3 12 4 10 6 9 7 3 8 4 9 96 10 5 11 6 12 2 13
REMARK SMILES IDX 1 14 7 15 8 16 83 17 84 18 95 19 85 21 94 22 86 23 87 25
REMARK SMILES IDX 88 26 89 27 92 28 90 29 91 30 93 31 15 32 16 33 17 34 18 35
REMARK SMILES IDX 19 37 20 38 21 39 82 40 22 41 81 42 23 43 24 44 25 45 75 46
REMARK SMILES IDX 26 47 80 48 74 49 76 50 27 51 79 52 73 53 72 54 28 56 60 57
REMARK SMILES IDX 40 58 59 59 41 60 44 61 58 62 77 63 42 64 43 65 57 67 78 68
REMARK SMILES IDX 45 69 29 70 30 71 38 72 31 73 32 74 36 75 39 76 33 77 34 78
REMARK SMILES IDX 37 79 35 80 61 81 62 82 70 83 63 84 64 85 68 86 71 87 65 88
REMARK SMILES IDX 66 89 69 90 67 91 46 92 47 93 55 94 48 95 49 96 53 97 56 98
REMARK SMILES IDX 50 99 51 100 54 101 52 102
REMARK H PARENT 13 5 83 20 86 24 17 36 76 55 44 66
REMARK Flexibility Score: inf
ROOT
ATOM      1  C   UNL     1       3.539  -1.407  -0.718  1.00  0.00     0.118 C 
ENDROOT
BRANCH   1   2
ATOM      2  N   UNL     1       2.537  -2.001  -1.579  1.00  0.00    -0.351 N 
ATOM      3  C   UNL     1       2.548  -2.281  -2.911  1.00  0.00     0.283 C 
ATOM      4  O   UNL     1       1.467  -2.648  -3.384  1.00  0.00    -0.268 OA
ATOM      5  H   UNL     1       1.700  -2.244  -1.120  1.00  0.00     0.163 HD
BRANCH   3   6
ATOM      6  C   UNL     1       3.852  -2.153  -3.745  1.00  0.00     0.309 C 
BRANCH   6   7
ATOM      7  C   UNL     1       4.483  -3.504  -4.111  1.00  0.00     0.065 A 
ATOM      8  C   UNL     1       4.165  -5.913  -4.529  1.00  0.00     0.119 A 
ATOM      9  C   UNL     1       5.518  -6.042  -4.808  1.00  0.00     0.050 A 
ATOM     10  C   UNL     1       3.664  -4.658  -4.186  1.00  0.00     0.060 A 
ATOM     11  C   UNL     1       6.356  -4.927  -4.738  1.00  0.00     0.051 A 
ATOM     12  C   UNL     1       5.852  -3.664  -4.391  1.00  0.00     0.128 A 
BRANCH   8  13
ATOM     13  O   UNL     1       3.429  -7.065  -4.580  1.00  0.00    -0.497 OA
ATOM     14  C   UNL     1       2.022  -6.904  -4.746  1.00  0.00     0.278 C 
ENDBRANCH   8  13
BRANCH  12  15
ATOM     15  O   UNL     1       6.816  -2.709  -4.193  1.00  0.00    -0.496 OA
ATOM     16  C   UNL     1       6.695  -1.538  -4.994  1.00  0.00     0.278 C 
ENDBRANCH  12  15
ENDBRANCH   6   7
BRANCH   6  17
ATOM     17  N   UNL     1       3.655  -1.270  -4.913  1.00  0.00    -0.311 N 
ATOM     18  C   UNL     1       2.916  -1.801  -6.063  1.00  0.00     0.325 C 
ATOM     19  C   UNL     1       3.349   0.125  -4.609  1.00  0.00     0.325 C 
ATOM     20  H   UNL     1       4.611  -1.263  -5.268  1.00  0.00     0.349 HD
ATOM     21  C   UNL     1       1.474  -1.290  -6.286  1.00  0.00     0.324 C 
ATOM     22  C   UNL     1       1.876   0.557  -4.783  1.00  0.00     0.324 C 
ATOM     23  N   UNL     1       1.218   0.133  -6.018  1.00  0.00    -0.319 N 
ATOM     24  H   UNL     1       0.220   0.246  -5.838  1.00  0.00     0.348 HD
BRANCH  23  25
ATOM     25  C   UNL     1       1.395   1.005  -7.188  1.00  0.00     0.339 C 
BRANCH  25  26
ATOM     26  C   UNL     1       2.796   1.192  -7.690  1.00  0.00     0.164 A 
ATOM     27  N   UNL     1       3.455   0.325  -8.441  1.00  0.00    -0.236 NA
ATOM     28  N   UNL     1       3.589   2.291  -7.444  1.00  0.00    -0.333 N 
ATOM     29  C   UNL     1       4.727   0.809  -8.563  1.00  0.00     0.131 A 
ATOM     30  C   UNL     1       4.837   2.028  -7.945  1.00  0.00     0.107 A 
ATOM     31  C   UNL     1       3.247   3.514  -6.761  1.00  0.00     0.151 C 
ENDBRANCH  25  26
ENDBRANCH  23  25
ENDBRANCH   6  17
ENDBRANCH   3   6
ENDBRANCH   1   2
BRANCH   1  32
ATOM     32  C   UNL     1       3.194   0.043  -0.392  1.00  0.00     0.042 C 
BRANCH  32  33
ATOM     33  C   UNL     1       1.780   0.237   0.153  1.00  0.00     0.118 C 
BRANCH  33  34
ATOM     34  N   UNL     1       1.505  -0.596   1.317  1.00  0.00    -0.352 N 
ATOM     35  C   UNL     1       1.188  -0.244   2.601  1.00  0.00     0.251 C 
ATOM     36  H   UNL     1       1.556  -1.566   1.153  1.00  0.00     0.163 HD
ATOM     37  O   UNL     1       1.185  -1.097   3.489  1.00  0.00    -0.269 OA
BRANCH  35  38
ATOM     38  C   UNL     1       0.872   1.158   2.930  1.00  0.00     0.039 A 
ATOM     39  C   UNL     1       1.421   1.720   4.085  1.00  0.00     0.014 A 
ATOM     40  C   UNL     1       0.030   1.913   2.110  1.00  0.00     0.014 A 
ATOM     41  C   UNL     1       1.179   3.062   4.381  1.00  0.00     0.010 A 
ATOM     42  C   UNL     1      -0.142   3.270   2.361  1.00  0.00     0.010 A 
ATOM     43  C   UNL     1       0.429   3.858   3.500  1.00  0.00    -0.014 A 
BRANCH  43  44
ATOM     44  C   UNL     1       0.224   5.305   3.757  1.00  0.00     0.031 A 
ATOM     45  C   UNL     1      -1.162   5.838   3.995  1.00  0.00     0.074 A 
ATOM     46  C   UNL     1       1.278   6.143   3.722  1.00  0.00     0.049 A 
ATOM     47  N   UNL     1      -1.556   7.076   4.159  1.00  0.00    -0.248 NA
ATOM     48  C   UNL     1      -2.254   4.852   4.027  1.00  0.00     0.031 C 
ATOM     49  C   UNL     1       2.665   5.750   3.467  1.00  0.00     0.029 A 
ATOM     50  N   UNL     1       1.347   7.503   3.895  1.00  0.00    -0.354 N 
ATOM     51  C   UNL     1      -2.935   7.015   4.312  1.00  0.00     0.074 A 
ATOM     52  C   UNL     1      -3.319   5.630   4.152  1.00  0.00     0.031 C 
ATOM     53  C   UNL     1       3.450   6.838   3.527  1.00  0.00     0.029 A 
ATOM     54  C   UNL     1       2.619   8.010   3.780  1.00  0.00     0.049 A 
ATOM     55  H   UNL     1       0.559   8.062   4.084  1.00  0.00     0.167 HD
ATOM     56  C   UNL     1      -3.799   8.020   4.593  1.00  0.00     0.037 A 
ATOM     57  C   UNL     1       3.060   9.280   3.861  1.00  0.00     0.037 A 
ATOM     58  C   UNL     1      -3.412   9.395   4.764  1.00  0.00     0.049 A 
ATOM     59  C   UNL     1       2.068  10.381   4.129  1.00  0.00     0.074 A 
ATOM     60  C   UNL     1      -4.207  10.485   5.072  1.00  0.00     0.029 A 
ATOM     61  N   UNL     1      -2.113   9.869   4.644  1.00  0.00    -0.354 N 
ATOM     62  N   UNL     1       0.774  10.304   4.324  1.00  0.00    -0.248 NA
ATOM     63  C   UNL     1       2.603  11.749   4.194  1.00  0.00     0.031 C 
ATOM     64  C   UNL     1      -3.397  11.625   5.096  1.00  0.00     0.029 A 
ATOM     65  C   UNL     1      -2.089  11.238   4.856  1.00  0.00     0.049 A 
ATOM     66  H   UNL     1      -1.326   9.315   4.438  1.00  0.00     0.167 HD
ATOM     67  C   UNL     1       0.348  11.602   4.573  1.00  0.00     0.074 A 
ATOM     68  C   UNL     1       1.524  12.445   4.520  1.00  0.00     0.031 C 
ATOM     69  C   UNL     1      -0.904  12.057   4.822  1.00  0.00     0.037 A 
BRANCH  56  70
ATOM     70  C   UNL     1      -5.249   7.664   4.751  1.00  0.00     0.064 A 
ATOM     71  C   UNL     1      -5.704   6.916   5.849  1.00  0.00     0.173 A 
ATOM     72  C   UNL     1      -6.202   8.108   3.822  1.00  0.00     0.173 A 
ATOM     73  F   UNL     1      -4.832   6.456   6.759  1.00  0.00    -0.203 F 
ATOM     74  C   UNL     1      -7.053   6.605   5.997  1.00  0.00     0.198 A 
ATOM     75  C   UNL     1      -7.555   7.823   3.991  1.00  0.00     0.198 A 
ATOM     76  F   UNL     1      -5.824   8.831   2.757  1.00  0.00    -0.203 F 
ATOM     77  F   UNL     1      -7.455   5.850   7.028  1.00  0.00    -0.200 F 
ATOM     78  C   UNL     1      -7.978   7.066   5.073  1.00  0.00     0.200 A 
ATOM     79  F   UNL     1      -8.450   8.281   3.105  1.00  0.00    -0.200 F 
ATOM     80  F   UNL     1      -9.278   6.776   5.223  1.00  0.00    -0.200 F 
ENDBRANCH  56  70
BRANCH  57  81
ATOM     81  C   UNL     1       4.507   9.587   3.703  1.00  0.00     0.064 A 
ATOM     82  C   UNL     1       5.257  10.089   4.776  1.00  0.00     0.173 A 
ATOM     83  C   UNL     1       5.160   9.428   2.472  1.00  0.00     0.173 A 
ATOM     84  F   UNL     1       4.673  10.277   5.969  1.00  0.00    -0.203 F 
ATOM     85  C   UNL     1       6.591  10.455   4.616  1.00  0.00     0.198 A 
ATOM     86  C   UNL     1       6.504   9.762   2.321  1.00  0.00     0.198 A 
ATOM     87  F   UNL     1       4.492   8.946   1.413  1.00  0.00    -0.203 F 
ATOM     88  F   UNL     1       7.264  10.993   5.642  1.00  0.00    -0.200 F 
ATOM     89  C   UNL     1       7.215  10.288   3.389  1.00  0.00     0.200 A 
ATOM     90  F   UNL     1       7.107   9.584   1.137  1.00  0.00    -0.200 F 
ATOM     91  F   UNL     1       8.496  10.646   3.232  1.00  0.00    -0.200 F 
ENDBRANCH  57  81
BRANCH  69  92
ATOM     92  C   UNL     1      -1.060  13.523   5.108  1.00  0.00     0.064 A 
ATOM     93  C   UNL     1      -0.901  14.492   4.108  1.00  0.00     0.173 A 
ATOM     94  C   UNL     1      -1.407  13.958   6.396  1.00  0.00     0.173 A 
ATOM     95  F   UNL     1      -0.554  14.129   2.864  1.00  0.00    -0.203 F 
ATOM     96  C   UNL     1      -1.054  15.847   4.394  1.00  0.00     0.198 A 
ATOM     97  C   UNL     1      -1.593  15.310   6.670  1.00  0.00     0.198 A 
ATOM     98  F   UNL     1      -1.578  13.070   7.388  1.00  0.00    -0.203 F 
ATOM     99  F   UNL     1      -0.844  16.759   3.435  1.00  0.00    -0.200 F 
ATOM    100  C   UNL     1      -1.408  16.253   5.671  1.00  0.00     0.200 A 
ATOM    101  F   UNL     1      -1.950  15.700   7.902  1.00  0.00    -0.200 F 
ATOM    102  F   UNL     1      -1.562  17.557   5.942  1.00  0.00    -0.200 F 
ENDBRANCH  69  92
ENDBRANCH  43  44
ENDBRANCH  35  38
ENDBRANCH  33  34
ENDBRANCH  32  33
ENDBRANCH   1  32
TORSDOF 16
