REMARK SMILES CN(C)C(=O)Nc1cccc(/C=C/C(=O)NCCCNC(=O)c2ccc(-c3c4nc(c(-c5c(F)c(F)c(F)c(F)c5F)c5ccc([nH]5)c(-c5c(F)c(F)c(F)c(F)c5F)c5nc(c(-c6c(F)c(F)c(F)c(F)c6F)c6ccc3[nH]6)C=C5)C=C4)cc2)n1
REMARK SMILES IDX 18 1 17 2 16 3 14 4 15 5 13 7 12 8 11 9 7 10 8 11 86 12 9 13
REMARK SMILES IDX 10 14 6 15 1 16 2 17 3 18 4 19 5 20 19 22 20 23 21 24 22 26
REMARK SMILES IDX 23 27 24 28 85 29 25 30 84 31 26 32 27 33 28 34 78 35 29 36
REMARK SMILES IDX 83 37 77 38 79 39 30 40 82 41 76 42 75 43 31 45 63 46 43 47
REMARK SMILES IDX 62 48 44 49 47 50 61 51 80 52 45 53 46 54 60 56 81 57 48 58
REMARK SMILES IDX 32 59 33 60 41 61 34 62 35 63 39 64 42 65 36 66 37 67 40 68
REMARK SMILES IDX 38 69 64 70 65 71 73 72 66 73 67 74 71 75 74 76 68 77 69 78
REMARK SMILES IDX 72 79 70 80 49 81 50 82 58 83 51 84 52 85 56 86 59 87 53 88
REMARK SMILES IDX 54 89 57 90 55 91
REMARK H PARENT 16 6 6 21 20 25 79 44 47 55
REMARK Flexibility Score: inf
ROOT
ATOM      1  C   UNL     1      -1.750   9.868  -3.318  1.00  0.00     0.042 C 
ENDROOT
BRANCH   1   2
ATOM      2  C   UNL     1      -0.338   9.292  -3.412  1.00  0.00     0.118 C 
BRANCH   2   3
ATOM      3  N   UNL     1       0.517   9.793  -2.350  1.00  0.00    -0.352 N 
ATOM      4  C   UNL     1       0.975   9.195  -1.218  1.00  0.00     0.244 C 
ATOM      5  O   UNL     1       1.803   9.782  -0.525  1.00  0.00    -0.270 OA
ATOM      6  H   UNL     1       0.817  10.723  -2.471  1.00  0.00     0.163 HD
BRANCH   4   7
ATOM      7  C   UNL     1       0.561   7.825  -0.851  1.00  0.00     0.073 C 
ATOM      8  C   UNL     1      -0.697   7.361  -0.893  1.00  0.00     0.034 C 
BRANCH   8   9
ATOM      9  C   UNL     1      -1.062   5.990  -0.521  1.00  0.00     0.066 A 
ATOM     10  C   UNL     1      -0.430   4.001   0.469  1.00  0.00     0.134 A 
ATOM     11  C   UNL     1      -1.625   3.392   0.113  1.00  0.00     0.047 A 
ATOM     12  N   UNL     1      -0.163   5.293   0.204  1.00  0.00    -0.231 NA
ATOM     13  C   UNL     1      -2.558   4.127  -0.611  1.00  0.00     0.006 A 
ATOM     14  C   UNL     1      -2.268   5.445  -0.947  1.00  0.00     0.028 A 
BRANCH  10  15
ATOM     15  N   UNL     1       0.588   3.333   1.136  1.00  0.00    -0.292 N 
ATOM     16  C   UNL     1       0.967  -0.235   0.338  1.00  0.00     0.148 C 
ATOM     17  N   UNL     1       0.680   1.177   0.153  1.00  0.00    -0.331 N 
ATOM     18  C   UNL     1       0.523   1.601  -1.234  1.00  0.00     0.148 C 
ATOM     19  C   UNL     1       0.898   2.018   1.227  1.00  0.00     0.322 C 
ATOM     20  O   UNL     1       1.464   1.626   2.250  1.00  0.00    -0.248 OA
ATOM     21  H   UNL     1       1.198   3.924   1.634  1.00  0.00     0.173 HD
ENDBRANCH  10  15
ENDBRANCH   8   9
ENDBRANCH   4   7
ENDBRANCH   2   3
ENDBRANCH   1   2
BRANCH   1  22
ATOM     22  C   UNL     1      -1.844  11.340  -3.711  1.00  0.00     0.118 C 
BRANCH  22  23
ATOM     23  N   UNL     1      -1.637  11.542  -5.137  1.00  0.00    -0.352 N 
ATOM     24  C   UNL     1      -2.463  12.088  -6.085  1.00  0.00     0.251 C 
ATOM     25  H   UNL     1      -0.765  11.237  -5.475  1.00  0.00     0.163 HD
ATOM     26  O   UNL     1      -2.175  11.960  -7.276  1.00  0.00    -0.269 OA
BRANCH  24  27
ATOM     27  C   UNL     1      -3.695  12.816  -5.710  1.00  0.00     0.039 A 
ATOM     28  C   UNL     1      -4.831  12.664  -6.512  1.00  0.00     0.014 A 
ATOM     29  C   UNL     1      -3.727  13.694  -4.622  1.00  0.00     0.014 A 
ATOM     30  C   UNL     1      -6.007  13.350  -6.198  1.00  0.00     0.010 A 
ATOM     31  C   UNL     1      -4.919  14.327  -4.270  1.00  0.00     0.010 A 
ATOM     32  C   UNL     1      -6.069  14.167  -5.058  1.00  0.00    -0.014 A 
BRANCH  32  33
ATOM     33  C   UNL     1      -7.328  14.857  -4.678  1.00  0.00     0.031 A 
ATOM     34  C   UNL     1      -7.410  16.358  -4.699  1.00  0.00     0.074 A 
ATOM     35  C   UNL     1      -8.380  14.131  -4.254  1.00  0.00     0.049 A 
ATOM     36  N   UNL     1      -8.398  17.140  -4.339  1.00  0.00    -0.248 NA
ATOM     37  C   UNL     1      -6.215  17.079  -5.163  1.00  0.00     0.031 C 
ATOM     38  C   UNL     1      -8.409  12.672  -4.143  1.00  0.00     0.029 A 
ATOM     39  N   UNL     1      -9.624  14.522  -3.824  1.00  0.00    -0.354 N 
ATOM     40  C   UNL     1      -7.937  18.438  -4.514  1.00  0.00     0.074 A 
ATOM     41  C   UNL     1      -6.568  18.342  -4.972  1.00  0.00     0.031 C 
ATOM     42  C   UNL     1      -9.613  12.289  -3.690  1.00  0.00     0.029 A 
ATOM     43  C   UNL     1     -10.429  13.475  -3.446  1.00  0.00     0.049 A 
ATOM     44  H   UNL     1      -9.912  15.463  -3.789  1.00  0.00     0.167 HD
ATOM     45  C   UNL     1      -8.603  19.603  -4.325  1.00  0.00     0.037 A 
ATOM     46  C   UNL     1     -11.681  13.472  -2.951  1.00  0.00     0.037 A 
ATOM     47  C   UNL     1      -9.976  19.694  -3.901  1.00  0.00     0.049 A 
ATOM     48  C   UNL     1     -12.402  14.779  -2.766  1.00  0.00     0.074 A 
ATOM     49  C   UNL     1     -10.761  20.825  -3.754  1.00  0.00     0.029 A 
ATOM     50  N   UNL     1     -10.768  18.610  -3.554  1.00  0.00    -0.354 N 
ATOM     51  N   UNL     1     -11.980  15.996  -3.003  1.00  0.00    -0.248 NA
ATOM     52  C   UNL     1     -13.777  14.709  -2.251  1.00  0.00     0.031 C 
ATOM     53  C   UNL     1     -12.015  20.428  -3.278  1.00  0.00     0.029 A 
ATOM     54  C   UNL     1     -12.026  19.047  -3.172  1.00  0.00     0.049 A 
ATOM     55  H   UNL     1     -10.479  17.669  -3.576  1.00  0.00     0.167 HD
ATOM     56  C   UNL     1     -13.040  16.835  -2.691  1.00  0.00     0.074 A 
ATOM     57  C   UNL     1     -14.132  15.986  -2.262  1.00  0.00     0.031 C 
ATOM     58  C   UNL     1     -13.103  18.188  -2.751  1.00  0.00     0.037 A 
BRANCH  45  59
ATOM     59  C   UNL     1      -7.856  20.881  -4.580  1.00  0.00     0.064 A 
ATOM     60  C   UNL     1      -7.511  21.285  -5.878  1.00  0.00     0.173 A 
ATOM     61  C   UNL     1      -7.520  21.732  -3.517  1.00  0.00     0.173 A 
ATOM     62  F   UNL     1      -7.801  20.503  -6.929  1.00  0.00    -0.203 F 
ATOM     63  C   UNL     1      -6.835  22.482  -6.100  1.00  0.00     0.198 A 
ATOM     64  C   UNL     1      -6.868  22.942  -3.745  1.00  0.00     0.198 A 
ATOM     65  F   UNL     1      -7.832  21.396  -2.256  1.00  0.00    -0.203 F 
ATOM     66  F   UNL     1      -6.477  22.827  -7.345  1.00  0.00    -0.200 F 
ATOM     67  C   UNL     1      -6.520  23.312  -5.035  1.00  0.00     0.200 A 
ATOM     68  F   UNL     1      -6.576  23.749  -2.715  1.00  0.00    -0.200 F 
ATOM     69  F   UNL     1      -5.876  24.468  -5.251  1.00  0.00    -0.200 F 
ENDBRANCH  45  59
BRANCH  46  70
ATOM     70  C   UNL     1     -12.341  12.184  -2.617  1.00  0.00     0.064 A 
ATOM     71  C   UNL     1     -13.402  11.697  -3.393  1.00  0.00     0.173 A 
ATOM     72  C   UNL     1     -11.925  11.413  -1.522  1.00  0.00     0.173 A 
ATOM     73  F   UNL     1     -13.847  12.409  -4.438  1.00  0.00    -0.203 F 
ATOM     74  C   UNL     1     -14.034  10.497  -3.075  1.00  0.00     0.198 A 
ATOM     75  C   UNL     1     -12.540  10.200  -1.221  1.00  0.00     0.198 A 
ATOM     76  F   UNL     1     -10.909  11.832  -0.752  1.00  0.00    -0.203 F 
ATOM     77  F   UNL     1     -15.072  10.075  -3.809  1.00  0.00    -0.200 F 
ATOM     78  C   UNL     1     -13.599   9.746  -1.993  1.00  0.00     0.200 A 
ATOM     79  F   UNL     1     -12.106   9.470  -0.184  1.00  0.00    -0.200 F 
ATOM     80  F   UNL     1     -14.203   8.589  -1.691  1.00  0.00    -0.200 F 
ENDBRANCH  46  70
BRANCH  58  81
ATOM     81  C   UNL     1     -14.404  18.831  -2.370  1.00  0.00     0.064 A 
ATOM     82  C   UNL     1     -14.828  18.895  -1.035  1.00  0.00     0.173 A 
ATOM     83  C   UNL     1     -15.219  19.421  -3.349  1.00  0.00     0.173 A 
ATOM     84  F   UNL     1     -14.092  18.331  -0.066  1.00  0.00    -0.203 F 
ATOM     85  C   UNL     1     -16.033  19.505  -0.697  1.00  0.00     0.198 A 
ATOM     86  C   UNL     1     -16.409  20.053  -3.004  1.00  0.00     0.198 A 
ATOM     87  F   UNL     1     -14.854  19.390  -4.640  1.00  0.00    -0.203 F 
ATOM     88  F   UNL     1     -16.442  19.513   0.580  1.00  0.00    -0.200 F 
ATOM     89  C   UNL     1     -16.819  20.089  -1.679  1.00  0.00     0.200 A 
ATOM     90  F   UNL     1     -17.161  20.627  -3.953  1.00  0.00    -0.200 F 
ATOM     91  F   UNL     1     -17.976  20.679  -1.351  1.00  0.00    -0.200 F 
ENDBRANCH  58  81
ENDBRANCH  32  33
ENDBRANCH  24  27
ENDBRANCH  22  23
ENDBRANCH   1  22
TORSDOF 12
