REMARK SMILES [NH3+][C@@](C(=O)NCCCNC(=O)c1ccc(-c2c3nc(c(-c4c(F)c(F)c(F)c(F)c4F)c4ccc([nH]4)c(-c4c(F)c(F)c(F)c(F)c4F)c4nc(c(-c5c(F)c(F)c(F)c(F)c5F)c5ccc2[nH]5)C=C4)C=C3)cc1)(c1ccc([P@TB4](=O)([O-])[O-])cc1)C1CC1
REMARK SMILES IDX 7 1 6 2 5 3 3 4 4 5 2 7 1 8 75 12 76 13 84 14 77 15 83 16
REMARK SMILES IDX 78 17 79 18 80 19 81 20 82 21 85 22 86 23 87 24 8 25 9 26
REMARK SMILES IDX 10 27 11 29 12 30 13 31 74 32 14 33 73 34 15 35 16 36 17 37
REMARK SMILES IDX 67 38 18 39 72 40 66 41 68 42 19 43 71 44 65 45 64 46 20 48
REMARK SMILES IDX 52 49 32 50 51 51 33 52 36 53 50 54 69 55 34 56 35 57 49 59
REMARK SMILES IDX 70 60 37 61 21 62 22 63 30 64 23 65 24 66 28 67 31 68 25 69
REMARK SMILES IDX 26 70 29 71 27 72 53 73 54 74 62 75 55 76 56 77 60 78 63 79
REMARK SMILES IDX 57 80 58 81 61 82 59 83 38 84 39 85 47 86 40 87 41 88 45 89
REMARK SMILES IDX 48 90 42 91 43 92 46 93 44 94
REMARK H PARENT 5 6 1 9 1 10 1 11 9 28 68 47 36 58
REMARK Flexibility Score: inf
ROOT
ATOM      1  C   UNL     1       4.465   1.121   0.942  1.00  0.00       nan C 
ENDROOT
BRANCH   1   2
ATOM      2  C   UNL     1       3.672   0.188   1.835  1.00  0.00       nan C 
BRANCH   2   3
ATOM      3  N   UNL     1       2.541   0.851   2.439  1.00  0.00       nan N 
ATOM      4  C   UNL     1       1.196   0.666   2.310  1.00  0.00       nan C 
ATOM      5  O   UNL     1       0.516   1.412   3.025  1.00  0.00       nan OA
ATOM      6  H   UNL     1       2.787   1.573   3.062  1.00  0.00       nan HD
BRANCH   4   7
ATOM      7  C   UNL     1       0.567  -0.404   1.296  1.00  0.00       nan C 
BRANCH   7   8
ATOM      8  N   UNL     1       0.945  -0.046  -0.092  1.00  0.00       nan N 
ATOM      9  H   UNL     1       0.590   0.884  -0.312  1.00  0.00       nan HD
ATOM     10  H   UNL     1       0.543  -0.725  -0.740  1.00  0.00       nan HD
ATOM     11  H   UNL     1       1.961  -0.053  -0.181  1.00  0.00       nan HD
ENDBRANCH   7   8
BRANCH   7  12
ATOM     12  C   UNL     1      -0.980  -0.343   1.399  1.00  0.00       nan A 
ATOM     13  C   UNL     1      -1.670   0.882   1.208  1.00  0.00       nan A 
ATOM     14  C   UNL     1      -1.758  -1.470   1.674  1.00  0.00       nan A 
ATOM     15  C   UNL     1      -3.065   0.970   1.291  1.00  0.00       nan A 
ATOM     16  C   UNL     1      -3.142  -1.396   1.712  1.00  0.00       nan A 
ATOM     17  C   UNL     1      -3.813  -0.177   1.542  1.00  0.00       nan A 
BRANCH  17  18
ATOM     18  P   UNL     1      -5.643  -0.191   1.532  1.00  0.00       nan P 
ATOM     19  O   UNL     1      -5.763  -1.418   2.451  1.00  0.00       nan OA
ATOM     20  O   UNL     1      -5.719   1.058   2.594  1.00  0.00       nan OA
ATOM     21  O   UNL     1      -7.373  -0.204   1.523  1.00  0.00       nan OA
ENDBRANCH  17  18
ENDBRANCH   7  12
BRANCH   7  22
ATOM     22  C   UNL     1       1.104  -1.815   1.631  1.00  0.00       nan C 
ATOM     23  C   UNL     1       0.758  -3.063   0.820  1.00  0.00       nan C 
ATOM     24  C   UNL     1       2.161  -2.574   0.825  1.00  0.00       nan C 
ENDBRANCH   7  22
ENDBRANCH   4   7
ENDBRANCH   2   3
ENDBRANCH   1   2
BRANCH   1  25
ATOM     25  C   UNL     1       5.107   2.259   1.715  1.00  0.00       nan C 
BRANCH  25  26
ATOM     26  N   UNL     1       6.096   1.782   2.676  1.00  0.00       nan N 
ATOM     27  C   UNL     1       7.465   1.894   2.645  1.00  0.00       inf C 
ATOM     28  H   UNL     1       5.730   1.313   3.460  1.00  0.00       inf HD
ATOM     29  O   UNL     1       8.164   1.237   3.409  1.00  0.00    -0.269 OA
BRANCH  27  30
ATOM     30  C   UNL     1       8.083   2.803   1.665  1.00  0.00     0.039 A 
ATOM     31  C   UNL     1       9.170   2.367   0.904  1.00  0.00     0.014 A 
ATOM     32  C   UNL     1       7.548   4.078   1.475  1.00  0.00     0.014 A 
ATOM     33  C   UNL     1       9.667   3.184  -0.112  1.00  0.00     0.010 A 
ATOM     34  C   UNL     1       7.970   4.840   0.399  1.00  0.00     0.010 A 
ATOM     35  C   UNL     1       9.040   4.407  -0.399  1.00  0.00    -0.014 A 
BRANCH  35  36
ATOM     36  C   UNL     1       9.482   5.292  -1.503  1.00  0.00     0.031 A 
ATOM     37  C   UNL     1       9.930   6.688  -1.179  1.00  0.00     0.074 A 
ATOM     38  C   UNL     1       9.345   4.897  -2.782  1.00  0.00     0.049 A 
ATOM     39  N   UNL     1      10.132   7.703  -1.978  1.00  0.00    -0.248 NA
ATOM     40  C   UNL     1      10.122   6.996   0.247  1.00  0.00     0.031 C 
ATOM     41  C   UNL     1       8.874   3.583  -3.219  1.00  0.00     0.029 A 
ATOM     42  N   UNL     1       9.554   5.583  -3.952  1.00  0.00    -0.354 N 
ATOM     43  C   UNL     1      10.429   8.776  -1.149  1.00  0.00     0.074 A 
ATOM     44  C   UNL     1      10.327   8.303   0.214  1.00  0.00     0.031 C 
ATOM     45  C   UNL     1       8.829   3.558  -4.561  1.00  0.00     0.029 A 
ATOM     46  C   UNL     1       9.220   4.867  -5.074  1.00  0.00     0.049 A 
ATOM     47  H   UNL     1       9.909   6.501  -3.983  1.00  0.00     0.167 HD
ATOM     48  C   UNL     1      10.775  10.038  -1.496  1.00  0.00     0.037 A 
ATOM     49  C   UNL     1       9.205   5.235  -6.370  1.00  0.00     0.037 A 
ATOM     50  C   UNL     1      10.915  10.483  -2.856  1.00  0.00     0.049 A 
ATOM     51  C   UNL     1       9.618   6.633  -6.739  1.00  0.00     0.074 A 
ATOM     52  C   UNL     1      11.338  11.714  -3.322  1.00  0.00     0.029 A 
ATOM     53  N   UNL     1      10.636   9.704  -3.970  1.00  0.00    -0.354 N 
ATOM     54  N   UNL     1       9.957   7.628  -5.953  1.00  0.00    -0.248 NA
ATOM     55  C   UNL     1       9.654   6.961  -8.170  1.00  0.00     0.031 C 
ATOM     56  C   UNL     1      11.274  11.694  -4.719  1.00  0.00     0.029 A 
ATOM     57  C   UNL     1      10.860  10.434  -5.124  1.00  0.00     0.049 A 
ATOM     58  H   UNL     1      10.324   8.771  -3.944  1.00  0.00     0.167 HD
ATOM     59  C   UNL     1      10.272   8.688  -6.792  1.00  0.00     0.074 A 
ATOM     60  C   UNL     1      10.086   8.215  -8.149  1.00  0.00     0.031 C 
ATOM     61  C   UNL     1      10.683   9.938  -6.466  1.00  0.00     0.037 A 
BRANCH  48  62
ATOM     62  C   UNL     1      11.015  11.016  -0.382  1.00  0.00     0.064 A 
ATOM     63  C   UNL     1      12.102  10.886   0.496  1.00  0.00     0.173 A 
ATOM     64  C   UNL     1      10.139  12.094  -0.183  1.00  0.00     0.173 A 
ATOM     65  F   UNL     1      12.963   9.867   0.358  1.00  0.00    -0.203 F 
ATOM     66  C   UNL     1      12.274  11.767   1.561  1.00  0.00     0.198 A 
ATOM     67  C   UNL     1      10.334  12.994   0.861  1.00  0.00     0.198 A 
ATOM     68  F   UNL     1       9.086  12.270  -0.996  1.00  0.00    -0.203 F 
ATOM     69  F   UNL     1      13.277  11.576   2.430  1.00  0.00    -0.200 F 
ATOM     70  C   UNL     1      11.393  12.822   1.740  1.00  0.00     0.200 A 
ATOM     71  F   UNL     1       9.489  14.021   1.026  1.00  0.00    -0.200 F 
ATOM     72  F   UNL     1      11.556  13.666   2.768  1.00  0.00    -0.200 F 
ENDBRANCH  48  62
BRANCH  49  73
ATOM     73  C   UNL     1       8.797   4.250  -7.403  1.00  0.00     0.064 A 
ATOM     74  C   UNL     1       9.745   3.673  -8.258  1.00  0.00     0.173 A 
ATOM     75  C   UNL     1       7.465   3.829  -7.526  1.00  0.00     0.173 A 
ATOM     76  F   UNL     1      11.029   4.055  -8.188  1.00  0.00    -0.203 F 
ATOM     77  C   UNL     1       9.376   2.717  -9.202  1.00  0.00     0.198 A 
ATOM     78  C   UNL     1       7.100   2.856  -8.453  1.00  0.00     0.198 A 
ATOM     79  F   UNL     1       6.522   4.344  -6.723  1.00  0.00    -0.203 F 
ATOM     80  F   UNL     1      10.298   2.199 -10.024  1.00  0.00    -0.200 F 
ATOM     81  C   UNL     1       8.055   2.303  -9.293  1.00  0.00     0.200 A 
ATOM     82  F   UNL     1       5.826   2.446  -8.526  1.00  0.00    -0.200 F 
ATOM     83  F   UNL     1       7.703   1.371 -10.189  1.00  0.00    -0.200 F 
ENDBRANCH  49  73
BRANCH  61  84
ATOM     84  C   UNL     1      11.006  10.877  -7.590  1.00  0.00     0.064 A 
ATOM     85  C   UNL     1      10.001  11.486  -8.353  1.00  0.00     0.173 A 
ATOM     86  C   UNL     1      12.339  11.237  -7.844  1.00  0.00     0.173 A 
ATOM     87  F   UNL     1       8.714  11.163  -8.155  1.00  0.00    -0.203 F 
ATOM     88  C   UNL     1      10.319  12.418  -9.337  1.00  0.00     0.198 A 
ATOM     89  C   UNL     1      12.651  12.189  -8.810  1.00  0.00     0.198 A 
ATOM     90  F   UNL     1      13.335  10.686  -7.135  1.00  0.00    -0.203 F 
ATOM     91  F   UNL     1       9.345  12.971 -10.073  1.00  0.00    -0.200 F 
ATOM     92  C   UNL     1      11.642  12.777  -9.556  1.00  0.00     0.200 A 
ATOM     93  F   UNL     1      13.927  12.544  -9.010  1.00  0.00    -0.200 F 
ATOM     94  F   UNL     1      11.943  13.690 -10.489  1.00  0.00    -0.200 F 
ENDBRANCH  61  84
ENDBRANCH  35  36
ENDBRANCH  27  30
ENDBRANCH  25  26
ENDBRANCH   1  25
TORSDOF 14
