REMARK SMILES COc1cccc([C@@H]2CC(c3cccc(C)c3)=NN2C(=O)CCC(=O)NCCCNC(=O)c2ccc(-c3c4nc(c(-c5c(F)c(F)c(F)c(F)c5F)c5ccc([nH]5)c(-c5c(F)c(F)c(F)c(F)c5F)c5nc(c(-c6c(F)c(F)c(F)c(F)c6F)c6ccc3[nH]6)C=C5)C=C4)cc2)c1
REMARK SMILES IDX 24 1 25 2 26 3 23 5 22 6 20 7 21 8 19 9 8 10 9 11 10 12
REMARK SMILES IDX 18 13 7 14 3 15 4 16 96 17 5 18 6 19 2 20 1 21 11 22 12 23
REMARK SMILES IDX 17 24 13 25 15 26 14 27 16 28 27 29 28 30 29 31 30 32 31 33
REMARK SMILES IDX 32 35 33 36 34 37 95 38 35 39 94 40 36 41 37 42 38 43 88 44
REMARK SMILES IDX 39 45 93 46 87 47 89 48 40 49 92 50 86 51 85 52 41 54 73 55
REMARK SMILES IDX 53 56 72 57 54 58 57 59 71 60 90 61 55 62 56 63 70 65 91 66
REMARK SMILES IDX 58 67 42 68 43 69 51 70 44 71 45 72 49 73 52 74 46 75 47 76
REMARK SMILES IDX 50 77 48 78 74 79 75 80 83 81 76 82 77 83 81 84 84 85 78 86
REMARK SMILES IDX 79 87 82 88 80 89 59 90 60 91 68 92 61 93 62 94 66 95 69 96
REMARK SMILES IDX 63 97 64 98 67 99 65 100
REMARK H PARENT 26 4 30 34 89 53 57 64
REMARK Flexibility Score: inf
ROOT
ATOM      1  C   UNL     1       2.269   2.261   2.483  1.00  0.00     0.220 C 
ATOM      2  O   UNL     1       1.426   1.378   2.674  1.00  0.00    -0.275 OA
ATOM      3  N   UNL     1       3.319   1.997   1.649  1.00  0.00    -0.356 N 
ATOM      4  H   UNL     1       3.465   1.040   1.466  1.00  0.00     0.163 HD
ENDROOT
BRANCH   1   5
ATOM      5  C   UNL     1       2.197   3.555   3.274  1.00  0.00     0.110 C 
BRANCH   5   6
ATOM      6  C   UNL     1       2.855   3.452   4.652  1.00  0.00     0.112 C 
BRANCH   6   7
ATOM      7  C   UNL     1       4.185   2.749   4.591  1.00  0.00     0.243 C 
ATOM      8  O   UNL     1       5.223   3.416   4.563  1.00  0.00    -0.273 OA
BRANCH   7   9
ATOM      9  N   UNL     1       4.150   1.375   4.437  1.00  0.00    -0.225 N 
ATOM     10  C   UNL     1       3.301   0.380   5.098  1.00  0.00     0.147 C 
ATOM     11  C   UNL     1       3.793  -0.977   4.564  1.00  0.00     0.091 C 
ATOM     12  C   UNL     1       4.921  -0.481   3.732  1.00  0.00     0.071 C 
ATOM     13  N   UNL     1       5.117   0.794   3.721  1.00  0.00    -0.174 NA
BRANCH  10  14
ATOM     14  C   UNL     1       3.462   0.594   6.587  1.00  0.00    -0.019 A 
ATOM     15  C   UNL     1       2.408   1.451   8.592  1.00  0.00     0.119 A 
ATOM     16  C   UNL     1       3.667   1.638   9.166  1.00  0.00     0.046 A 
ATOM     17  C   UNL     1       2.315   0.925   7.309  1.00  0.00     0.052 A 
ATOM     18  C   UNL     1       4.822   1.267   8.476  1.00  0.00     0.004 A 
ATOM     19  C   UNL     1       4.722   0.733   7.194  1.00  0.00     0.006 A 
BRANCH  15  20
ATOM     20  O   UNL     1       1.331   1.863   9.330  1.00  0.00    -0.497 OA
ATOM     21  C   UNL     1       0.060   1.470   8.816  1.00  0.00     0.278 C 
ENDBRANCH  15  20
ENDBRANCH  10  14
BRANCH  12  22
ATOM     22  C   UNL     1       5.946  -1.299   3.121  1.00  0.00    -0.002 A 
ATOM     23  C   UNL     1       7.495  -0.604   3.559  1.00  0.00     0.010 A 
ATOM     24  C   UNL     1       5.742  -2.691   2.031  1.00  0.00     0.013 A 
ATOM     25  C   UNL     1       8.949  -1.315   2.866  1.00  0.00     0.001 A 
ATOM     26  C   UNL     1       7.126  -3.520   1.274  1.00  0.00    -0.050 A 
ATOM     27  C   UNL     1       8.788  -2.920   1.658  1.00  0.00     0.003 A 
ATOM     28  C   UNL     1       6.936  -4.468   0.130  1.00  0.00     0.044 C 
ENDBRANCH  12  22
ENDBRANCH   7   9
ENDBRANCH   6   7
ENDBRANCH   5   6
ENDBRANCH   1   5
BRANCH   3  29
ATOM     29  C   UNL     1       4.256   2.887   0.986  1.00  0.00     0.117 C 
BRANCH  29  30
ATOM     30  C   UNL     1       5.743   2.894   1.382  1.00  0.00     0.042 C 
BRANCH  30  31
ATOM     31  C   UNL     1       6.649   1.650   1.330  1.00  0.00     0.118 C 
BRANCH  31  32
ATOM     32  N   UNL     1       6.182   0.530   0.544  1.00  0.00    -0.352 N 
ATOM     33  C   UNL     1       6.565  -0.797   0.520  1.00  0.00     0.251 C 
ATOM     34  H   UNL     1       5.462   0.753  -0.089  1.00  0.00     0.163 HD
ATOM     35  O   UNL     1       6.143  -1.457  -0.434  1.00  0.00    -0.269 OA
BRANCH  33  36
ATOM     36  C   UNL     1       7.604  -1.424   1.527  1.00  0.00     0.039 A 
ATOM     37  C   UNL     1       9.191  -1.020   0.761  1.00  0.00     0.014 A 
ATOM     38  C   UNL     1       7.655  -2.661   3.130  1.00  0.00     0.014 A 
ATOM     39  C   UNL     1      10.669  -1.678   1.466  1.00  0.00     0.010 A 
ATOM     40  C   UNL     1       9.239  -3.211   3.763  1.00  0.00     0.010 A 
ATOM     41  C   UNL     1      10.710  -2.680   2.940  1.00  0.00    -0.014 A 
BRANCH  41  42
ATOM     42  C   UNL     1      11.978  -2.724   3.764  1.00  0.00     0.031 A 
ATOM     43  C   UNL     1      12.309  -3.970   4.549  1.00  0.00     0.074 A 
ATOM     44  C   UNL     1      12.698  -1.598   4.000  1.00  0.00     0.049 A 
ATOM     45  N   UNL     1      13.223  -4.158   5.470  1.00  0.00    -0.248 NA
ATOM     46  C   UNL     1      11.440  -5.137   4.334  1.00  0.00     0.031 C 
ATOM     47  C   UNL     1      12.434  -0.256   3.469  1.00  0.00     0.029 A 
ATOM     48  N   UNL     1      13.809  -1.387   4.794  1.00  0.00    -0.354 N 
ATOM     49  C   UNL     1      13.001  -5.440   5.957  1.00  0.00     0.074 A 
ATOM     50  C   UNL     1      11.781  -5.915   5.348  1.00  0.00     0.031 C 
ATOM     51  C   UNL     1      13.353   0.612   3.910  1.00  0.00     0.029 A 
ATOM     52  C   UNL     1      14.276  -0.089   4.781  1.00  0.00     0.049 A 
ATOM     53  H   UNL     1      14.230  -2.102   5.324  1.00  0.00     0.167 HD
ATOM     54  C   UNL     1      13.783  -6.194   6.769  1.00  0.00     0.037 A 
ATOM     55  C   UNL     1      15.335   0.488   5.383  1.00  0.00     0.037 A 
ATOM     56  C   UNL     1      15.031  -5.740   7.316  1.00  0.00     0.049 A 
ATOM     57  C   UNL     1      16.227  -0.371   6.234  1.00  0.00     0.074 A 
ATOM     58  C   UNL     1      15.964  -6.448   8.050  1.00  0.00     0.029 A 
ATOM     59  N   UNL     1      15.520  -4.448   7.182  1.00  0.00    -0.354 N 
ATOM     60  N   UNL     1      16.092  -1.634   6.556  1.00  0.00    -0.248 NA
ATOM     61  C   UNL     1      17.430   0.265   6.786  1.00  0.00     0.031 C 
ATOM     62  C   UNL     1      16.990  -5.569   8.411  1.00  0.00     0.029 A 
ATOM     63  C   UNL     1      16.732  -4.332   7.840  1.00  0.00     0.049 A 
ATOM     64  H   UNL     1      15.071  -3.721   6.692  1.00  0.00     0.167 HD
ATOM     65  C   UNL     1      17.210  -1.955   7.311  1.00  0.00     0.074 A 
ATOM     66  C   UNL     1      18.021  -0.758   7.386  1.00  0.00     0.031 C 
ATOM     67  C   UNL     1      17.535  -3.136   7.890  1.00  0.00     0.037 A 
BRANCH  54  68
ATOM     68  C   UNL     1      13.325  -7.599   7.056  1.00  0.00     0.064 A 
ATOM     69  C   UNL     1      13.190  -8.551   6.029  1.00  0.00     0.173 A 
ATOM     70  C   UNL     1      12.996  -8.001   8.359  1.00  0.00     0.173 A 
ATOM     71  F   UNL     1      13.492  -8.227   4.762  1.00  0.00    -0.203 F 
ATOM     72  C   UNL     1      12.670  -9.817   6.282  1.00  0.00     0.198 A 
ATOM     73  C   UNL     1      12.523  -9.286   8.616  1.00  0.00     0.198 A 
ATOM     74  F   UNL     1      13.123  -7.146   9.384  1.00  0.00    -0.203 F 
ATOM     75  F   UNL     1      12.455 -10.665   5.267  1.00  0.00    -0.200 F 
ATOM     76  C   UNL     1      12.340 -10.185   7.576  1.00  0.00     0.200 A 
ATOM     77  F   UNL     1      12.224  -9.649   9.871  1.00  0.00    -0.200 F 
ATOM     78  F   UNL     1      11.832 -11.401   7.818  1.00  0.00    -0.200 F 
ENDBRANCH  54  68
BRANCH  55  79
ATOM     79  C   UNL     1      15.663   1.926   5.144  1.00  0.00     0.064 A 
ATOM     80  C   UNL     1      16.808   2.290   4.418  1.00  0.00     0.173 A 
ATOM     81  C   UNL     1      14.864   2.964   5.646  1.00  0.00     0.173 A 
ATOM     82  F   UNL     1      17.615   1.340   3.921  1.00  0.00    -0.203 F 
ATOM     83  C   UNL     1      17.165   3.627   4.243  1.00  0.00     0.198 A 
ATOM     84  C   UNL     1      15.203   4.303   5.442  1.00  0.00     0.198 A 
ATOM     85  F   UNL     1      13.747   2.680   6.332  1.00  0.00    -0.203 F 
ATOM     86  F   UNL     1      18.300   3.938   3.603  1.00  0.00    -0.200 F 
ATOM     87  C   UNL     1      16.360   4.633   4.753  1.00  0.00     0.200 A 
ATOM     88  F   UNL     1      14.412   5.274   5.920  1.00  0.00    -0.200 F 
ATOM     89  F   UNL     1      16.705   5.918   4.590  1.00  0.00    -0.200 F 
ENDBRANCH  55  79
BRANCH  67  90
ATOM     90  C   UNL     1      18.847  -3.214   8.612  1.00  0.00     0.064 A 
ATOM     91  C   UNL     1      19.072  -2.534   9.817  1.00  0.00     0.173 A 
ATOM     92  C   UNL     1      19.874  -4.033   8.116  1.00  0.00     0.173 A 
ATOM     93  F   UNL     1      18.128  -1.727  10.325  1.00  0.00    -0.203 F 
ATOM     94  C   UNL     1      20.285  -2.654  10.488  1.00  0.00     0.198 A 
ATOM     95  C   UNL     1      21.068  -4.183   8.811  1.00  0.00     0.198 A 
ATOM     96  F   UNL     1      19.707  -4.709   6.969  1.00  0.00    -0.203 F 
ATOM     97  F   UNL     1      20.498  -1.955  11.612  1.00  0.00    -0.200 F 
ATOM     98  C   UNL     1      21.277  -3.487   9.992  1.00  0.00     0.200 A 
ATOM     99  F   UNL     1      22.015  -5.007   8.341  1.00  0.00    -0.200 F 
ATOM    100  F   UNL     1      22.436  -3.617  10.650  1.00  0.00    -0.200 F 
ENDBRANCH  67  90
ENDBRANCH  41  42
ENDBRANCH  33  36
ENDBRANCH  31  32
ENDBRANCH  30  31
ENDBRANCH  29  30
ENDBRANCH   3  29
TORSDOF 16
