REMARK SMILES CC[C@@H]1CCCC[C@@]1(O)[C@H](F)C(=O)NCCCNC(=O)c1ccc(-c2c3nc(c(-c4c(F)c(F)c(F)c(F)c4F)c4ccc([nH]4)c(-c4c(F)c(F)c(F)c(F)c4F)c4nc(c(-c5c(F)c(F)c(F)c(F)c5F)c5ccc2[nH]5)C=C4)C=C3)cc1
REMARK SMILES IDX 16 1 15 2 14 3 12 4 13 5 10 7 11 8 8 9 3 10 4 11 5 12 7 13
REMARK SMILES IDX 6 14 2 15 1 16 9 17 17 19 18 20 19 21 20 23 21 24 22 25
REMARK SMILES IDX 83 26 23 27 82 28 24 29 25 30 26 31 76 32 27 33 81 34 75 35
REMARK SMILES IDX 77 36 28 37 80 38 74 39 73 40 29 42 61 43 41 44 60 45 42 46
REMARK SMILES IDX 45 47 59 48 78 49 43 50 44 51 58 53 79 54 46 55 30 56 31 57
REMARK SMILES IDX 39 58 32 59 33 60 37 61 40 62 34 63 35 64 38 65 36 66 62 67
REMARK SMILES IDX 63 68 71 69 64 70 65 71 69 72 72 73 66 74 67 75 70 76 68 77
REMARK SMILES IDX 47 78 48 79 56 80 49 81 50 82 54 83 57 84 51 85 52 86 55 87
REMARK SMILES IDX 53 88
REMARK H PARENT 14 6 9 18 18 22 77 41 45 52
REMARK Flexibility Score: inf
ROOT
ATOM      1  C   UNL     1       1.176  -0.776   1.880  1.00  0.00     0.042 C 
ENDROOT
BRANCH   1   2
ATOM      2  C   UNL     1       1.359   0.218   0.754  1.00  0.00     0.117 C 
BRANCH   2   3
ATOM      3  N   UNL     1       0.200   0.332  -0.107  1.00  0.00    -0.353 N 
ATOM      4  C   UNL     1      -0.461   1.459  -0.492  1.00  0.00     0.257 C 
ATOM      5  O   UNL     1      -1.408   1.324  -1.272  1.00  0.00    -0.272 OA
ATOM      6  H   UNL     1      -0.157  -0.515  -0.459  1.00  0.00     0.163 HD
BRANCH   4   7
ATOM      7  C   UNL     1      -0.010   2.839  -0.024  1.00  0.00     0.287 C 
ATOM      8  F   UNL     1       0.165   2.883   1.334  1.00  0.00    -0.234 F 
BRANCH   7   9
ATOM      9  C   UNL     1       1.270   3.388  -0.738  1.00  0.00     0.108 C 
ATOM     10  C   UNL     1       1.229   3.250  -2.296  1.00  0.00     0.024 C 
ATOM     11  C   UNL     1       0.119   4.138  -2.881  1.00  0.00     0.007 C 
ATOM     12  C   UNL     1       0.189   5.599  -2.443  1.00  0.00     0.001 C 
ATOM     13  C   UNL     1       1.455   4.874  -0.362  1.00  0.00     0.039 C 
ATOM     14  C   UNL     1       0.375   5.783  -0.941  1.00  0.00     0.003 C 
BRANCH  10  15
ATOM     15  C   UNL     1       2.645   3.375  -2.944  1.00  0.00     0.003 C 
ATOM     16  C   UNL     1       2.839   4.323  -4.112  1.00  0.00     0.004 C 
ENDBRANCH  10  15
BRANCH   9  17
ATOM     17  O   UNL     1       2.447   2.729  -0.233  1.00  0.00    -0.386 OA
ATOM     18  H   UNL     1       3.231   3.078  -0.684  1.00  0.00     0.211 HD
ENDBRANCH   9  17
ENDBRANCH   7   9
ENDBRANCH   4   7
ENDBRANCH   2   3
ENDBRANCH   1   2
BRANCH   1  19
ATOM     19  C   UNL     1       0.813  -2.176   1.425  1.00  0.00     0.118 C 
BRANCH  19  20
ATOM     20  N   UNL     1       1.818  -2.785   0.564  1.00  0.00    -0.352 N 
ATOM     21  C   UNL     1       2.612  -3.888   0.762  1.00  0.00     0.251 C 
ATOM     22  H   UNL     1       1.949  -2.332  -0.300  1.00  0.00     0.163 HD
ATOM     23  O   UNL     1       3.507  -4.141  -0.037  1.00  0.00    -0.269 OA
BRANCH  21  24
ATOM     24  C   UNL     1       2.414  -4.755   1.945  1.00  0.00     0.039 A 
ATOM     25  C   UNL     1       3.534  -5.288   2.586  1.00  0.00     0.014 A 
ATOM     26  C   UNL     1       1.137  -5.053   2.421  1.00  0.00     0.014 A 
ATOM     27  C   UNL     1       3.370  -6.065   3.735  1.00  0.00     0.010 A 
ATOM     28  C   UNL     1       0.982  -5.713   3.634  1.00  0.00     0.010 A 
ATOM     29  C   UNL     1       2.094  -6.255   4.290  1.00  0.00    -0.014 A 
BRANCH  29  30
ATOM     30  C   UNL     1       1.904  -7.056   5.526  1.00  0.00     0.031 A 
ATOM     31  C   UNL     1       1.046  -8.296   5.496  1.00  0.00     0.074 A 
ATOM     32  C   UNL     1       2.462  -6.647   6.682  1.00  0.00     0.049 A 
ATOM     33  N   UNL     1       0.744  -9.117   6.471  1.00  0.00    -0.248 NA
ATOM     34  C   UNL     1       0.413  -8.642   4.213  1.00  0.00     0.031 C 
ATOM     35  C   UNL     1       3.247  -5.423   6.858  1.00  0.00     0.029 A 
ATOM     36  N   UNL     1       2.453  -7.215   7.931  1.00  0.00    -0.354 N 
ATOM     37  C   UNL     1      -0.124 -10.052   5.923  1.00  0.00     0.074 A 
ATOM     38  C   UNL     1      -0.355  -9.665   4.550  1.00  0.00     0.031 C 
ATOM     39  C   UNL     1       3.672  -5.351   8.129  1.00  0.00     0.029 A 
ATOM     40  C   UNL     1       3.163  -6.502   8.867  1.00  0.00     0.049 A 
ATOM     41  H   UNL     1       1.983  -8.056   8.137  1.00  0.00     0.167 HD
ATOM     42  C   UNL     1      -0.655 -11.154   6.501  1.00  0.00     0.037 A 
ATOM     43  C   UNL     1       3.377  -6.751  10.173  1.00  0.00     0.037 A 
ATOM     44  C   UNL     1      -0.382 -11.564   7.852  1.00  0.00     0.049 A 
ATOM     45  C   UNL     1       2.807  -8.007  10.779  1.00  0.00     0.074 A 
ATOM     46  C   UNL     1      -0.793 -12.713   8.504  1.00  0.00     0.029 A 
ATOM     47  N   UNL     1       0.373 -10.837   8.759  1.00  0.00    -0.354 N 
ATOM     48  N   UNL     1       2.072  -8.938  10.220  1.00  0.00    -0.248 NA
ATOM     49  C   UNL     1       3.110  -8.254  12.195  1.00  0.00     0.031 C 
ATOM     50  C   UNL     1      -0.334 -12.654   9.823  1.00  0.00     0.029 A 
ATOM     51  C   UNL     1       0.416 -11.499   9.975  1.00  0.00     0.049 A 
ATOM     52  H   UNL     1       0.814  -9.977   8.568  1.00  0.00     0.167 HD
ATOM     53  C   UNL     1       1.847  -9.890  11.205  1.00  0.00     0.074 A 
ATOM     54  C   UNL     1       2.547  -9.437  12.389  1.00  0.00     0.031 C 
ATOM     55  C   UNL     1       1.120 -11.033  11.141  1.00  0.00     0.037 A 
BRANCH  42  56
ATOM     56  C   UNL     1      -1.577 -12.006   5.676  1.00  0.00     0.064 A 
ATOM     57  C   UNL     1      -1.109 -12.771   4.597  1.00  0.00     0.173 A 
ATOM     58  C   UNL     1      -2.938 -12.102   6.006  1.00  0.00     0.173 A 
ATOM     59  F   UNL     1       0.180 -12.706   4.231  1.00  0.00    -0.203 F 
ATOM     60  C   UNL     1      -1.972 -13.582   3.865  1.00  0.00     0.198 A 
ATOM     61  C   UNL     1      -3.791 -12.939   5.292  1.00  0.00     0.198 A 
ATOM     62  F   UNL     1      -3.438 -11.395   7.030  1.00  0.00    -0.203 F 
ATOM     63  F   UNL     1      -1.511 -14.269   2.811  1.00  0.00    -0.200 F 
ATOM     64  C   UNL     1      -3.310 -13.674   4.219  1.00  0.00     0.200 A 
ATOM     65  F   UNL     1      -5.081 -13.037   5.644  1.00  0.00    -0.200 F 
ATOM     66  F   UNL     1      -4.136 -14.467   3.524  1.00  0.00    -0.200 F 
ENDBRANCH  42  56
BRANCH  43  67
ATOM     67  C   UNL     1       4.181  -5.808  10.995  1.00  0.00     0.064 A 
ATOM     68  C   UNL     1       5.431  -6.179  11.511  1.00  0.00     0.173 A 
ATOM     69  C   UNL     1       3.704  -4.526  11.307  1.00  0.00     0.173 A 
ATOM     70  F   UNL     1       5.924  -7.401  11.256  1.00  0.00    -0.203 F 
ATOM     71  C   UNL     1       6.155  -5.321  12.336  1.00  0.00     0.198 A 
ATOM     72  C   UNL     1       4.444  -3.656  12.105  1.00  0.00     0.198 A 
ATOM     73  F   UNL     1       2.518  -4.117  10.834  1.00  0.00    -0.203 F 
ATOM     74  F   UNL     1       7.316  -5.727  12.867  1.00  0.00    -0.200 F 
ATOM     75  C   UNL     1       5.663  -4.059  12.629  1.00  0.00     0.200 A 
ATOM     76  F   UNL     1       3.973  -2.430  12.372  1.00  0.00    -0.200 F 
ATOM     77  F   UNL     1       6.357  -3.235  13.426  1.00  0.00    -0.200 F 
ENDBRANCH  43  67
BRANCH  55  78
ATOM     78  C   UNL     1       1.072 -11.884  12.378  1.00  0.00     0.064 A 
ATOM     79  C   UNL     1       0.385 -11.473  13.529  1.00  0.00     0.173 A 
ATOM     80  C   UNL     1       1.703 -13.137  12.402  1.00  0.00     0.173 A 
ATOM     81  F   UNL     1      -0.225 -10.278  13.561  1.00  0.00    -0.203 F 
ATOM     82  C   UNL     1       0.366 -12.266  14.673  1.00  0.00     0.198 A 
ATOM     83  C   UNL     1       1.650 -13.944  13.535  1.00  0.00     0.198 A 
ATOM     84  F   UNL     1       2.365 -13.584  11.324  1.00  0.00    -0.203 F 
ATOM     85  F   UNL     1      -0.243 -11.824  15.782  1.00  0.00    -0.200 F 
ATOM     86  C   UNL     1       0.992 -13.503  14.673  1.00  0.00     0.200 A 
ATOM     87  F   UNL     1       2.241 -15.147  13.527  1.00  0.00    -0.200 F 
ATOM     88  F   UNL     1       0.970 -14.267  15.774  1.00  0.00    -0.200 F 
ENDBRANCH  55  78
ENDBRANCH  29  30
ENDBRANCH  21  24
ENDBRANCH  19  20
ENDBRANCH   1  19
TORSDOF 13
