REMARK SMILES Cc1ccc(OCC(=O)NNC(=O)[C@H]2CCCC[C@@H]2C(=O)NCCCNC(=O)c2ccc(-c3c4nc(c(-c5c(F)c(F)c(F)c(F)c5F)c5ccc([nH]5)c(-c5c(F)c(F)c(F)c(F)c5F)c5nc(c(-c6c(F)c(F)c(F)c(F)c6F)c6ccc3[nH]6)C=C5)C=C4)cc2)cc1
REMARK SMILES IDX 20 1 21 2 22 3 19 5 14 6 15 7 16 8 18 9 17 10 12 11 11 12
REMARK SMILES IDX 13 14 10 15 8 16 9 17 7 19 6 20 5 21 1 22 2 23 3 24 93 25
REMARK SMILES IDX 4 26 92 27 23 28 24 29 25 30 26 31 27 32 28 34 29 35 30 36
REMARK SMILES IDX 91 37 31 38 90 39 32 40 33 41 34 42 84 43 35 44 89 45 83 46
REMARK SMILES IDX 85 47 36 48 88 49 82 50 81 51 37 53 69 54 49 55 68 56 50 57
REMARK SMILES IDX 53 58 67 59 86 60 51 61 52 62 66 64 87 65 54 66 38 67 39 68
REMARK SMILES IDX 47 69 40 70 41 71 45 72 48 73 42 74 43 75 46 76 44 77 70 78
REMARK SMILES IDX 71 79 79 80 72 81 73 82 77 83 80 84 74 85 75 86 78 87 76 88
REMARK SMILES IDX 55 89 56 90 64 91 57 92 58 93 62 94 65 95 59 96 60 97 63 98
REMARK SMILES IDX 61 99
REMARK H PARENT 22 4 11 13 10 18 26 33 85 52 53 63
REMARK Flexibility Score: inf
ROOT
ATOM      1  C   UNL     1      -5.296   2.265   4.487  1.00  0.00     0.223 C 
ATOM      2  O   UNL     1      -5.257   1.879   3.308  1.00  0.00    -0.275 OA
ATOM      3  N   UNL     1      -6.321   3.093   4.780  1.00  0.00    -0.356 N 
ATOM      4  H   UNL     1      -6.890   3.280   3.999  1.00  0.00     0.163 HD
ENDROOT
BRANCH   1   5
ATOM      5  C   UNL     1      -4.192   1.781   5.438  1.00  0.00     0.091 C 
ATOM      6  C   UNL     1      -4.141   0.236   5.369  1.00  0.00     0.092 C 
ATOM      7  C   UNL     1      -5.167  -0.363   6.343  1.00  0.00     0.014 C 
ATOM      8  C   UNL     1      -4.952   0.067   7.790  1.00  0.00     0.001 C 
ATOM      9  C   UNL     1      -4.029   2.288   6.869  1.00  0.00     0.014 C 
ATOM     10  C   UNL     1      -4.818   1.569   7.964  1.00  0.00     0.001 C 
BRANCH   6  11
ATOM     11  C   UNL     1      -2.731  -0.317   5.602  1.00  0.00     0.242 C 
ATOM     12  N   UNL     1      -1.734  -0.059   4.702  1.00  0.00    -0.267 N 
ATOM     13  H   UNL     1      -0.831  -0.378   4.932  1.00  0.00     0.191 HD
ATOM     14  O   UNL     1      -2.445  -1.022   6.572  1.00  0.00    -0.273 OA
BRANCH  12  15
ATOM     15  N   UNL     1      -1.877   0.609   3.495  1.00  0.00    -0.265 N 
ATOM     16  C   UNL     1      -0.827   1.219   2.845  1.00  0.00     0.276 C 
ATOM     17  O   UNL     1      -1.000   1.727   1.736  1.00  0.00    -0.269 OA
ATOM     18  H   UNL     1      -2.771   0.649   3.084  1.00  0.00     0.191 HD
BRANCH  16  19
ATOM     19  C   UNL     1       0.555   1.206   3.510  1.00  0.00     0.331 C 
BRANCH  19  20
ATOM     20  O   UNL     1       0.619   1.809   4.794  1.00  0.00    -0.484 OA
BRANCH  20  21
ATOM     21  C   UNL     1       0.632   3.176   4.856  1.00  0.00     0.120 A 
ATOM     22  C   UNL     1       0.678   7.447   5.494  1.00  0.00     0.044 C 
ATOM     23  C   UNL     1       0.659   5.964   5.270  1.00  0.00    -0.051 A 
ATOM     24  C   UNL     1       0.786   5.086   6.351  1.00  0.00     0.007 A 
ATOM     25  C   UNL     1       0.532   5.435   3.983  1.00  0.00     0.007 A 
ATOM     26  C   UNL     1       0.769   3.703   6.143  1.00  0.00     0.047 A 
ATOM     27  C   UNL     1       0.519   4.051   3.777  1.00  0.00     0.047 A 
ENDBRANCH  20  21
ENDBRANCH  19  20
ENDBRANCH  16  19
ENDBRANCH  12  15
ENDBRANCH   6  11
ENDBRANCH   1   5
BRANCH   3  28
ATOM     28  C   UNL     1      -6.777   3.769   5.980  1.00  0.00     0.117 C 
BRANCH  28  29
ATOM     29  C   UNL     1      -6.070   5.103   6.204  1.00  0.00     0.042 C 
BRANCH  29  30
ATOM     30  C   UNL     1      -7.043   6.269   6.229  1.00  0.00     0.118 C 
BRANCH  30  31
ATOM     31  N   UNL     1      -7.667   6.535   7.523  1.00  0.00    -0.352 N 
ATOM     32  C   UNL     1      -8.752   7.361   7.814  1.00  0.00     0.251 C 
ATOM     33  H   UNL     1      -7.267   6.069   8.293  1.00  0.00     0.163 HD
ATOM     34  O   UNL     1      -9.133   7.521   8.950  1.00  0.00    -0.269 OA
BRANCH  32  35
ATOM     35  C   UNL     1      -9.509   7.937   6.672  1.00  0.00     0.039 A 
ATOM     36  C   UNL     1     -10.876   7.657   6.586  1.00  0.00     0.014 A 
ATOM     37  C   UNL     1      -8.817   8.439   5.578  1.00  0.00     0.014 A 
ATOM     38  C   UNL     1     -11.473   7.605   5.329  1.00  0.00     0.010 A 
ATOM     39  C   UNL     1      -9.363   8.241   4.328  1.00  0.00     0.010 A 
ATOM     40  C   UNL     1     -10.671   7.759   4.199  1.00  0.00    -0.014 A 
BRANCH  40  41
ATOM     41  C   UNL     1     -11.069   7.339   2.858  1.00  0.00     0.031 A 
ATOM     42  C   UNL     1     -11.243   8.345   1.788  1.00  0.00     0.074 A 
ATOM     43  C   UNL     1     -11.164   6.023   2.557  1.00  0.00     0.049 A 
ATOM     44  N   UNL     1     -11.906   8.133   0.702  1.00  0.00    -0.248 NA
ATOM     45  C   UNL     1     -10.689   9.693   1.869  1.00  0.00     0.031 C 
ATOM     46  C   UNL     1     -11.273   5.423   1.227  1.00  0.00     0.029 A 
ATOM     47  N   UNL     1     -11.387   4.946   3.435  1.00  0.00    -0.354 N 
ATOM     48  C   UNL     1     -11.671   9.187  -0.143  1.00  0.00     0.074 A 
ATOM     49  C   UNL     1     -10.921  10.146   0.634  1.00  0.00     0.031 C 
ATOM     50  C   UNL     1     -11.851   4.218   1.342  1.00  0.00     0.029 A 
ATOM     51  C   UNL     1     -12.243   4.061   2.729  1.00  0.00     0.049 A 
ATOM     52  H   UNL     1     -11.026   4.832   4.344  1.00  0.00     0.167 HD
ATOM     53  C   UNL     1     -12.053   9.108  -1.447  1.00  0.00     0.037 A 
ATOM     54  C   UNL     1     -13.514   3.829   3.168  1.00  0.00     0.037 A 
ATOM     55  C   UNL     1     -12.774   7.878  -1.738  1.00  0.00     0.049 A 
ATOM     56  C   UNL     1     -14.604   4.296   2.223  1.00  0.00     0.074 A 
ATOM     57  C   UNL     1     -12.439   6.653  -2.291  1.00  0.00     0.029 A 
ATOM     58  N   UNL     1     -14.004   7.694  -1.133  1.00  0.00    -0.354 N 
ATOM     59  N   UNL     1     -14.392   4.888   1.080  1.00  0.00    -0.248 NA
ATOM     60  C   UNL     1     -16.029   4.217   2.551  1.00  0.00     0.031 C 
ATOM     61  C   UNL     1     -13.478   5.726  -1.981  1.00  0.00     0.029 A 
ATOM     62  C   UNL     1     -14.446   6.393  -1.255  1.00  0.00     0.049 A 
ATOM     63  H   UNL     1     -14.503   8.405  -0.670  1.00  0.00     0.167 HD
ATOM     64  C   UNL     1     -15.587   5.304   0.556  1.00  0.00     0.074 A 
ATOM     65  C   UNL     1     -16.585   4.861   1.512  1.00  0.00     0.031 C 
ATOM     66  C   UNL     1     -15.687   6.018  -0.601  1.00  0.00     0.037 A 
BRANCH  53  67
ATOM     67  C   UNL     1     -11.574  10.093  -2.471  1.00  0.00     0.064 A 
ATOM     68  C   UNL     1     -11.169   9.669  -3.750  1.00  0.00     0.173 A 
ATOM     69  C   UNL     1     -11.441  11.470  -2.216  1.00  0.00     0.173 A 
ATOM     70  F   UNL     1     -11.304   8.393  -4.136  1.00  0.00    -0.203 F 
ATOM     71  C   UNL     1     -10.581  10.543  -4.667  1.00  0.00     0.198 A 
ATOM     72  C   UNL     1     -10.795  12.330  -3.106  1.00  0.00     0.198 A 
ATOM     73  F   UNL     1     -11.944  12.014  -1.097  1.00  0.00    -0.203 F 
ATOM     74  F   UNL     1     -10.208  10.089  -5.872  1.00  0.00    -0.200 F 
ATOM     75  C   UNL     1     -10.358  11.864  -4.330  1.00  0.00     0.200 A 
ATOM     76  F   UNL     1     -10.586  13.610  -2.764  1.00  0.00    -0.200 F 
ATOM     77  F   UNL     1      -9.735  12.686  -5.186  1.00  0.00    -0.200 F 
ENDBRANCH  53  67
BRANCH  54  78
ATOM     78  C   UNL     1     -13.601   3.814   4.653  1.00  0.00     0.064 A 
ATOM     79  C   UNL     1     -12.849   2.845   5.349  1.00  0.00     0.173 A 
ATOM     80  C   UNL     1     -14.054   4.922   5.375  1.00  0.00     0.173 A 
ATOM     81  F   UNL     1     -12.393   1.759   4.703  1.00  0.00    -0.203 F 
ATOM     82  C   UNL     1     -12.448   3.050   6.666  1.00  0.00     0.198 A 
ATOM     83  C   UNL     1     -13.669   5.112   6.703  1.00  0.00     0.198 A 
ATOM     84  F   UNL     1     -14.757   5.888   4.766  1.00  0.00    -0.203 F 
ATOM     85  F   UNL     1     -11.617   2.178   7.256  1.00  0.00    -0.200 F 
ATOM     86  C   UNL     1     -12.833   4.200   7.332  1.00  0.00     0.200 A 
ATOM     87  F   UNL     1     -14.021   6.237   7.340  1.00  0.00    -0.200 F 
ATOM     88  F   UNL     1     -12.362   4.454   8.561  1.00  0.00    -0.200 F 
ENDBRANCH  54  78
BRANCH  66  89
ATOM     89  C   UNL     1     -16.998   6.430  -1.202  1.00  0.00     0.064 A 
ATOM     90  C   UNL     1     -18.063   5.527  -1.347  1.00  0.00     0.173 A 
ATOM     91  C   UNL     1     -17.184   7.710  -1.764  1.00  0.00     0.173 A 
ATOM     92  F   UNL     1     -17.959   4.267  -0.898  1.00  0.00    -0.203 F 
ATOM     93  C   UNL     1     -19.255   5.896  -1.973  1.00  0.00     0.198 A 
ATOM     94  C   UNL     1     -18.354   8.059  -2.435  1.00  0.00     0.198 A 
ATOM     95  F   UNL     1     -16.247   8.663  -1.657  1.00  0.00    -0.203 F 
ATOM     96  F   UNL     1     -20.268   5.022  -2.043  1.00  0.00    -0.200 F 
ATOM     97  C   UNL     1     -19.395   7.157  -2.528  1.00  0.00     0.200 A 
ATOM     98  F   UNL     1     -18.466   9.276  -2.987  1.00  0.00    -0.200 F 
ATOM     99  F   UNL     1     -20.532   7.502  -3.147  1.00  0.00    -0.200 F 
ENDBRANCH  66  89
ENDBRANCH  40  41
ENDBRANCH  32  35
ENDBRANCH  30  31
ENDBRANCH  29  30
ENDBRANCH  28  29
ENDBRANCH   3  28
TORSDOF 15
