REMARK SMILES Cn1nnnc1SCC[C@@H]1CCC[C@@]1([NH3+])C(=O)NCCCNC(=O)c1ccc(-c2c3nc(c(-c4c(F)c(F)c(F)c(F)c4F)c4ccc([nH]4)c(-c4c(F)c(F)c(F)c(F)c4F)c4nc(c(-c5c(F)c(F)c(F)c(F)c5F)c5ccc2[nH]5)C=C4)C=C3)cc1
REMARK SMILES IDX 19 1 18 2 16 3 17 4 14 6 10 7 11 8 12 9 13 10 9 11 8 12 7 13
REMARK SMILES IDX 6 14 1 15 2 16 3 17 4 18 5 19 15 20 20 24 21 25 22 26 23 27
REMARK SMILES IDX 24 29 25 30 26 31 87 32 27 33 86 34 28 35 29 36 30 37 80 38
REMARK SMILES IDX 31 39 85 40 79 41 81 42 32 43 84 44 78 45 77 46 33 48 65 49
REMARK SMILES IDX 45 50 64 51 46 52 49 53 63 54 82 55 47 56 48 57 62 59 83 60
REMARK SMILES IDX 50 61 34 62 35 63 43 64 36 65 37 66 41 67 44 68 38 69 39 70
REMARK SMILES IDX 42 71 40 72 66 73 67 74 75 75 68 76 69 77 73 78 76 79 70 80
REMARK SMILES IDX 71 81 74 82 72 83 51 84 52 85 60 86 53 87 54 88 58 89 61 90
REMARK SMILES IDX 55 91 56 92 59 93 57 94
REMARK H PARENT 18 5 15 21 15 22 15 23 22 28 81 47 49 58
REMARK Flexibility Score: inf
ROOT
ATOM      1  C   UNL     1      -2.246  -1.389  -1.576  1.00  0.00     0.118 C 
ENDROOT
BRANCH   1   2
ATOM      2  N   UNL     1      -3.414  -0.532  -1.538  1.00  0.00    -0.351 N 
ATOM      3  C   UNL     1      -4.029   0.209  -0.587  1.00  0.00     0.281 C 
ATOM      4  O   UNL     1      -4.895   0.979  -1.038  1.00  0.00    -0.268 OA
ATOM      5  H   UNL     1      -3.867  -0.475  -2.410  1.00  0.00     0.163 HD
BRANCH   3   6
ATOM      6  C   UNL     1      -3.842   0.148   0.973  1.00  0.00     0.176 C 
ATOM      7  C   UNL     1      -2.716  -0.614   1.689  1.00  0.00     0.061 C 
ATOM      8  C   UNL     1      -2.664   0.053   3.079  1.00  0.00     0.011 C 
ATOM      9  C   UNL     1      -2.766   1.532   2.763  1.00  0.00     0.008 C 
ATOM     10  C   UNL     1      -3.501   1.609   1.421  1.00  0.00     0.079 C 
BRANCH   7  11
ATOM     11  C   UNL     1      -2.730  -2.143   1.811  1.00  0.00     0.022 C 
BRANCH  11  12
ATOM     12  C   UNL     1      -1.341  -2.804   1.572  1.00  0.00     0.079 C 
BRANCH  12  13
ATOM     13  S   UNL     1       0.090  -1.847   2.200  1.00  0.00    -0.085 SA
BRANCH  13  14
ATOM     14  C   UNL     1       1.011  -1.415   0.795  1.00  0.00     0.209 A 
ATOM     15  C   UNL     1       0.081   0.885   0.081  1.00  0.00     0.179 C 
ATOM     16  N   UNL     1       0.989  -0.225   0.105  1.00  0.00    -0.224 N 
ATOM     17  N   UNL     1       2.038  -0.184  -0.738  1.00  0.00    -0.045 NA
ATOM     18  N   UNL     1       2.680  -1.327  -0.561  1.00  0.00    -0.023 NA
ATOM     19  N   UNL     1       2.046  -2.107   0.373  1.00  0.00    -0.102 NA
ENDBRANCH  13  14
ENDBRANCH  12  13
ENDBRANCH  11  12
ENDBRANCH   7  11
BRANCH   6  20
ATOM     20  N   UNL     1      -5.157  -0.218   1.552  1.00  0.00    -0.345 N 
ATOM     21  H   UNL     1      -5.079  -0.268   2.568  1.00  0.00     0.345 HD
ATOM     22  H   UNL     1      -5.448  -1.125   1.188  1.00  0.00     0.345 HD
ATOM     23  H   UNL     1      -5.848   0.488   1.299  1.00  0.00     0.345 HD
ENDBRANCH   6  20
ENDBRANCH   3   6
ENDBRANCH   1   2
BRANCH   1  24
ATOM     24  C   UNL     1      -2.556  -2.809  -2.037  1.00  0.00     0.042 C 
BRANCH  24  25
ATOM     25  C   UNL     1      -2.307  -3.018  -3.527  1.00  0.00     0.118 C 
BRANCH  25  26
ATOM     26  N   UNL     1      -0.893  -3.217  -3.846  1.00  0.00    -0.352 N 
ATOM     27  C   UNL     1      -0.183  -4.343  -4.193  1.00  0.00     0.251 C 
ATOM     28  H   UNL     1      -0.351  -2.396  -3.806  1.00  0.00     0.163 HD
ATOM     29  O   UNL     1       1.049  -4.278  -4.265  1.00  0.00    -0.269 OA
BRANCH  27  30
ATOM     30  C   UNL     1      -0.848  -5.637  -4.461  1.00  0.00     0.039 A 
ATOM     31  C   UNL     1      -0.218  -6.830  -4.085  1.00  0.00     0.014 A 
ATOM     32  C   UNL     1      -2.077  -5.695  -5.114  1.00  0.00     0.014 A 
ATOM     33  C   UNL     1      -0.860  -8.058  -4.289  1.00  0.00     0.010 A 
ATOM     34  C   UNL     1      -2.772  -6.896  -5.190  1.00  0.00     0.010 A 
ATOM     35  C   UNL     1      -2.167  -8.098  -4.799  1.00  0.00    -0.014 A 
BRANCH  35  36
ATOM     36  C   UNL     1      -2.915  -9.373  -4.975  1.00  0.00     0.031 A 
ATOM     37  C   UNL     1      -3.450  -9.748  -6.335  1.00  0.00     0.074 A 
ATOM     38  C   UNL     1      -3.198 -10.146  -3.907  1.00  0.00     0.049 A 
ATOM     39  N   UNL     1      -4.245 -10.732  -6.675  1.00  0.00    -0.248 NA
ATOM     40  C   UNL     1      -3.083  -8.867  -7.456  1.00  0.00     0.031 C 
ATOM     41  C   UNL     1      -2.792  -9.868  -2.528  1.00  0.00     0.029 A 
ATOM     42  N   UNL     1      -3.907 -11.318  -3.811  1.00  0.00    -0.354 N 
ATOM     43  C   UNL     1      -4.496 -10.562  -8.032  1.00  0.00     0.074 A 
ATOM     44  C   UNL     1      -3.833  -9.344  -8.437  1.00  0.00     0.031 C 
ATOM     45  C   UNL     1      -3.227 -10.858  -1.732  1.00  0.00     0.029 A 
ATOM     46  C   UNL     1      -3.984 -11.815  -2.532  1.00  0.00     0.049 A 
ATOM     47  H   UNL     1      -4.321 -11.761  -4.587  1.00  0.00     0.167 HD
ATOM     48  C   UNL     1      -5.187 -11.367  -8.875  1.00  0.00     0.037 A 
ATOM     49  C   UNL     1      -4.600 -12.914  -2.058  1.00  0.00     0.037 A 
ATOM     50  C   UNL     1      -5.798 -12.608  -8.479  1.00  0.00     0.049 A 
ATOM     51  C   UNL     1      -5.345 -13.805  -3.017  1.00  0.00     0.074 A 
ATOM     52  C   UNL     1      -6.454 -13.537  -9.266  1.00  0.00     0.029 A 
ATOM     53  N   UNL     1      -5.819 -13.095  -7.180  1.00  0.00    -0.354 N 
ATOM     54  N   UNL     1      -5.519 -13.668  -4.310  1.00  0.00    -0.248 NA
ATOM     55  C   UNL     1      -5.975 -15.006  -2.452  1.00  0.00     0.031 C 
ATOM     56  C   UNL     1      -6.914 -14.564  -8.435  1.00  0.00     0.029 A 
ATOM     57  C   UNL     1      -6.496 -14.303  -7.140  1.00  0.00     0.049 A 
ATOM     58  H   UNL     1      -5.413 -12.649  -6.402  1.00  0.00     0.167 HD
ATOM     59  C   UNL     1      -6.249 -14.777  -4.716  1.00  0.00     0.074 A 
ATOM     60  C   UNL     1      -6.471 -15.585  -3.535  1.00  0.00     0.031 C 
ATOM     61  C   UNL     1      -6.697 -15.098  -5.955  1.00  0.00     0.037 A 
BRANCH  48  62
ATOM     62  C   UNL     1      -5.304 -10.937 -10.311  1.00  0.00     0.064 A 
ATOM     63  C   UNL     1      -4.190 -10.894 -11.164  1.00  0.00     0.173 A 
ATOM     64  C   UNL     1      -6.551 -10.585 -10.850  1.00  0.00     0.173 A 
ATOM     65  F   UNL     1      -2.971 -11.209 -10.699  1.00  0.00    -0.203 F 
ATOM     66  C   UNL     1      -4.312 -10.476 -12.486  1.00  0.00     0.198 A 
ATOM     67  C   UNL     1      -6.676 -10.204 -12.184  1.00  0.00     0.198 A 
ATOM     68  F   UNL     1      -7.653 -10.614 -10.084  1.00  0.00    -0.203 F 
ATOM     69  F   UNL     1      -3.222 -10.382 -13.261  1.00  0.00    -0.200 F 
ATOM     70  C   UNL     1      -5.556 -10.139 -12.998  1.00  0.00     0.200 A 
ATOM     71  F   UNL     1      -7.882  -9.893 -12.680  1.00  0.00    -0.200 F 
ATOM     72  F   UNL     1      -5.673  -9.743 -14.272  1.00  0.00    -0.200 F 
ENDBRANCH  48  62
BRANCH  49  73
ATOM     73  C   UNL     1      -4.512 -13.255  -0.613  1.00  0.00     0.064 A 
ATOM     74  C   UNL     1      -3.784 -14.374  -0.182  1.00  0.00     0.173 A 
ATOM     75  C   UNL     1      -5.149 -12.478   0.366  1.00  0.00     0.173 A 
ATOM     76  F   UNL     1      -3.173 -15.160  -1.080  1.00  0.00    -0.203 F 
ATOM     77  C   UNL     1      -3.717 -14.715   1.168  1.00  0.00     0.198 A 
ATOM     78  C   UNL     1      -5.055 -12.802   1.718  1.00  0.00     0.198 A 
ATOM     79  F   UNL     1      -5.852 -11.393   0.009  1.00  0.00    -0.203 F 
ATOM     80  F   UNL     1      -3.056 -15.818   1.545  1.00  0.00    -0.200 F 
ATOM     81  C   UNL     1      -4.347 -13.926   2.117  1.00  0.00     0.200 A 
ATOM     82  F   UNL     1      -5.652 -12.027   2.634  1.00  0.00    -0.200 F 
ATOM     83  F   UNL     1      -4.278 -14.251   3.415  1.00  0.00    -0.200 F 
ENDBRANCH  49  73
BRANCH  61  84
ATOM     84  C   UNL     1      -7.440 -16.394  -6.105  1.00  0.00     0.064 A 
ATOM     85  C   UNL     1      -8.733 -16.567  -5.590  1.00  0.00     0.173 A 
ATOM     86  C   UNL     1      -6.864 -17.462  -6.811  1.00  0.00     0.173 A 
ATOM     87  F   UNL     1      -9.321 -15.581  -4.896  1.00  0.00    -0.203 F 
ATOM     88  C   UNL     1      -9.412 -17.771  -5.753  1.00  0.00     0.198 A 
ATOM     89  C   UNL     1      -7.559 -18.652  -7.001  1.00  0.00     0.198 A 
ATOM     90  F   UNL     1      -5.633 -17.344  -7.330  1.00  0.00    -0.203 F 
ATOM     91  F   UNL     1     -10.626 -17.932  -5.210  1.00  0.00    -0.200 F 
ATOM     92  C   UNL     1      -8.829 -18.809  -6.465  1.00  0.00     0.200 A 
ATOM     93  F   UNL     1      -7.001 -19.648  -7.703  1.00  0.00    -0.200 F 
ATOM     94  F   UNL     1      -9.488 -19.964  -6.629  1.00  0.00    -0.200 F 
ENDBRANCH  61  84
ENDBRANCH  35  36
ENDBRANCH  27  30
ENDBRANCH  25  26
ENDBRANCH  24  25
ENDBRANCH   1  24
TORSDOF 15
