REMARK SMILES Cc1ccc(S(=O)(=O)n2cc(C(=O)C(=O)N[C@@H](Cc3cnc[nH]3)C(=O)NCCCNC(=O)c3ccc(-c4c5nc(c(-c6c(F)c(F)c(F)c(F)c6F)c6ccc([nH]6)c(-c6c(F)c(F)c(F)c(F)c6F)c6nc(c(-c7c(F)c(F)c(F)c(F)c7F)c7ccc4[nH]7)C=C6)C=C5)cc3)c3ccccc32)cc1
REMARK SMILES IDX 24 1 25 2 26 3 17 5 16 6 14 7 15 8 12 10 13 11 11 12 9 13
REMARK SMILES IDX 10 14 101 15 96 16 100 17 97 18 99 19 98 20 6 21 7 22 8 23
REMARK SMILES IDX 5 24 1 25 2 26 3 27 103 28 4 29 102 30 18 31 19 32 20 33
REMARK SMILES IDX 23 34 21 35 22 36 27 38 28 39 29 40 30 41 31 42 32 44 33 45
REMARK SMILES IDX 34 46 95 47 35 48 94 49 36 50 37 51 38 52 88 53 39 54 93 55
REMARK SMILES IDX 87 56 89 57 40 58 92 59 86 60 85 61 41 63 73 64 53 65 72 66
REMARK SMILES IDX 54 67 57 68 71 69 90 70 55 71 56 72 70 74 91 75 58 76 42 77
REMARK SMILES IDX 43 78 51 79 44 80 45 81 49 82 52 83 46 84 47 85 50 86 48 87
REMARK SMILES IDX 74 88 75 89 83 90 76 91 77 92 81 93 84 94 78 95 79 96 82 97
REMARK SMILES IDX 80 98 59 99 60 100 68 101 61 102 62 103 66 104 69 105 63 106
REMARK SMILES IDX 64 107 67 108 65 109
REMARK H PARENT 26 4 16 9 23 37 30 43 89 62 57 73
REMARK Flexibility Score: inf
ROOT
ATOM      1  C   UNL     1      -7.455   7.259   3.802  1.00  0.00     0.242 C 
ATOM      2  O   UNL     1      -6.851   8.296   3.509  1.00  0.00    -0.273 OA
ATOM      3  N   UNL     1      -7.601   6.994   5.139  1.00  0.00    -0.354 N 
ATOM      4  H   UNL     1      -6.903   7.359   5.730  1.00  0.00     0.163 HD
ENDROOT
BRANCH   1   5
ATOM      5  C   UNL     1      -8.093   6.375   2.694  1.00  0.00     0.177 C 
BRANCH   5   6
ATOM      6  N   UNL     1      -7.856   4.943   2.942  1.00  0.00    -0.337 N 
ATOM      7  C   UNL     1      -6.855   4.106   2.475  1.00  0.00     0.293 C 
ATOM      8  O   UNL     1      -6.718   3.017   3.024  1.00  0.00    -0.265 OA
ATOM      9  H   UNL     1      -8.513   4.512   3.535  1.00  0.00     0.164 HD
BRANCH   7  10
ATOM     10  C   UNL     1      -5.940   4.498   1.280  1.00  0.00     0.252 C 
ATOM     11  O   UNL     1      -5.859   5.683   0.973  1.00  0.00    -0.283 OA
BRANCH  10  12
ATOM     12  C   UNL     1      -5.179   3.496   0.508  1.00  0.00     0.054 A 
ATOM     13  N   UNL     1      -4.166   1.614  -0.159  1.00  0.00    -0.240 N 
ATOM     14  C   UNL     1      -4.934   2.173   0.835  1.00  0.00     0.117 A 
ATOM     15  C   UNL     1      -3.912   2.521  -1.163  1.00  0.00     0.065 A 
ATOM     16  C   UNL     1      -4.509   3.722  -0.754  1.00  0.00     0.012 A 
ATOM     17  C   UNL     1      -3.196   2.418  -2.372  1.00  0.00     0.028 A 
ATOM     18  C   UNL     1      -4.366   4.854  -1.589  1.00  0.00     0.011 A 
ATOM     19  C   UNL     1      -3.065   3.560  -3.165  1.00  0.00     0.002 A 
ATOM     20  C   UNL     1      -3.640   4.764  -2.780  1.00  0.00     0.001 A 
BRANCH  13  21
ATOM     21  S   UNL     1      -3.578   0.015  -0.106  1.00  0.00     0.268 S 
ATOM     22  O   UNL     1      -3.916  -0.547  -1.413  1.00  0.00    -0.201 OA
ATOM     23  O   UNL     1      -4.071  -0.554   1.119  1.00  0.00    -0.201 OA
BRANCH  21  24
ATOM     24  C   UNL     1      -1.808   0.071   0.005  1.00  0.00     0.088 A 
ATOM     25  C   UNL     1       2.495  -0.041   0.046  1.00  0.00     0.044 C 
ATOM     26  C   UNL     1       0.995   0.003   0.048  1.00  0.00    -0.051 A 
ATOM     27  C   UNL     1       0.263  -1.184  -0.069  1.00  0.00     0.005 A 
ATOM     28  C   UNL     1       0.310   1.218   0.174  1.00  0.00     0.005 A 
ATOM     29  C   UNL     1      -1.132  -1.152  -0.097  1.00  0.00     0.022 A 
ATOM     30  C   UNL     1      -1.089   1.256   0.164  1.00  0.00     0.022 A 
ENDBRANCH  21  24
ENDBRANCH  13  21
ENDBRANCH  10  12
ENDBRANCH   7  10
ENDBRANCH   5   6
BRANCH   5  31
ATOM     31  C   UNL     1      -9.547   6.742   2.302  1.00  0.00     0.090 C 
BRANCH  31  32
ATOM     32  C   UNL     1     -10.634   6.416   3.272  1.00  0.00     0.037 A 
ATOM     33  C   UNL     1     -11.230   5.225   3.640  1.00  0.00     0.134 A 
ATOM     34  N   UNL     1     -11.258   7.366   4.053  1.00  0.00    -0.348 N 
ATOM     35  N   UNL     1     -12.067   5.413   4.710  1.00  0.00    -0.245 NA
ATOM     36  C   UNL     1     -12.073   6.707   4.931  1.00  0.00     0.196 A 
ATOM     37  H   UNL     1     -11.138   8.341   3.990  1.00  0.00     0.167 HD
ENDBRANCH  31  32
ENDBRANCH   5  31
ENDBRANCH   1   5
BRANCH   3  38
ATOM     38  C   UNL     1      -8.654   6.244   5.786  1.00  0.00     0.117 C 
BRANCH  38  39
ATOM     39  C   UNL     1      -8.216   5.054   6.604  1.00  0.00     0.042 C 
BRANCH  39  40
ATOM     40  C   UNL     1      -8.324   5.324   8.088  1.00  0.00     0.118 C 
BRANCH  40  41
ATOM     41  N   UNL     1      -9.680   5.336   8.643  1.00  0.00    -0.352 N 
ATOM     42  C   UNL     1     -10.101   5.636   9.934  1.00  0.00     0.251 C 
ATOM     43  H   UNL     1     -10.396   5.097   8.011  1.00  0.00     0.163 HD
ATOM     44  O   UNL     1     -11.290   5.567  10.227  1.00  0.00    -0.269 OA
BRANCH  42  45
ATOM     45  C   UNL     1      -9.135   6.196  10.915  1.00  0.00     0.039 A 
ATOM     46  C   UNL     1      -9.528   7.283  11.708  1.00  0.00     0.014 A 
ATOM     47  C   UNL     1      -7.794   5.873  10.814  1.00  0.00     0.014 A 
ATOM     48  C   UNL     1      -8.569   8.210  12.110  1.00  0.00     0.010 A 
ATOM     49  C   UNL     1      -6.888   6.885  10.992  1.00  0.00     0.010 A 
ATOM     50  C   UNL     1      -7.281   8.076  11.608  1.00  0.00    -0.014 A 
BRANCH  50  51
ATOM     51  C   UNL     1      -6.252   9.105  11.618  1.00  0.00     0.031 A 
ATOM     52  C   UNL     1      -5.004   8.847  12.373  1.00  0.00     0.074 A 
ATOM     53  C   UNL     1      -6.346  10.129  10.739  1.00  0.00     0.049 A 
ATOM     54  N   UNL     1      -4.076   9.716  12.561  1.00  0.00    -0.248 NA
ATOM     55  C   UNL     1      -4.701   7.559  12.993  1.00  0.00     0.031 C 
ATOM     56  C   UNL     1      -5.269  10.998  10.269  1.00  0.00     0.029 A 
ATOM     57  N   UNL     1      -7.510  10.709  10.203  1.00  0.00    -0.354 N 
ATOM     58  C   UNL     1      -2.979   9.069  13.085  1.00  0.00     0.074 A 
ATOM     59  C   UNL     1      -3.424   7.723  13.343  1.00  0.00     0.031 C 
ATOM     60  C   UNL     1      -5.800  12.138   9.800  1.00  0.00     0.029 A 
ATOM     61  C   UNL     1      -7.219  12.094  10.101  1.00  0.00     0.049 A 
ATOM     62  H   UNL     1      -8.346  10.254   9.952  1.00  0.00     0.167 HD
ATOM     63  C   UNL     1      -1.798   9.745  13.144  1.00  0.00     0.037 A 
ATOM     64  C   UNL     1      -7.874  13.011  10.873  1.00  0.00     0.037 A 
ATOM     65  C   UNL     1      -1.992  11.135  12.745  1.00  0.00     0.049 A 
ATOM     66  C   UNL     1      -6.962  13.785  11.799  1.00  0.00     0.074 A 
ATOM     67  C   UNL     1      -1.825  11.806  11.545  1.00  0.00     0.029 A 
ATOM     68  N   UNL     1      -2.773  11.954  13.551  1.00  0.00    -0.354 N 
ATOM     69  N   UNL     1      -5.773  13.378  12.151  1.00  0.00    -0.248 NA
ATOM     70  C   UNL     1      -7.309  15.069  12.399  1.00  0.00     0.031 C 
ATOM     71  C   UNL     1      -2.563  13.015  11.615  1.00  0.00     0.029 A 
ATOM     72  C   UNL     1      -3.152  13.089  12.866  1.00  0.00     0.049 A 
ATOM     73  H   UNL     1      -3.020  11.752  14.482  1.00  0.00     0.167 HD
ATOM     74  C   UNL     1      -5.200  14.297  12.993  1.00  0.00     0.074 A 
ATOM     75  C   UNL     1      -6.199  15.342  13.111  1.00  0.00     0.031 C 
ATOM     76  C   UNL     1      -3.954  14.110  13.522  1.00  0.00     0.037 A 
BRANCH  63  77
ATOM     77  C   UNL     1      -0.439   9.121  13.356  1.00  0.00     0.064 A 
ATOM     78  C   UNL     1       0.719   9.742  12.835  1.00  0.00     0.173 A 
ATOM     79  C   UNL     1      -0.201   7.905  14.023  1.00  0.00     0.173 A 
ATOM     80  F   UNL     1       0.662  10.938  12.234  1.00  0.00    -0.203 F 
ATOM     81  C   UNL     1       1.986   9.155  12.904  1.00  0.00     0.198 A 
ATOM     82  C   UNL     1       1.056   7.292  14.046  1.00  0.00     0.198 A 
ATOM     83  F   UNL     1      -1.158   7.296  14.731  1.00  0.00    -0.203 F 
ATOM     84  F   UNL     1       3.045   9.798  12.393  1.00  0.00    -0.200 F 
ATOM     85  C   UNL     1       2.150   7.915  13.482  1.00  0.00     0.200 A 
ATOM     86  F   UNL     1       1.198   6.093  14.629  1.00  0.00    -0.200 F 
ATOM     87  F   UNL     1       3.357   7.336  13.520  1.00  0.00    -0.200 F 
ENDBRANCH  63  77
BRANCH  64  88
ATOM     88  C   UNL     1      -9.280  12.609  11.150  1.00  0.00     0.064 A 
ATOM     89  C   UNL     1     -10.152  12.508  10.046  1.00  0.00     0.173 A 
ATOM     90  C   UNL     1      -9.626  11.909  12.312  1.00  0.00     0.173 A 
ATOM     91  F   UNL     1      -9.870  13.165   8.909  1.00  0.00    -0.203 F 
ATOM     92  C   UNL     1     -11.226  11.621  10.050  1.00  0.00     0.198 A 
ATOM     93  C   UNL     1     -10.722  11.041  12.319  1.00  0.00     0.198 A 
ATOM     94  F   UNL     1      -8.829  11.949  13.389  1.00  0.00    -0.203 F 
ATOM     95  F   UNL     1     -11.944  11.436   8.932  1.00  0.00    -0.200 F 
ATOM     96  C   UNL     1     -11.488  10.861  11.176  1.00  0.00     0.200 A 
ATOM     97  F   UNL     1     -10.966  10.286  13.400  1.00  0.00    -0.200 F 
ATOM     98  F   UNL     1     -12.444   9.922  11.144  1.00  0.00    -0.200 F 
ENDBRANCH  64  88
BRANCH  76  99
ATOM     99  C   UNL     1      -3.321  14.882  14.659  1.00  0.00     0.064 A 
ATOM    100  C   UNL     1      -4.046  15.542  15.662  1.00  0.00     0.173 A 
ATOM    101  C   UNL     1      -1.918  14.819  14.868  1.00  0.00     0.173 A 
ATOM    102  F   UNL     1      -5.384  15.586  15.644  1.00  0.00    -0.203 F 
ATOM    103  C   UNL     1      -3.417  16.125  16.767  1.00  0.00     0.198 A 
ATOM    104  C   UNL     1      -1.303  15.341  16.004  1.00  0.00     0.198 A 
ATOM    105  F   UNL     1      -1.101  14.214  13.994  1.00  0.00    -0.203 F 
ATOM    106  F   UNL     1      -4.153  16.774  17.681  1.00  0.00    -0.200 F 
ATOM    107  C   UNL     1      -2.052  16.007  16.949  1.00  0.00     0.200 A 
ATOM    108  F   UNL     1       0.014  15.167  16.188  1.00  0.00    -0.200 F 
ATOM    109  F   UNL     1      -1.464  16.514  18.040  1.00  0.00    -0.200 F 
ENDBRANCH  76  99
ENDBRANCH  50  51
ENDBRANCH  42  45
ENDBRANCH  40  41
ENDBRANCH  39  40
ENDBRANCH  38  39
ENDBRANCH   3  38
TORSDOF 17
