REMARK SMILES Cc1c(C(=O)NCCCNC(=O)c2ccc(-c3c4nc(c(-c5c(F)c(F)c(F)c(F)c5F)c5ccc([nH]5)c(-c5c(F)c(F)c(F)c(F)c5F)c5nc(c(-c6c(F)c(F)c(F)c(F)c6F)c6ccc3[nH]6)C=C5)C=C4)cc2)cnn1[C@H]1CCS(=O)(=O)C1
REMARK SMILES IDX 8 1 7 2 6 3 4 4 5 5 3 7 1 8 2 9 78 10 76 11 77 12 79 13
REMARK SMILES IDX 80 14 85 15 81 16 82 17 83 18 84 19 9 20 10 21 11 22 12 24
REMARK SMILES IDX 13 25 14 26 75 27 15 28 74 29 16 30 17 31 18 32 68 33 19 34
REMARK SMILES IDX 73 35 67 36 69 37 20 38 72 39 66 40 65 41 21 43 53 44 33 45
REMARK SMILES IDX 52 46 34 47 37 48 51 49 70 50 35 51 36 52 50 54 71 55 38 56
REMARK SMILES IDX 22 57 23 58 31 59 24 60 25 61 29 62 32 63 26 64 27 65 30 66
REMARK SMILES IDX 28 67 54 68 55 69 63 70 56 71 57 72 61 73 64 74 58 75 59 76
REMARK SMILES IDX 62 77 60 78 39 79 40 80 48 81 41 82 42 83 46 84 49 85 43 86
REMARK SMILES IDX 44 87 47 88 45 89
REMARK H PARENT 6 6 10 23 69 42 37 53
REMARK Flexibility Score: inf
ROOT
ATOM      1  C   UNL     1       2.221   9.099  -3.288  1.00  0.00     0.042 C 
ENDROOT
BRANCH   1   2
ATOM      2  C   UNL     1       2.576   7.846  -4.096  1.00  0.00     0.118 C 
BRANCH   2   3
ATOM      3  N   UNL     1       3.893   7.344  -3.750  1.00  0.00    -0.352 N 
ATOM      4  C   UNL     1       4.333   6.368  -2.896  1.00  0.00     0.254 C 
ATOM      5  O   UNL     1       5.554   6.208  -2.857  1.00  0.00    -0.269 OA
ATOM      6  H   UNL     1       4.622   7.799  -4.230  1.00  0.00     0.163 HD
BRANCH   4   7
ATOM      7  C   UNL     1       3.412   5.529  -2.137  1.00  0.00     0.080 A 
ATOM      8  C   UNL     1       5.032   3.592  -1.465  1.00  0.00     0.067 C 
ATOM      9  C   UNL     1       3.720   4.286  -1.573  1.00  0.00     0.048 A 
ATOM     10  N   UNL     1       2.521   3.756  -1.144  1.00  0.00    -0.265 N 
ATOM     11  C   UNL     1       2.074   5.732  -1.745  1.00  0.00     0.149 A 
ATOM     12  N   UNL     1       1.534   4.673  -1.144  1.00  0.00    -0.180 NA
BRANCH  10  13
ATOM     13  C   UNL     1       2.102   2.373  -0.959  1.00  0.00     0.123 C 
ATOM     14  C   UNL     1       1.669   1.760  -2.303  1.00  0.00     0.044 C 
ATOM     15  C   UNL     1       3.089   1.398  -0.336  1.00  0.00     0.164 C 
ATOM     16  C   UNL     1       1.370   0.289  -2.058  1.00  0.00     0.139 C 
ATOM     17  S   UNL     1       2.419  -0.207  -0.705  1.00  0.00     0.152 S 
ATOM     18  O   UNL     1       1.589  -0.623   0.397  1.00  0.00    -0.229 OA
ATOM     19  O   UNL     1       3.492  -1.036  -1.229  1.00  0.00    -0.229 OA
ENDBRANCH  10  13
ENDBRANCH   4   7
ENDBRANCH   2   3
ENDBRANCH   1   2
BRANCH   1  20
ATOM     20  C   UNL     1       3.079  10.299  -3.674  1.00  0.00     0.118 C 
BRANCH  20  21
ATOM     21  N   UNL     1       2.807  10.784  -5.026  1.00  0.00    -0.352 N 
ATOM     22  C   UNL     1       3.391  11.838  -5.697  1.00  0.00     0.251 C 
ATOM     23  H   UNL     1       2.114  10.292  -5.524  1.00  0.00     0.163 HD
ATOM     24  O   UNL     1       2.836  12.337  -6.670  1.00  0.00    -0.269 OA
BRANCH  22  25
ATOM     25  C   UNL     1       4.681  12.375  -5.226  1.00  0.00     0.039 A 
ATOM     26  C   UNL     1       4.927  13.749  -5.253  1.00  0.00     0.014 A 
ATOM     27  C   UNL     1       5.647  11.496  -4.740  1.00  0.00     0.014 A 
ATOM     28  C   UNL     1       6.112  14.228  -4.704  1.00  0.00     0.010 A 
ATOM     29  C   UNL     1       6.747  11.977  -4.066  1.00  0.00     0.010 A 
ATOM     30  C   UNL     1       7.005  13.340  -4.073  1.00  0.00    -0.014 A 
BRANCH  30  31
ATOM     31  C   UNL     1       8.125  13.868  -3.298  1.00  0.00     0.031 A 
ATOM     32  C   UNL     1       7.743  14.964  -2.369  1.00  0.00     0.074 A 
ATOM     33  C   UNL     1       9.375  13.357  -3.277  1.00  0.00     0.049 A 
ATOM     34  N   UNL     1       8.064  16.208  -2.483  1.00  0.00    -0.248 NA
ATOM     35  C   UNL     1       6.776  14.693  -1.294  1.00  0.00     0.031 C 
ATOM     36  C   UNL     1       9.878  12.129  -3.895  1.00  0.00     0.029 A 
ATOM     37  N   UNL     1      10.469  13.817  -2.604  1.00  0.00    -0.354 N 
ATOM     38  C   UNL     1       7.505  16.856  -1.389  1.00  0.00     0.074 A 
ATOM     39  C   UNL     1       6.593  15.917  -0.790  1.00  0.00     0.031 C 
ATOM     40  C   UNL     1      11.090  11.824  -3.378  1.00  0.00     0.029 A 
ATOM     41  C   UNL     1      11.521  12.912  -2.519  1.00  0.00     0.049 A 
ATOM     42  H   UNL     1      10.510  14.718  -2.209  1.00  0.00     0.167 HD
ATOM     43  C   UNL     1       8.042  18.026  -0.945  1.00  0.00     0.037 A 
ATOM     44  C   UNL     1      12.655  13.041  -1.782  1.00  0.00     0.037 A 
ATOM     45  C   UNL     1       8.869  18.632  -1.964  1.00  0.00     0.049 A 
ATOM     46  C   UNL     1      12.840  14.489  -1.507  1.00  0.00     0.074 A 
ATOM     47  C   UNL     1       8.654  19.015  -3.277  1.00  0.00     0.029 A 
ATOM     48  N   UNL     1      10.235  18.550  -1.831  1.00  0.00    -0.354 N 
ATOM     49  N   UNL     1      13.150  15.362  -2.425  1.00  0.00    -0.248 NA
ATOM     50  C   UNL     1      12.208  15.033  -0.314  1.00  0.00     0.031 C 
ATOM     51  C   UNL     1       9.836  18.620  -3.972  1.00  0.00     0.029 A 
ATOM     52  C   UNL     1      10.732  18.114  -3.032  1.00  0.00     0.049 A 
ATOM     53  H   UNL     1      10.758  18.765  -1.025  1.00  0.00     0.167 HD
ATOM     54  C   UNL     1      12.339  16.451  -2.150  1.00  0.00     0.074 A 
ATOM     55  C   UNL     1      11.846  16.227  -0.791  1.00  0.00     0.031 C 
ATOM     56  C   UNL     1      11.902  17.277  -3.145  1.00  0.00     0.037 A 
BRANCH  43  57
ATOM     57  C   UNL     1       8.163  18.398   0.514  1.00  0.00     0.064 A 
ATOM     58  C   UNL     1       8.699  19.659   0.848  1.00  0.00     0.173 A 
ATOM     59  C   UNL     1       8.095  17.469   1.575  1.00  0.00     0.173 A 
ATOM     60  F   UNL     1       8.817  20.620  -0.082  1.00  0.00    -0.203 F 
ATOM     61  C   UNL     1       9.232  19.924   2.111  1.00  0.00     0.198 A 
ATOM     62  C   UNL     1       8.579  17.756   2.849  1.00  0.00     0.198 A 
ATOM     63  F   UNL     1       7.670  16.213   1.403  1.00  0.00    -0.203 F 
ATOM     64  F   UNL     1       9.867  21.082   2.334  1.00  0.00    -0.200 F 
ATOM     65  C   UNL     1       9.183  18.967   3.107  1.00  0.00     0.200 A 
ATOM     66  F   UNL     1       8.537  16.808   3.796  1.00  0.00    -0.200 F 
ATOM     67  F   UNL     1       9.760  19.189   4.295  1.00  0.00    -0.200 F 
ENDBRANCH  43  57
BRANCH  44  68
ATOM     68  C   UNL     1      13.437  11.993  -1.078  1.00  0.00     0.064 A 
ATOM     69  C   UNL     1      14.705  12.272  -0.536  1.00  0.00     0.173 A 
ATOM     70  C   UNL     1      12.842  10.784  -0.670  1.00  0.00     0.173 A 
ATOM     71  F   UNL     1      15.330  13.421  -0.833  1.00  0.00    -0.203 F 
ATOM     72  C   UNL     1      15.320  11.413   0.382  1.00  0.00     0.198 A 
ATOM     73  C   UNL     1      13.460   9.923   0.240  1.00  0.00     0.198 A 
ATOM     74  F   UNL     1      11.605  10.455  -1.068  1.00  0.00    -0.203 F 
ATOM     75  F   UNL     1      16.497  11.749   0.929  1.00  0.00    -0.200 F 
ATOM     76  C   UNL     1      14.691  10.245   0.778  1.00  0.00     0.200 A 
ATOM     77  F   UNL     1      12.823   8.814   0.642  1.00  0.00    -0.200 F 
ATOM     78  F   UNL     1      15.248   9.454   1.707  1.00  0.00    -0.200 F 
ENDBRANCH  44  68
BRANCH  56  79
ATOM     79  C   UNL     1      12.530  17.156  -4.507  1.00  0.00     0.064 A 
ATOM     80  C   UNL     1      12.542  15.982  -5.282  1.00  0.00     0.173 A 
ATOM     81  C   UNL     1      13.025  18.323  -5.107  1.00  0.00     0.173 A 
ATOM     82  F   UNL     1      11.992  14.847  -4.834  1.00  0.00    -0.203 F 
ATOM     83  C   UNL     1      13.077  15.971  -6.571  1.00  0.00     0.198 A 
ATOM     84  C   UNL     1      13.518  18.319  -6.408  1.00  0.00     0.198 A 
ATOM     85  F   UNL     1      12.992  19.488  -4.440  1.00  0.00    -0.203 F 
ATOM     86  F   UNL     1      13.097  14.833  -7.280  1.00  0.00    -0.200 F 
ATOM     87  C   UNL     1      13.557  17.141  -7.135  1.00  0.00     0.200 A 
ATOM     88  F   UNL     1      13.933  19.464  -6.966  1.00  0.00    -0.200 F 
ATOM     89  F   UNL     1      14.036  17.138  -8.386  1.00  0.00    -0.200 F 
ENDBRANCH  56  79
ENDBRANCH  30  31
ENDBRANCH  22  25
ENDBRANCH  20  21
ENDBRANCH   1  20
TORSDOF 11
