REMARK SMILES C[C@@H](C(=O)NCCCNC(=O)c1ccc(-c2c3nc(c(-c4c(F)c(F)c(F)c(F)c4F)c4ccc([nH]4)c(-c4c(F)c(F)c(F)c(F)c4F)c4nc(c(-c5c(F)c(F)c(F)c(F)c5F)c5ccc2[nH]5)C=C4)C=C3)cc1)[C@H](C)[S@@](=O)c1ccc(F)cc1
REMARK SMILES IDX 6 1 5 2 3 3 4 4 2 6 1 7 75 8 76 9 77 10 78 11 79 12 80 13
REMARK SMILES IDX 85 14 81 15 84 16 82 17 83 18 7 19 8 20 9 21 10 22 11 24
REMARK SMILES IDX 12 25 13 26 74 27 14 28 73 29 15 30 16 31 17 32 67 33 18 34
REMARK SMILES IDX 72 35 66 36 68 37 19 38 71 39 65 40 64 41 20 43 52 44 32 45
REMARK SMILES IDX 51 46 33 47 36 48 50 49 69 50 34 51 35 52 49 54 70 55 37 56
REMARK SMILES IDX 21 57 22 58 30 59 23 60 24 61 28 62 31 63 25 64 26 65 29 66
REMARK SMILES IDX 27 67 53 68 54 69 62 70 55 71 56 72 60 73 63 74 57 75 58 76
REMARK SMILES IDX 61 77 59 78 38 79 39 80 47 81 40 82 41 83 45 84 48 85 42 86
REMARK SMILES IDX 43 87 46 88 44 89
REMARK H PARENT 5 5 9 23 68 42 36 53
REMARK Flexibility Score: inf
ROOT
ATOM      1  C   UNL     1      -1.958  -2.394   2.675  1.00  0.00     0.117 C 
ENDROOT
BRANCH   1   2
ATOM      2  N   UNL     1      -2.006  -2.063   1.261  1.00  0.00    -0.356 N 
ATOM      3  C   UNL     1      -1.857  -0.865   0.625  1.00  0.00     0.224 C 
ATOM      4  O   UNL     1      -1.882  -0.873  -0.606  1.00  0.00    -0.275 OA
ATOM      5  H   UNL     1      -2.173  -2.828   0.665  1.00  0.00     0.163 HD
BRANCH   3   6
ATOM      6  C   UNL     1      -1.678   0.422   1.439  1.00  0.00     0.091 C 
ATOM      7  C   UNL     1      -3.047   0.825   1.986  1.00  0.00     0.019 C 
BRANCH   6   8
ATOM      8  C   UNL     1      -0.974   1.495   0.575  1.00  0.00     0.093 C 
ATOM      9  C   UNL     1       0.514   1.191   0.358  1.00  0.00     0.023 C 
BRANCH   8  10
ATOM     10  S   UNL     1      -1.147   3.247   1.036  1.00  0.00     0.057 S 
ATOM     11  O   UNL     1      -2.588   3.644   0.912  1.00  0.00    -0.254 OA
BRANCH  10  12
ATOM     12  C   UNL     1      -0.742   3.459   2.780  1.00  0.00     0.039 A 
ATOM     13  C   UNL     1      -0.229   2.480   3.634  1.00  0.00     0.021 A 
ATOM     14  C   UNL     1      -0.963   4.745   3.308  1.00  0.00     0.021 A 
ATOM     15  C   UNL     1      -0.015   2.753   4.990  1.00  0.00     0.040 A 
ATOM     16  C   UNL     1      -0.712   5.033   4.652  1.00  0.00     0.040 A 
ATOM     17  C   UNL     1      -0.256   4.026   5.487  1.00  0.00     0.123 A 
ATOM     18  F   UNL     1      -0.038   4.283   6.782  1.00  0.00    -0.207 F 
ENDBRANCH  10  12
ENDBRANCH   8  10
ENDBRANCH   6   8
ENDBRANCH   3   6
ENDBRANCH   1   2
BRANCH   1  19
ATOM     19  C   UNL     1      -3.328  -2.747   3.247  1.00  0.00     0.042 C 
BRANCH  19  20
ATOM     20  C   UNL     1      -3.948  -4.010   2.660  1.00  0.00     0.118 C 
BRANCH  20  21
ATOM     21  N   UNL     1      -3.217  -5.216   3.024  1.00  0.00    -0.352 N 
ATOM     22  C   UNL     1      -3.591  -6.276   3.812  1.00  0.00     0.251 C 
ATOM     23  H   UNL     1      -2.312  -5.281   2.644  1.00  0.00     0.163 HD
ATOM     24  O   UNL     1      -2.747  -7.104   4.153  1.00  0.00    -0.269 OA
BRANCH  22  25
ATOM     25  C   UNL     1      -4.986  -6.418   4.282  1.00  0.00     0.039 A 
ATOM     26  C   UNL     1      -5.214  -6.784   5.612  1.00  0.00     0.014 A 
ATOM     27  C   UNL     1      -6.068  -6.202   3.425  1.00  0.00     0.014 A 
ATOM     28  C   UNL     1      -6.520  -6.836   6.106  1.00  0.00     0.010 A 
ATOM     29  C   UNL     1      -7.365  -6.183   3.935  1.00  0.00     0.010 A 
ATOM     30  C   UNL     1      -7.602  -6.480   5.286  1.00  0.00    -0.014 A 
BRANCH  30  31
ATOM     31  C   UNL     1      -8.977  -6.343   5.836  1.00  0.00     0.031 A 
ATOM     32  C   UNL     1     -10.091  -7.223   5.343  1.00  0.00     0.074 A 
ATOM     33  C   UNL     1      -9.236  -5.351   6.713  1.00  0.00     0.049 A 
ATOM     34  N   UNL     1     -11.369  -7.170   5.620  1.00  0.00    -0.248 NA
ATOM     35  C   UNL     1      -9.726  -8.293   4.400  1.00  0.00     0.031 C 
ATOM     36  C   UNL     1      -8.248  -4.404   7.234  1.00  0.00     0.029 A 
ATOM     37  N   UNL     1     -10.412  -4.956   7.303  1.00  0.00    -0.354 N 
ATOM     38  C   UNL     1     -11.962  -8.179   4.874  1.00  0.00     0.074 A 
ATOM     39  C   UNL     1     -10.911  -8.814   4.109  1.00  0.00     0.031 C 
ATOM     40  C   UNL     1      -8.855  -3.543   8.065  1.00  0.00     0.029 A 
ATOM     41  C   UNL     1     -10.283  -3.840   8.097  1.00  0.00     0.049 A 
ATOM     42  H   UNL     1     -11.267  -5.427   7.170  1.00  0.00     0.167 HD
ATOM     43  C   UNL     1     -13.265  -8.545   4.842  1.00  0.00     0.037 A 
ATOM     44  C   UNL     1     -11.213  -3.117   8.749  1.00  0.00     0.037 A 
ATOM     45  C   UNL     1     -14.301  -7.931   5.631  1.00  0.00     0.049 A 
ATOM     46  C   UNL     1     -12.658  -3.535   8.667  1.00  0.00     0.074 A 
ATOM     47  C   UNL     1     -15.630  -8.303   5.744  1.00  0.00     0.029 A 
ATOM     48  N   UNL     1     -14.130  -6.810   6.428  1.00  0.00    -0.354 N 
ATOM     49  N   UNL     1     -13.189  -4.557   8.041  1.00  0.00    -0.248 NA
ATOM     50  C   UNL     1     -13.635  -2.697   9.377  1.00  0.00     0.031 C 
ATOM     51  C   UNL     1     -16.279  -7.367   6.554  1.00  0.00     0.029 A 
ATOM     52  C   UNL     1     -15.342  -6.447   6.994  1.00  0.00     0.049 A 
ATOM     53  H   UNL     1     -13.276  -6.342   6.571  1.00  0.00     0.167 HD
ATOM     54  C   UNL     1     -14.551  -4.496   8.299  1.00  0.00     0.074 A 
ATOM     55  C   UNL     1     -14.765  -3.353   9.160  1.00  0.00     0.031 C 
ATOM     56  C   UNL     1     -15.540  -5.309   7.854  1.00  0.00     0.037 A 
BRANCH  43  57
ATOM     57  C   UNL     1     -13.670  -9.662   3.925  1.00  0.00     0.064 A 
ATOM     58  C   UNL     1     -13.347 -10.998   4.201  1.00  0.00     0.173 A 
ATOM     59  C   UNL     1     -14.488  -9.399   2.814  1.00  0.00     0.173 A 
ATOM     60  F   UNL     1     -12.564 -11.301   5.247  1.00  0.00    -0.203 F 
ATOM     61  C   UNL     1     -13.822 -12.029   3.395  1.00  0.00     0.198 A 
ATOM     62  C   UNL     1     -14.983 -10.435   2.027  1.00  0.00     0.198 A 
ATOM     63  F   UNL     1     -14.834  -8.138   2.512  1.00  0.00    -0.203 F 
ATOM     64  F   UNL     1     -13.484 -13.298   3.665  1.00  0.00    -0.200 F 
ATOM     65  C   UNL     1     -14.649 -11.748   2.317  1.00  0.00     0.200 A 
ATOM     66  F   UNL     1     -15.796 -10.162   0.997  1.00  0.00    -0.200 F 
ATOM     67  F   UNL     1     -15.127 -12.745   1.559  1.00  0.00    -0.200 F 
ENDBRANCH  43  57
BRANCH  44  68
ATOM     68  C   UNL     1     -10.824  -1.901   9.514  1.00  0.00     0.064 A 
ATOM     69  C   UNL     1     -10.979  -1.841  10.907  1.00  0.00     0.173 A 
ATOM     70  C   UNL     1     -10.338  -0.756   8.865  1.00  0.00     0.173 A 
ATOM     71  F   UNL     1     -11.461  -2.901  11.572  1.00  0.00    -0.203 F 
ATOM     72  C   UNL     1     -10.700  -0.673  11.614  1.00  0.00     0.198 A 
ATOM     73  C   UNL     1     -10.024   0.399   9.578  1.00  0.00     0.198 A 
ATOM     74  F   UNL     1     -10.166  -0.758   7.535  1.00  0.00    -0.203 F 
ATOM     75  F   UNL     1     -10.924  -0.623  12.934  1.00  0.00    -0.200 F 
ATOM     76  C   UNL     1     -10.219   0.445  10.950  1.00  0.00     0.200 A 
ATOM     77  F   UNL     1      -9.544   1.472   8.934  1.00  0.00    -0.200 F 
ATOM     78  F   UNL     1      -9.958   1.570  11.629  1.00  0.00    -0.200 F 
ENDBRANCH  44  68
BRANCH  56  79
ATOM     79  C   UNL     1     -16.940  -5.006   8.302  1.00  0.00     0.064 A 
ATOM     80  C   UNL     1     -17.641  -3.896   7.808  1.00  0.00     0.173 A 
ATOM     81  C   UNL     1     -17.608  -5.864   9.188  1.00  0.00     0.173 A 
ATOM     82  F   UNL     1     -17.041  -3.035   6.972  1.00  0.00    -0.203 F 
ATOM     83  C   UNL     1     -18.954  -3.647   8.200  1.00  0.00     0.198 A 
ATOM     84  C   UNL     1     -18.930  -5.631   9.552  1.00  0.00     0.198 A 
ATOM     85  F   UNL     1     -16.983  -6.943   9.685  1.00  0.00    -0.203 F 
ATOM     86  F   UNL     1     -19.590  -2.558   7.748  1.00  0.00    -0.200 F 
ATOM     87  C   UNL     1     -19.601  -4.520   9.062  1.00  0.00     0.200 A 
ATOM     88  F   UNL     1     -19.559  -6.484  10.372  1.00  0.00    -0.200 F 
ATOM     89  F   UNL     1     -20.869  -4.288   9.425  1.00  0.00    -0.200 F 
ENDBRANCH  56  79
ENDBRANCH  30  31
ENDBRANCH  22  25
ENDBRANCH  20  21
ENDBRANCH  19  20
ENDBRANCH   1  19
TORSDOF 13
