REMARK SMILES COc1ccc(-c2c(C)n[nH]c2C)c(C(=O)NCCCNC(=O)c2ccc(-c3c4nc(c(-c5c(F)c(F)c(F)c(F)c5F)c5ccc([nH]5)c(-c5c(F)c(F)c(F)c(F)c5F)c5nc(c(-c6c(F)c(F)c(F)c(F)c6F)c6ccc3[nH]6)C=C5)C=C4)cc2)c1
REMARK SMILES IDX 19 1 18 2 17 3 15 4 16 5 14 7 3 8 4 9 87 10 5 11 6 12 2 13
REMARK SMILES IDX 1 14 7 15 8 16 12 17 9 18 10 19 11 20 13 21 20 23 21 24
REMARK SMILES IDX 22 25 23 27 24 28 25 29 86 30 26 31 85 32 27 33 28 34 29 35
REMARK SMILES IDX 79 36 30 37 84 38 78 39 80 40 31 41 83 42 77 43 76 44 32 46
REMARK SMILES IDX 64 47 44 48 63 49 45 50 48 51 62 52 81 53 46 54 47 55 61 57
REMARK SMILES IDX 82 58 49 59 33 60 34 61 42 62 35 63 36 64 40 65 43 66 37 67
REMARK SMILES IDX 38 68 41 69 39 70 65 71 66 72 74 73 67 74 68 75 72 76 75 77
REMARK SMILES IDX 69 78 70 79 73 80 71 81 50 82 51 83 59 84 52 85 53 86 57 87
REMARK SMILES IDX 60 88 54 89 55 90 58 91 56 92
REMARK H PARENT 17 6 11 22 21 26 80 45 48 56
REMARK Flexibility Score: inf
ROOT
ATOM      1  C   UNL     1       5.430   1.226   0.966  1.00  0.00     0.042 C 
ENDROOT
BRANCH   1   2
ATOM      2  C   UNL     1       4.449   0.303   1.670  1.00  0.00     0.118 C 
BRANCH   2   3
ATOM      3  N   UNL     1       4.549   0.307   3.124  1.00  0.00    -0.352 N 
ATOM      4  C   UNL     1       3.642   0.517   4.144  1.00  0.00     0.252 C 
ATOM      5  O   UNL     1       4.061   0.354   5.286  1.00  0.00    -0.269 OA
ATOM      6  H   UNL     1       5.459   0.121   3.449  1.00  0.00     0.163 HD
BRANCH   4   7
ATOM      7  C   UNL     1       2.234   0.949   3.885  1.00  0.00     0.051 A 
ATOM      8  C   UNL     1       0.334   0.972   2.352  1.00  0.00     0.119 A 
ATOM      9  C   UNL     1      -0.298   1.920   3.148  1.00  0.00     0.047 A 
ATOM     10  C   UNL     1       1.558   0.447   2.762  1.00  0.00     0.060 A 
ATOM     11  C   UNL     1       0.281   2.316   4.354  1.00  0.00     0.013 A 
ATOM     12  C   UNL     1       1.539   1.822   4.746  1.00  0.00    -0.002 A 
BRANCH   8  13
ATOM     13  O   UNL     1      -0.331   0.619   1.211  1.00  0.00    -0.497 OA
ATOM     14  C   UNL     1       0.442  -0.034   0.207  1.00  0.00     0.278 C 
ENDBRANCH   8  13
BRANCH  12  15
ATOM     15  C   UNL     1       1.938   2.097   6.115  1.00  0.00     0.026 A 
ATOM     16  C   UNL     1       1.444   1.489   7.305  1.00  0.00     0.067 A 
ATOM     17  C   UNL     1       2.837   3.050   6.549  1.00  0.00     0.040 A 
ATOM     18  C   UNL     1       0.438   0.403   7.420  1.00  0.00     0.069 C 
ATOM     19  N   UNL     1       1.993   2.026   8.400  1.00  0.00    -0.180 NA
ATOM     20  N   UNL     1       2.862   2.923   7.913  1.00  0.00    -0.282 N 
ATOM     21  C   UNL     1       3.687   4.032   5.844  1.00  0.00     0.067 C 
ATOM     22  H   UNL     1       3.468   3.447   8.487  1.00  0.00     0.190 HD
ENDBRANCH  12  15
ENDBRANCH   4   7
ENDBRANCH   2   3
ENDBRANCH   1   2
BRANCH   1  23
ATOM     23  C   UNL     1       6.895   0.927   1.233  1.00  0.00     0.118 C 
BRANCH  23  24
ATOM     24  N   UNL     1       7.318  -0.376   0.732  1.00  0.00    -0.352 N 
ATOM     25  C   UNL     1       8.047  -0.724  -0.383  1.00  0.00     0.251 C 
ATOM     26  H   UNL     1       7.032  -1.137   1.286  1.00  0.00     0.163 HD
ATOM     27  O   UNL     1       8.142  -1.899  -0.707  1.00  0.00    -0.269 OA
BRANCH  25  28
ATOM     28  C   UNL     1       8.694   0.319  -1.211  1.00  0.00     0.039 A 
ATOM     29  C   UNL     1       8.650   0.212  -2.606  1.00  0.00     0.014 A 
ATOM     30  C   UNL     1       9.357   1.392  -0.620  1.00  0.00     0.014 A 
ATOM     31  C   UNL     1       9.185   1.231  -3.401  1.00  0.00     0.010 A 
ATOM     32  C   UNL     1       9.793   2.452  -1.404  1.00  0.00     0.010 A 
ATOM     33  C   UNL     1       9.716   2.384  -2.804  1.00  0.00    -0.014 A 
BRANCH  33  34
ATOM     34  C   UNL     1      10.233   3.533  -3.591  1.00  0.00     0.031 A 
ATOM     35  C   UNL     1      11.666   3.956  -3.414  1.00  0.00     0.074 A 
ATOM     36  C   UNL     1       9.399   4.268  -4.351  1.00  0.00     0.049 A 
ATOM     37  N   UNL     1      12.262   5.057  -3.794  1.00  0.00    -0.248 NA
ATOM     38  C   UNL     1      12.532   3.032  -2.664  1.00  0.00     0.031 C 
ATOM     39  C   UNL     1       7.983   3.981  -4.582  1.00  0.00     0.029 A 
ATOM     40  N   UNL     1       9.618   5.433  -5.045  1.00  0.00    -0.354 N 
ATOM     41  C   UNL     1      13.554   4.977  -3.289  1.00  0.00     0.074 A 
ATOM     42  C   UNL     1      13.642   3.743  -2.540  1.00  0.00     0.031 C 
ATOM     43  C   UNL     1       7.462   4.937  -5.368  1.00  0.00     0.029 A 
ATOM     44  C   UNL     1       8.491   5.933  -5.652  1.00  0.00     0.049 A 
ATOM     45  H   UNL     1      10.499   5.869  -5.102  1.00  0.00     0.167 HD
ATOM     46  C   UNL     1      14.579   5.846  -3.452  1.00  0.00     0.037 A 
ATOM     47  C   UNL     1       8.305   7.078  -6.337  1.00  0.00     0.037 A 
ATOM     48  C   UNL     1      14.497   7.046  -4.241  1.00  0.00     0.049 A 
ATOM     49  C   UNL     1       9.463   8.024  -6.515  1.00  0.00     0.074 A 
ATOM     50  C   UNL     1      15.492   7.966  -4.520  1.00  0.00     0.029 A 
ATOM     51  N   UNL     1      13.352   7.484  -4.890  1.00  0.00    -0.354 N 
ATOM     52  N   UNL     1      10.689   7.924  -6.064  1.00  0.00    -0.248 NA
ATOM     53  C   UNL     1       9.212   9.241  -7.300  1.00  0.00     0.031 C 
ATOM     54  C   UNL     1      14.940   8.981  -5.307  1.00  0.00     0.029 A 
ATOM     55  C   UNL     1      13.614   8.666  -5.561  1.00  0.00     0.049 A 
ATOM     56  H   UNL     1      12.482   7.024  -4.874  1.00  0.00     0.167 HD
ATOM     57  C   UNL     1      11.365   9.038  -6.542  1.00  0.00     0.074 A 
ATOM     58  C   UNL     1      10.412   9.803  -7.319  1.00  0.00     0.031 C 
ATOM     59  C   UNL     1      12.660   9.393  -6.358  1.00  0.00     0.037 A 
BRANCH  46  60
ATOM     60  C   UNL     1      15.875   5.530  -2.764  1.00  0.00     0.064 A 
ATOM     61  C   UNL     1      16.679   4.451  -3.163  1.00  0.00     0.173 A 
ATOM     62  C   UNL     1      16.333   6.331  -1.706  1.00  0.00     0.173 A 
ATOM     63  F   UNL     1      16.281   3.646  -4.160  1.00  0.00    -0.203 F 
ATOM     64  C   UNL     1      17.872   4.164  -2.506  1.00  0.00     0.198 A 
ATOM     65  C   UNL     1      17.544   6.062  -1.074  1.00  0.00     0.198 A 
ATOM     66  F   UNL     1      15.608   7.379  -1.288  1.00  0.00    -0.203 F 
ATOM     67  F   UNL     1      18.593   3.093  -2.868  1.00  0.00    -0.200 F 
ATOM     68  C   UNL     1      18.308   4.973  -1.468  1.00  0.00     0.200 A 
ATOM     69  F   UNL     1      17.970   6.853  -0.080  1.00  0.00    -0.200 F 
ATOM     70  F   UNL     1      19.460   4.699  -0.841  1.00  0.00    -0.200 F 
ENDBRANCH  46  60
BRANCH  47  71
ATOM     71  C   UNL     1       6.974   7.386  -6.923  1.00  0.00     0.064 A 
ATOM     72  C   UNL     1       6.782   7.360  -8.312  1.00  0.00     0.173 A 
ATOM     73  C   UNL     1       5.873   7.712  -6.119  1.00  0.00     0.173 A 
ATOM     74  F   UNL     1       7.810   7.074  -9.124  1.00  0.00    -0.203 F 
ATOM     75  C   UNL     1       5.545   7.669  -8.875  1.00  0.00     0.198 A 
ATOM     76  C   UNL     1       4.629   7.993  -6.681  1.00  0.00     0.198 A 
ATOM     77  F   UNL     1       6.001   7.744  -4.784  1.00  0.00    -0.203 F 
ATOM     78  F   UNL     1       5.402   7.681 -10.207  1.00  0.00    -0.200 F 
ATOM     79  C   UNL     1       4.468   7.980  -8.059  1.00  0.00     0.200 A 
ATOM     80  F   UNL     1       3.587   8.278  -5.889  1.00  0.00    -0.200 F 
ATOM     81  F   UNL     1       3.278   8.273  -8.600  1.00  0.00    -0.200 F 
ENDBRANCH  47  71
BRANCH  59  82
ATOM     82  C   UNL     1      13.150  10.623  -7.063  1.00  0.00     0.064 A 
ATOM     83  C   UNL     1      12.803  11.911  -6.633  1.00  0.00     0.173 A 
ATOM     84  C   UNL     1      14.044  10.505  -8.139  1.00  0.00     0.173 A 
ATOM     85  F   UNL     1      11.941  12.074  -5.618  1.00  0.00    -0.203 F 
ATOM     86  C   UNL     1      13.323  13.038  -7.264  1.00  0.00     0.198 A 
ATOM     87  C   UNL     1      14.583  11.633  -8.749  1.00  0.00     0.198 A 
ATOM     88  F   UNL     1      14.412   9.293  -8.582  1.00  0.00    -0.203 F 
ATOM     89  F   UNL     1      12.954  14.260  -6.858  1.00  0.00    -0.200 F 
ATOM     90  C   UNL     1      14.220  12.898  -8.313  1.00  0.00     0.200 A 
ATOM     91  F   UNL     1      15.461  11.495  -9.753  1.00  0.00    -0.200 F 
ATOM     92  F   UNL     1      14.733  13.984  -8.907  1.00  0.00    -0.200 F 
ENDBRANCH  59  82
ENDBRANCH  33  34
ENDBRANCH  25  28
ENDBRANCH  23  24
ENDBRANCH   1  23
TORSDOF 12
