REMARK SMILES COc1ccc(C(=O)N[C@@H](C(=O)NCCCNC(=O)c2ccc(-c3c4nc(c(-c5c(F)c(F)c(F)c(F)c5F)c5ccc([nH]5)c(-c5c(F)c(F)c(F)c(F)c5F)c5nc(c(-c6c(F)c(F)c(F)c(F)c6F)c6ccc3[nH]6)C=C5)C=C4)cc2)C(C)C)cc1O
REMARK SMILES IDX 14 1 13 2 11 3 12 4 10 6 9 7 7 8 8 9 6 11 3 12 4 13 87 14
REMARK SMILES IDX 5 15 86 16 2 17 1 18 88 19 83 21 84 22 85 23 15 24 16 25
REMARK SMILES IDX 17 26 18 27 19 29 20 30 21 31 82 32 22 33 81 34 23 35 24 36
REMARK SMILES IDX 25 37 75 38 26 39 80 40 74 41 76 42 27 43 79 44 73 45 72 46
REMARK SMILES IDX 28 48 60 49 40 50 59 51 41 52 44 53 58 54 77 55 42 56 43 57
REMARK SMILES IDX 57 59 78 60 45 61 29 62 30 63 38 64 31 65 32 66 36 67 39 68
REMARK SMILES IDX 33 69 34 70 37 71 35 72 61 73 62 74 70 75 63 76 64 77 68 78
REMARK SMILES IDX 71 79 65 80 66 81 69 82 67 83 46 84 47 85 55 86 48 87 49 88
REMARK SMILES IDX 53 89 56 90 50 91 51 92 54 93 52 94
REMARK H PARENT 13 5 9 10 88 20 17 28 76 47 44 58
REMARK Flexibility Score: inf
ROOT
ATOM      1  C   UNL     1      -1.472  -0.352   6.196  1.00  0.00     0.117 C 
ENDROOT
BRANCH   1   2
ATOM      2  N   UNL     1      -2.586  -1.157   6.659  1.00  0.00    -0.354 N 
ATOM      3  C   UNL     1      -3.802  -1.360   6.064  1.00  0.00     0.242 C 
ATOM      4  O   UNL     1      -4.645  -2.004   6.689  1.00  0.00    -0.273 OA
ATOM      5  H   UNL     1      -2.449  -1.620   7.516  1.00  0.00     0.163 HD
BRANCH   3   6
ATOM      6  C   UNL     1      -4.045  -0.801   4.639  1.00  0.00     0.174 C 
BRANCH   6   7
ATOM      7  N   UNL     1      -4.151   0.660   4.712  1.00  0.00    -0.340 N 
ATOM      8  C   UNL     1      -3.537   1.695   4.053  1.00  0.00     0.252 C 
ATOM      9  O   UNL     1      -3.866   2.836   4.383  1.00  0.00    -0.269 OA
ATOM     10  H   UNL     1      -4.807   0.966   5.379  1.00  0.00     0.164 HD
BRANCH   8  11
ATOM     11  C   UNL     1      -2.463   1.532   3.025  1.00  0.00     0.043 A 
ATOM     12  C   UNL     1      -0.304   1.383   1.182  1.00  0.00     0.160 A 
ATOM     13  C   UNL     1      -0.561   2.559   1.888  1.00  0.00     0.051 A 
ATOM     14  C   UNL     1      -1.173   0.309   1.363  1.00  0.00     0.158 A 
ATOM     15  C   UNL     1      -1.620   2.632   2.804  1.00  0.00     0.018 A 
ATOM     16  C   UNL     1      -2.248   0.390   2.256  1.00  0.00     0.064 A 
BRANCH  12  17
ATOM     17  O   UNL     1       0.761   1.454   0.331  1.00  0.00    -0.493 OA
ATOM     18  C   UNL     1       1.482   0.257   0.067  1.00  0.00     0.278 C 
ENDBRANCH  12  17
BRANCH  14  19
ATOM     19  O   UNL     1      -1.091  -0.863   0.666  1.00  0.00    -0.504 OA
ATOM     20  H   UNL     1      -0.398  -0.993   0.049  1.00  0.00     0.293 HD
ENDBRANCH  14  19
ENDBRANCH   8  11
ENDBRANCH   6   7
BRANCH   6  21
ATOM     21  C   UNL     1      -5.313  -1.422   3.994  1.00  0.00     0.015 C 
ATOM     22  C   UNL     1      -5.874  -0.613   2.817  1.00  0.00     0.010 C 
ATOM     23  C   UNL     1      -5.015  -2.849   3.519  1.00  0.00     0.010 C 
ENDBRANCH   6  21
ENDBRANCH   3   6
ENDBRANCH   1   2
BRANCH   1  24
ATOM     24  C   UNL     1      -1.341   0.933   7.006  1.00  0.00     0.042 C 
BRANCH  24  25
ATOM     25  C   UNL     1      -0.780   0.697   8.404  1.00  0.00     0.118 C 
BRANCH  25  26
ATOM     26  N   UNL     1       0.602   0.239   8.374  1.00  0.00    -0.352 N 
ATOM     27  C   UNL     1       1.664   0.600   9.157  1.00  0.00     0.251 C 
ATOM     28  H   UNL     1       0.803  -0.434   7.684  1.00  0.00     0.163 HD
ATOM     29  O   UNL     1       2.794   0.207   8.862  1.00  0.00    -0.269 OA
BRANCH  27  30
ATOM     30  C   UNL     1       1.477   1.470  10.337  1.00  0.00     0.039 A 
ATOM     31  C   UNL     1       2.450   2.436  10.609  1.00  0.00     0.014 A 
ATOM     32  C   UNL     1       0.386   1.316  11.196  1.00  0.00     0.014 A 
ATOM     33  C   UNL     1       2.312   3.267  11.721  1.00  0.00     0.010 A 
ATOM     34  C   UNL     1       0.210   2.195  12.262  1.00  0.00     0.010 A 
ATOM     35  C   UNL     1       1.180   3.166  12.545  1.00  0.00    -0.014 A 
BRANCH  35  36
ATOM     36  C   UNL     1       1.018   4.061  13.716  1.00  0.00     0.031 A 
ATOM     37  C   UNL     1       1.038   3.498  15.110  1.00  0.00     0.074 A 
ATOM     38  C   UNL     1       0.819   5.378  13.520  1.00  0.00     0.049 A 
ATOM     39  N   UNL     1       0.927   4.121  16.256  1.00  0.00    -0.248 NA
ATOM     40  C   UNL     1       1.175   2.038  15.234  1.00  0.00     0.031 C 
ATOM     41  C   UNL     1       0.723   6.031  12.214  1.00  0.00     0.029 A 
ATOM     42  N   UNL     1       0.665   6.404  14.418  1.00  0.00    -0.354 N 
ATOM     43  C   UNL     1       0.961   3.132  17.230  1.00  0.00     0.074 A 
ATOM     44  C   UNL     1       1.050   1.863  16.541  1.00  0.00     0.031 C 
ATOM     45  C   UNL     1       0.567   7.352  12.395  1.00  0.00     0.029 A 
ATOM     46  C   UNL     1       0.523   7.635  13.826  1.00  0.00     0.049 A 
ATOM     47  H   UNL     1       0.656   6.270  15.393  1.00  0.00     0.167 HD
ATOM     48  C   UNL     1       0.942   3.271  18.577  1.00  0.00     0.037 A 
ATOM     49  C   UNL     1       0.386   8.854  14.379  1.00  0.00     0.037 A 
ATOM     50  C   UNL     1       0.892   4.539  19.256  1.00  0.00     0.049 A 
ATOM     51  C   UNL     1       0.390   8.983  15.878  1.00  0.00     0.074 A 
ATOM     52  C   UNL     1       0.957   4.795  20.614  1.00  0.00     0.029 A 
ATOM     53  N   UNL     1       0.762   5.767  18.623  1.00  0.00    -0.354 N 
ATOM     54  N   UNL     1       0.517   8.050  16.789  1.00  0.00    -0.248 NA
ATOM     55  C   UNL     1       0.241  10.339  16.424  1.00  0.00     0.031 C 
ATOM     56  C   UNL     1       0.819   6.174  20.806  1.00  0.00     0.029 A 
ATOM     57  C   UNL     1       0.719   6.782  19.565  1.00  0.00     0.049 A 
ATOM     58  H   UNL     1       0.709   5.897  17.648  1.00  0.00     0.167 HD
ATOM     59  C   UNL     1       0.498   8.705  18.012  1.00  0.00     0.074 A 
ATOM     60  C   UNL     1       0.356  10.118  17.726  1.00  0.00     0.031 C 
ATOM     61  C   UNL     1       0.591   8.184  19.260  1.00  0.00     0.037 A 
BRANCH  48  62
ATOM     62  C   UNL     1       0.977   2.020  19.406  1.00  0.00     0.064 A 
ATOM     63  C   UNL     1       2.124   1.215  19.481  1.00  0.00     0.173 A 
ATOM     64  C   UNL     1      -0.143   1.635  20.159  1.00  0.00     0.173 A 
ATOM     65  F   UNL     1       3.219   1.532  18.772  1.00  0.00    -0.203 F 
ATOM     66  C   UNL     1       2.138   0.055  20.251  1.00  0.00     0.198 A 
ATOM     67  C   UNL     1      -0.115   0.491  20.953  1.00  0.00     0.198 A 
ATOM     68  F   UNL     1      -1.264   2.372  20.129  1.00  0.00    -0.203 F 
ATOM     69  F   UNL     1       3.227  -0.726  20.265  1.00  0.00    -0.200 F 
ATOM     70  C   UNL     1       1.021  -0.302  20.991  1.00  0.00     0.200 A 
ATOM     71  F   UNL     1      -1.191   0.154  21.677  1.00  0.00    -0.200 F 
ATOM     72  F   UNL     1       1.037  -1.416  21.736  1.00  0.00    -0.200 F 
ENDBRANCH  48  62
BRANCH  49  73
ATOM     73  C   UNL     1       0.292  10.055  13.510  1.00  0.00     0.064 A 
ATOM     74  C   UNL     1       1.351  10.971  13.440  1.00  0.00     0.173 A 
ATOM     75  C   UNL     1      -0.845  10.309  12.730  1.00  0.00     0.173 A 
ATOM     76  F   UNL     1       2.451  10.779  14.182  1.00  0.00    -0.203 F 
ATOM     77  C   UNL     1       1.269  12.105  12.636  1.00  0.00     0.198 A 
ATOM     78  C   UNL     1      -0.915  11.431  11.907  1.00  0.00     0.198 A 
ATOM     79  F   UNL     1      -1.883   9.459  12.758  1.00  0.00    -0.203 F 
ATOM     80  F   UNL     1       2.279  12.986  12.619  1.00  0.00    -0.200 F 
ATOM     81  C   UNL     1       0.138  12.332  11.866  1.00  0.00     0.200 A 
ATOM     82  F   UNL     1      -2.004  11.639  11.154  1.00  0.00    -0.200 F 
ATOM     83  F   UNL     1       0.062  13.421  11.089  1.00  0.00    -0.200 F 
ENDBRANCH  49  73
BRANCH  61  84
ATOM     84  C   UNL     1       0.585   9.149  20.409  1.00  0.00     0.064 A 
ATOM     85  C   UNL     1      -0.582   9.823  20.799  1.00  0.00     0.173 A 
ATOM     86  C   UNL     1       1.754   9.370  21.153  1.00  0.00     0.173 A 
ATOM     87  F   UNL     1      -1.720   9.656  20.110  1.00  0.00    -0.203 F 
ATOM     88  C   UNL     1      -0.571  10.703  21.878  1.00  0.00     0.198 A 
ATOM     89  C   UNL     1       1.753  10.228  22.249  1.00  0.00     0.198 A 
ATOM     90  F   UNL     1       2.894   8.745  20.825  1.00  0.00    -0.203 F 
ATOM     91  F   UNL     1      -1.685  11.372  22.205  1.00  0.00    -0.200 F 
ATOM     92  C   UNL     1       0.593  10.899  22.606  1.00  0.00     0.200 A 
ATOM     93  F   UNL     1       2.875  10.406  22.959  1.00  0.00    -0.200 F 
ATOM     94  F   UNL     1       0.599  11.741  23.648  1.00  0.00    -0.200 F 
ENDBRANCH  61  84
ENDBRANCH  35  36
ENDBRANCH  27  30
ENDBRANCH  25  26
ENDBRANCH  24  25
ENDBRANCH   1  24
TORSDOF 15
