REMARK SMILES Cc1cccc2nc([C@@H]3CCCC[C@@H]3C(=O)NCCCNC(=O)c3ccc(-c4c5nc(c(-c6c(F)c(F)c(F)c(F)c6F)c6ccc([nH]6)c(-c6c(F)c(F)c(F)c(F)c6F)c6nc(c(-c7c(F)c(F)c(F)c(F)c7F)c7ccc4[nH]7)C=C6)C=C5)cc3)oc12
REMARK SMILES IDX 19 1 18 2 17 3 15 4 16 5 14 7 9 8 10 9 11 10 13 11 12 12
REMARK SMILES IDX 8 13 1 14 2 15 3 16 88 17 4 18 6 19 87 20 5 21 7 22 20 23
REMARK SMILES IDX 21 24 22 25 23 27 24 28 25 29 86 30 26 31 85 32 27 33 28 34
REMARK SMILES IDX 29 35 79 36 30 37 84 38 78 39 80 40 31 41 83 42 77 43 76 44
REMARK SMILES IDX 32 46 64 47 44 48 63 49 45 50 48 51 62 52 81 53 46 54 47 55
REMARK SMILES IDX 61 57 82 58 49 59 33 60 34 61 42 62 35 63 36 64 40 65 43 66
REMARK SMILES IDX 37 67 38 68 41 69 39 70 65 71 66 72 74 73 67 74 68 75 72 76
REMARK SMILES IDX 75 77 69 78 70 79 73 80 71 81 50 82 51 83 59 84 52 85 53 86
REMARK SMILES IDX 57 87 60 88 54 89 55 90 58 91 56 92
REMARK H PARENT 17 6 21 26 80 45 48 56
REMARK Flexibility Score: inf
ROOT
ATOM      1  C   UNL     1       2.943   8.932   2.684  1.00  0.00     0.042 C 
ENDROOT
BRANCH   1   2
ATOM      2  C   UNL     1       2.396   7.734   1.914  1.00  0.00     0.117 C 
BRANCH   2   3
ATOM      3  N   UNL     1       3.055   7.505   0.652  1.00  0.00    -0.356 N 
ATOM      4  C   UNL     1       3.854   6.492   0.235  1.00  0.00     0.223 C 
ATOM      5  O   UNL     1       4.180   6.524  -0.960  1.00  0.00    -0.275 OA
ATOM      6  H   UNL     1       2.898   8.204  -0.022  1.00  0.00     0.163 HD
BRANCH   4   7
ATOM      7  C   UNL     1       4.449   5.397   1.140  1.00  0.00     0.091 C 
ATOM      8  C   UNL     1       3.554   4.409   1.905  1.00  0.00     0.088 C 
ATOM      9  C   UNL     1       3.174   4.761   3.348  1.00  0.00     0.014 C 
ATOM     10  C   UNL     1       4.224   5.547   4.141  1.00  0.00     0.001 C 
ATOM     11  C   UNL     1       5.610   5.894   1.997  1.00  0.00     0.014 C 
ATOM     12  C   UNL     1       5.210   6.414   3.364  1.00  0.00     0.001 C 
BRANCH   8  13
ATOM     13  C   UNL     1       2.375   3.973   1.097  1.00  0.00     0.199 A 
ATOM     14  C   UNL     1       1.095  -0.045   0.033  1.00  0.00     0.048 C 
ATOM     15  C   UNL     1       0.642   1.306  -0.412  1.00  0.00    -0.006 A 
ATOM     16  C   UNL     1      -0.391   1.480  -1.352  1.00  0.00     0.007 A 
ATOM     17  C   UNL     1       1.179   2.494   0.085  1.00  0.00     0.157 A 
ATOM     18  C   UNL     1      -0.821   2.753  -1.753  1.00  0.00     0.003 A 
ATOM     19  C   UNL     1       0.770   3.769  -0.267  1.00  0.00     0.110 A 
ATOM     20  O   UNL     1       2.204   2.620   0.977  1.00  0.00    -0.440 OA
ATOM     21  C   UNL     1      -0.252   3.916  -1.212  1.00  0.00     0.032 A 
ATOM     22  N   UNL     1       1.509   4.702   0.420  1.00  0.00    -0.213 NA
ENDBRANCH   8  13
ENDBRANCH   4   7
ENDBRANCH   2   3
ENDBRANCH   1   2
BRANCH   1  23
ATOM     23  C   UNL     1       2.138  10.173   2.413  1.00  0.00     0.118 C 
BRANCH  23  24
ATOM     24  N   UNL     1       0.804  10.132   3.018  1.00  0.00    -0.352 N 
ATOM     25  C   UNL     1      -0.129  11.148   3.019  1.00  0.00     0.251 C 
ATOM     26  H   UNL     1       0.547   9.295   3.469  1.00  0.00     0.163 HD
ATOM     27  O   UNL     1      -1.072  11.160   3.807  1.00  0.00    -0.269 OA
BRANCH  25  28
ATOM     28  C   UNL     1       0.052  12.230   2.042  1.00  0.00     0.039 A 
ATOM     29  C   UNL     1      -0.074  13.571   2.397  1.00  0.00     0.014 A 
ATOM     30  C   UNL     1       0.470  11.859   0.765  1.00  0.00     0.014 A 
ATOM     31  C   UNL     1       0.304  14.530   1.465  1.00  0.00     0.010 A 
ATOM     32  C   UNL     1       1.058  12.785  -0.049  1.00  0.00     0.010 A 
ATOM     33  C   UNL     1       0.897  14.124   0.253  1.00  0.00    -0.014 A 
BRANCH  33  34
ATOM     34  C   UNL     1       1.404  15.097  -0.698  1.00  0.00     0.031 A 
ATOM     35  C   UNL     1       2.292  16.122  -0.107  1.00  0.00     0.074 A 
ATOM     36  C   UNL     1       1.161  15.046  -2.024  1.00  0.00     0.049 A 
ATOM     37  N   UNL     1       1.962  17.337   0.169  1.00  0.00    -0.248 NA
ATOM     38  C   UNL     1       3.621  15.735   0.383  1.00  0.00     0.031 C 
ATOM     39  C   UNL     1       0.537  13.991  -2.830  1.00  0.00     0.029 A 
ATOM     40  N   UNL     1       1.477  15.981  -2.958  1.00  0.00    -0.354 N 
ATOM     41  C   UNL     1       3.091  17.938   0.706  1.00  0.00     0.074 A 
ATOM     42  C   UNL     1       4.030  16.872   0.955  1.00  0.00     0.031 C 
ATOM     43  C   UNL     1       0.707  14.257  -4.146  1.00  0.00     0.029 A 
ATOM     44  C   UNL     1       1.283  15.582  -4.273  1.00  0.00     0.049 A 
ATOM     45  H   UNL     1       1.818  16.873  -2.720  1.00  0.00     0.167 HD
ATOM     46  C   UNL     1       3.209  19.294   0.695  1.00  0.00     0.037 A 
ATOM     47  C   UNL     1       1.561  16.309  -5.384  1.00  0.00     0.037 A 
ATOM     48  C   UNL     1       1.932  19.916   0.434  1.00  0.00     0.049 A 
ATOM     49  C   UNL     1       1.557  17.736  -4.970  1.00  0.00     0.074 A 
ATOM     50  C   UNL     1       0.714  19.928   1.088  1.00  0.00     0.029 A 
ATOM     51  N   UNL     1       1.664  20.316  -0.854  1.00  0.00    -0.354 N 
ATOM     52  N   UNL     1       0.481  18.368  -4.588  1.00  0.00    -0.248 NA
ATOM     53  C   UNL     1       2.816  18.304  -4.510  1.00  0.00     0.031 C 
ATOM     54  C   UNL     1      -0.261  19.843   0.050  1.00  0.00     0.029 A 
ATOM     55  C   UNL     1       0.409  19.866  -1.174  1.00  0.00     0.049 A 
ATOM     56  H   UNL     1       2.264  20.832  -1.440  1.00  0.00     0.167 HD
ATOM     57  C   UNL     1       0.888  19.127  -3.500  1.00  0.00     0.074 A 
ATOM     58  C   UNL     1       2.350  19.099  -3.542  1.00  0.00     0.031 C 
ATOM     59  C   UNL     1       0.017  19.465  -2.506  1.00  0.00     0.037 A 
BRANCH  46  60
ATOM     60  C   UNL     1       4.505  20.045   0.544  1.00  0.00     0.064 A 
ATOM     61  C   UNL     1       4.489  21.452   0.637  1.00  0.00     0.173 A 
ATOM     62  C   UNL     1       5.681  19.483   0.005  1.00  0.00     0.173 A 
ATOM     63  F   UNL     1       3.418  22.093   1.131  1.00  0.00    -0.203 F 
ATOM     64  C   UNL     1       5.528  22.236   0.134  1.00  0.00     0.198 A 
ATOM     65  C   UNL     1       6.738  20.268  -0.451  1.00  0.00     0.198 A 
ATOM     66  F   UNL     1       5.811  18.170  -0.211  1.00  0.00    -0.203 F 
ATOM     67  F   UNL     1       5.407  23.571   0.120  1.00  0.00    -0.200 F 
ATOM     68  C   UNL     1       6.647  21.644  -0.419  1.00  0.00     0.200 A 
ATOM     69  F   UNL     1       7.808  19.676  -1.000  1.00  0.00    -0.200 F 
ATOM     70  F   UNL     1       7.614  22.392  -0.966  1.00  0.00    -0.200 F 
ENDBRANCH  46  60
BRANCH  47  71
ATOM     71  C   UNL     1       2.197  15.843  -6.641  1.00  0.00     0.064 A 
ATOM     72  C   UNL     1       2.256  16.679  -7.769  1.00  0.00     0.173 A 
ATOM     73  C   UNL     1       3.021  14.701  -6.666  1.00  0.00     0.173 A 
ATOM     74  F   UNL     1       1.533  17.808  -7.809  1.00  0.00    -0.203 F 
ATOM     75  C   UNL     1       3.120  16.413  -8.837  1.00  0.00     0.198 A 
ATOM     76  C   UNL     1       3.882  14.436  -7.734  1.00  0.00     0.198 A 
ATOM     77  F   UNL     1       3.083  13.874  -5.613  1.00  0.00    -0.203 F 
ATOM     78  F   UNL     1       3.201  17.273  -9.862  1.00  0.00    -0.200 F 
ATOM     79  C   UNL     1       3.943  15.300  -8.811  1.00  0.00     0.200 A 
ATOM     80  F   UNL     1       4.700  13.375  -7.680  1.00  0.00    -0.200 F 
ATOM     81  F   UNL     1       4.823  15.083  -9.799  1.00  0.00    -0.200 F 
ENDBRANCH  47  71
BRANCH  59  82
ATOM     82  C   UNL     1      -1.449  19.199  -2.722  1.00  0.00     0.064 A 
ATOM     83  C   UNL     1      -2.007  17.917  -2.875  1.00  0.00     0.173 A 
ATOM     84  C   UNL     1      -2.339  20.274  -2.593  1.00  0.00     0.173 A 
ATOM     85  F   UNL     1      -1.232  16.827  -2.919  1.00  0.00    -0.203 F 
ATOM     86  C   UNL     1      -3.389  17.729  -2.920  1.00  0.00     0.198 A 
ATOM     87  C   UNL     1      -3.717  20.079  -2.602  1.00  0.00     0.198 A 
ATOM     88  F   UNL     1      -1.867  21.515  -2.396  1.00  0.00    -0.203 F 
ATOM     89  F   UNL     1      -3.896  16.495  -3.065  1.00  0.00    -0.200 F 
ATOM     90  C   UNL     1      -4.242  18.809  -2.772  1.00  0.00     0.200 A 
ATOM     91  F   UNL     1      -4.537  21.122  -2.410  1.00  0.00    -0.200 F 
ATOM     92  F   UNL     1      -5.570  18.623  -2.763  1.00  0.00    -0.200 F 
ENDBRANCH  59  82
ENDBRANCH  33  34
ENDBRANCH  25  28
ENDBRANCH  23  24
ENDBRANCH   1  23
TORSDOF 11
