REMARK SMILES O=C(Cc1cccc(NS(=O)(=O)c2cccc(Cl)c2)c1)NCCCNC(=O)c1ccc(-c2c3nc(c(-c4c(F)c(F)c(F)c(F)c4F)c4ccc([nH]4)c(-c4c(F)c(F)c(F)c(F)c4F)c4nc(c(-c5c(F)c(F)c(F)c(F)c5F)c5ccc2[nH]5)C=C4)C=C3)cc1
REMARK SMILES IDX 22 1 21 2 1 3 2 4 3 6 4 7 5 8 20 9 6 10 8 11 7 12 9 13 10 15
REMARK SMILES IDX 11 16 12 17 13 18 14 19 19 20 15 21 17 22 16 23 18 24 23 25
REMARK SMILES IDX 24 26 25 27 26 28 27 30 28 31 29 32 90 33 30 34 89 35 31 36
REMARK SMILES IDX 32 37 33 38 83 39 34 40 88 41 82 42 84 43 35 44 87 45 81 46
REMARK SMILES IDX 80 47 36 49 68 50 48 51 67 52 49 53 52 54 66 55 85 56 50 57
REMARK SMILES IDX 51 58 65 60 86 61 53 62 37 63 38 64 46 65 39 66 40 67 44 68
REMARK SMILES IDX 47 69 41 70 42 71 45 72 43 73 69 74 70 75 78 76 71 77 72 78
REMARK SMILES IDX 76 79 79 80 73 81 74 82 77 83 75 84 54 85 55 86 63 87 56 88
REMARK SMILES IDX 57 89 61 90 64 91 58 92 59 93 62 94 60 95
REMARK H PARENT 21 5 9 14 25 29 84 48 52 59
REMARK Flexibility Score: inf
ROOT
ATOM      1  C   UNL     1       2.204   0.480  -2.288  1.00  0.00     0.117 C 
ENDROOT
BRANCH   1   2
ATOM      2  N   UNL     1       2.896   0.197  -1.048  1.00  0.00    -0.356 N 
ATOM      3  O   UNL     1       1.092   0.480   0.347  1.00  0.00    -0.275 OA
ATOM      4  C   UNL     1       2.263   0.155   0.179  1.00  0.00     0.224 C 
ATOM      5  H   UNL     1       3.865   0.027  -1.081  1.00  0.00     0.163 HD
BRANCH   4   6
ATOM      6  C   UNL     1       3.153  -0.308   1.333  1.00  0.00     0.135 C 
BRANCH   6   7
ATOM      7  C   UNL     1       3.917  -1.572   0.991  1.00  0.00    -0.037 A 
ATOM      8  C   UNL     1       3.217  -2.715   0.587  1.00  0.00     0.004 A 
ATOM      9  C   UNL     1       5.320  -1.584   0.953  1.00  0.00     0.031 A 
ATOM     10  C   UNL     1       3.900  -3.777   0.003  1.00  0.00     0.002 A 
ATOM     11  C   UNL     1       6.016  -2.693   0.450  1.00  0.00     0.049 A 
ATOM     12  C   UNL     1       5.289  -3.727  -0.133  1.00  0.00     0.027 A 
BRANCH  11  13
ATOM     13  N   UNL     1       7.439  -2.597   0.349  1.00  0.00    -0.280 N 
ATOM     14  H   UNL     1       7.814  -1.749   0.020  1.00  0.00     0.180 HD
BRANCH  13  15
ATOM     15  S   UNL     1       8.531  -3.832   0.751  1.00  0.00     0.261 S 
ATOM     16  O   UNL     1       9.418  -3.940  -0.388  1.00  0.00    -0.201 OA
ATOM     17  O   UNL     1       9.059  -3.458   2.049  1.00  0.00    -0.201 OA
BRANCH  15  18
ATOM     18  C   UNL     1       7.747  -5.406   0.969  1.00  0.00     0.089 A 
ATOM     19  C   UNL     1       6.660  -5.573   1.833  1.00  0.00     0.022 A 
ATOM     20  C   UNL     1       8.275  -6.509   0.284  1.00  0.00     0.042 A 
ATOM     21  C   UNL     1       6.019  -6.812   1.904  1.00  0.00     0.003 A 
ATOM     22  C   UNL     1       7.665  -7.754   0.410  1.00  0.00     0.042 A 
ATOM     23  C   UNL     1       6.520  -7.902   1.189  1.00  0.00     0.020 A 
ATOM     24  Cl  UNL     1       8.329  -9.117  -0.402  1.00  0.00    -0.084 Cl
ENDBRANCH  15  18
ENDBRANCH  13  15
ENDBRANCH  11  13
ENDBRANCH   6   7
ENDBRANCH   4   6
ENDBRANCH   1   2
BRANCH   1  25
ATOM     25  C   UNL     1       2.507   1.873  -2.823  1.00  0.00     0.042 C 
BRANCH  25  26
ATOM     26  C   UNL     1       3.983   2.131  -3.113  1.00  0.00     0.118 C 
BRANCH  26  27
ATOM     27  N   UNL     1       4.514   1.315  -4.197  1.00  0.00    -0.352 N 
ATOM     28  C   UNL     1       5.179   1.686  -5.341  1.00  0.00     0.251 C 
ATOM     29  H   UNL     1       4.374   0.346  -4.093  1.00  0.00     0.163 HD
ATOM     30  O   UNL     1       5.429   0.843  -6.198  1.00  0.00    -0.269 OA
BRANCH  28  31
ATOM     31  C   UNL     1       5.571   3.096  -5.568  1.00  0.00     0.039 A 
ATOM     32  C   UNL     1       5.391   3.645  -6.842  1.00  0.00     0.014 A 
ATOM     33  C   UNL     1       6.128   3.873  -4.550  1.00  0.00     0.014 A 
ATOM     34  C   UNL     1       5.699   4.989  -7.073  1.00  0.00     0.010 A 
ATOM     35  C   UNL     1       6.362   5.231  -4.760  1.00  0.00     0.010 A 
ATOM     36  C   UNL     1       6.149   5.805  -6.023  1.00  0.00    -0.014 A 
BRANCH  36  37
ATOM     37  C   UNL     1       6.398   7.257  -6.223  1.00  0.00     0.031 A 
ATOM     38  C   UNL     1       7.780   7.823  -6.042  1.00  0.00     0.074 A 
ATOM     39  C   UNL     1       5.367   8.080  -6.501  1.00  0.00     0.049 A 
ATOM     40  N   UNL     1       8.178   9.070  -6.085  1.00  0.00    -0.248 NA
ATOM     41  C   UNL     1       8.853   6.861  -5.749  1.00  0.00     0.031 C 
ATOM     42  C   UNL     1       3.974   7.665  -6.664  1.00  0.00     0.029 A 
ATOM     43  N   UNL     1       5.330   9.442  -6.681  1.00  0.00    -0.354 N 
ATOM     44  C   UNL     1       9.539   9.043  -5.811  1.00  0.00     0.074 A 
ATOM     45  C   UNL     1       9.889   7.663  -5.550  1.00  0.00     0.031 C 
ATOM     46  C   UNL     1       3.222   8.743  -6.939  1.00  0.00     0.029 A 
ATOM     47  C   UNL     1       4.070   9.931  -6.926  1.00  0.00     0.049 A 
ATOM     48  H   UNL     1       6.131  10.013  -6.639  1.00  0.00     0.167 HD
ATOM     49  C   UNL     1      10.422  10.071  -5.799  1.00  0.00     0.037 A 
ATOM     50  C   UNL     1       3.643  11.196  -7.106  1.00  0.00     0.037 A 
ATOM     51  C   UNL     1      10.075  11.441  -6.079  1.00  0.00     0.049 A 
ATOM     52  C   UNL     1       4.640  12.323  -7.064  1.00  0.00     0.074 A 
ATOM     53  C   UNL     1      10.908  12.544  -6.146  1.00  0.00     0.029 A 
ATOM     54  N   UNL     1       8.789  11.895  -6.332  1.00  0.00    -0.354 N 
ATOM     55  N   UNL     1       5.935  12.277  -6.867  1.00  0.00    -0.248 NA
ATOM     56  C   UNL     1       4.115  13.680  -7.274  1.00  0.00     0.031 C 
ATOM     57  C   UNL     1      10.119  13.675  -6.384  1.00  0.00     0.029 A 
ATOM     58  C   UNL     1       8.803  13.268  -6.529  1.00  0.00     0.049 A 
ATOM     59  H   UNL     1       7.986  11.328  -6.368  1.00  0.00     0.167 HD
ATOM     60  C   UNL     1       6.383  13.588  -6.961  1.00  0.00     0.074 A 
ATOM     61  C   UNL     1       5.223  14.406  -7.248  1.00  0.00     0.031 C 
ATOM     62  C   UNL     1       7.643  14.070  -6.823  1.00  0.00     0.037 A 
BRANCH  49  63
ATOM     63  C   UNL     1      11.853   9.755  -5.470  1.00  0.00     0.064 A 
ATOM     64  C   UNL     1      12.666   9.017  -6.344  1.00  0.00     0.173 A 
ATOM     65  C   UNL     1      12.432  10.230  -4.283  1.00  0.00     0.173 A 
ATOM     66  F   UNL     1      12.161   8.531  -7.488  1.00  0.00    -0.203 F 
ATOM     67  C   UNL     1      13.993   8.738  -6.027  1.00  0.00     0.198 A 
ATOM     68  C   UNL     1      13.769   9.978  -3.985  1.00  0.00     0.198 A 
ATOM     69  F   UNL     1      11.704  10.948  -3.414  1.00  0.00    -0.203 F 
ATOM     70  F   UNL     1      14.733   7.985  -6.852  1.00  0.00    -0.200 F 
ATOM     71  C   UNL     1      14.546   9.225  -4.852  1.00  0.00     0.200 A 
ATOM     72  F   UNL     1      14.306  10.464  -2.857  1.00  0.00    -0.200 F 
ATOM     73  F   UNL     1      15.825   8.963  -4.553  1.00  0.00    -0.200 F 
ENDBRANCH  49  63
BRANCH  50  74
ATOM     74  C   UNL     1       2.202  11.467  -7.356  1.00  0.00     0.064 A 
ATOM     75  C   UNL     1       1.764  11.941  -8.601  1.00  0.00     0.173 A 
ATOM     76  C   UNL     1       1.237  11.273  -6.357  1.00  0.00     0.173 A 
ATOM     77  F   UNL     1       2.651  12.164  -9.582  1.00  0.00    -0.203 F 
ATOM     78  C   UNL     1       0.421  12.233  -8.829  1.00  0.00     0.198 A 
ATOM     79  C   UNL     1      -0.110  11.535  -6.597  1.00  0.00     0.198 A 
ATOM     80  F   UNL     1       1.602  10.818  -5.150  1.00  0.00    -0.203 F 
ATOM     81  F   UNL     1       0.039  12.735 -10.011  1.00  0.00    -0.200 F 
ATOM     82  C   UNL     1      -0.516  12.025  -7.829  1.00  0.00     0.200 A 
ATOM     83  F   UNL     1      -1.015  11.318  -5.632  1.00  0.00    -0.200 F 
ATOM     84  F   UNL     1      -1.808  12.304  -8.049  1.00  0.00    -0.200 F 
ENDBRANCH  50  74
BRANCH  62  85
ATOM     85  C   UNL     1       7.844  15.546  -7.021  1.00  0.00     0.064 A 
ATOM     86  C   UNL     1       7.373  16.489  -6.095  1.00  0.00     0.173 A 
ATOM     87  C   UNL     1       8.552  16.021  -8.137  1.00  0.00     0.173 A 
ATOM     88  F   UNL     1       6.677  16.089  -5.020  1.00  0.00    -0.203 F 
ATOM     89  C   UNL     1       7.579  17.852  -6.293  1.00  0.00     0.198 A 
ATOM     90  C   UNL     1       8.786  17.382  -8.313  1.00  0.00     0.198 A 
ATOM     91  F   UNL     1       9.031  15.162  -9.050  1.00  0.00    -0.203 F 
ATOM     92  F   UNL     1       7.075  18.737  -5.421  1.00  0.00    -0.200 F 
ATOM     93  C   UNL     1       8.293  18.296  -7.396  1.00  0.00     0.200 A 
ATOM     94  F   UNL     1       9.490  17.808  -9.371  1.00  0.00    -0.200 F 
ATOM     95  F   UNL     1       8.498  19.608  -7.579  1.00  0.00    -0.200 F 
ENDBRANCH  62  85
ENDBRANCH  36  37
ENDBRANCH  28  31
ENDBRANCH  26  27
ENDBRANCH  25  26
ENDBRANCH   1  25
TORSDOF 14
