REMARK SMILES O=C(COc1ccccc1[C@@H]1C2=C(CCCC2=O)Nc2nc(SCc3ccccn3)nn21)NCCCNC(=O)c1ccc(-c2c3nc(c(-c4c(F)c(F)c(F)c(F)c4F)c4ccc([nH]4)c(-c4c(F)c(F)c(F)c(F)c4F)c4nc(c(-c5c(F)c(F)c(F)c(F)c5F)c5ccc2[nH]5)C=C4)C=C3)cc1
REMARK SMILES IDX 1 1 2 2 33 3 3 5 4 6 5 7 6 8 10 9 7 10 9 11 8 12 11 13 12 14
REMARK SMILES IDX 32 15 13 16 17 17 20 18 31 19 14 20 19 21 16 22 18 23 21 24
REMARK SMILES IDX 22 25 15 26 23 28 24 29 25 30 26 31 30 32 27 33 29 34 28 35
REMARK SMILES IDX 34 36 35 37 36 38 37 39 38 40 39 42 40 43 41 44 102 45 42 46
REMARK SMILES IDX 101 47 43 48 44 49 45 50 95 51 46 52 100 53 94 54 96 55
REMARK SMILES IDX 47 56 99 57 93 58 92 59 48 61 80 62 60 63 79 64 61 65 64 66
REMARK SMILES IDX 78 67 97 68 62 69 63 70 77 72 98 73 65 74 49 75 50 76 58 77
REMARK SMILES IDX 51 78 52 79 56 80 59 81 53 82 54 83 57 84 55 85 81 86 82 87
REMARK SMILES IDX 90 88 83 89 84 90 88 91 91 92 85 93 86 94 89 95 87 96 66 97
REMARK SMILES IDX 67 98 75 99 68 100 69 101 73 102 76 103 70 104 71 105 74 106
REMARK SMILES IDX 72 107
REMARK H PARENT 33 4 19 27 37 41 96 60 64 71
REMARK Flexibility Score: inf
ROOT
ATOM      1  O   UNL     1       0.561  -0.033  -0.971  1.00  0.00    -0.271 OA
ATOM      2  C   UNL     1       1.779  -0.212  -0.646  1.00  0.00     0.257 C 
ATOM      3  N   UNL     1       2.325  -0.585  -1.973  1.00  0.00    -0.353 N 
ATOM      4  H   UNL     1       3.305  -0.648  -2.047  1.00  0.00     0.163 HD
ENDROOT
BRANCH   2   5
ATOM      5  C   UNL     1       2.690  -0.122   1.341  1.00  0.00     0.329 C 
BRANCH   5   6
ATOM      6  O   UNL     1       3.633  -0.970   2.197  1.00  0.00    -0.483 OA
BRANCH   6   7
ATOM      7  C   UNL     1       3.128  -2.183   2.574  1.00  0.00     0.125 A 
ATOM      8  C   UNL     1       3.739  -2.927   3.571  1.00  0.00     0.047 A 
ATOM      9  C   UNL     1       2.129  -2.724   1.789  1.00  0.00     0.024 A 
ATOM     10  C   UNL     1       3.329  -4.247   3.770  1.00  0.00     0.004 A 
ATOM     11  C   UNL     1       1.710  -4.035   1.979  1.00  0.00     0.010 A 
ATOM     12  C   UNL     1       2.320  -4.800   2.973  1.00  0.00     0.001 A 
BRANCH   9  13
ATOM     13  C   UNL     1       1.796  -1.876   0.616  1.00  0.00     0.181 C 
ATOM     14  C   UNL     1       3.517  -1.265  -0.125  1.00  0.00     0.044 C 
ATOM     15  N   UNL     1       0.655  -0.492   1.097  1.00  0.00    -0.218 N 
ATOM     16  C   UNL     1       3.844   0.287  -0.340  1.00  0.00     0.027 C 
ATOM     17  C   UNL     1       4.427  -2.314  -0.610  1.00  0.00     0.163 C 
ATOM     18  C   UNL     1       1.124   1.190   0.813  1.00  0.00     0.227 A 
ATOM     19  N   UNL     1      -0.332  -0.436   1.999  1.00  0.00    -0.141 NA
ATOM     20  C   UNL     1       5.157   0.701  -0.915  1.00  0.00     0.055 C 
ATOM     21  N   UNL     1       2.606   1.524   0.028  1.00  0.00    -0.328 N 
ATOM     22  C   UNL     1       5.685  -1.849  -1.290  1.00  0.00     0.081 C 
ATOM     23  O   UNL     1       4.060  -3.483  -0.631  1.00  0.00    -0.294 OA
ATOM     24  N   UNL     1       0.176   1.860   1.417  1.00  0.00    -0.185 NA
ATOM     25  C   UNL     1      -0.614   0.882   2.079  1.00  0.00     0.210 A 
ATOM     26  C   UNL     1       6.173  -0.460  -0.845  1.00  0.00     0.014 C 
ATOM     27  H   UNL     1       2.788   2.455  -0.237  1.00  0.00     0.169 HD
BRANCH  25  28
ATOM     28  S   UNL     1      -1.959   1.332   3.118  1.00  0.00    -0.078 SA
BRANCH  28  29
ATOM     29  C   UNL     1      -1.721   3.112   3.276  1.00  0.00     0.134 C 
BRANCH  29  30
ATOM     30  C   UNL     1      -0.424   3.601   3.894  1.00  0.00     0.051 A 
ATOM     31  C   UNL     1      -0.196   4.977   3.943  1.00  0.00     0.025 A 
ATOM     32  N   UNL     1       0.493   2.711   4.349  1.00  0.00    -0.260 NA
ATOM     33  C   UNL     1       1.021   5.446   4.428  1.00  0.00     0.003 A 
ATOM     34  C   UNL     1       1.674   3.189   4.792  1.00  0.00     0.111 A 
ATOM     35  C   UNL     1       1.983   4.536   4.846  1.00  0.00     0.020 A 
ENDBRANCH  29  30
ENDBRANCH  28  29
ENDBRANCH  25  28
ENDBRANCH   9  13
ENDBRANCH   6   7
ENDBRANCH   5   6
ENDBRANCH   2   5
BRANCH   3  36
ATOM     36  C   UNL     1       1.551  -0.869  -3.191  1.00  0.00     0.117 C 
BRANCH  36  37
ATOM     37  C   UNL     1       1.957   0.015  -4.376  1.00  0.00     0.042 C 
BRANCH  37  38
ATOM     38  C   UNL     1       3.441   0.001  -4.738  1.00  0.00     0.118 C 
BRANCH  38  39
ATOM     39  N   UNL     1       3.977  -1.258  -5.260  1.00  0.00    -0.352 N 
ATOM     40  C   UNL     1       5.220  -1.462  -5.858  1.00  0.00     0.251 C 
ATOM     41  H   UNL     1       3.395  -2.048  -5.179  1.00  0.00     0.163 HD
ATOM     42  O   UNL     1       5.430  -2.450  -6.551  1.00  0.00    -0.269 OA
BRANCH  40  43
ATOM     43  C   UNL     1       6.333  -0.520  -5.565  1.00  0.00     0.039 A 
ATOM     44  C   UNL     1       7.319  -0.130  -6.471  1.00  0.00     0.014 A 
ATOM     45  C   UNL     1       6.407  -0.053  -4.264  1.00  0.00     0.014 A 
ATOM     46  C   UNL     1       8.341   0.739  -6.038  1.00  0.00     0.010 A 
ATOM     47  C   UNL     1       7.332   0.874  -3.861  1.00  0.00     0.010 A 
ATOM     48  C   UNL     1       8.355   1.220  -4.713  1.00  0.00    -0.014 A 
BRANCH  48  49
ATOM     49  C   UNL     1       9.181   2.339  -4.244  1.00  0.00     0.031 A 
ATOM     50  C   UNL     1       8.827   3.567  -5.015  1.00  0.00     0.074 A 
ATOM     51  C   UNL     1       9.921   2.326  -3.100  1.00  0.00     0.049 A 
ATOM     52  N   UNL     1       9.568   4.168  -5.882  1.00  0.00    -0.248 NA
ATOM     53  C   UNL     1       7.424   4.041  -5.028  1.00  0.00     0.031 C 
ATOM     54  C   UNL     1      10.080   1.225  -2.136  1.00  0.00     0.029 A 
ATOM     55  N   UNL     1      10.652   3.329  -2.498  1.00  0.00    -0.354 N 
ATOM     56  C   UNL     1       8.823   5.257  -6.330  1.00  0.00     0.074 A 
ATOM     57  C   UNL     1       7.463   4.986  -5.971  1.00  0.00     0.031 C 
ATOM     58  C   UNL     1      10.657   1.671  -0.993  1.00  0.00     0.029 A 
ATOM     59  C   UNL     1      11.049   3.055  -1.169  1.00  0.00     0.049 A 
ATOM     60  H   UNL     1      10.880   4.169  -2.958  1.00  0.00     0.167 HD
ATOM     61  C   UNL     1       9.462   6.426  -6.613  1.00  0.00     0.037 A 
ATOM     62  C   UNL     1      11.674   3.906  -0.297  1.00  0.00     0.037 A 
ATOM     63  C   UNL     1      10.876   6.171  -6.766  1.00  0.00     0.049 A 
ATOM     64  C   UNL     1      12.281   4.972  -1.120  1.00  0.00     0.074 A 
ATOM     65  C   UNL     1      11.679   5.490  -7.655  1.00  0.00     0.029 A 
ATOM     66  N   UNL     1      11.562   6.251  -5.585  1.00  0.00    -0.354 N 
ATOM     67  N   UNL     1      13.257   4.760  -1.955  1.00  0.00    -0.248 NA
ATOM     68  C   UNL     1      11.474   6.152  -1.366  1.00  0.00     0.031 C 
ATOM     69  C   UNL     1      12.744   4.942  -6.873  1.00  0.00     0.029 A 
ATOM     70  C   UNL     1      12.626   5.400  -5.561  1.00  0.00     0.049 A 
ATOM     71  H   UNL     1      11.318   6.851  -4.843  1.00  0.00     0.167 HD
ATOM     72  C   UNL     1      12.902   5.485  -3.079  1.00  0.00     0.074 A 
ATOM     73  C   UNL     1      11.856   6.404  -2.620  1.00  0.00     0.031 C 
ATOM     74  C   UNL     1      13.268   5.038  -4.318  1.00  0.00     0.037 A 
BRANCH  61  75
ATOM     75  C   UNL     1       8.965   7.796  -6.160  1.00  0.00     0.064 A 
ATOM     76  C   UNL     1       9.754   8.928  -6.465  1.00  0.00     0.173 A 
ATOM     77  C   UNL     1       7.963   8.016  -5.186  1.00  0.00     0.173 A 
ATOM     78  F   UNL     1      10.753   8.842  -7.356  1.00  0.00    -0.203 F 
ATOM     79  C   UNL     1       9.604  10.146  -5.791  1.00  0.00     0.198 A 
ATOM     80  C   UNL     1       7.788   9.245  -4.549  1.00  0.00     0.198 A 
ATOM     81  F   UNL     1       7.180   7.039  -4.720  1.00  0.00    -0.203 F 
ATOM     82  F   UNL     1      10.460  11.149  -6.029  1.00  0.00    -0.200 F 
ATOM     83  C   UNL     1       8.626  10.301  -4.828  1.00  0.00     0.200 A 
ATOM     84  F   UNL     1       6.850   9.363  -3.597  1.00  0.00    -0.200 F 
ATOM     85  F   UNL     1       8.517  11.444  -4.139  1.00  0.00    -0.200 F 
ENDBRANCH  61  75
BRANCH  62  86
ATOM     86  C   UNL     1      11.528   4.088   1.181  1.00  0.00     0.064 A 
ATOM     87  C   UNL     1      12.451   4.829   1.955  1.00  0.00     0.173 A 
ATOM     88  C   UNL     1      10.295   3.820   1.801  1.00  0.00     0.173 A 
ATOM     89  F   UNL     1      13.628   5.202   1.429  1.00  0.00    -0.203 F 
ATOM     90  C   UNL     1      12.152   5.271   3.256  1.00  0.00     0.198 A 
ATOM     91  C   UNL     1       9.994   4.268   3.094  1.00  0.00     0.198 A 
ATOM     92  F   UNL     1       9.315   3.212   1.118  1.00  0.00    -0.203 F 
ATOM     93  F   UNL     1      13.034   6.017   3.938  1.00  0.00    -0.200 F 
ATOM     94  C   UNL     1      10.918   4.997   3.820  1.00  0.00     0.200 A 
ATOM     95  F   UNL     1       8.774   4.045   3.603  1.00  0.00    -0.200 F 
ATOM     96  F   UNL     1      10.601   5.472   5.033  1.00  0.00    -0.200 F 
ENDBRANCH  62  86
BRANCH  74  97
ATOM     97  C   UNL     1      14.359   4.006  -4.391  1.00  0.00     0.064 A 
ATOM     98  C   UNL     1      14.259   2.683  -3.927  1.00  0.00     0.173 A 
ATOM     99  C   UNL     1      15.528   4.363  -5.076  1.00  0.00     0.173 A 
ATOM    100  F   UNL     1      13.142   2.241  -3.334  1.00  0.00    -0.203 F 
ATOM    101  C   UNL     1      15.302   1.773  -4.117  1.00  0.00     0.198 A 
ATOM    102  C   UNL     1      16.548   3.446  -5.296  1.00  0.00     0.198 A 
ATOM    103  F   UNL     1      15.655   5.600  -5.580  1.00  0.00    -0.203 F 
ATOM    104  F   UNL     1      15.193   0.516  -3.659  1.00  0.00    -0.200 F 
ATOM    105  C   UNL     1      16.442   2.155  -4.807  1.00  0.00     0.200 A 
ATOM    106  F   UNL     1      17.623   3.810  -6.008  1.00  0.00    -0.200 F 
ATOM    107  F   UNL     1      17.429   1.274  -5.022  1.00  0.00    -0.200 F 
ENDBRANCH  74  97
ENDBRANCH  48  49
ENDBRANCH  40  43
ENDBRANCH  38  39
ENDBRANCH  37  38
ENDBRANCH  36  37
ENDBRANCH   3  36
TORSDOF 16
