REMARK SMILES C[C@@H](C(=O)NCCCNC(=O)c1ccc(-c2c3nc(c(-c4c(F)c(F)c(F)c(F)c4F)c4ccc([nH]4)c(-c4c(F)c(F)c(F)c(F)c4F)c4nc(c(-c5c(F)c(F)c(F)c(F)c5F)c5ccc2[nH]5)C=C4)C=C3)cc1)c1ccc(C[C@H]2CCCC2=O)cc1
REMARK SMILES IDX 6 1 5 2 3 3 4 4 2 6 1 7 75 8 76 9 87 10 77 11 86 12 78 13
REMARK SMILES IDX 79 14 80 15 81 16 84 17 82 18 83 19 85 20 7 21 8 22 9 23
REMARK SMILES IDX 10 24 11 26 12 27 13 28 74 29 14 30 73 31 15 32 16 33 17 34
REMARK SMILES IDX 67 35 18 36 72 37 66 38 68 39 19 40 71 41 65 42 64 43 20 45
REMARK SMILES IDX 52 46 32 47 51 48 33 49 36 50 50 51 69 52 34 53 35 54 49 56
REMARK SMILES IDX 70 57 37 58 21 59 22 60 30 61 23 62 24 63 28 64 31 65 25 66
REMARK SMILES IDX 26 67 29 68 27 69 53 70 54 71 62 72 55 73 56 74 60 75 63 76
REMARK SMILES IDX 57 77 58 78 61 79 59 80 38 81 39 82 47 83 40 84 41 85 45 86
REMARK SMILES IDX 48 87 42 88 43 89 46 90 44 91
REMARK H PARENT 5 5 9 25 68 44 36 55
REMARK Flexibility Score: inf
ROOT
ATOM      1  C   UNL     1       3.445   1.780   1.040  1.00  0.00     0.117 C 
ENDROOT
BRANCH   1   2
ATOM      2  N   UNL     1       2.399   2.675   0.588  1.00  0.00    -0.356 N 
ATOM      3  C   UNL     1       1.130   2.389   0.172  1.00  0.00     0.227 C 
ATOM      4  O   UNL     1       0.615   3.213  -0.584  1.00  0.00    -0.274 OA
ATOM      5  H   UNL     1       2.638   3.630   0.580  1.00  0.00     0.163 HD
BRANCH   3   6
ATOM      6  C   UNL     1       0.445   1.090   0.636  1.00  0.00     0.105 C 
ATOM      7  C   UNL     1       0.852  -0.030  -0.331  1.00  0.00     0.023 C 
BRANCH   6   8
ATOM      8  C   UNL     1      -1.081   1.156   0.797  1.00  0.00    -0.036 A 
ATOM      9  C   UNL     1      -1.800   2.358   0.763  1.00  0.00     0.005 A 
ATOM     10  C   UNL     1      -1.818  -0.023   1.017  1.00  0.00     0.005 A 
ATOM     11  C   UNL     1      -3.194   2.376   0.843  1.00  0.00     0.004 A 
ATOM     12  C   UNL     1      -3.213  -0.006   1.127  1.00  0.00     0.004 A 
ATOM     13  C   UNL     1      -3.917   1.196   1.035  1.00  0.00    -0.047 A 
BRANCH  13  14
ATOM     14  C   UNL     1      -5.420   1.224   1.151  1.00  0.00     0.047 C 
BRANCH  14  15
ATOM     15  C   UNL     1      -5.989   1.766   2.467  1.00  0.00     0.060 C 
ATOM     16  C   UNL     1      -5.483   1.100   3.750  1.00  0.00     0.012 C 
ATOM     17  C   UNL     1      -5.630   3.215   2.702  1.00  0.00     0.136 C 
ATOM     18  C   UNL     1      -4.358   1.983   4.278  1.00  0.00     0.009 C 
ATOM     19  C   UNL     1      -4.736   3.408   3.898  1.00  0.00     0.076 C 
ATOM     20  O   UNL     1      -6.029   4.137   2.001  1.00  0.00    -0.299 OA
ENDBRANCH  14  15
ENDBRANCH  13  14
ENDBRANCH   6   8
ENDBRANCH   3   6
ENDBRANCH   1   2
BRANCH   1  21
ATOM     21  C   UNL     1       4.359   1.378  -0.121  1.00  0.00     0.042 C 
BRANCH  21  22
ATOM     22  C   UNL     1       5.064   2.548  -0.801  1.00  0.00     0.118 C 
BRANCH  22  23
ATOM     23  N   UNL     1       6.029   3.201   0.068  1.00  0.00    -0.352 N 
ATOM     24  C   UNL     1       7.386   3.338  -0.077  1.00  0.00     0.251 C 
ATOM     25  H   UNL     1       5.652   3.605   0.883  1.00  0.00     0.163 HD
ATOM     26  O   UNL     1       8.063   3.751   0.864  1.00  0.00    -0.269 OA
BRANCH  24  27
ATOM     27  C   UNL     1       8.046   2.967  -1.347  1.00  0.00     0.039 A 
ATOM     28  C   UNL     1       9.233   2.232  -1.299  1.00  0.00     0.014 A 
ATOM     29  C   UNL     1       7.508   3.348  -2.580  1.00  0.00     0.014 A 
ATOM     30  C   UNL     1       9.840   1.813  -2.486  1.00  0.00     0.010 A 
ATOM     31  C   UNL     1       8.073   2.869  -3.760  1.00  0.00     0.010 A 
ATOM     32  C   UNL     1       9.241   2.090  -3.725  1.00  0.00    -0.014 A 
BRANCH  32  33
ATOM     33  C   UNL     1       9.800   1.550  -4.992  1.00  0.00     0.031 A 
ATOM     34  C   UNL     1      10.306   2.482  -6.057  1.00  0.00     0.074 A 
ATOM     35  C   UNL     1       9.773   0.221  -5.214  1.00  0.00     0.049 A 
ATOM     36  N   UNL     1      10.733   2.205  -7.264  1.00  0.00    -0.248 NA
ATOM     37  C   UNL     1      10.311   3.917  -5.735  1.00  0.00     0.031 C 
ATOM     38  C   UNL     1       9.269  -0.783  -4.275  1.00  0.00     0.029 A 
ATOM     39  N   UNL     1      10.158  -0.515  -6.308  1.00  0.00    -0.354 N 
ATOM     40  C   UNL     1      11.035   3.428  -7.849  1.00  0.00     0.074 A 
ATOM     41  C   UNL     1      10.708   4.452  -6.880  1.00  0.00     0.031 C 
ATOM     42  C   UNL     1       9.385  -2.001  -4.827  1.00  0.00     0.029 A 
ATOM     43  C   UNL     1       9.923  -1.863  -6.176  1.00  0.00     0.049 A 
ATOM     44  H   UNL     1      10.563  -0.115  -7.111  1.00  0.00     0.167 HD
ATOM     45  C   UNL     1      11.550   3.670  -9.078  1.00  0.00     0.037 A 
ATOM     46  C   UNL     1      10.099  -2.872  -7.052  1.00  0.00     0.037 A 
ATOM     47  C   UNL     1      11.902   2.644 -10.024  1.00  0.00     0.049 A 
ATOM     48  C   UNL     1      10.652  -2.567  -8.419  1.00  0.00     0.074 A 
ATOM     49  C   UNL     1      12.517   2.784 -11.256  1.00  0.00     0.029 A 
ATOM     50  N   UNL     1      11.660   1.290  -9.850  1.00  0.00    -0.354 N 
ATOM     51  N   UNL     1      11.022  -1.416  -8.925  1.00  0.00    -0.248 NA
ATOM     52  C   UNL     1      10.811  -3.703  -9.339  1.00  0.00     0.031 C 
ATOM     53  C   UNL     1      12.586   1.524 -11.857  1.00  0.00     0.029 A 
ATOM     54  C   UNL     1      12.073   0.589 -10.973  1.00  0.00     0.049 A 
ATOM     55  H   UNL     1      11.255   0.886  -9.049  1.00  0.00     0.167 HD
ATOM     56  C   UNL     1      11.481  -1.692 -10.206  1.00  0.00     0.074 A 
ATOM     57  C   UNL     1      11.361  -3.122 -10.395  1.00  0.00     0.031 C 
ATOM     58  C   UNL     1      11.957  -0.836 -11.143  1.00  0.00     0.037 A 
BRANCH  45  59
ATOM     59  C   UNL     1      11.763   5.099  -9.485  1.00  0.00     0.064 A 
ATOM     60  C   UNL     1      12.768   5.891  -8.909  1.00  0.00     0.173 A 
ATOM     61  C   UNL     1      10.998   5.660 -10.519  1.00  0.00     0.173 A 
ATOM     62  F   UNL     1      13.523   5.405  -7.913  1.00  0.00    -0.203 F 
ATOM     63  C   UNL     1      12.984   7.198  -9.339  1.00  0.00     0.198 A 
ATOM     64  C   UNL     1      11.238   6.956 -10.968  1.00  0.00     0.198 A 
ATOM     65  F   UNL     1      10.030   4.944 -11.110  1.00  0.00    -0.203 F 
ATOM     66  F   UNL     1      13.925   7.948  -8.749  1.00  0.00    -0.200 F 
ATOM     67  C   UNL     1      12.226   7.726 -10.374  1.00  0.00     0.200 A 
ATOM     68  F   UNL     1      10.515   7.458 -11.979  1.00  0.00    -0.200 F 
ATOM     69  F   UNL     1      12.448   8.977 -10.798  1.00  0.00    -0.200 F 
ENDBRANCH  45  59
BRANCH  46  70
ATOM     70  C   UNL     1       9.739  -4.265  -6.674  1.00  0.00     0.064 A 
ATOM     71  C   UNL     1      10.724  -5.255  -6.544  1.00  0.00     0.173 A 
ATOM     72  C   UNL     1       8.405  -4.645  -6.466  1.00  0.00     0.173 A 
ATOM     73  F   UNL     1      12.013  -4.948  -6.753  1.00  0.00    -0.203 F 
ATOM     74  C   UNL     1      10.386  -6.575  -6.252  1.00  0.00     0.198 A 
ATOM     75  C   UNL     1       8.071  -5.957  -6.140  1.00  0.00     0.198 A 
ATOM     76  F   UNL     1       7.423  -3.737  -6.573  1.00  0.00    -0.203 F 
ATOM     77  F   UNL     1      11.342  -7.511  -6.194  1.00  0.00    -0.200 F 
ATOM     78  C   UNL     1       9.060  -6.924  -6.046  1.00  0.00     0.200 A 
ATOM     79  F   UNL     1       6.790  -6.287  -5.926  1.00  0.00    -0.200 F 
ATOM     80  F   UNL     1       8.735  -8.194  -5.767  1.00  0.00    -0.200 F 
ENDBRANCH  46  70
BRANCH  58  81
ATOM     81  C   UNL     1      12.414  -1.421 -12.448  1.00  0.00     0.064 A 
ATOM     82  C   UNL     1      11.502  -1.926 -13.387  1.00  0.00     0.173 A 
ATOM     83  C   UNL     1      13.775  -1.423 -12.788  1.00  0.00     0.173 A 
ATOM     84  F   UNL     1      10.192  -1.964 -13.104  1.00  0.00    -0.203 F 
ATOM     85  C   UNL     1      11.940  -2.428 -14.611  1.00  0.00     0.198 A 
ATOM     86  C   UNL     1      14.206  -1.894 -14.025  1.00  0.00     0.198 A 
ATOM     87  F   UNL     1      14.687  -0.945 -11.928  1.00  0.00    -0.203 F 
ATOM     88  F   UNL     1      11.056  -2.945 -15.475  1.00  0.00    -0.200 F 
ATOM     89  C   UNL     1      13.289  -2.401 -14.932  1.00  0.00     0.200 A 
ATOM     90  F   UNL     1      15.508  -1.852 -14.340  1.00  0.00    -0.200 F 
ATOM     91  F   UNL     1      13.706  -2.870 -16.117  1.00  0.00    -0.200 F 
ENDBRANCH  58  81
ENDBRANCH  32  33
ENDBRANCH  24  27
ENDBRANCH  22  23
ENDBRANCH  21  22
ENDBRANCH   1  21
TORSDOF 13
