REMARK SMILES Cc1cc(C)c2c(=O)n(CCCC(=O)NCCCNC(=O)c3ccc(-c4c5nc(c(-c6c(F)c(F)c(F)c(F)c6F)c6ccc([nH]6)c(-c6c(F)c(F)c(F)c(F)c6F)c6nc(c(-c7c(F)c(F)c(F)c(F)c7F)c7ccc4[nH]7)C=C6)C=C5)cc3)sc2n1
REMARK SMILES IDX 16 1 15 2 13 3 14 4 12 6 11 7 10 8 9 9 1 10 2 11 3 12 87 13
REMARK SMILES IDX 4 14 86 15 5 16 6 17 85 18 7 19 8 20 17 21 18 22 19 23 20 24
REMARK SMILES IDX 21 26 22 27 23 28 84 29 24 30 83 31 25 32 26 33 27 34 77 35
REMARK SMILES IDX 28 36 82 37 76 38 78 39 29 40 81 41 75 42 74 43 30 45 62 46
REMARK SMILES IDX 42 47 61 48 43 49 46 50 60 51 79 52 44 53 45 54 59 56 80 57
REMARK SMILES IDX 47 58 31 59 32 60 40 61 33 62 34 63 38 64 41 65 35 66 36 67
REMARK SMILES IDX 39 68 37 69 63 70 64 71 72 72 65 73 66 74 70 75 73 76 67 77
REMARK SMILES IDX 68 78 71 79 69 80 48 81 49 82 57 83 50 84 51 85 55 86 58 87
REMARK SMILES IDX 52 88 53 89 56 90 54 91
REMARK H PARENT 15 5 19 25 78 44 46 55
REMARK Flexibility Score: inf
ROOT
ATOM      1  C   UNL     1      -1.068   5.416   3.396  1.00  0.00     0.117 C 
ENDROOT
BRANCH   1   2
ATOM      2  N   UNL     1      -0.600   6.758   3.700  1.00  0.00    -0.356 N 
ATOM      3  C   UNL     1       0.557   7.180   4.277  1.00  0.00     0.220 C 
ATOM      4  O   UNL     1       0.691   8.389   4.477  1.00  0.00    -0.275 OA
ATOM      5  H   UNL     1      -1.221   7.478   3.446  1.00  0.00     0.163 HD
BRANCH   3   6
ATOM      6  C   UNL     1       1.686   6.216   4.582  1.00  0.00     0.102 C 
BRANCH   6   7
ATOM      7  C   UNL     1       1.645   5.421   5.891  1.00  0.00     0.033 C 
BRANCH   7   8
ATOM      8  C   UNL     1       0.798   4.148   6.031  1.00  0.00     0.139 C 
BRANCH   8   9
ATOM      9  N   UNL     1       0.921   3.042   5.094  1.00  0.00    -0.262 N 
ATOM     10  C   UNL     1       0.836  -0.342   0.011  1.00  0.00     0.067 C 
ATOM     11  C   UNL     1       0.628   0.123   1.421  1.00  0.00     0.039 A 
ATOM     12  C   UNL     1      -0.174  -0.599   2.317  1.00  0.00     0.027 A 
ATOM     13  N   UNL     1       1.282   1.254   1.775  1.00  0.00    -0.241 NA
ATOM     14  C   UNL     1      -0.371  -0.124   3.625  1.00  0.00    -0.033 A 
ATOM     15  C   UNL     1       1.074   1.679   3.032  1.00  0.00     0.146 A 
ATOM     16  C   UNL     1      -1.133  -0.931   4.630  1.00  0.00     0.045 C 
ATOM     17  C   UNL     1       0.223   1.091   3.947  1.00  0.00     0.081 A 
ATOM     18  S   UNL     1       1.964   3.034   3.743  1.00  0.00    -0.035 S 
ATOM     19  C   UNL     1       0.075   1.931   5.157  1.00  0.00     0.270 A 
ATOM     20  O   UNL     1      -0.755   1.706   6.023  1.00  0.00    -0.268 OA
ENDBRANCH   8   9
ENDBRANCH   7   8
ENDBRANCH   6   7
ENDBRANCH   3   6
ENDBRANCH   1   2
BRANCH   1  21
ATOM     21  C   UNL     1      -2.092   4.926   4.425  1.00  0.00     0.042 C 
BRANCH  21  22
ATOM     22  C   UNL     1      -3.495   5.380   4.106  1.00  0.00     0.118 C 
BRANCH  22  23
ATOM     23  N   UNL     1      -4.159   4.611   3.045  1.00  0.00    -0.352 N 
ATOM     24  C   UNL     1      -5.485   4.736   2.619  1.00  0.00     0.251 C 
ATOM     25  H   UNL     1      -3.611   3.934   2.583  1.00  0.00     0.163 HD
ATOM     26  O   UNL     1      -6.045   3.876   1.976  1.00  0.00    -0.269 OA
BRANCH  24  27
ATOM     27  C   UNL     1      -6.170   5.995   2.974  1.00  0.00     0.039 A 
ATOM     28  C   UNL     1      -7.463   6.080   3.494  1.00  0.00     0.014 A 
ATOM     29  C   UNL     1      -5.360   7.112   2.913  1.00  0.00     0.014 A 
ATOM     30  C   UNL     1      -7.879   7.312   4.002  1.00  0.00     0.010 A 
ATOM     31  C   UNL     1      -5.607   8.108   3.796  1.00  0.00     0.010 A 
ATOM     32  C   UNL     1      -6.921   8.326   4.147  1.00  0.00    -0.014 A 
BRANCH  32  33
ATOM     33  C   UNL     1      -7.183   9.660   4.657  1.00  0.00     0.031 A 
ATOM     34  C   UNL     1      -7.777   9.704   6.010  1.00  0.00     0.074 A 
ATOM     35  C   UNL     1      -6.676  10.757   4.040  1.00  0.00     0.049 A 
ATOM     36  N   UNL     1      -8.959  10.109   6.333  1.00  0.00    -0.248 NA
ATOM     37  C   UNL     1      -7.022   9.107   7.123  1.00  0.00     0.031 C 
ATOM     38  C   UNL     1      -5.789  10.854   2.865  1.00  0.00     0.029 A 
ATOM     39  N   UNL     1      -6.792  12.057   4.410  1.00  0.00    -0.354 N 
ATOM     40  C   UNL     1      -9.042   9.986   7.714  1.00  0.00     0.074 A 
ATOM     41  C   UNL     1      -7.897   9.213   8.125  1.00  0.00     0.031 C 
ATOM     42  C   UNL     1      -5.274  12.100   2.771  1.00  0.00     0.029 A 
ATOM     43  C   UNL     1      -5.941  12.936   3.746  1.00  0.00     0.049 A 
ATOM     44  H   UNL     1      -7.431  12.356   5.096  1.00  0.00     0.167 HD
ATOM     45  C   UNL     1      -9.938  10.715   8.433  1.00  0.00     0.037 A 
ATOM     46  C   UNL     1      -5.804  14.259   4.008  1.00  0.00     0.037 A 
ATOM     47  C   UNL     1     -10.932  11.314   7.579  1.00  0.00     0.049 A 
ATOM     48  C   UNL     1      -7.031  14.669   4.742  1.00  0.00     0.074 A 
ATOM     49  C   UNL     1     -11.914  10.807   6.750  1.00  0.00     0.029 A 
ATOM     50  N   UNL     1     -10.723  12.606   7.159  1.00  0.00    -0.354 N 
ATOM     51  N   UNL     1      -8.223  14.662   4.208  1.00  0.00    -0.248 NA
ATOM     52  C   UNL     1      -6.992  14.586   6.195  1.00  0.00     0.031 C 
ATOM     53  C   UNL     1     -11.872  11.629   5.585  1.00  0.00     0.029 A 
ATOM     54  C   UNL     1     -10.931  12.638   5.801  1.00  0.00     0.049 A 
ATOM     55  H   UNL     1     -10.470  13.369   7.727  1.00  0.00     0.167 HD
ATOM     56  C   UNL     1      -9.056  14.166   5.202  1.00  0.00     0.074 A 
ATOM     57  C   UNL     1      -8.247  14.186   6.421  1.00  0.00     0.031 C 
ATOM     58  C   UNL     1     -10.213  13.508   4.896  1.00  0.00     0.037 A 
BRANCH  45  59
ATOM     59  C   UNL     1      -9.733  11.145   9.857  1.00  0.00     0.064 A 
ATOM     60  C   UNL     1     -10.822  11.625  10.607  1.00  0.00     0.173 A 
ATOM     61  C   UNL     1      -8.457  11.346  10.425  1.00  0.00     0.173 A 
ATOM     62  F   UNL     1     -12.074  11.515  10.138  1.00  0.00    -0.203 F 
ATOM     63  C   UNL     1     -10.640  12.295  11.820  1.00  0.00     0.198 A 
ATOM     64  C   UNL     1      -8.283  11.965  11.661  1.00  0.00     0.198 A 
ATOM     65  F   UNL     1      -7.333  11.052   9.760  1.00  0.00    -0.203 F 
ATOM     66  F   UNL     1     -11.695  12.827  12.451  1.00  0.00    -0.200 F 
ATOM     67  C   UNL     1      -9.371  12.463  12.346  1.00  0.00     0.200 A 
ATOM     68  F   UNL     1      -7.044  12.139  12.142  1.00  0.00    -0.200 F 
ATOM     69  F   UNL     1      -9.191  13.144  13.485  1.00  0.00    -0.200 F 
ENDBRANCH  45  59
BRANCH  46  70
ATOM     70  C   UNL     1      -4.551  15.054   4.038  1.00  0.00     0.064 A 
ATOM     71  C   UNL     1      -4.591  16.458   4.078  1.00  0.00     0.173 A 
ATOM     72  C   UNL     1      -3.312  14.455   4.337  1.00  0.00     0.173 A 
ATOM     73  F   UNL     1      -5.741  17.105   3.842  1.00  0.00    -0.203 F 
ATOM     74  C   UNL     1      -3.469  17.214   4.438  1.00  0.00     0.198 A 
ATOM     75  C   UNL     1      -2.193  15.211   4.695  1.00  0.00     0.198 A 
ATOM     76  F   UNL     1      -3.188  13.121   4.387  1.00  0.00    -0.203 F 
ATOM     77  F   UNL     1      -3.564  18.548   4.533  1.00  0.00    -0.200 F 
ATOM     78  C   UNL     1      -2.276  16.589   4.762  1.00  0.00     0.200 A 
ATOM     79  F   UNL     1      -1.055  14.593   5.043  1.00  0.00    -0.200 F 
ATOM     80  F   UNL     1      -1.224  17.308   5.179  1.00  0.00    -0.200 F 
ENDBRANCH  46  70
BRANCH  58  81
ATOM     81  C   UNL     1     -10.660  13.502   3.455  1.00  0.00     0.064 A 
ATOM     82  C   UNL     1      -9.958  12.867   2.413  1.00  0.00     0.173 A 
ATOM     83  C   UNL     1     -11.928  14.009   3.148  1.00  0.00     0.173 A 
ATOM     84  F   UNL     1      -8.783  12.272   2.638  1.00  0.00    -0.203 F 
ATOM     85  C   UNL     1     -10.487  12.772   1.126  1.00  0.00     0.198 A 
ATOM     86  C   UNL     1     -12.470  13.885   1.870  1.00  0.00     0.198 A 
ATOM     87  F   UNL     1     -12.671  14.578   4.110  1.00  0.00    -0.203 F 
ATOM     88  F   UNL     1      -9.793  12.158   0.155  1.00  0.00    -0.200 F 
ATOM     89  C   UNL     1     -11.748  13.273   0.858  1.00  0.00     0.200 A 
ATOM     90  F   UNL     1     -13.711  14.330   1.629  1.00  0.00    -0.200 F 
ATOM     91  F   UNL     1     -12.280  13.143  -0.365  1.00  0.00    -0.200 F 
ENDBRANCH  58  81
ENDBRANCH  32  33
ENDBRANCH  24  27
ENDBRANCH  22  23
ENDBRANCH  21  22
ENDBRANCH   1  21
TORSDOF 13
