REMARK SMILES C[C@@H](NC(=O)[C@@H]1CC[C@@H]2CCCC[C@@H]2[NH2+]1)C(=O)NCCCNC(=O)c1ccc(-c2c3nc(c(-c4c(F)c(F)c(F)c(F)c4F)c4ccc([nH]4)c(-c4c(F)c(F)c(F)c(F)c4F)c4nc(c(-c5c(F)c(F)c(F)c(F)c5F)c5ccc2[nH]5)C=C4)C=C3)cc1
REMARK SMILES IDX 20 1 19 2 18 3 16 4 17 5 2 7 1 8 3 9 4 10 5 12 6 13 7 14
REMARK SMILES IDX 15 15 8 16 14 17 9 20 13 21 10 22 12 23 11 24 21 25 22 26
REMARK SMILES IDX 23 27 24 29 25 30 26 31 87 32 27 33 86 34 28 35 29 36 30 37
REMARK SMILES IDX 80 38 31 39 85 40 79 41 81 42 32 43 84 44 78 45 77 46 33 48
REMARK SMILES IDX 65 49 45 50 64 51 46 52 49 53 63 54 82 55 47 56 48 57 62 59
REMARK SMILES IDX 83 60 50 61 34 62 35 63 43 64 36 65 37 66 41 67 44 68 38 69
REMARK SMILES IDX 39 70 42 71 40 72 66 73 67 74 75 75 68 76 69 77 73 78 76 79
REMARK SMILES IDX 70 80 71 81 74 82 72 83 51 84 52 85 60 86 53 87 54 88 58 89
REMARK SMILES IDX 61 90 55 91 56 92 59 93 57 94
REMARK H PARENT 18 6 3 11 15 18 15 19 22 28 81 47 49 58
REMARK Flexibility Score: inf
ROOT
ATOM      1  C   UNL     1      -1.678   2.807   0.784  1.00  0.00     0.042 C 
ENDROOT
BRANCH   1   2
ATOM      2  C   UNL     1      -0.678   1.653   0.567  1.00  0.00     0.117 C 
BRANCH   2   3
ATOM      3  N   UNL     1      -1.202   0.536  -0.195  1.00  0.00    -0.354 N 
ATOM      4  C   UNL     1      -0.879  -0.791  -0.126  1.00  0.00     0.242 C 
ATOM      5  O   UNL     1      -1.617  -1.583  -0.719  1.00  0.00    -0.273 OA
ATOM      6  H   UNL     1      -1.891   0.766  -0.860  1.00  0.00     0.163 HD
BRANCH   4   7
ATOM      7  C   UNL     1       0.401  -1.292   0.581  1.00  0.00     0.168 C 
ATOM      8  C   UNL     1       1.607  -0.663  -0.133  1.00  0.00     0.041 C 
BRANCH   7   9
ATOM      9  N   UNL     1       0.563  -1.149   2.039  1.00  0.00    -0.339 N 
ATOM     10  C   UNL     1      -0.028  -1.971   2.967  1.00  0.00     0.278 C 
ATOM     11  H   UNL     1       1.131  -0.416   2.369  1.00  0.00     0.164 HD
ATOM     12  O   UNL     1       0.697  -2.803   3.525  1.00  0.00    -0.268 OA
BRANCH  10  13
ATOM     13  C   UNL     1      -1.514  -1.790   3.388  1.00  0.00     0.272 C 
ATOM     14  C   UNL     1      -2.153  -0.472   2.989  1.00  0.00     0.076 C 
ATOM     15  N   UNL     1      -1.669  -1.986   4.865  1.00  0.00    -0.333 N 
ATOM     16  C   UNL     1      -1.532   0.665   3.783  1.00  0.00     0.016 C 
ATOM     17  C   UNL     1      -1.370  -0.827   5.746  1.00  0.00     0.186 C 
ATOM     18  H   UNL     1      -1.048  -2.747   5.139  1.00  0.00     0.347 HD
ATOM     19  H   UNL     1      -2.664  -2.166   5.000  1.00  0.00     0.347 HD
ATOM     20  C   UNL     1      -1.967   0.488   5.227  1.00  0.00     0.048 C 
ATOM     21  C   UNL     1       0.133  -0.719   6.076  1.00  0.00     0.065 C 
ATOM     22  C   UNL     1      -1.574   1.691   6.081  1.00  0.00     0.010 C 
ATOM     23  C   UNL     1       0.630   0.616   6.645  1.00  0.00     0.006 C 
ATOM     24  C   UNL     1      -0.069   1.871   6.138  1.00  0.00     0.001 C 
ENDBRANCH  10  13
ENDBRANCH   7   9
ENDBRANCH   4   7
ENDBRANCH   2   3
ENDBRANCH   1   2
BRANCH   1  25
ATOM     25  C   UNL     1      -3.168   2.448   0.938  1.00  0.00     0.118 C 
BRANCH  25  26
ATOM     26  N   UNL     1      -3.704   2.467   2.297  1.00  0.00    -0.352 N 
ATOM     27  C   UNL     1      -4.122   3.480   3.125  1.00  0.00     0.251 C 
ATOM     28  H   UNL     1      -3.781   1.572   2.701  1.00  0.00     0.163 HD
ATOM     29  O   UNL     1      -4.336   3.264   4.311  1.00  0.00    -0.269 OA
BRANCH  27  30
ATOM     30  C   UNL     1      -4.323   4.832   2.586  1.00  0.00     0.039 A 
ATOM     31  C   UNL     1      -3.913   5.949   3.319  1.00  0.00     0.014 A 
ATOM     32  C   UNL     1      -4.965   4.989   1.361  1.00  0.00     0.014 A 
ATOM     33  C   UNL     1      -4.054   7.222   2.764  1.00  0.00     0.010 A 
ATOM     34  C   UNL     1      -5.000   6.234   0.762  1.00  0.00     0.010 A 
ATOM     35  C   UNL     1      -4.545   7.364   1.457  1.00  0.00    -0.014 A 
BRANCH  35  36
ATOM     36  C   UNL     1      -4.595   8.669   0.759  1.00  0.00     0.031 A 
ATOM     37  C   UNL     1      -5.910   9.187   0.251  1.00  0.00     0.074 A 
ATOM     38  C   UNL     1      -3.443   9.296   0.457  1.00  0.00     0.049 A 
ATOM     39  N   UNL     1      -6.151  10.186  -0.559  1.00  0.00    -0.248 NA
ATOM     40  C   UNL     1      -7.115   8.450   0.670  1.00  0.00     0.031 C 
ATOM     41  C   UNL     1      -2.105   8.848   0.852  1.00  0.00     0.029 A 
ATOM     42  N   UNL     1      -3.209  10.428  -0.280  1.00  0.00    -0.354 N 
ATOM     43  C   UNL     1      -7.524  10.178  -0.766  1.00  0.00     0.074 A 
ATOM     44  C   UNL     1      -8.057   9.040  -0.050  1.00  0.00     0.031 C 
ATOM     45  C   UNL     1      -1.193   9.704   0.367  1.00  0.00     0.029 A 
ATOM     46  C   UNL     1      -1.875  10.727  -0.417  1.00  0.00     0.049 A 
ATOM     47  H   UNL     1      -3.927  10.974  -0.673  1.00  0.00     0.167 HD
ATOM     48  C   UNL     1      -8.272  11.057  -1.473  1.00  0.00     0.037 A 
ATOM     49  C   UNL     1      -1.273  11.705  -1.118  1.00  0.00     0.037 A 
ATOM     50  C   UNL     1      -7.727  12.200  -2.156  1.00  0.00     0.049 A 
ATOM     51  C   UNL     1      -2.127  12.666  -1.899  1.00  0.00     0.074 A 
ATOM     52  C   UNL     1      -8.397  13.197  -2.841  1.00  0.00     0.029 A 
ATOM     53  N   UNL     1      -6.373  12.495  -2.241  1.00  0.00    -0.354 N 
ATOM     54  N   UNL     1      -3.431  12.695  -2.031  1.00  0.00    -0.248 NA
ATOM     55  C   UNL     1      -1.426  13.732  -2.625  1.00  0.00     0.031 C 
ATOM     56  C   UNL     1      -7.446  14.065  -3.386  1.00  0.00     0.029 A 
ATOM     57  C   UNL     1      -6.185  13.643  -2.992  1.00  0.00     0.049 A 
ATOM     58  H   UNL     1      -5.653  11.965  -1.829  1.00  0.00     0.167 HD
ATOM     59  C   UNL     1      -3.710  13.792  -2.833  1.00  0.00     0.074 A 
ATOM     60  C   UNL     1      -2.438  14.416  -3.139  1.00  0.00     0.031 C 
ATOM     61  C   UNL     1      -4.907  14.244  -3.281  1.00  0.00     0.037 A 
BRANCH  48  62
ATOM     62  C   UNL     1      -9.754  10.818  -1.538  1.00  0.00     0.064 A 
ATOM     63  C   UNL     1     -10.573  10.939  -0.404  1.00  0.00     0.173 A 
ATOM     64  C   UNL     1     -10.371  10.492  -2.756  1.00  0.00     0.173 A 
ATOM     65  F   UNL     1     -10.034  11.237   0.788  1.00  0.00    -0.203 F 
ATOM     66  C   UNL     1     -11.944  10.709  -0.479  1.00  0.00     0.198 A 
ATOM     67  C   UNL     1     -11.748  10.297  -2.835  1.00  0.00     0.198 A 
ATOM     68  F   UNL     1      -9.639  10.366  -3.873  1.00  0.00    -0.203 F 
ATOM     69  F   UNL     1     -12.694  10.774   0.630  1.00  0.00    -0.200 F 
ATOM     70  C   UNL     1     -12.532  10.397  -1.695  1.00  0.00     0.200 A 
ATOM     71  F   UNL     1     -12.316  10.009  -4.014  1.00  0.00    -0.200 F 
ATOM     72  F   UNL     1     -13.853  10.184  -1.768  1.00  0.00    -0.200 F 
ENDBRANCH  48  62
BRANCH  49  73
ATOM     73  C   UNL     1       0.208  11.833  -1.097  1.00  0.00     0.064 A 
ATOM     74  C   UNL     1       0.824  12.922  -0.464  1.00  0.00     0.173 A 
ATOM     75  C   UNL     1       1.038  10.876  -1.700  1.00  0.00     0.173 A 
ATOM     76  F   UNL     1       0.072  13.871   0.114  1.00  0.00    -0.203 F 
ATOM     77  C   UNL     1       2.210  13.062  -0.456  1.00  0.00     0.198 A 
ATOM     78  C   UNL     1       2.426  11.001  -1.663  1.00  0.00     0.198 A 
ATOM     79  F   UNL     1       0.502   9.809  -2.309  1.00  0.00    -0.203 F 
ATOM     80  F   UNL     1       2.768  14.138   0.115  1.00  0.00    -0.200 F 
ATOM     81  C   UNL     1       3.010  12.099  -1.050  1.00  0.00     0.200 A 
ATOM     82  F   UNL     1       3.196  10.057  -2.221  1.00  0.00    -0.200 F 
ATOM     83  F   UNL     1       4.343  12.231  -1.036  1.00  0.00    -0.200 F 
ENDBRANCH  49  73
BRANCH  61  84
ATOM     84  C   UNL     1      -4.898  15.486  -4.125  1.00  0.00     0.064 A 
ATOM     85  C   UNL     1      -4.397  15.480  -5.435  1.00  0.00     0.173 A 
ATOM     86  C   UNL     1      -5.432  16.685  -3.629  1.00  0.00     0.173 A 
ATOM     87  F   UNL     1      -3.861  14.363  -5.949  1.00  0.00    -0.203 F 
ATOM     88  C   UNL     1      -4.407  16.638  -6.208  1.00  0.00     0.198 A 
ATOM     89  C   UNL     1      -5.472  17.831  -4.417  1.00  0.00     0.198 A 
ATOM     90  F   UNL     1      -5.929  16.740  -2.384  1.00  0.00    -0.203 F 
ATOM     91  F   UNL     1      -3.874  16.624  -7.438  1.00  0.00    -0.200 F 
ATOM     92  C   UNL     1      -4.952  17.809  -5.702  1.00  0.00     0.200 A 
ATOM     93  F   UNL     1      -6.014  18.956  -3.932  1.00  0.00    -0.200 F 
ATOM     94  F   UNL     1      -4.968  18.920  -6.451  1.00  0.00    -0.200 F 
ENDBRANCH  61  84
ENDBRANCH  35  36
ENDBRANCH  27  30
ENDBRANCH  25  26
ENDBRANCH   1  25
TORSDOF 12
