REMARK SMILES CN(C(=O)N[C@](C)(C(=O)NCCCNC(=O)c1ccc(-c2c3nc(c(-c4c(F)c(F)c(F)c(F)c4F)c4ccc([nH]4)c(-c4c(F)c(F)c(F)c(F)c4F)c4nc(c(-c5c(F)c(F)c(F)c(F)c5F)c5ccc2[nH]5)C=C4)C=C3)cc1)C(F)(F)F)[C@@H]1CCC[N@@H+](C)C1
REMARK SMILES IDX 11 1 10 2 8 3 9 4 6 6 7 7 5 8 3 9 4 10 2 12 1 13 84 14 89 15
REMARK SMILES IDX 88 16 87 17 90 18 86 20 85 21 80 22 81 23 82 24 83 25 12 26
REMARK SMILES IDX 13 27 14 28 15 29 16 31 17 32 18 33 79 34 19 35 78 36 20 37
REMARK SMILES IDX 21 38 22 39 72 40 23 41 77 42 71 43 73 44 24 45 76 46 70 47
REMARK SMILES IDX 69 48 25 50 57 51 37 52 56 53 38 54 41 55 55 56 74 57 39 58
REMARK SMILES IDX 40 59 54 61 75 62 42 63 26 64 27 65 35 66 28 67 29 68 33 69
REMARK SMILES IDX 36 70 30 71 31 72 34 73 32 74 58 75 59 76 67 77 60 78 61 79
REMARK SMILES IDX 65 80 68 81 62 82 63 83 66 84 64 85 43 86 44 87 52 88 45 89
REMARK SMILES IDX 46 90 50 91 53 92 47 93 48 94 51 95 49 96
REMARK H PARENT 10 5 5 11 88 19 14 30 73 49 41 60
REMARK Flexibility Score: inf
ROOT
ATOM      1  C   UNL     1       0.399   0.218   6.932  1.00  0.00     0.117 C 
ENDROOT
BRANCH   1   2
ATOM      2  N   UNL     1       0.160  -1.202   6.718  1.00  0.00    -0.354 N 
ATOM      3  C   UNL     1       0.360  -2.067   5.681  1.00  0.00     0.255 C 
ATOM      4  O   UNL     1       0.023  -3.227   5.935  1.00  0.00    -0.272 OA
ATOM      5  H   UNL     1      -0.239  -1.640   7.505  1.00  0.00     0.163 HD
BRANCH   3   6
ATOM      6  C   UNL     1       1.047  -1.659   4.340  1.00  0.00     0.213 C 
ATOM      7  C   UNL     1       0.312  -0.493   3.669  1.00  0.00     0.056 C 
BRANCH   6   8
ATOM      8  N   UNL     1       2.408  -1.251   4.812  1.00  0.00    -0.316 N 
ATOM      9  C   UNL     1       3.659  -0.972   4.452  1.00  0.00     0.318 C 
ATOM     10  O   UNL     1       4.308  -0.592   5.429  1.00  0.00    -0.249 OA
ATOM     11  H   UNL     1       2.357  -1.145   5.790  1.00  0.00     0.166 HD
BRANCH   9  12
ATOM     12  N   UNL     1       4.185  -1.118   3.209  1.00  0.00    -0.319 N 
ATOM     13  C   UNL     1       3.438  -1.442   2.015  1.00  0.00     0.149 C 
BRANCH  12  14
ATOM     14  C   UNL     1       5.650  -0.943   2.973  1.00  0.00     0.141 C 
ATOM     15  C   UNL     1       6.829   2.422   4.331  1.00  0.00     0.332 C 
ATOM     16  N   UNL     1       6.446   1.016   4.351  1.00  0.00    -0.336 N 
ATOM     17  C   UNL     1       7.468   0.188   4.998  1.00  0.00     0.262 C 
ATOM     18  C   UNL     1       6.129   0.527   3.008  1.00  0.00     0.287 C 
ATOM     19  H   UNL     1       5.596   0.941   4.910  1.00  0.00     0.347 HD
ATOM     20  C   UNL     1       7.090  -1.294   5.088  1.00  0.00     0.064 C 
ATOM     21  C   UNL     1       6.574  -1.875   3.775  1.00  0.00     0.037 C 
ENDBRANCH  12  14
ENDBRANCH   9  12
ENDBRANCH   6   8
BRANCH   6  22
ATOM     22  C   UNL     1       0.924  -2.924   3.454  1.00  0.00     0.420 C 
ATOM     23  F   UNL     1      -0.333  -3.436   3.459  1.00  0.00    -0.168 F 
ATOM     24  F   UNL     1       1.154  -2.648   2.145  1.00  0.00    -0.168 F 
ATOM     25  F   UNL     1       1.783  -3.904   3.807  1.00  0.00    -0.168 F 
ENDBRANCH   6  22
ENDBRANCH   3   6
ENDBRANCH   1   2
BRANCH   1  26
ATOM     26  C   UNL     1      -0.888   1.040   6.879  1.00  0.00     0.042 C 
BRANCH  26  27
ATOM     27  C   UNL     1      -1.996   0.567   7.816  1.00  0.00     0.118 C 
BRANCH  27  28
ATOM     28  N   UNL     1      -1.660   0.712   9.222  1.00  0.00    -0.352 N 
ATOM     29  C   UNL     1      -2.265   1.459  10.205  1.00  0.00     0.251 C 
ATOM     30  H   UNL     1      -0.876   0.195   9.517  1.00  0.00     0.163 HD
ATOM     31  O   UNL     1      -1.728   1.567  11.302  1.00  0.00    -0.269 OA
BRANCH  29  32
ATOM     32  C   UNL     1      -3.542   2.161   9.944  1.00  0.00     0.039 A 
ATOM     33  C   UNL     1      -3.695   3.467  10.418  1.00  0.00     0.014 A 
ATOM     34  C   UNL     1      -4.591   1.543   9.259  1.00  0.00     0.014 A 
ATOM     35  C   UNL     1      -4.868   4.175  10.143  1.00  0.00     0.010 A 
ATOM     36  C   UNL     1      -5.723   2.277   8.912  1.00  0.00     0.010 A 
ATOM     37  C   UNL     1      -5.875   3.601   9.351  1.00  0.00    -0.014 A 
BRANCH  37  38
ATOM     38  C   UNL     1      -7.082   4.378   8.962  1.00  0.00     0.031 A 
ATOM     39  C   UNL     1      -8.450   3.934   9.396  1.00  0.00     0.074 A 
ATOM     40  C   UNL     1      -6.948   5.448   8.154  1.00  0.00     0.049 A 
ATOM     41  N   UNL     1      -9.620   4.450   9.107  1.00  0.00    -0.248 NA
ATOM     42  C   UNL     1      -8.518   2.734  10.243  1.00  0.00     0.031 C 
ATOM     43  C   UNL     1      -5.682   5.946   7.616  1.00  0.00     0.029 A 
ATOM     44  N   UNL     1      -7.889   6.302   7.632  1.00  0.00    -0.354 N 
ATOM     45  C   UNL     1     -10.557   3.628   9.720  1.00  0.00     0.074 A 
ATOM     46  C   UNL     1      -9.825   2.551  10.350  1.00  0.00     0.031 C 
ATOM     47  C   UNL     1      -5.920   7.025   6.856  1.00  0.00     0.029 A 
ATOM     48  C   UNL     1      -7.359   7.271   6.816  1.00  0.00     0.049 A 
ATOM     49  H   UNL     1      -8.851   6.226   7.824  1.00  0.00     0.167 HD
ATOM     50  C   UNL     1     -11.904   3.771   9.767  1.00  0.00     0.037 A 
ATOM     51  C   UNL     1      -7.962   8.241   6.102  1.00  0.00     0.037 A 
ATOM     52  C   UNL     1     -12.625   4.856   9.152  1.00  0.00     0.049 A 
ATOM     53  C   UNL     1      -9.458   8.382   6.171  1.00  0.00     0.074 A 
ATOM     54  C   UNL     1     -13.978   5.137   9.214  1.00  0.00     0.029 A 
ATOM     55  N   UNL     1     -12.051   5.832   8.349  1.00  0.00    -0.354 N 
ATOM     56  N   UNL     1     -10.327   7.654   6.829  1.00  0.00    -0.248 NA
ATOM     57  C   UNL     1     -10.056   9.484   5.407  1.00  0.00     0.031 C 
ATOM     58  C   UNL     1     -14.234   6.241   8.393  1.00  0.00     0.029 A 
ATOM     59  C   UNL     1     -13.031   6.692   7.876  1.00  0.00     0.049 A 
ATOM     60  H   UNL     1     -11.091   5.903   8.145  1.00  0.00     0.167 HD
ATOM     61  C   UNL     1     -11.570   8.219   6.576  1.00  0.00     0.074 A 
ATOM     62  C   UNL     1     -11.339   9.364   5.719  1.00  0.00     0.031 C 
ATOM     63  C   UNL     1     -12.791   7.824   7.015  1.00  0.00     0.037 A 
BRANCH  50  64
ATOM     64  C   UNL     1     -12.690   2.715  10.494  1.00  0.00     0.064 A 
ATOM     65  C   UNL     1     -12.599   2.546  11.885  1.00  0.00     0.173 A 
ATOM     66  C   UNL     1     -13.565   1.872   9.791  1.00  0.00     0.173 A 
ATOM     67  F   UNL     1     -11.773   3.319  12.607  1.00  0.00    -0.203 F 
ATOM     68  C   UNL     1     -13.319   1.547  12.536  1.00  0.00     0.198 A 
ATOM     69  C   UNL     1     -14.312   0.899  10.450  1.00  0.00     0.198 A 
ATOM     70  F   UNL     1     -13.700   1.993   8.462  1.00  0.00    -0.203 F 
ATOM     71  F   UNL     1     -13.166   1.364  13.855  1.00  0.00    -0.200 F 
ATOM     72  C   UNL     1     -14.180   0.729  11.820  1.00  0.00     0.200 A 
ATOM     73  F   UNL     1     -15.155   0.121   9.758  1.00  0.00    -0.200 F 
ATOM     74  F   UNL     1     -14.874  -0.229  12.448  1.00  0.00    -0.200 F 
ENDBRANCH  50  64
BRANCH  51  75
ATOM     75  C   UNL     1      -7.140   9.159   5.270  1.00  0.00     0.064 A 
ATOM     76  C   UNL     1      -6.984  10.508   5.617  1.00  0.00     0.173 A 
ATOM     77  C   UNL     1      -6.473   8.699   4.125  1.00  0.00     0.173 A 
ATOM     78  F   UNL     1      -7.617  11.000   6.692  1.00  0.00    -0.203 F 
ATOM     79  C   UNL     1      -6.204  11.365   4.843  1.00  0.00     0.198 A 
ATOM     80  C   UNL     1      -5.668   9.549   3.370  1.00  0.00     0.198 A 
ATOM     81  F   UNL     1      -6.583   7.415   3.754  1.00  0.00    -0.203 F 
ATOM     82  F   UNL     1      -6.103  12.659   5.175  1.00  0.00    -0.200 F 
ATOM     83  C   UNL     1      -5.539  10.882   3.725  1.00  0.00     0.200 A 
ATOM     84  F   UNL     1      -5.013   9.073   2.302  1.00  0.00    -0.200 F 
ATOM     85  F   UNL     1      -4.777  11.703   2.989  1.00  0.00    -0.200 F 
ENDBRANCH  51  75
BRANCH  63  86
ATOM     86  C   UNL     1     -13.975   8.649   6.594  1.00  0.00     0.064 A 
ATOM     87  C   UNL     1     -14.435   8.659   5.269  1.00  0.00     0.173 A 
ATOM     88  C   UNL     1     -14.683   9.408   7.539  1.00  0.00     0.173 A 
ATOM     89  F   UNL     1     -13.786   7.963   4.323  1.00  0.00    -0.203 F 
ATOM     90  C   UNL     1     -15.542   9.420   4.900  1.00  0.00     0.198 A 
ATOM     91  C   UNL     1     -15.810  10.139   7.174  1.00  0.00     0.198 A 
ATOM     92  F   UNL     1     -14.291   9.429   8.822  1.00  0.00    -0.203 F 
ATOM     93  F   UNL     1     -15.931   9.455   3.618  1.00  0.00    -0.200 F 
ATOM     94  C   UNL     1     -16.234  10.151   5.854  1.00  0.00     0.200 A 
ATOM     95  F   UNL     1     -16.487  10.831   8.101  1.00  0.00    -0.200 F 
ATOM     96  F   UNL     1     -17.305  10.874   5.499  1.00  0.00    -0.200 F 
ENDBRANCH  63  86
ENDBRANCH  37  38
ENDBRANCH  29  32
ENDBRANCH  27  28
ENDBRANCH  26  27
ENDBRANCH   1  26
TORSDOF 14
