REMARK SMILES [NH3+]C1CC[NH+](CC(=O)Nc2cc(Cl)ccc2C(=O)NCCCNC(=O)c2ccc(-c3c4nc(c(-c5c(F)c(F)c(F)c(F)c5F)c5ccc([nH]5)c(-c5c(F)c(F)c(F)c(F)c5F)c5nc(c(-c6c(F)c(F)c(F)c(F)c6F)c6ccc3[nH]6)C=C5)C=C4)cc2)CC1
REMARK SMILES IDX 20 1 19 2 17 3 18 4 16 6 10 7 11 8 12 9 15 10 13 11 14 12
REMARK SMILES IDX 9 13 7 14 8 15 6 17 5 18 2 19 3 20 90 21 4 22 89 23 1 25
REMARK SMILES IDX 21 29 22 30 23 31 24 32 25 34 26 35 27 36 88 37 28 38 87 39
REMARK SMILES IDX 29 40 30 41 31 42 81 43 32 44 86 45 80 46 82 47 33 48 85 49
REMARK SMILES IDX 79 50 78 51 34 53 66 54 46 55 65 56 47 57 50 58 64 59 83 60
REMARK SMILES IDX 48 61 49 62 63 64 84 65 51 66 35 67 36 68 44 69 37 70 38 71
REMARK SMILES IDX 42 72 45 73 39 74 40 75 43 76 41 77 67 78 68 79 76 80 69 81
REMARK SMILES IDX 70 82 74 83 77 84 71 85 72 86 75 87 73 88 52 89 53 90 61 91
REMARK SMILES IDX 54 92 55 93 59 94 62 95 56 96 57 97 60 98 58 99
REMARK H PARENT 19 5 9 16 5 24 1 26 1 27 1 28 23 33 82 52 50 63
REMARK Flexibility Score: inf
ROOT
ATOM      1  C   UNL     1      -3.994   2.148   1.717  1.00  0.00     0.118 C 
ENDROOT
BRANCH   1   2
ATOM      2  N   UNL     1      -4.844   1.121   1.142  1.00  0.00    -0.352 N 
ATOM      3  C   UNL     1      -4.831   0.166   0.170  1.00  0.00     0.253 C 
ATOM      4  O   UNL     1      -5.886  -0.486   0.140  1.00  0.00    -0.269 OA
ATOM      5  H   UNL     1      -5.713   1.112   1.604  1.00  0.00     0.163 HD
BRANCH   3   6
ATOM      6  C   UNL     1      -3.766  -0.222  -0.825  1.00  0.00     0.063 A 
ATOM      7  C   UNL     1      -2.753   0.548  -1.461  1.00  0.00     0.055 A 
ATOM      8  C   UNL     1      -2.032  -0.043  -2.508  1.00  0.00     0.047 A 
ATOM      9  C   UNL     1      -2.206  -1.381  -2.872  1.00  0.00     0.043 A 
ATOM     10  C   UNL     1      -3.926  -1.576  -1.236  1.00  0.00     0.017 A 
ATOM     11  Cl  UNL     1      -1.227  -2.070  -4.107  1.00  0.00    -0.084 Cl
ATOM     12  C   UNL     1      -3.148  -2.159  -2.232  1.00  0.00     0.021 A 
BRANCH   7  13
ATOM     13  N   UNL     1      -2.442   1.839  -1.005  1.00  0.00    -0.320 N 
ATOM     14  C   UNL     1      -1.492   2.803  -1.182  1.00  0.00     0.279 C 
ATOM     15  O   UNL     1      -1.454   3.664  -0.289  1.00  0.00    -0.268 OA
ATOM     16  H   UNL     1      -3.118   2.142  -0.356  1.00  0.00     0.170 HD
BRANCH  14  17
ATOM     17  C   UNL     1      -0.560   2.942  -2.376  1.00  0.00     0.363 C 
BRANCH  17  18
ATOM     18  N   UNL     1       0.858   2.599  -2.174  1.00  0.00    -0.327 N 
ATOM     19  C   UNL     1       1.825   1.484   0.409  1.00  0.00     0.192 C 
ATOM     20  C   UNL     1       1.692   2.999   0.196  1.00  0.00     0.126 C 
ATOM     21  C   UNL     1       0.975   0.698  -0.589  1.00  0.00     0.126 C 
ATOM     22  C   UNL     1       1.641   3.446  -1.271  1.00  0.00     0.268 C 
ATOM     23  C   UNL     1       1.184   1.193  -2.015  1.00  0.00     0.268 C 
ATOM     24  H   UNL     1       1.181   2.847  -3.109  1.00  0.00     0.348 HD
BRANCH  19  25
ATOM     25  N   UNL     1       3.223   1.046   0.343  1.00  0.00    -0.355 N 
ATOM     26  H   UNL     1       3.778   1.578   1.013  1.00  0.00     0.344 HD
ATOM     27  H   UNL     1       3.584   1.203  -0.598  1.00  0.00     0.344 HD
ATOM     28  H   UNL     1       3.280   0.052   0.567  1.00  0.00     0.344 HD
ENDBRANCH  19  25
ENDBRANCH  17  18
ENDBRANCH  14  17
ENDBRANCH   7  13
ENDBRANCH   3   6
ENDBRANCH   1   2
BRANCH   1  29
ATOM     29  C   UNL     1      -4.359   3.514   1.125  1.00  0.00     0.042 C 
BRANCH  29  30
ATOM     30  C   UNL     1      -5.283   4.328   2.020  1.00  0.00     0.118 C 
BRANCH  30  31
ATOM     31  N   UNL     1      -4.624   4.716   3.263  1.00  0.00    -0.352 N 
ATOM     32  C   UNL     1      -4.218   5.941   3.733  1.00  0.00     0.251 C 
ATOM     33  H   UNL     1      -4.436   3.966   3.872  1.00  0.00     0.163 HD
ATOM     34  O   UNL     1      -3.470   5.995   4.700  1.00  0.00    -0.269 OA
BRANCH  32  35
ATOM     35  C   UNL     1      -4.663   7.189   3.076  1.00  0.00     0.039 A 
ATOM     36  C   UNL     1      -3.778   8.269   3.003  1.00  0.00     0.014 A 
ATOM     37  C   UNL     1      -5.947   7.306   2.546  1.00  0.00     0.014 A 
ATOM     38  C   UNL     1      -4.150   9.426   2.316  1.00  0.00     0.010 A 
ATOM     39  C   UNL     1      -6.272   8.405   1.762  1.00  0.00     0.010 A 
ATOM     40  C   UNL     1      -5.377   9.477   1.636  1.00  0.00    -0.014 A 
BRANCH  40  41
ATOM     41  C   UNL     1      -5.746  10.623   0.768  1.00  0.00     0.031 A 
ATOM     42  C   UNL     1      -7.000  11.404   1.046  1.00  0.00     0.074 A 
ATOM     43  C   UNL     1      -5.009  10.887  -0.328  1.00  0.00     0.049 A 
ATOM     44  N   UNL     1      -7.571  12.338   0.329  1.00  0.00    -0.248 NA
ATOM     45  C   UNL     1      -7.734  11.061   2.275  1.00  0.00     0.031 C 
ATOM     46  C   UNL     1      -3.801  10.164  -0.732  1.00  0.00     0.029 A 
ATOM     47  N   UNL     1      -5.177  11.825  -1.317  1.00  0.00    -0.354 N 
ATOM     48  C   UNL     1      -8.735  12.674   1.006  1.00  0.00     0.074 A 
ATOM     49  C   UNL     1      -8.824  11.804   2.157  1.00  0.00     0.031 C 
ATOM     50  C   UNL     1      -3.324  10.699  -1.865  1.00  0.00     0.029 A 
ATOM     51  C   UNL     1      -4.220  11.764  -2.301  1.00  0.00     0.049 A 
ATOM     52  H   UNL     1      -5.913  12.479  -1.320  1.00  0.00     0.167 HD
ATOM     53  C   UNL     1      -9.634  13.642   0.708  1.00  0.00     0.037 A 
ATOM     54  C   UNL     1      -4.093  12.472  -3.439  1.00  0.00     0.037 A 
ATOM     55  C   UNL     1      -9.519  14.524  -0.423  1.00  0.00     0.049 A 
ATOM     56  C   UNL     1      -5.120  13.523  -3.761  1.00  0.00     0.074 A 
ATOM     57  C   UNL     1     -10.329  15.590  -0.770  1.00  0.00     0.029 A 
ATOM     58  N   UNL     1      -8.532  14.436  -1.394  1.00  0.00    -0.354 N 
ATOM     59  N   UNL     1      -6.173  13.888  -3.071  1.00  0.00    -0.248 NA
ATOM     60  C   UNL     1      -4.945  14.255  -5.022  1.00  0.00     0.031 C 
ATOM     61  C   UNL     1      -9.867  16.110  -1.983  1.00  0.00     0.029 A 
ATOM     62  C   UNL     1      -8.737  15.403  -2.364  1.00  0.00     0.049 A 
ATOM     63  H   UNL     1      -7.795  13.783  -1.393  1.00  0.00     0.167 HD
ATOM     64  C   UNL     1      -6.777  14.900  -3.803  1.00  0.00     0.074 A 
ATOM     65  C   UNL     1      -5.959  15.109  -4.979  1.00  0.00     0.031 C 
ATOM     66  C   UNL     1      -7.912  15.590  -3.531  1.00  0.00     0.037 A 
BRANCH  53  67
ATOM     67  C   UNL     1     -10.818  13.799   1.619  1.00  0.00     0.064 A 
ATOM     68  C   UNL     1     -10.680  14.267   2.935  1.00  0.00     0.173 A 
ATOM     69  C   UNL     1     -12.113  13.511   1.160  1.00  0.00     0.173 A 
ATOM     70  F   UNL     1      -9.464  14.546   3.429  1.00  0.00    -0.203 F 
ATOM     71  C   UNL     1     -11.788  14.409   3.767  1.00  0.00     0.198 A 
ATOM     72  C   UNL     1     -13.222  13.687   1.983  1.00  0.00     0.198 A 
ATOM     73  F   UNL     1     -12.304  13.066  -0.091  1.00  0.00    -0.203 F 
ATOM     74  F   UNL     1     -11.624  14.804   5.037  1.00  0.00    -0.200 F 
ATOM     75  C   UNL     1     -13.058  14.127   3.288  1.00  0.00     0.200 A 
ATOM     76  F   UNL     1     -14.451  13.428   1.514  1.00  0.00    -0.200 F 
ATOM     77  F   UNL     1     -14.125  14.272   4.087  1.00  0.00    -0.200 F 
ENDBRANCH  53  67
BRANCH  54  78
ATOM     78  C   UNL     1      -2.950  12.211  -4.354  1.00  0.00     0.064 A 
ATOM     79  C   UNL     1      -1.939  13.166  -4.530  1.00  0.00     0.173 A 
ATOM     80  C   UNL     1      -2.840  11.007  -5.066  1.00  0.00     0.173 A 
ATOM     81  F   UNL     1      -2.010  14.341  -3.887  1.00  0.00    -0.203 F 
ATOM     82  C   UNL     1      -0.873  12.935  -5.397  1.00  0.00     0.198 A 
ATOM     83  C   UNL     1      -1.757  10.765  -5.909  1.00  0.00     0.198 A 
ATOM     84  F   UNL     1      -3.777  10.058  -4.931  1.00  0.00    -0.203 F 
ATOM     85  F   UNL     1       0.054  13.885  -5.581  1.00  0.00    -0.200 F 
ATOM     86  C   UNL     1      -0.779  11.733  -6.080  1.00  0.00     0.200 A 
ATOM     87  F   UNL     1      -1.662   9.595  -6.555  1.00  0.00    -0.200 F 
ATOM     88  F   UNL     1       0.249  11.509  -6.910  1.00  0.00    -0.200 F 
ENDBRANCH  54  78
BRANCH  66  89
ATOM     89  C   UNL     1      -8.334  16.638  -4.519  1.00  0.00     0.064 A 
ATOM     90  C   UNL     1      -8.857  16.291  -5.773  1.00  0.00     0.173 A 
ATOM     91  C   UNL     1      -8.270  17.999  -4.186  1.00  0.00     0.173 A 
ATOM     92  F   UNL     1      -8.922  15.003  -6.144  1.00  0.00    -0.203 F 
ATOM     93  C   UNL     1      -9.285  17.270  -6.665  1.00  0.00     0.198 A 
ATOM     94  C   UNL     1      -8.729  18.974  -5.067  1.00  0.00     0.198 A 
ATOM     95  F   UNL     1      -7.783  18.383  -2.996  1.00  0.00    -0.203 F 
ATOM     96  F   UNL     1      -9.743  16.918  -7.874  1.00  0.00    -0.200 F 
ATOM     97  C   UNL     1      -9.231  18.609  -6.307  1.00  0.00     0.200 A 
ATOM     98  F   UNL     1      -8.691  20.266  -4.714  1.00  0.00    -0.200 F 
ATOM     99  F   UNL     1      -9.658  19.549  -7.161  1.00  0.00    -0.200 F 
ENDBRANCH  66  89
ENDBRANCH  40  41
ENDBRANCH  32  35
ENDBRANCH  30  31
ENDBRANCH  29  30
ENDBRANCH   1  29
TORSDOF 14
