REMARK SMILES O=C(NCCCNC(=O)c1cc(NS(=O)(=O)c2cccc(F)c2)ccc1N1CCSCC1)c1ccc(-c2c3nc(c(-c4c(F)c(F)c(F)c(F)c4F)c4ccc([nH]4)c(-c4c(F)c(F)c(F)c(F)c4F)c4nc(c(-c5c(F)c(F)c(F)c(F)c5F)c5ccc2[nH]5)C=C4)C=C3)cc1
REMARK SMILES IDX 5 1 4 2 3 3 1 4 2 5 33 7 34 8 95 9 35 10 94 11 36 12 37 13
REMARK SMILES IDX 38 14 88 15 39 16 93 17 87 18 89 19 40 20 92 21 86 22 85 23
REMARK SMILES IDX 41 25 73 26 53 27 72 28 54 29 57 30 71 31 90 32 55 33 56 34
REMARK SMILES IDX 70 36 91 37 58 38 42 39 43 40 51 41 44 42 45 43 49 44 52 45
REMARK SMILES IDX 46 46 47 47 50 48 48 49 74 50 75 51 83 52 76 53 77 54 81 55
REMARK SMILES IDX 84 56 78 57 79 58 82 59 80 60 59 61 60 62 68 63 61 64 62 65
REMARK SMILES IDX 66 66 69 67 63 68 64 69 67 70 65 71 6 72 7 73 8 74 9 76
REMARK SMILES IDX 10 77 11 78 26 79 12 80 25 81 24 82 27 83 28 84 32 85 29 86
REMARK SMILES IDX 31 87 30 88 13 89 14 91 15 92 16 93 17 94 18 95 23 96 19 97
REMARK SMILES IDX 21 98 20 99 22 100
REMARK H PARENT 3 6 89 24 57 35 7 75 13 90
REMARK Flexibility Score: inf
ROOT
ATOM      1  C   UNL     1       5.238   0.652  -2.292  1.00  0.00     0.042 C 
ENDROOT
BRANCH   1   2
ATOM      2  C   UNL     1       4.679   1.220  -0.999  1.00  0.00     0.118 C 
BRANCH   2   3
ATOM      3  N   UNL     1       3.247   0.989  -0.830  1.00  0.00    -0.352 N 
ATOM      4  O   UNL     1       1.331   0.017  -0.164  1.00  0.00    -0.269 OA
ATOM      5  C   UNL     1       2.546   0.125  -0.021  1.00  0.00     0.251 C 
ATOM      6  H   UNL     1       2.679   1.556  -1.400  1.00  0.00     0.163 HD
BRANCH   5   7
ATOM      7  C   UNL     1       3.236  -0.702   0.993  1.00  0.00     0.039 A 
ATOM      8  C   UNL     1       4.314  -0.199   1.713  1.00  0.00     0.014 A 
ATOM      9  C   UNL     1       2.789  -2.005   1.247  1.00  0.00     0.014 A 
ATOM     10  C   UNL     1       5.083  -1.050   2.490  1.00  0.00     0.010 A 
ATOM     11  C   UNL     1       3.481  -2.822   2.151  1.00  0.00     0.010 A 
ATOM     12  C   UNL     1       4.667  -2.368   2.743  1.00  0.00    -0.014 A 
BRANCH  12  13
ATOM     13  C   UNL     1       5.486  -3.192   3.671  1.00  0.00     0.031 A 
ATOM     14  C   UNL     1       6.158  -4.459   3.220  1.00  0.00     0.074 A 
ATOM     15  C   UNL     1       5.706  -2.717   4.915  1.00  0.00     0.049 A 
ATOM     16  N   UNL     1       6.998  -5.221   3.876  1.00  0.00    -0.248 NA
ATOM     17  C   UNL     1       5.844  -4.946   1.868  1.00  0.00     0.031 C 
ATOM     18  C   UNL     1       5.082  -1.515   5.475  1.00  0.00     0.029 A 
ATOM     19  N   UNL     1       6.551  -3.142   5.907  1.00  0.00    -0.354 N 
ATOM     20  C   UNL     1       7.293  -6.283   3.031  1.00  0.00     0.074 A 
ATOM     21  C   UNL     1       6.527  -6.082   1.821  1.00  0.00     0.031 C 
ATOM     22  C   UNL     1       5.638  -1.242   6.662  1.00  0.00     0.029 A 
ATOM     23  C   UNL     1       6.600  -2.288   6.983  1.00  0.00     0.049 A 
ATOM     24  H   UNL     1       7.072  -3.975   5.854  1.00  0.00     0.167 HD
ATOM     25  C   UNL     1       8.133  -7.325   3.247  1.00  0.00     0.037 A 
ATOM     26  C   UNL     1       7.338  -2.338   8.107  1.00  0.00     0.037 A 
ATOM     27  C   UNL     1       8.913  -7.508   4.445  1.00  0.00     0.049 A 
ATOM     28  C   UNL     1       8.293  -3.479   8.295  1.00  0.00     0.074 A 
ATOM     29  C   UNL     1       9.789  -8.533   4.759  1.00  0.00     0.029 A 
ATOM     30  N   UNL     1       8.918  -6.636   5.524  1.00  0.00    -0.354 N 
ATOM     31  N   UNL     1       8.556  -4.476   7.487  1.00  0.00    -0.248 NA
ATOM     32  C   UNL     1       9.046  -3.507   9.555  1.00  0.00     0.031 C 
ATOM     33  C   UNL     1      10.304  -8.294   6.038  1.00  0.00     0.029 A 
ATOM     34  C   UNL     1       9.778  -7.102   6.506  1.00  0.00     0.049 A 
ATOM     35  H   UNL     1       8.388  -5.808   5.583  1.00  0.00     0.167 HD
ATOM     36  C   UNL     1       9.492  -5.258   8.143  1.00  0.00     0.074 A 
ATOM     37  C   UNL     1       9.788  -4.594   9.396  1.00  0.00     0.031 C 
ATOM     38  C   UNL     1      10.044  -6.433   7.752  1.00  0.00     0.037 A 
BRANCH  25  39
ATOM     39  C   UNL     1       8.251  -8.361   2.167  1.00  0.00     0.064 A 
ATOM     40  C   UNL     1       8.956  -8.110   0.981  1.00  0.00     0.173 A 
ATOM     41  C   UNL     1       7.702  -9.640   2.346  1.00  0.00     0.173 A 
ATOM     42  F   UNL     1       9.487  -6.899   0.756  1.00  0.00    -0.203 F 
ATOM     43  C   UNL     1       9.096  -9.097   0.008  1.00  0.00     0.198 A 
ATOM     44  C   UNL     1       7.864 -10.632   1.381  1.00  0.00     0.198 A 
ATOM     45  F   UNL     1       7.022  -9.934   3.464  1.00  0.00    -0.203 F 
ATOM     46  F   UNL     1       9.747  -8.824  -1.131  1.00  0.00    -0.200 F 
ATOM     47  C   UNL     1       8.558 -10.358   0.212  1.00  0.00     0.200 A 
ATOM     48  F   UNL     1       7.351 -11.854   1.585  1.00  0.00    -0.200 F 
ATOM     49  F   UNL     1       8.704 -11.310  -0.720  1.00  0.00    -0.200 F 
ENDBRANCH  25  39
BRANCH  26  50
ATOM     50  C   UNL     1       7.190  -1.274   9.132  1.00  0.00     0.064 A 
ATOM     51  C   UNL     1       8.220  -0.357   9.380  1.00  0.00     0.173 A 
ATOM     52  C   UNL     1       6.002  -1.137   9.866  1.00  0.00     0.173 A 
ATOM     53  F   UNL     1       9.382  -0.458   8.717  1.00  0.00    -0.203 F 
ATOM     54  C   UNL     1       8.072   0.649  10.332  1.00  0.00     0.198 A 
ATOM     55  C   UNL     1       5.843  -0.112  10.793  1.00  0.00     0.198 A 
ATOM     56  F   UNL     1       4.984  -1.985   9.658  1.00  0.00    -0.203 F 
ATOM     57  F   UNL     1       9.085   1.492  10.577  1.00  0.00    -0.200 F 
ATOM     58  C   UNL     1       6.880   0.777  11.031  1.00  0.00     0.200 A 
ATOM     59  F   UNL     1       4.683   0.019  11.450  1.00  0.00    -0.200 F 
ATOM     60  F   UNL     1       6.732   1.754  11.936  1.00  0.00    -0.200 F 
ENDBRANCH  26  50
BRANCH  38  61
ATOM     61  C   UNL     1      11.010  -7.069   8.704  1.00  0.00     0.064 A 
ATOM     62  C   UNL     1      10.567  -7.688   9.882  1.00  0.00     0.173 A 
ATOM     63  C   UNL     1      12.386  -7.062   8.438  1.00  0.00     0.173 A 
ATOM     64  F   UNL     1       9.260  -7.703  10.186  1.00  0.00    -0.203 F 
ATOM     65  C   UNL     1      11.472  -8.251  10.776  1.00  0.00     0.198 A 
ATOM     66  C   UNL     1      13.287  -7.647   9.323  1.00  0.00     0.198 A 
ATOM     67  F   UNL     1      12.857  -6.484   7.322  1.00  0.00    -0.203 F 
ATOM     68  F   UNL     1      11.032  -8.792  11.921  1.00  0.00    -0.200 F 
ATOM     69  C   UNL     1      12.830  -8.233  10.495  1.00  0.00     0.200 A 
ATOM     70  F   UNL     1      14.598  -7.635   9.048  1.00  0.00    -0.200 F 
ATOM     71  F   UNL     1      13.701  -8.770  11.360  1.00  0.00    -0.200 F 
ENDBRANCH  38  61
ENDBRANCH  12  13
ENDBRANCH   5   7
ENDBRANCH   2   3
ENDBRANCH   1   2
BRANCH   1  72
ATOM     72  C   UNL     1       4.669   1.296  -3.541  1.00  0.00     0.118 C 
BRANCH  72  73
ATOM     73  N   UNL     1       4.912   2.724  -3.633  1.00  0.00    -0.352 N 
ATOM     74  C   UNL     1       5.297   3.450  -4.734  1.00  0.00     0.253 C 
ATOM     75  H   UNL     1       4.784   3.237  -2.803  1.00  0.00     0.163 HD
ATOM     76  O   UNL     1       5.376   4.673  -4.667  1.00  0.00    -0.269 OA
BRANCH  74  77
ATOM     77  C   UNL     1       5.732   2.744  -5.958  1.00  0.00     0.065 A 
ATOM     78  C   UNL     1       7.114   2.865  -6.191  1.00  0.00     0.042 A 
ATOM     79  C   UNL     1       4.916   1.896  -6.731  1.00  0.00     0.050 A 
ATOM     80  C   UNL     1       7.758   2.061  -7.119  1.00  0.00     0.050 A 
ATOM     81  C   UNL     1       5.589   1.127  -7.699  1.00  0.00     0.029 A 
ATOM     82  C   UNL     1       6.984   1.179  -7.867  1.00  0.00     0.029 A 
BRANCH  79  83
ATOM     83  N   UNL     1       3.535   1.772  -6.609  1.00  0.00    -0.369 N 
ATOM     84  C   UNL     1       2.711   2.921  -6.189  1.00  0.00     0.127 C 
ATOM     85  C   UNL     1       2.941   0.433  -6.431  1.00  0.00     0.127 C 
ATOM     86  C   UNL     1       1.386   2.979  -6.954  1.00  0.00     0.091 C 
ATOM     87  C   UNL     1       1.651   0.266  -7.232  1.00  0.00     0.091 C 
ATOM     88  S   UNL     1       0.379   1.474  -6.736  1.00  0.00    -0.158 SA
ENDBRANCH  79  83
BRANCH  80  89
ATOM     89  N   UNL     1       9.177   1.931  -7.178  1.00  0.00    -0.280 N 
ATOM     90  H   UNL     1       9.546   1.037  -7.358  1.00  0.00     0.180 HD
BRANCH  89  91
ATOM     91  S   UNL     1      10.264   3.196  -6.964  1.00  0.00     0.261 S 
ATOM     92  O   UNL     1      11.578   2.633  -7.146  1.00  0.00    -0.201 OA
ATOM     93  O   UNL     1       9.802   4.317  -7.762  1.00  0.00    -0.201 OA
BRANCH  91  94
ATOM     94  C   UNL     1      10.130   3.639  -5.249  1.00  0.00     0.090 A 
ATOM     95  C   UNL     1      10.018   4.995  -4.910  1.00  0.00     0.022 A 
ATOM     96  C   UNL     1       9.953   2.643  -4.285  1.00  0.00     0.061 A 
ATOM     97  C   UNL     1       9.687   5.355  -3.603  1.00  0.00     0.004 A 
ATOM     98  C   UNL     1       9.607   3.023  -2.994  1.00  0.00     0.124 A 
ATOM     99  C   UNL     1       9.466   4.364  -2.647  1.00  0.00     0.039 A 
ATOM    100  F   UNL     1       9.356   2.079  -2.077  1.00  0.00    -0.207 F 
ENDBRANCH  91  94
ENDBRANCH  89  91
ENDBRANCH  80  89
ENDBRANCH  74  77
ENDBRANCH  72  73
ENDBRANCH   1  72
TORSDOF 14
