REMARK SMILES C=CCOc1ccccc1C(=O)N[C@H](C(=O)NCCCNC(=O)c1ccc(-c2c3nc(c(-c4c(F)c(F)c(F)c(F)c4F)c4ccc([nH]4)c(-c4c(F)c(F)c(F)c(F)c4F)c4nc(c(-c5c(F)c(F)c(F)c(F)c5F)c5ccc2[nH]5)C=C4)C=C3)cc1)[C@@H](C)O
REMARK SMILES IDX 15 1 16 2 17 3 14 5 13 6 11 7 12 8 10 10 5 11 6 12 7 13 9 14
REMARK SMILES IDX 8 15 4 16 3 17 2 18 1 19 87 20 88 21 89 22 18 24 19 25 20 26
REMARK SMILES IDX 21 27 22 28 23 30 24 31 25 32 86 33 26 34 85 35 27 36 28 37
REMARK SMILES IDX 29 38 79 39 30 40 84 41 78 42 80 43 31 44 83 45 77 46 76 47
REMARK SMILES IDX 32 49 64 50 44 51 63 52 45 53 48 54 62 55 81 56 46 57 47 58
REMARK SMILES IDX 61 60 82 61 49 62 33 63 34 64 42 65 35 66 36 67 40 68 43 69
REMARK SMILES IDX 37 70 38 71 41 72 39 73 65 74 66 75 74 76 67 77 68 78 72 79
REMARK SMILES IDX 75 80 69 81 70 82 73 83 71 84 50 85 51 86 59 87 52 88 53 89
REMARK SMILES IDX 57 90 60 91 54 92 55 93 58 94 56 95
REMARK H PARENT 17 4 13 9 89 23 21 29 80 48 48 59
REMARK Flexibility Score: inf
ROOT
ATOM      1  C   UNL     1       1.104  -0.720   0.250  1.00  0.00     0.245 C 
ATOM      2  O   UNL     1       2.071  -0.406   0.942  1.00  0.00    -0.273 OA
ATOM      3  N   UNL     1       1.326  -1.035  -1.065  1.00  0.00    -0.354 N 
ATOM      4  H   UNL     1       2.167  -1.498  -1.280  1.00  0.00     0.163 HD
ENDROOT
BRANCH   1   5
ATOM      5  C   UNL     1      -0.308  -0.948   0.803  1.00  0.00     0.200 C 
BRANCH   5   6
ATOM      6  N   UNL     1      -0.193  -1.749   2.057  1.00  0.00    -0.338 N 
ATOM      7  C   UNL     1       0.339  -1.494   3.304  1.00  0.00     0.255 C 
ATOM      8  O   UNL     1       0.670  -2.455   3.999  1.00  0.00    -0.269 OA
ATOM      9  H   UNL     1      -0.580  -2.651   1.977  1.00  0.00     0.164 HD
BRANCH   7  10
ATOM     10  C   UNL     1       0.581  -0.135   3.801  1.00  0.00     0.081 A 
ATOM     11  C   UNL     1      -0.355   0.886   3.817  1.00  0.00     0.132 A 
ATOM     12  C   UNL     1       0.140   2.202   3.795  1.00  0.00     0.047 A 
ATOM     13  C   UNL     1       1.488   2.483   4.029  1.00  0.00     0.004 A 
ATOM     14  C   UNL     1       1.899   0.134   4.225  1.00  0.00     0.018 A 
ATOM     15  C   UNL     1       2.346   1.446   4.364  1.00  0.00     0.001 A 
BRANCH  11  16
ATOM     16  O   UNL     1      -1.710   0.839   3.933  1.00  0.00    -0.489 OA
BRANCH  16  17
ATOM     17  C   UNL     1      -2.600  -0.274   3.864  1.00  0.00     0.257 C 
BRANCH  17  18
ATOM     18  C   UNL     1      -2.349  -1.503   4.675  1.00  0.00     0.006 C 
ATOM     19  C   UNL     1      -2.936  -1.812   5.834  1.00  0.00     0.007 C 
ENDBRANCH  17  18
ENDBRANCH  16  17
ENDBRANCH  11  16
ENDBRANCH   7  10
ENDBRANCH   5   6
BRANCH   5  20
ATOM     20  C   UNL     1      -1.383   0.162   0.749  1.00  0.00     0.143 C 
ATOM     21  C   UNL     1      -1.232   1.409  -0.098  1.00  0.00     0.041 C 
BRANCH  20  22
ATOM     22  O   UNL     1      -2.637  -0.421   0.332  1.00  0.00    -0.391 OA
ATOM     23  H   UNL     1      -2.570  -0.707  -0.592  1.00  0.00     0.211 HD
ENDBRANCH  20  22
ENDBRANCH   5  20
ENDBRANCH   1   5
BRANCH   3  24
ATOM     24  C   UNL     1       0.428  -0.745  -2.167  1.00  0.00     0.117 C 
BRANCH  24  25
ATOM     25  C   UNL     1       0.651   0.695  -2.609  1.00  0.00     0.042 C 
BRANCH  25  26
ATOM     26  C   UNL     1       2.038   0.931  -3.164  1.00  0.00     0.118 C 
BRANCH  26  27
ATOM     27  N   UNL     1       2.138   0.456  -4.526  1.00  0.00    -0.352 N 
ATOM     28  C   UNL     1       2.018   1.172  -5.690  1.00  0.00     0.251 C 
ATOM     29  H   UNL     1       2.316  -0.507  -4.632  1.00  0.00     0.163 HD
ATOM     30  O   UNL     1       1.784   0.589  -6.740  1.00  0.00    -0.269 OA
BRANCH  28  31
ATOM     31  C   UNL     1       2.154   2.647  -5.667  1.00  0.00     0.039 A 
ATOM     32  C   UNL     1       1.374   3.411  -6.537  1.00  0.00     0.014 A 
ATOM     33  C   UNL     1       3.070   3.278  -4.821  1.00  0.00     0.014 A 
ATOM     34  C   UNL     1       1.502   4.801  -6.537  1.00  0.00     0.010 A 
ATOM     35  C   UNL     1       3.091   4.662  -4.720  1.00  0.00     0.010 A 
ATOM     36  C   UNL     1       2.347   5.439  -5.614  1.00  0.00    -0.014 A 
BRANCH  36  37
ATOM     37  C   UNL     1       2.529   6.912  -5.621  1.00  0.00     0.031 A 
ATOM     38  C   UNL     1       3.896   7.495  -5.869  1.00  0.00     0.074 A 
ATOM     39  C   UNL     1       1.482   7.718  -5.366  1.00  0.00     0.049 A 
ATOM     40  N   UNL     1       4.274   8.749  -5.877  1.00  0.00    -0.248 NA
ATOM     41  C   UNL     1       4.994   6.542  -6.102  1.00  0.00     0.031 C 
ATOM     42  C   UNL     1       0.125   7.268  -5.054  1.00  0.00     0.029 A 
ATOM     43  N   UNL     1       1.397   9.086  -5.327  1.00  0.00    -0.354 N 
ATOM     44  C   UNL     1       5.646   8.727  -6.093  1.00  0.00     0.074 A 
ATOM     45  C   UNL     1       6.049   7.340  -6.130  1.00  0.00     0.031 C 
ATOM     46  C   UNL     1      -0.666   8.340  -4.894  1.00  0.00     0.029 A 
ATOM     47  C   UNL     1       0.136   9.550  -5.048  1.00  0.00     0.049 A 
ATOM     48  H   UNL     1       2.168   9.679  -5.484  1.00  0.00     0.167 HD
ATOM     49  C   UNL     1       6.492   9.768  -6.281  1.00  0.00     0.037 A 
ATOM     50  C   UNL     1      -0.319  10.811  -4.926  1.00  0.00     0.037 A 
ATOM     51  C   UNL     1       6.077  11.145  -6.272  1.00  0.00     0.049 A 
ATOM     52  C   UNL     1       0.636  11.954  -5.138  1.00  0.00     0.074 A 
ATOM     53  C   UNL     1       6.834  12.276  -6.515  1.00  0.00     0.029 A 
ATOM     54  N   UNL     1       4.787  11.576  -5.999  1.00  0.00    -0.354 N 
ATOM     55  N   UNL     1       1.916  11.922  -5.420  1.00  0.00    -0.248 NA
ATOM     56  C   UNL     1       0.080  13.309  -5.023  1.00  0.00     0.031 C 
ATOM     57  C   UNL     1       6.016  13.395  -6.329  1.00  0.00     0.029 A 
ATOM     58  C   UNL     1       4.732  12.960  -6.036  1.00  0.00     0.049 A 
ATOM     59  H   UNL     1       4.022  10.986  -5.806  1.00  0.00     0.167 HD
ATOM     60  C   UNL     1       2.315  13.246  -5.541  1.00  0.00     0.074 A 
ATOM     61  C   UNL     1       1.134  14.056  -5.319  1.00  0.00     0.031 C 
ATOM     62  C   UNL     1       3.546  13.748  -5.811  1.00  0.00     0.037 A 
BRANCH  49  63
ATOM     63  C   UNL     1       7.944   9.449  -6.507  1.00  0.00     0.064 A 
ATOM     64  C   UNL     1       8.386   8.777  -7.659  1.00  0.00     0.173 A 
ATOM     65  C   UNL     1       8.910   9.822  -5.560  1.00  0.00     0.173 A 
ATOM     66  F   UNL     1       7.505   8.385  -8.592  1.00  0.00    -0.203 F 
ATOM     67  C   UNL     1       9.729   8.448  -7.830  1.00  0.00     0.198 A 
ATOM     68  C   UNL     1      10.258   9.527  -5.753  1.00  0.00     0.198 A 
ATOM     69  F   UNL     1       8.549  10.472  -4.444  1.00  0.00    -0.203 F 
ATOM     70  F   UNL     1      10.113   7.741  -8.902  1.00  0.00    -0.200 F 
ATOM     71  C   UNL     1      10.664   8.829  -6.880  1.00  0.00     0.200 A 
ATOM     72  F   UNL     1      11.163   9.909  -4.842  1.00  0.00    -0.200 F 
ATOM     73  F   UNL     1      11.956   8.513  -7.046  1.00  0.00    -0.200 F 
ENDBRANCH  49  63
BRANCH  50  74
ATOM     74  C   UNL     1      -1.754  11.049  -4.620  1.00  0.00     0.064 A 
ATOM     75  C   UNL     1      -2.617  11.595  -5.580  1.00  0.00     0.173 A 
ATOM     76  C   UNL     1      -2.297  10.711  -3.371  1.00  0.00     0.173 A 
ATOM     77  F   UNL     1      -2.142  11.949  -6.783  1.00  0.00    -0.203 F 
ATOM     78  C   UNL     1      -3.965  11.809  -5.298  1.00  0.00     0.198 A 
ATOM     79  C   UNL     1      -3.651  10.897  -3.101  1.00  0.00     0.198 A 
ATOM     80  F   UNL     1      -1.516  10.177  -2.421  1.00  0.00    -0.203 F 
ATOM     81  F   UNL     1      -4.759  12.368  -6.220  1.00  0.00    -0.200 F 
ATOM     82  C   UNL     1      -4.483  11.452  -4.061  1.00  0.00     0.200 A 
ATOM     83  F   UNL     1      -4.151  10.533  -1.912  1.00  0.00    -0.200 F 
ATOM     84  F   UNL     1      -5.781  11.646  -3.795  1.00  0.00    -0.200 F 
ENDBRANCH  50  74
BRANCH  62  85
ATOM     85  C   UNL     1       3.674  15.241  -5.913  1.00  0.00     0.064 A 
ATOM     86  C   UNL     1       3.569  16.069  -4.786  1.00  0.00     0.173 A 
ATOM     87  C   UNL     1       3.949  15.845  -7.149  1.00  0.00     0.173 A 
ATOM     88  F   UNL     1       3.294  15.543  -3.583  1.00  0.00    -0.203 F 
ATOM     89  C   UNL     1       3.707  17.450  -4.899  1.00  0.00     0.198 A 
ATOM     90  C   UNL     1       4.122  17.222  -7.252  1.00  0.00     0.198 A 
ATOM     91  F   UNL     1       4.068  15.097  -8.257  1.00  0.00    -0.203 F 
ATOM     92  F   UNL     1       3.550  18.227  -3.818  1.00  0.00    -0.200 F 
ATOM     93  C   UNL     1       3.991  18.024  -6.129  1.00  0.00     0.200 A 
ATOM     94  F   UNL     1       4.414  17.773  -8.438  1.00  0.00    -0.200 F 
ATOM     95  F   UNL     1       4.133  19.353  -6.233  1.00  0.00    -0.200 F 
ENDBRANCH  62  85
ENDBRANCH  36  37
ENDBRANCH  28  31
ENDBRANCH  26  27
ENDBRANCH  25  26
ENDBRANCH  24  25
ENDBRANCH   3  24
TORSDOF 17
