REMARK SMILES O=C(NCCCNC(=O)c1nn(Cc2ccc(F)cc2)c2c1CN(C(=O)[C@H]1CC1(F)F)CC2)c1ccc(-c2c3nc(c(-c4c(F)c(F)c(F)c(F)c4F)c4ccc([nH]4)c(-c4c(F)c(F)c(F)c(F)c4F)c4nc(c(-c5c(F)c(F)c(F)c(F)c5F)c5ccc2[nH]5)C=C4)C=C3)cc1
REMARK SMILES IDX 5 1 4 2 3 3 1 4 2 5 34 7 35 8 96 9 36 10 95 11 37 12 38 13
REMARK SMILES IDX 39 14 89 15 40 16 94 17 88 18 90 19 41 20 93 21 87 22 86 23
REMARK SMILES IDX 42 25 74 26 54 27 73 28 55 29 58 30 72 31 91 32 56 33 57 34
REMARK SMILES IDX 71 36 92 37 59 38 43 39 44 40 52 41 45 42 46 43 50 44 53 45
REMARK SMILES IDX 47 46 48 47 51 48 49 49 75 50 76 51 84 52 77 53 78 54 82 55
REMARK SMILES IDX 85 56 79 57 80 58 83 59 81 60 60 61 61 62 69 63 62 64 63 65
REMARK SMILES IDX 67 66 70 67 64 68 65 69 68 70 66 71 6 72 7 73 8 74 9 76
REMARK SMILES IDX 10 77 11 78 22 79 12 80 21 81 23 82 33 83 24 84 32 85 13 86
REMARK SMILES IDX 14 87 15 88 20 89 16 90 19 91 17 92 18 93 25 94 26 95 27 96
REMARK SMILES IDX 28 97 29 98 30 99 31 100
REMARK H PARENT 3 6 90 24 58 35 7 75
REMARK Flexibility Score: inf
ROOT
ATOM      1  C   UNL     1      15.847  11.429  -7.399  1.00  0.00     0.042 C 
ENDROOT
BRANCH   1   2
ATOM      2  C   UNL     1      16.829  11.912  -6.332  1.00  0.00     0.118 C 
BRANCH   2   3
ATOM      3  N   UNL     1      17.869  12.797  -6.814  1.00  0.00    -0.352 N 
ATOM      4  O   UNL     1      19.161  14.560  -7.104  1.00  0.00    -0.269 OA
ATOM      5  C   UNL     1      18.012  14.153  -6.910  1.00  0.00     0.251 C 
ATOM      6  H   UNL     1      18.655  12.309  -7.151  1.00  0.00     0.163 HD
BRANCH   5   7
ATOM      7  C   UNL     1      16.902  15.144  -6.901  1.00  0.00     0.039 A 
ATOM      8  C   UNL     1      15.564  14.885  -6.599  1.00  0.00     0.014 A 
ATOM      9  C   UNL     1      17.257  16.439  -7.326  1.00  0.00     0.014 A 
ATOM     10  C   UNL     1      14.591  15.858  -6.833  1.00  0.00     0.010 A 
ATOM     11  C   UNL     1      16.295  17.411  -7.558  1.00  0.00     0.010 A 
ATOM     12  C   UNL     1      14.954  17.101  -7.362  1.00  0.00    -0.014 A 
BRANCH  12  13
ATOM     13  C   UNL     1      13.929  18.127  -7.556  1.00  0.00     0.031 A 
ATOM     14  C   UNL     1      13.331  18.641  -6.284  1.00  0.00     0.074 A 
ATOM     15  C   UNL     1      13.693  18.689  -8.763  1.00  0.00     0.049 A 
ATOM     16  N   UNL     1      12.081  18.739  -5.959  1.00  0.00    -0.248 NA
ATOM     17  C   UNL     1      14.255  19.004  -5.191  1.00  0.00     0.031 C 
ATOM     18  C   UNL     1      14.411  18.456 -10.020  1.00  0.00     0.029 A 
ATOM     19  N   UNL     1      12.812  19.674  -9.108  1.00  0.00    -0.354 N 
ATOM     20  C   UNL     1      12.056  19.330  -4.694  1.00  0.00     0.074 A 
ATOM     21  C   UNL     1      13.411  19.346  -4.218  1.00  0.00     0.031 C 
ATOM     22  C   UNL     1      14.099  19.427 -10.909  1.00  0.00     0.029 A 
ATOM     23  C   UNL     1      13.067  20.274 -10.340  1.00  0.00     0.049 A 
ATOM     24  H   UNL     1      12.058  19.939  -8.533  1.00  0.00     0.167 HD
ATOM     25  C   UNL     1      10.945  19.963  -4.226  1.00  0.00     0.037 A 
ATOM     26  C   UNL     1      12.514  21.421 -10.817  1.00  0.00     0.037 A 
ATOM     27  C   UNL     1       9.760  19.488  -4.886  1.00  0.00     0.049 A 
ATOM     28  C   UNL     1      11.280  21.672 -10.033  1.00  0.00     0.074 A 
ATOM     29  C   UNL     1       9.119  18.267  -4.966  1.00  0.00     0.029 A 
ATOM     30  N   UNL     1       9.231  20.247  -5.898  1.00  0.00    -0.354 N 
ATOM     31  N   UNL     1      10.219  20.918 -10.084  1.00  0.00    -0.248 NA
ATOM     32  C   UNL     1      11.410  22.503  -8.846  1.00  0.00     0.031 C 
ATOM     33  C   UNL     1       8.639  18.193  -6.306  1.00  0.00     0.029 A 
ATOM     34  C   UNL     1       8.950  19.398  -6.936  1.00  0.00     0.049 A 
ATOM     35  H   UNL     1       9.081  21.220  -5.882  1.00  0.00     0.167 HD
ATOM     36  C   UNL     1       9.781  20.848  -8.772  1.00  0.00     0.074 A 
ATOM     37  C   UNL     1      10.522  21.889  -8.062  1.00  0.00     0.031 C 
ATOM     38  C   UNL     1       9.076  19.770  -8.323  1.00  0.00     0.037 A 
BRANCH  25  39
ATOM     39  C   UNL     1      10.977  21.262  -3.450  1.00  0.00     0.064 A 
ATOM     40  C   UNL     1      12.084  22.139  -3.431  1.00  0.00     0.173 A 
ATOM     41  C   UNL     1       9.768  21.808  -2.970  1.00  0.00     0.173 A 
ATOM     42  F   UNL     1      13.279  21.794  -3.924  1.00  0.00    -0.203 F 
ATOM     43  C   UNL     1      11.983  23.463  -3.006  1.00  0.00     0.198 A 
ATOM     44  C   UNL     1       9.660  23.150  -2.592  1.00  0.00     0.198 A 
ATOM     45  F   UNL     1       8.645  21.075  -2.953  1.00  0.00    -0.203 F 
ATOM     46  F   UNL     1      13.064  24.254  -3.058  1.00  0.00    -0.200 F 
ATOM     47  C   UNL     1      10.765  23.979  -2.619  1.00  0.00     0.200 A 
ATOM     48  F   UNL     1       8.461  23.656  -2.271  1.00  0.00    -0.200 F 
ATOM     49  F   UNL     1      10.651  25.279  -2.323  1.00  0.00    -0.200 F 
ENDBRANCH  25  39
BRANCH  26  50
ATOM     50  C   UNL     1      13.169  22.511 -11.592  1.00  0.00     0.064 A 
ATOM     51  C   UNL     1      14.552  22.756 -11.483  1.00  0.00     0.173 A 
ATOM     52  C   UNL     1      12.408  23.525 -12.204  1.00  0.00     0.173 A 
ATOM     53  F   UNL     1      15.355  21.891 -10.849  1.00  0.00    -0.203 F 
ATOM     54  C   UNL     1      15.131  23.947 -11.928  1.00  0.00     0.198 A 
ATOM     55  C   UNL     1      12.989  24.721 -12.645  1.00  0.00     0.198 A 
ATOM     56  F   UNL     1      11.076  23.400 -12.307  1.00  0.00    -0.203 F 
ATOM     57  F   UNL     1      16.442  24.158 -11.739  1.00  0.00    -0.200 F 
ATOM     58  C   UNL     1      14.349  24.936 -12.494  1.00  0.00     0.200 A 
ATOM     59  F   UNL     1      12.220  25.692 -13.158  1.00  0.00    -0.200 F 
ATOM     60  F   UNL     1      14.896  26.107 -12.850  1.00  0.00    -0.200 F 
ENDBRANCH  26  50
BRANCH  38  61
ATOM     61  C   UNL     1       8.592  18.768  -9.333  1.00  0.00     0.064 A 
ATOM     62  C   UNL     1       7.221  18.489  -9.378  1.00  0.00     0.173 A 
ATOM     63  C   UNL     1       9.443  17.961 -10.109  1.00  0.00     0.173 A 
ATOM     64  F   UNL     1       6.367  19.195  -8.620  1.00  0.00    -0.203 F 
ATOM     65  C   UNL     1       6.721  17.442 -10.147  1.00  0.00     0.198 A 
ATOM     66  C   UNL     1       8.936  16.935 -10.906  1.00  0.00     0.198 A 
ATOM     67  F   UNL     1      10.772  18.105 -10.052  1.00  0.00    -0.203 F 
ATOM     68  F   UNL     1       5.413  17.156 -10.110  1.00  0.00    -0.200 F 
ATOM     69  C   UNL     1       7.577  16.668 -10.914  1.00  0.00     0.200 A 
ATOM     70  F   UNL     1       9.767  16.171 -11.632  1.00  0.00    -0.200 F 
ATOM     71  F   UNL     1       7.095  15.645 -11.632  1.00  0.00    -0.200 F 
ENDBRANCH  38  61
ENDBRANCH  12  13
ENDBRANCH   5   7
ENDBRANCH   2   3
ENDBRANCH   1   2
BRANCH   1  72
ATOM     72  C   UNL     1      16.482  10.627  -8.540  1.00  0.00     0.118 C 
BRANCH  72  73
ATOM     73  N   UNL     1      17.047   9.364  -8.088  1.00  0.00    -0.351 N 
ATOM     74  C   UNL     1      16.604   8.070  -8.271  1.00  0.00     0.272 C 
ATOM     75  H   UNL     1      17.879   9.446  -7.568  1.00  0.00     0.163 HD
ATOM     76  O   UNL     1      17.138   7.182  -7.606  1.00  0.00    -0.267 OA
BRANCH  74  77
ATOM     77  C   UNL     1      15.496   7.779  -9.195  1.00  0.00     0.155 A 
ATOM     78  N   UNL     1      15.325   8.429 -10.365  1.00  0.00    -0.167 NA
ATOM     79  C   UNL     1      14.509   6.765  -9.050  1.00  0.00     0.026 A 
ATOM     80  N   UNL     1      14.186   7.928 -10.890  1.00  0.00    -0.264 N 
ATOM     81  C   UNL     1      13.639   6.962 -10.103  1.00  0.00     0.046 A 
ATOM     82  C   UNL     1      14.321   5.728  -7.990  1.00  0.00     0.159 C 
ATOM     83  C   UNL     1      12.373   6.211 -10.301  1.00  0.00     0.078 C 
ATOM     84  N   UNL     1      13.154   4.884  -8.342  1.00  0.00    -0.337 N 
ATOM     85  C   UNL     1      11.995   5.570  -8.948  1.00  0.00     0.126 C 
BRANCH  80  86
ATOM     86  C   UNL     1      13.754   8.352 -12.218  1.00  0.00     0.180 C 
BRANCH  86  87
ATOM     87  C   UNL     1      13.380   9.814 -12.273  1.00  0.00    -0.026 A 
ATOM     88  C   UNL     1      14.385  10.799 -12.278  1.00  0.00     0.008 A 
ATOM     89  C   UNL     1      12.036  10.215 -12.333  1.00  0.00     0.008 A 
ATOM     90  C   UNL     1      14.056  12.151 -12.344  1.00  0.00     0.039 A 
ATOM     91  C   UNL     1      11.709  11.571 -12.406  1.00  0.00     0.039 A 
ATOM     92  C   UNL     1      12.721  12.525 -12.411  1.00  0.00     0.123 A 
ATOM     93  F   UNL     1      12.404  13.824 -12.485  1.00  0.00    -0.207 F 
ENDBRANCH  86  87
ENDBRANCH  80  86
BRANCH  84  94
ATOM     94  C   UNL     1      13.208   3.525  -8.046  1.00  0.00     0.232 C 
ATOM     95  O   UNL     1      14.158   2.990  -7.504  1.00  0.00    -0.274 OA
BRANCH  94  96
ATOM     96  C   UNL     1      12.003   2.724  -8.359  1.00  0.00     0.154 C 
ATOM     97  C   UNL     1      11.692   2.302  -9.786  1.00  0.00     0.097 C 
ATOM     98  C   UNL     1      12.131   1.308  -8.778  1.00  0.00     0.260 C 
ATOM     99  F   UNL     1      13.332   0.668  -8.966  1.00  0.00    -0.206 F 
ATOM    100  F   UNL     1      11.227   0.364  -8.342  1.00  0.00    -0.206 F 
ENDBRANCH  94  96
ENDBRANCH  84  94
ENDBRANCH  74  77
ENDBRANCH  72  73
ENDBRANCH   1  72
TORSDOF 14
