REMARK SMILES C[C@@H](C(=O)NCCCNC(=O)c1ccc(-c2c3nc(c(-c4c(F)c(F)c(F)c(F)c4F)c4ccc([nH]4)c(-c4c(F)c(F)c(F)c(F)c4F)c4nc(c(-c5c(F)c(F)c(F)c(F)c5F)c5ccc2[nH]5)C=C4)C=C3)cc1)c1ccc(-c2ccc3[nH]ccc3c2)cc1
REMARK SMILES IDX 7 1 6 2 5 3 3 4 4 5 2 7 1 8 75 9 76 10 89 11 77 12 88 13
REMARK SMILES IDX 78 14 79 15 80 16 87 17 81 18 86 19 82 20 85 21 83 22 84 23
REMARK SMILES IDX 8 25 9 26 10 27 11 29 12 30 13 31 74 32 14 33 73 34 15 35
REMARK SMILES IDX 16 36 17 37 67 38 18 39 72 40 66 41 68 42 19 43 71 44 65 45
REMARK SMILES IDX 64 46 20 48 52 49 32 50 51 51 33 52 36 53 50 54 69 55 34 56
REMARK SMILES IDX 35 57 49 59 70 60 37 61 21 62 22 63 30 64 23 65 24 66 28 67
REMARK SMILES IDX 31 68 25 69 26 70 29 71 27 72 53 73 54 74 62 75 55 76 56 77
REMARK SMILES IDX 60 78 63 79 57 80 58 81 61 82 59 83 38 84 39 85 47 86 40 87
REMARK SMILES IDX 41 88 45 89 48 90 42 91 43 92 46 93 44 94
REMARK H PARENT 5 6 83 24 9 28 68 47 36 58
REMARK Flexibility Score: inf
ROOT
ATOM      1  C   UNL     1       4.396   0.385   1.137  1.00  0.00     0.042 C 
ENDROOT
BRANCH   1   2
ATOM      2  C   UNL     1       3.547  -0.666   1.843  1.00  0.00     0.117 C 
BRANCH   2   3
ATOM      3  N   UNL     1       2.517  -0.043   2.647  1.00  0.00    -0.356 N 
ATOM      4  C   UNL     1       1.194   0.149   2.384  1.00  0.00     0.227 C 
ATOM      5  O   UNL     1       0.583   0.872   3.173  1.00  0.00    -0.274 OA
ATOM      6  H   UNL     1       2.820   0.294   3.521  1.00  0.00     0.163 HD
BRANCH   4   7
ATOM      7  C   UNL     1       0.548  -0.543   1.173  1.00  0.00     0.105 C 
ATOM      8  C   UNL     1       0.938   0.108  -0.157  1.00  0.00     0.023 C 
BRANCH   7   9
ATOM      9  C   UNL     1      -0.970  -0.592   1.275  1.00  0.00    -0.036 A 
ATOM     10  C   UNL     1      -1.720   0.593   1.296  1.00  0.00     0.005 A 
ATOM     11  C   UNL     1      -1.643  -1.820   1.310  1.00  0.00     0.005 A 
ATOM     12  C   UNL     1      -3.109   0.552   1.324  1.00  0.00     0.009 A 
ATOM     13  C   UNL     1      -3.040  -1.859   1.335  1.00  0.00     0.009 A 
ATOM     14  C   UNL     1      -3.785  -0.673   1.323  1.00  0.00    -0.018 A 
BRANCH  14  15
ATOM     15  C   UNL     1      -5.245  -0.686   1.261  1.00  0.00    -0.018 A 
ATOM     16  C   UNL     1      -5.886  -0.395   0.048  1.00  0.00     0.011 A 
ATOM     17  C   UNL     1      -6.013  -0.916   2.414  1.00  0.00     0.019 A 
ATOM     18  C   UNL     1      -7.277  -0.344  -0.057  1.00  0.00     0.027 A 
ATOM     19  C   UNL     1      -7.417  -0.821   2.344  1.00  0.00    -0.000 A 
ATOM     20  C   UNL     1      -8.013  -0.557   1.111  1.00  0.00     0.045 A 
ATOM     21  C   UNL     1      -8.462  -0.899   3.305  1.00  0.00     0.028 A 
ATOM     22  N   UNL     1      -9.374  -0.549   1.313  1.00  0.00    -0.361 N 
ATOM     23  C   UNL     1      -9.653  -0.703   2.645  1.00  0.00     0.083 A 
ATOM     24  H   UNL     1     -10.049  -0.448   0.604  1.00  0.00     0.166 HD
ENDBRANCH  14  15
ENDBRANCH   7   9
ENDBRANCH   4   7
ENDBRANCH   2   3
ENDBRANCH   1   2
BRANCH   1  25
ATOM     25  C   UNL     1       5.137   1.312   2.092  1.00  0.00     0.118 C 
BRANCH  25  26
ATOM     26  N   UNL     1       6.130   0.610   2.893  1.00  0.00    -0.352 N 
ATOM     27  C   UNL     1       7.486   0.814   2.972  1.00  0.00     0.251 C 
ATOM     28  H   UNL     1       5.779  -0.116   3.458  1.00  0.00     0.163 HD
ATOM     29  O   UNL     1       8.203   0.006   3.546  1.00  0.00    -0.269 OA
BRANCH  27  30
ATOM     30  C   UNL     1       8.075   2.011   2.339  1.00  0.00     0.039 A 
ATOM     31  C   UNL     1       9.227   1.875   1.560  1.00  0.00     0.014 A 
ATOM     32  C   UNL     1       7.480   3.263   2.507  1.00  0.00     0.014 A 
ATOM     33  C   UNL     1       9.745   2.987   0.892  1.00  0.00     0.010 A 
ATOM     34  C   UNL     1       7.944   4.348   1.776  1.00  0.00     0.010 A 
ATOM     35  C   UNL     1       9.085   4.223   0.967  1.00  0.00    -0.014 A 
BRANCH  35  36
ATOM     36  C   UNL     1       9.568   5.422   0.239  1.00  0.00     0.031 A 
ATOM     37  C   UNL     1       9.985   6.637   1.017  1.00  0.00     0.074 A 
ATOM     38  C   UNL     1       9.524   5.460  -1.105  1.00  0.00     0.049 A 
ATOM     39  N   UNL     1      10.257   7.844   0.593  1.00  0.00    -0.248 NA
ATOM     40  C   UNL     1      10.066   6.479   2.478  1.00  0.00     0.031 C 
ATOM     41  C   UNL     1       9.112   4.356  -1.970  1.00  0.00     0.029 A 
ATOM     42  N   UNL     1       9.800   6.483  -1.978  1.00  0.00    -0.354 N 
ATOM     43  C   UNL     1      10.511   8.594   1.734  1.00  0.00     0.074 A 
ATOM     44  C   UNL     1      10.305   7.721   2.869  1.00  0.00     0.031 C 
ATOM     45  C   UNL     1       9.162   4.759  -3.250  1.00  0.00     0.029 A 
ATOM     46  C   UNL     1       9.558   6.164  -3.292  1.00  0.00     0.049 A 
ATOM     47  H   UNL     1      10.139   7.362  -1.690  1.00  0.00     0.167 HD
ATOM     48  C   UNL     1      10.898   9.888   1.825  1.00  0.00     0.037 A 
ATOM     49  C   UNL     1       9.621   6.926  -4.401  1.00  0.00     0.037 A 
ATOM     50  C   UNL     1      11.114  10.743   0.687  1.00  0.00     0.049 A 
ATOM     51  C   UNL     1      10.032   8.368  -4.280  1.00  0.00     0.074 A 
ATOM     52  C   UNL     1      11.558  12.053   0.664  1.00  0.00     0.029 A 
ATOM     53  N   UNL     1      10.892  10.371  -0.632  1.00  0.00    -0.354 N 
ATOM     54  N   UNL     1      10.321   9.058  -3.203  1.00  0.00    -0.248 NA
ATOM     55  C   UNL     1      10.130   9.139  -5.527  1.00  0.00     0.031 C 
ATOM     56  C   UNL     1      11.546  12.493  -0.663  1.00  0.00     0.029 A 
ATOM     57  C   UNL     1      11.166  11.435  -1.475  1.00  0.00     0.049 A 
ATOM     58  H   UNL     1      10.586   9.482  -0.925  1.00  0.00     0.167 HD
ATOM     59  C   UNL     1      10.672  10.328  -3.642  1.00  0.00     0.074 A 
ATOM     60  C   UNL     1      10.556  10.315  -5.085  1.00  0.00     0.031 C 
ATOM     61  C   UNL     1      11.063  11.402  -2.914  1.00  0.00     0.037 A 
BRANCH  48  62
ATOM     62  C   UNL     1      11.088  10.456   3.204  1.00  0.00     0.064 A 
ATOM     63  C   UNL     1      12.106  10.002   4.059  1.00  0.00     0.173 A 
ATOM     64  C   UNL     1      10.237  11.464   3.681  1.00  0.00     0.173 A 
ATOM     65  F   UNL     1      12.944   9.034   3.658  1.00  0.00    -0.203 F 
ATOM     66  C   UNL     1      12.229  10.497   5.354  1.00  0.00     0.198 A 
ATOM     67  C   UNL     1      10.389  11.986   4.963  1.00  0.00     0.198 A 
ATOM     68  F   UNL     1       9.253  11.943   2.905  1.00  0.00    -0.203 F 
ATOM     69  F   UNL     1      13.159   9.991   6.177  1.00  0.00    -0.200 F 
ATOM     70  C   UNL     1      11.374  11.491   5.804  1.00  0.00     0.200 A 
ATOM     71  F   UNL     1       9.572  12.959   5.389  1.00  0.00    -0.200 F 
ATOM     72  F   UNL     1      11.491  11.964   7.052  1.00  0.00    -0.200 F 
ENDBRANCH  48  62
BRANCH  49  73
ATOM     73  C   UNL     1       9.297   6.324  -5.720  1.00  0.00     0.064 A 
ATOM     74  C   UNL     1      10.301   6.089  -6.670  1.00  0.00     0.173 A 
ATOM     75  C   UNL     1       7.988   5.940  -6.046  1.00  0.00     0.173 A 
ATOM     76  F   UNL     1      11.565   6.455  -6.411  1.00  0.00    -0.203 F 
ATOM     77  C   UNL     1      10.007   5.502  -7.899  1.00  0.00     0.198 A 
ATOM     78  C   UNL     1       7.699   5.327  -7.264  1.00  0.00     0.198 A 
ATOM     79  F   UNL     1       6.992   6.135  -5.169  1.00  0.00    -0.203 F 
ATOM     80  F   UNL     1      10.980   5.318  -8.801  1.00  0.00    -0.200 F 
ATOM     81  C   UNL     1       8.708   5.113  -8.191  1.00  0.00     0.200 A 
ATOM     82  F   UNL     1       6.447   4.936  -7.535  1.00  0.00    -0.200 F 
ATOM     83  F   UNL     1       8.428   4.534  -9.367  1.00  0.00    -0.200 F 
ENDBRANCH  49  73
BRANCH  61  84
ATOM     84  C   UNL     1      11.461  12.645  -3.658  1.00  0.00     0.064 A 
ATOM     85  C   UNL     1      10.518  13.467  -4.289  1.00  0.00     0.173 A 
ATOM     86  C   UNL     1      12.803  13.058  -3.663  1.00  0.00     0.173 A 
ATOM     87  F   UNL     1       9.226  13.110  -4.325  1.00  0.00    -0.203 F 
ATOM     88  C   UNL     1      10.906  14.654  -4.908  1.00  0.00     0.198 A 
ATOM     89  C   UNL     1      13.182  14.259  -4.255  1.00  0.00     0.198 A 
ATOM     90  F   UNL     1      13.743  12.309  -3.068  1.00  0.00    -0.203 F 
ATOM     91  F   UNL     1       9.993  15.410  -5.535  1.00  0.00    -0.200 F 
ATOM     92  C   UNL     1      12.234  15.055  -4.880  1.00  0.00     0.200 A 
ATOM     93  F   UNL     1      14.462  14.652  -4.210  1.00  0.00    -0.200 F 
ATOM     94  F   UNL     1      12.601  16.207  -5.456  1.00  0.00    -0.200 F 
ENDBRANCH  61  84
ENDBRANCH  35  36
ENDBRANCH  27  30
ENDBRANCH  25  26
ENDBRANCH   1  25
TORSDOF 12
