REMARK SMILES O=C(NCCCNC(=O)c1cncc(Sc2ccc(Cl)cn2)n1)c1ccc(-c2c3nc(c(-c4c(F)c(F)c(F)c(F)c4F)c4ccc([nH]4)c(-c4c(F)c(F)c(F)c(F)c4F)c4nc(c(-c5c(F)c(F)c(F)c(F)c5F)c5ccc2[nH]5)C=C4)C=C3)cc1
REMARK SMILES IDX 5 1 4 2 3 3 1 4 2 5 24 7 25 8 86 9 26 10 85 11 27 12 28 13
REMARK SMILES IDX 29 14 79 15 30 16 84 17 78 18 80 19 31 20 83 21 77 22 76 23
REMARK SMILES IDX 32 25 64 26 44 27 63 28 45 29 48 30 62 31 81 32 46 33 47 34
REMARK SMILES IDX 61 36 82 37 49 38 33 39 34 40 42 41 35 42 36 43 40 44 43 45
REMARK SMILES IDX 37 46 38 47 41 48 39 49 65 50 66 51 74 52 67 53 68 54 72 55
REMARK SMILES IDX 75 56 69 57 70 58 73 59 71 60 50 61 51 62 59 63 52 64 53 65
REMARK SMILES IDX 57 66 60 67 54 68 55 69 58 70 56 71 6 72 7 73 8 74 9 76
REMARK SMILES IDX 10 77 11 78 23 79 12 80 14 81 13 82 15 83 16 84 17 85 22 86
REMARK SMILES IDX 18 87 21 88 19 89 20 90
REMARK H PARENT 3 6 80 24 48 35 7 75
REMARK Flexibility Score: inf
ROOT
ATOM      1  C   UNL     1       4.841  -1.686   1.737  1.00  0.00     0.042 C 
ENDROOT
BRANCH   1   2
ATOM      2  C   UNL     1       4.477  -1.279   0.315  1.00  0.00     0.118 C 
BRANCH   2   3
ATOM      3  N   UNL     1       3.043  -1.093   0.127  1.00  0.00    -0.352 N 
ATOM      4  O   UNL     1       1.087   0.003  -0.058  1.00  0.00    -0.269 OA
ATOM      5  C   UNL     1       2.314   0.046  -0.111  1.00  0.00     0.251 C 
ATOM      6  H   UNL     1       2.511  -1.919   0.180  1.00  0.00     0.163 HD
BRANCH   5   7
ATOM      7  C   UNL     1       2.991   1.327  -0.406  1.00  0.00     0.039 A 
ATOM      8  C   UNL     1       4.100   1.377  -1.251  1.00  0.00     0.014 A 
ATOM      9  C   UNL     1       2.485   2.507   0.149  1.00  0.00     0.014 A 
ATOM     10  C   UNL     1       4.802   2.566  -1.405  1.00  0.00     0.010 A 
ATOM     11  C   UNL     1       3.132   3.723  -0.091  1.00  0.00     0.010 A 
ATOM     12  C   UNL     1       4.318   3.757  -0.842  1.00  0.00    -0.014 A 
BRANCH  12  13
ATOM     13  C   UNL     1       5.035   5.031  -1.100  1.00  0.00     0.031 A 
ATOM     14  C   UNL     1       5.658   5.814   0.022  1.00  0.00     0.074 A 
ATOM     15  C   UNL     1       5.138   5.471  -2.369  1.00  0.00     0.049 A 
ATOM     16  N   UNL     1       6.312   6.947  -0.026  1.00  0.00    -0.248 NA
ATOM     17  C   UNL     1       5.522   5.258   1.377  1.00  0.00     0.031 C 
ATOM     18  C   UNL     1       4.569   4.800  -3.540  1.00  0.00     0.029 A 
ATOM     19  N   UNL     1       5.761   6.576  -2.890  1.00  0.00    -0.354 N 
ATOM     20  C   UNL     1       6.650   7.249   1.287  1.00  0.00     0.074 A 
ATOM     21  C   UNL     1       6.102   6.195   2.114  1.00  0.00     0.031 C 
ATOM     22  C   UNL     1       4.901   5.484  -4.644  1.00  0.00     0.029 A 
ATOM     23  C   UNL     1       5.645   6.676  -4.255  1.00  0.00     0.049 A 
ATOM     24  H   UNL     1       6.245   7.233  -2.340  1.00  0.00     0.167 HD
ATOM     25  C   UNL     1       7.359   8.306   1.755  1.00  0.00     0.037 A 
ATOM     26  C   UNL     1       6.067   7.633  -5.100  1.00  0.00     0.037 A 
ATOM     27  C   UNL     1       7.908   9.346   0.922  1.00  0.00     0.049 A 
ATOM     28  C   UNL     1       6.815   8.813  -4.549  1.00  0.00     0.074 A 
ATOM     29  C   UNL     1       8.670  10.439   1.296  1.00  0.00     0.029 A 
ATOM     30  N   UNL     1       7.744   9.429  -0.454  1.00  0.00    -0.354 N 
ATOM     31  N   UNL     1       7.159   9.069  -3.310  1.00  0.00    -0.248 NA
ATOM     32  C   UNL     1       7.232   9.839  -5.513  1.00  0.00     0.031 C 
ATOM     33  C   UNL     1       8.919  11.212   0.157  1.00  0.00     0.029 A 
ATOM     34  C   UNL     1       8.367  10.569  -0.939  1.00  0.00     0.049 A 
ATOM     35  H   UNL     1       7.257   8.774  -1.005  1.00  0.00     0.167 HD
ATOM     36  C   UNL     1       7.852  10.270  -3.348  1.00  0.00     0.074 A 
ATOM     37  C   UNL     1       7.895  10.683  -4.736  1.00  0.00     0.031 C 
ATOM     38  C   UNL     1       8.403  10.967  -2.324  1.00  0.00     0.037 A 
BRANCH  25  39
ATOM     39  C   UNL     1       7.564   8.406   3.241  1.00  0.00     0.064 A 
ATOM     40  C   UNL     1       8.399   7.517   3.936  1.00  0.00     0.173 A 
ATOM     41  C   UNL     1       6.948   9.432   3.975  1.00  0.00     0.173 A 
ATOM     42  F   UNL     1       9.005   6.512   3.286  1.00  0.00    -0.203 F 
ATOM     43  C   UNL     1       8.585   7.634   5.311  1.00  0.00     0.198 A 
ATOM     44  C   UNL     1       7.162   9.565   5.345  1.00  0.00     0.198 A 
ATOM     45  F   UNL     1       6.146  10.315   3.361  1.00  0.00    -0.203 F 
ATOM     46  F   UNL     1       9.347   6.743   5.961  1.00  0.00    -0.200 F 
ATOM     47  C   UNL     1       7.973   8.662   6.013  1.00  0.00     0.200 A 
ATOM     48  F   UNL     1       6.581  10.568   6.018  1.00  0.00    -0.200 F 
ATOM     49  F   UNL     1       8.158   8.776   7.336  1.00  0.00    -0.200 F 
ENDBRANCH  25  39
BRANCH  26  50
ATOM     50  C   UNL     1       5.780   7.511  -6.552  1.00  0.00     0.064 A 
ATOM     51  C   UNL     1       6.810   7.291  -7.476  1.00  0.00     0.173 A 
ATOM     52  C   UNL     1       4.468   7.594  -7.044  1.00  0.00     0.173 A 
ATOM     53  F   UNL     1       8.082   7.222  -7.057  1.00  0.00    -0.203 F 
ATOM     54  C   UNL     1       6.541   7.174  -8.838  1.00  0.00     0.198 A 
ATOM     55  C   UNL     1       4.197   7.444  -8.401  1.00  0.00     0.198 A 
ATOM     56  F   UNL     1       3.446   7.796  -6.199  1.00  0.00    -0.203 F 
ATOM     57  F   UNL     1       7.548   7.006  -9.706  1.00  0.00    -0.200 F 
ATOM     58  C   UNL     1       5.234   7.243  -9.298  1.00  0.00     0.200 A 
ATOM     59  F   UNL     1       2.931   7.491  -8.838  1.00  0.00    -0.200 F 
ATOM     60  F   UNL     1       4.975   7.120 -10.607  1.00  0.00    -0.200 F 
ENDBRANCH  26  50
BRANCH  38  61
ATOM     61  C   UNL     1       9.135  12.231  -2.672  1.00  0.00     0.064 A 
ATOM     62  C   UNL     1       8.458  13.383  -3.098  1.00  0.00     0.173 A 
ATOM     63  C   UNL     1      10.531  12.298  -2.547  1.00  0.00     0.173 A 
ATOM     64  F   UNL     1       7.125  13.366  -3.251  1.00  0.00    -0.203 F 
ATOM     65  C   UNL     1       9.155  14.547  -3.413  1.00  0.00     0.198 A 
ATOM     66  C   UNL     1      11.221  13.473  -2.830  1.00  0.00     0.198 A 
ATOM     67  F   UNL     1      11.226  11.226  -2.138  1.00  0.00    -0.203 F 
ATOM     68  F   UNL     1       8.493  15.619  -3.869  1.00  0.00    -0.200 F 
ATOM     69  C   UNL     1      10.534  14.594  -3.271  1.00  0.00     0.200 A 
ATOM     70  F   UNL     1      12.552  13.520  -2.679  1.00  0.00    -0.200 F 
ATOM     71  F   UNL     1      11.202  15.717  -3.568  1.00  0.00    -0.200 F 
ENDBRANCH  38  61
ENDBRANCH  12  13
ENDBRANCH   5   7
ENDBRANCH   2   3
ENDBRANCH   1   2
BRANCH   1  72
ATOM     72  C   UNL     1       4.296  -3.046   2.151  1.00  0.00     0.118 C 
BRANCH  72  73
ATOM     73  N   UNL     1       4.831  -4.122   1.331  1.00  0.00    -0.351 N 
ATOM     74  C   UNL     1       5.739  -5.104   1.652  1.00  0.00     0.271 C 
ATOM     75  H   UNL     1       4.493  -4.151   0.407  1.00  0.00     0.163 HD
ATOM     76  O   UNL     1       6.208  -5.799   0.755  1.00  0.00    -0.267 OA
BRANCH  74  77
ATOM     77  C   UNL     1       6.127  -5.335   3.064  1.00  0.00     0.147 A 
ATOM     78  C   UNL     1       5.150  -5.554   4.023  1.00  0.00     0.145 A 
ATOM     79  N   UNL     1       7.456  -5.359   3.349  1.00  0.00    -0.233 NA
ATOM     80  N   UNL     1       5.452  -5.756   5.326  1.00  0.00    -0.259 NA
ATOM     81  C   UNL     1       7.774  -5.616   4.638  1.00  0.00     0.122 A 
ATOM     82  C   UNL     1       6.781  -5.789   5.604  1.00  0.00     0.146 A 
BRANCH  81  83
ATOM     83  S   UNL     1       9.480  -5.688   5.137  1.00  0.00    -0.048 SA
BRANCH  83  84
ATOM     84  C   UNL     1      10.346  -5.905   3.601  1.00  0.00     0.102 A 
ATOM     85  C   UNL     1      10.468  -4.853   2.697  1.00  0.00     0.037 A 
ATOM     86  N   UNL     1      10.963  -7.098   3.418  1.00  0.00    -0.248 NA
ATOM     87  C   UNL     1      11.235  -5.031   1.545  1.00  0.00     0.025 A 
ATOM     88  C   UNL     1      11.698  -7.245   2.287  1.00  0.00     0.132 A 
ATOM     89  C   UNL     1      11.864  -6.251   1.336  1.00  0.00     0.059 A 
ATOM     90  Cl  UNL     1      12.834  -6.506  -0.056  1.00  0.00    -0.083 Cl
ENDBRANCH  83  84
ENDBRANCH  81  83
ENDBRANCH  74  77
ENDBRANCH  72  73
ENDBRANCH   1  72
TORSDOF 12
