REMARK SMILES Cc1ccc(C(C)C)c(OCC(=O)Nc2nc(CC(=O)NCCCNC(=O)c3ccc(-c4c5nc(c(-c6c(F)c(F)c(F)c(F)c6F)c6ccc([nH]6)c(-c6c(F)c(F)c(F)c(F)c6F)c6nc(c(-c7c(F)c(F)c(F)c(F)c7F)c7ccc4[nH]7)C=C6)C=C5)cc3)cs2)c1
REMARK SMILES IDX 19 1 20 2 21 3 18 5 17 6 15 7 16 8 92 9 91 10 14 11 12 12
REMARK SMILES IDX 13 13 11 15 10 16 9 17 1 18 2 19 3 20 93 21 4 22 5 23 6 24
REMARK SMILES IDX 7 25 8 26 22 27 23 28 24 29 25 30 26 31 27 33 28 34 29 35
REMARK SMILES IDX 90 36 30 37 89 38 31 39 32 40 33 41 83 42 34 43 88 44 82 45
REMARK SMILES IDX 84 46 35 47 87 48 81 49 80 50 36 52 68 53 48 54 67 55 49 56
REMARK SMILES IDX 52 57 66 58 85 59 50 60 51 61 65 63 86 64 53 65 37 66 38 67
REMARK SMILES IDX 46 68 39 69 40 70 44 71 47 72 41 73 42 74 45 75 43 76 69 77
REMARK SMILES IDX 70 78 78 79 71 80 72 81 76 82 79 83 73 84 74 85 77 86 75 87
REMARK SMILES IDX 54 88 55 89 63 90 56 91 57 92 61 93 64 94 58 95 59 96 62 97
REMARK SMILES IDX 60 98
REMARK H PARENT 21 4 14 14 25 32 84 51 52 62
REMARK Flexibility Score: inf
ROOT
ATOM      1  C   UNL     1      -6.201   1.449   3.031  1.00  0.00     0.226 C 
ATOM      2  O   UNL     1      -7.348   1.561   3.470  1.00  0.00    -0.275 OA
ATOM      3  N   UNL     1      -5.396   0.474   3.558  1.00  0.00    -0.356 N 
ATOM      4  H   UNL     1      -5.776  -0.033   4.312  1.00  0.00     0.163 HD
ENDROOT
BRANCH   1   5
ATOM      5  C   UNL     1      -5.682   2.374   1.941  1.00  0.00     0.157 C 
BRANCH   5   6
ATOM      6  C   UNL     1      -4.624   3.284   2.469  1.00  0.00     0.063 A 
ATOM      7  C   UNL     1      -2.549   4.012   2.533  1.00  0.00     0.189 A 
ATOM      8  N   UNL     1      -3.394   3.312   1.828  1.00  0.00    -0.224 NA
ATOM      9  S   UNL     1      -3.165   4.769   3.931  1.00  0.00    -0.105 S 
ATOM     10  C   UNL     1      -4.705   4.091   3.592  1.00  0.00     0.093 A 
BRANCH   7  11
ATOM     11  N   UNL     1      -1.216   4.191   2.338  1.00  0.00    -0.299 N 
ATOM     12  C   UNL     1      -0.501   3.826   1.240  1.00  0.00     0.264 C 
ATOM     13  O   UNL     1       0.727   3.975   1.289  1.00  0.00    -0.271 OA
ATOM     14  H   UNL     1      -0.718   4.628   3.066  1.00  0.00     0.172 HD
BRANCH  12  15
ATOM     15  C   UNL     1      -1.185   3.358  -0.059  1.00  0.00     0.329 C 
BRANCH  15  16
ATOM     16  O   UNL     1      -1.750   2.062  -0.127  1.00  0.00    -0.483 OA
BRANCH  16  17
ATOM     17  C   UNL     1      -0.938   0.966  -0.227  1.00  0.00     0.123 A 
ATOM     18  C   UNL     1       2.719  -0.105  -0.047  1.00  0.00     0.044 C 
ATOM     19  C   UNL     1       1.225  -0.160  -0.175  1.00  0.00    -0.047 A 
ATOM     20  C   UNL     1       0.583  -1.390  -0.304  1.00  0.00     0.004 A 
ATOM     21  C   UNL     1       0.459   1.012  -0.152  1.00  0.00     0.050 A 
ATOM     22  C   UNL     1      -0.804  -1.447  -0.427  1.00  0.00     0.008 A 
ATOM     23  C   UNL     1      -1.587  -0.280  -0.385  1.00  0.00    -0.003 A 
BRANCH  23  24
ATOM     24  C   UNL     1      -3.102  -0.382  -0.530  1.00  0.00     0.017 C 
ATOM     25  C   UNL     1      -3.512  -0.544  -1.995  1.00  0.00     0.012 C 
ATOM     26  C   UNL     1      -3.697  -1.531   0.295  1.00  0.00     0.012 C 
ENDBRANCH  23  24
ENDBRANCH  16  17
ENDBRANCH  15  16
ENDBRANCH  12  15
ENDBRANCH   7  11
ENDBRANCH   5   6
ENDBRANCH   1   5
BRANCH   3  27
ATOM     27  C   UNL     1      -4.054   0.091   3.148  1.00  0.00     0.117 C 
BRANCH  27  28
ATOM     28  C   UNL     1      -2.948   0.632   4.043  1.00  0.00     0.042 C 
BRANCH  28  29
ATOM     29  C   UNL     1      -2.708  -0.216   5.279  1.00  0.00     0.118 C 
BRANCH  29  30
ATOM     30  N   UNL     1      -1.720  -1.281   5.132  1.00  0.00    -0.352 N 
ATOM     31  C   UNL     1      -1.359  -2.281   6.030  1.00  0.00     0.251 C 
ATOM     32  H   UNL     1      -1.239  -1.294   4.273  1.00  0.00     0.163 HD
ATOM     33  O   UNL     1      -0.460  -3.057   5.758  1.00  0.00    -0.269 OA
BRANCH  31  34
ATOM     34  C   UNL     1      -2.171  -2.488   7.260  1.00  0.00     0.039 A 
ATOM     35  C   UNL     1      -2.540  -3.795   7.606  1.00  0.00     0.014 A 
ATOM     36  C   UNL     1      -2.759  -1.411   7.907  1.00  0.00     0.014 A 
ATOM     37  C   UNL     1      -3.684  -4.000   8.377  1.00  0.00     0.010 A 
ATOM     38  C   UNL     1      -3.974  -1.605   8.524  1.00  0.00     0.010 A 
ATOM     39  C   UNL     1      -4.468  -2.899   8.712  1.00  0.00    -0.014 A 
BRANCH  39  40
ATOM     40  C   UNL     1      -5.861  -2.980   9.137  1.00  0.00     0.031 A 
ATOM     41  C   UNL     1      -6.271  -2.505  10.477  1.00  0.00     0.074 A 
ATOM     42  C   UNL     1      -6.804  -3.297   8.219  1.00  0.00     0.049 A 
ATOM     43  N   UNL     1      -7.381  -2.824  11.052  1.00  0.00    -0.248 NA
ATOM     44  C   UNL     1      -5.439  -1.637  11.301  1.00  0.00     0.031 C 
ATOM     45  C   UNL     1      -8.240  -3.043   8.310  1.00  0.00     0.029 A 
ATOM     46  N   UNL     1      -6.662  -4.066   7.051  1.00  0.00    -0.354 N 
ATOM     47  C   UNL     1      -7.548  -2.000  12.144  1.00  0.00     0.074 A 
ATOM     48  C   UNL     1      -6.279  -1.329  12.293  1.00  0.00     0.031 C 
ATOM     49  C   UNL     1      -8.882  -3.845   7.449  1.00  0.00     0.029 A 
ATOM     50  C   UNL     1      -7.893  -4.748   6.890  1.00  0.00     0.049 A 
ATOM     51  H   UNL     1      -5.872  -4.120   6.466  1.00  0.00     0.167 HD
ATOM     52  C   UNL     1      -8.789  -1.885  12.703  1.00  0.00     0.037 A 
ATOM     53  C   UNL     1      -7.972  -6.109   6.941  1.00  0.00     0.037 A 
ATOM     54  C   UNL     1      -9.745  -2.762  12.028  1.00  0.00     0.049 A 
ATOM     55  C   UNL     1      -8.879  -6.631   8.028  1.00  0.00     0.074 A 
ATOM     56  C   UNL     1     -10.706  -2.522  11.059  1.00  0.00     0.029 A 
ATOM     57  N   UNL     1      -9.597  -4.142  12.105  1.00  0.00    -0.354 N 
ATOM     58  N   UNL     1      -9.223  -5.936   9.075  1.00  0.00    -0.248 NA
ATOM     59  C   UNL     1      -9.441  -7.977   8.041  1.00  0.00     0.031 C 
ATOM     60  C   UNL     1     -11.124  -3.768  10.536  1.00  0.00     0.029 A 
ATOM     61  C   UNL     1     -10.426  -4.766  11.193  1.00  0.00     0.049 A 
ATOM     62  H   UNL     1      -8.988  -4.609  12.721  1.00  0.00     0.167 HD
ATOM     63  C   UNL     1     -10.009  -6.702   9.896  1.00  0.00     0.074 A 
ATOM     64  C   UNL     1     -10.129  -7.967   9.197  1.00  0.00     0.031 C 
ATOM     65  C   UNL     1     -10.478  -6.216  11.084  1.00  0.00     0.037 A 
BRANCH  52  66
ATOM     66  C   UNL     1      -9.226  -0.779  13.650  1.00  0.00     0.064 A 
ATOM     67  C   UNL     1     -10.591  -0.421  13.757  1.00  0.00     0.173 A 
ATOM     68  C   UNL     1      -8.364   0.007  14.435  1.00  0.00     0.173 A 
ATOM     69  F   UNL     1     -11.557  -1.154  13.187  1.00  0.00    -0.203 F 
ATOM     70  C   UNL     1     -11.027   0.703  14.464  1.00  0.00     0.198 A 
ATOM     71  C   UNL     1      -8.791   1.160  15.105  1.00  0.00     0.198 A 
ATOM     72  F   UNL     1      -7.093  -0.346  14.649  1.00  0.00    -0.203 F 
ATOM     73  F   UNL     1     -12.335   0.995  14.509  1.00  0.00    -0.200 F 
ATOM     74  C   UNL     1     -10.121   1.518  15.106  1.00  0.00     0.200 A 
ATOM     75  F   UNL     1      -7.896   1.917  15.758  1.00  0.00    -0.200 F 
ATOM     76  F   UNL     1     -10.531   2.619  15.750  1.00  0.00    -0.200 F 
ENDBRANCH  52  66
BRANCH  53  77
ATOM     77  C   UNL     1      -6.737  -6.781   6.466  1.00  0.00     0.064 A 
ATOM     78  C   UNL     1      -6.404  -6.668   5.103  1.00  0.00     0.173 A 
ATOM     79  C   UNL     1      -5.719  -7.142   7.356  1.00  0.00     0.173 A 
ATOM     80  F   UNL     1      -7.347  -6.322   4.211  1.00  0.00    -0.203 F 
ATOM     81  C   UNL     1      -5.086  -6.785   4.669  1.00  0.00     0.198 A 
ATOM     82  C   UNL     1      -4.400  -7.267   6.915  1.00  0.00     0.198 A 
ATOM     83  F   UNL     1      -5.972  -7.244   8.669  1.00  0.00    -0.203 F 
ATOM     84  F   UNL     1      -4.783  -6.557   3.383  1.00  0.00    -0.200 F 
ATOM     85  C   UNL     1      -4.080  -7.053   5.582  1.00  0.00     0.200 A 
ATOM     86  F   UNL     1      -3.421  -7.494   7.802  1.00  0.00    -0.200 F 
ATOM     87  F   UNL     1      -2.800  -7.060   5.188  1.00  0.00    -0.200 F 
ENDBRANCH  53  77
BRANCH  65  88
ATOM     88  C   UNL     1     -11.123  -7.007  12.202  1.00  0.00     0.064 A 
ATOM     89  C   UNL     1     -10.939  -8.384  12.407  1.00  0.00     0.173 A 
ATOM     90  C   UNL     1     -11.858  -6.341  13.218  1.00  0.00     0.173 A 
ATOM     91  F   UNL     1     -10.165  -9.115  11.595  1.00  0.00    -0.203 F 
ATOM     92  C   UNL     1     -11.496  -9.053  13.502  1.00  0.00     0.198 A 
ATOM     93  C   UNL     1     -12.360  -7.001  14.339  1.00  0.00     0.198 A 
ATOM     94  F   UNL     1     -12.087  -5.021  13.173  1.00  0.00    -0.203 F 
ATOM     95  F   UNL     1     -11.324 -10.377  13.625  1.00  0.00    -0.200 F 
ATOM     96  C   UNL     1     -12.195  -8.362  14.473  1.00  0.00     0.200 A 
ATOM     97  F   UNL     1     -12.985  -6.303  15.298  1.00  0.00    -0.200 F 
ATOM     98  F   UNL     1     -12.684  -9.000  15.543  1.00  0.00    -0.200 F 
ENDBRANCH  65  88
ENDBRANCH  39  40
ENDBRANCH  31  34
ENDBRANCH  29  30
ENDBRANCH  28  29
ENDBRANCH  27  28
ENDBRANCH   3  27
TORSDOF 16
