REMARK SMILES O=C(COc1ccc(/C=C/C(=O)c2ccc(F)cc2F)cc1[N+](=O)[O-])NCCCNC(=O)c1ccc(-c2c3nc(c(-c4c(F)c(F)c(F)c(F)c4F)c4ccc([nH]4)c(-c4c(F)c(F)c(F)c(F)c4F)c4nc(c(-c5c(F)c(F)c(F)c(F)c5F)c5ccc2[nH]5)C=C4)C=C3)cc1
REMARK SMILES IDX 1 1 2 2 26 3 3 5 4 6 5 7 6 8 22 9 7 10 21 11 8 12 23 13
REMARK SMILES IDX 24 14 25 15 9 16 10 17 11 18 12 19 13 20 14 21 19 22 15 23
REMARK SMILES IDX 18 24 20 25 16 26 17 27 27 28 28 29 29 30 30 31 31 32 32 34
REMARK SMILES IDX 33 35 34 36 95 37 35 38 94 39 36 40 37 41 38 42 88 43 39 44
REMARK SMILES IDX 93 45 87 46 89 47 40 48 92 49 86 50 85 51 41 53 73 54 53 55
REMARK SMILES IDX 72 56 54 57 57 58 71 59 90 60 55 61 56 62 70 64 91 65 58 66
REMARK SMILES IDX 42 67 43 68 51 69 44 70 45 71 49 72 52 73 46 74 47 75 50 76
REMARK SMILES IDX 48 77 74 78 75 79 83 80 76 81 77 82 81 83 84 84 78 85 79 86
REMARK SMILES IDX 82 87 80 88 59 89 60 90 68 91 61 92 62 93 66 94 69 95 63 96
REMARK SMILES IDX 64 97 67 98 65 99
REMARK H PARENT 26 4 30 33 89 52 57 63
REMARK Flexibility Score: inf
ROOT
ATOM      1  O   UNL     1       1.663  -1.254  -0.935  1.00  0.00    -0.271 OA
ATOM      2  C   UNL     1       2.373  -0.504  -0.274  1.00  0.00     0.257 C 
ATOM      3  N   UNL     1       2.788  -0.783   1.013  1.00  0.00    -0.353 N 
ATOM      4  H   UNL     1       3.565  -0.299   1.375  1.00  0.00     0.163 HD
ENDROOT
BRANCH   2   5
ATOM      5  C   UNL     1       2.848   0.861  -0.791  1.00  0.00     0.329 C 
BRANCH   5   6
ATOM      6  O   UNL     1       3.589   1.606   0.172  1.00  0.00    -0.477 OA
BRANCH   6   7
ATOM      7  C   UNL     1       2.994   2.612   0.879  1.00  0.00     0.197 A 
ATOM      8  C   UNL     1       3.848   3.707   1.077  1.00  0.00     0.054 A 
ATOM      9  C   UNL     1       1.772   2.639   1.552  1.00  0.00     0.311 A 
ATOM     10  C   UNL     1       3.505   4.770   1.931  1.00  0.00     0.012 A 
ATOM     11  C   UNL     1       1.427   3.689   2.421  1.00  0.00     0.098 A 
ATOM     12  C   UNL     1       2.300   4.757   2.637  1.00  0.00    -0.018 A 
BRANCH   9  13
ATOM     13  N   UNL     1       0.796   1.579   1.494  1.00  0.00     0.066 N 
ATOM     14  O   UNL     1       0.636   0.911   2.525  1.00  0.00    -0.258 OA
ATOM     15  O   UNL     1       0.138   1.478   0.453  1.00  0.00    -0.258 OA
ENDBRANCH   9  13
BRANCH  12  16
ATOM     16  C   UNL     1       1.888   5.771   3.620  1.00  0.00     0.012 C 
ATOM     17  C   UNL     1       2.659   6.734   4.147  1.00  0.00     0.053 C 
BRANCH  17  18
ATOM     18  C   UNL     1       2.160   7.685   5.178  1.00  0.00     0.188 C 
ATOM     19  O   UNL     1       2.604   8.828   5.216  1.00  0.00    -0.289 OA
BRANCH  18  20
ATOM     20  C   UNL     1       1.115   7.273   6.140  1.00  0.00     0.058 A 
ATOM     21  C   UNL     1       0.068   8.162   6.415  1.00  0.00     0.018 A 
ATOM     22  C   UNL     1       1.168   6.043   6.802  1.00  0.00     0.137 A 
ATOM     23  C   UNL     1      -0.935   7.794   7.315  1.00  0.00     0.040 A 
ATOM     24  C   UNL     1       0.171   5.673   7.700  1.00  0.00     0.079 A 
ATOM     25  F   UNL     1       2.183   5.191   6.594  1.00  0.00    -0.206 F 
ATOM     26  C   UNL     1      -0.875   6.553   7.944  1.00  0.00     0.126 A 
ATOM     27  F   UNL     1      -1.841   6.204   8.804  1.00  0.00    -0.207 F 
ENDBRANCH  18  20
ENDBRANCH  17  18
ENDBRANCH  12  16
ENDBRANCH   6   7
ENDBRANCH   5   6
ENDBRANCH   2   5
BRANCH   3  28
ATOM     28  C   UNL     1       2.124  -1.760   1.849  1.00  0.00     0.117 C 
BRANCH  28  29
ATOM     29  C   UNL     1       2.559  -3.194   1.610  1.00  0.00     0.042 C 
BRANCH  29  30
ATOM     30  C   UNL     1       4.054  -3.432   1.771  1.00  0.00     0.118 C 
BRANCH  30  31
ATOM     31  N   UNL     1       4.554  -3.141   3.110  1.00  0.00    -0.352 N 
ATOM     32  C   UNL     1       5.181  -3.947   4.028  1.00  0.00     0.251 C 
ATOM     33  H   UNL     1       4.419  -2.211   3.405  1.00  0.00     0.163 HD
ATOM     34  O   UNL     1       5.430  -3.512   5.150  1.00  0.00    -0.269 OA
BRANCH  32  35
ATOM     35  C   UNL     1       5.524  -5.347   3.696  1.00  0.00     0.039 A 
ATOM     36  C   UNL     1       5.262  -6.343   4.642  1.00  0.00     0.014 A 
ATOM     37  C   UNL     1       6.092  -5.686   2.467  1.00  0.00     0.014 A 
ATOM     38  C   UNL     1       5.473  -7.685   4.316  1.00  0.00     0.010 A 
ATOM     39  C   UNL     1       6.228  -7.025   2.113  1.00  0.00     0.010 A 
ATOM     40  C   UNL     1       5.905  -8.039   3.028  1.00  0.00    -0.014 A 
BRANCH  40  41
ATOM     41  C   UNL     1       5.992  -9.458   2.601  1.00  0.00     0.031 A 
ATOM     42  C   UNL     1       7.315 -10.055   2.218  1.00  0.00     0.074 A 
ATOM     43  C   UNL     1       4.862 -10.179   2.467  1.00  0.00     0.049 A 
ATOM     44  N   UNL     1       7.575 -11.231   1.703  1.00  0.00    -0.248 NA
ATOM     45  C   UNL     1       8.502  -9.209   2.414  1.00  0.00     0.031 C 
ATOM     46  C   UNL     1       3.511  -9.698   2.760  1.00  0.00     0.029 A 
ATOM     47  N   UNL     1       4.668 -11.466   2.030  1.00  0.00    -0.354 N 
ATOM     48  C   UNL     1       8.947 -11.256   1.493  1.00  0.00     0.074 A 
ATOM     49  C   UNL     1       9.461  -9.966   1.901  1.00  0.00     0.031 C 
ATOM     50  C   UNL     1       2.630 -10.679   2.507  1.00  0.00     0.029 A 
ATOM     51  C   UNL     1       3.348 -11.842   1.997  1.00  0.00     0.049 A 
ATOM     52  H   UNL     1       5.406 -12.062   1.764  1.00  0.00     0.167 HD
ATOM     53  C   UNL     1       9.709 -12.270   1.019  1.00  0.00     0.037 A 
ATOM     54  C   UNL     1       2.778 -12.991   1.586  1.00  0.00     0.037 A 
ATOM     55  C   UNL     1       9.201 -13.564   0.646  1.00  0.00     0.049 A 
ATOM     56  C   UNL     1       3.648 -14.101   1.066  1.00  0.00     0.074 A 
ATOM     57  C   UNL     1       9.905 -14.681   0.230  1.00  0.00     0.029 A 
ATOM     58  N   UNL     1       7.859 -13.914   0.645  1.00  0.00    -0.354 N 
ATOM     59  N   UNL     1       4.950 -14.134   0.928  1.00  0.00    -0.248 NA
ATOM     60  C   UNL     1       2.966 -15.332   0.642  1.00  0.00     0.031 C 
ATOM     61  C   UNL     1       8.986 -15.696  -0.058  1.00  0.00     0.029 A 
ATOM     62  C   UNL     1       7.712 -15.223   0.214  1.00  0.00     0.049 A 
ATOM     63  H   UNL     1       7.120 -13.320   0.911  1.00  0.00     0.167 HD
ATOM     64  C   UNL     1       5.247 -15.390   0.418  1.00  0.00     0.074 A 
ATOM     65  C   UNL     1       3.989 -16.096   0.286  1.00  0.00     0.031 C 
ATOM     66  C   UNL     1       6.453 -15.910   0.086  1.00  0.00     0.037 A 
BRANCH  53  67
ATOM     67  C   UNL     1      11.181 -12.022   0.882  1.00  0.00     0.064 A 
ATOM     68  C   UNL     1      12.018 -11.940   2.004  1.00  0.00     0.173 A 
ATOM     69  C   UNL     1      11.767 -11.903  -0.387  1.00  0.00     0.173 A 
ATOM     70  F   UNL     1      11.503 -12.036   3.239  1.00  0.00    -0.203 F 
ATOM     71  C   UNL     1      13.386 -11.723   1.862  1.00  0.00     0.198 A 
ATOM     72  C   UNL     1      13.139 -11.711  -0.526  1.00  0.00     0.198 A 
ATOM     73  F   UNL     1      11.011 -11.978  -1.492  1.00  0.00    -0.203 F 
ATOM     74  F   UNL     1      14.161 -11.606   2.949  1.00  0.00    -0.200 F 
ATOM     75  C   UNL     1      13.946 -11.615   0.598  1.00  0.00     0.200 A 
ATOM     76  F   UNL     1      13.681 -11.616  -1.748  1.00  0.00    -0.200 F 
ATOM     77  F   UNL     1      15.264 -11.412   0.463  1.00  0.00    -0.200 F 
ENDBRANCH  53  67
BRANCH  54  78
ATOM     78  C   UNL     1       1.304 -13.153   1.663  1.00  0.00     0.064 A 
ATOM     79  C   UNL     1       0.727 -14.001   2.618  1.00  0.00     0.173 A 
ATOM     80  C   UNL     1       0.447 -12.467   0.791  1.00  0.00     0.173 A 
ATOM     81  F   UNL     1       1.509 -14.694   3.457  1.00  0.00    -0.203 F 
ATOM     82  C   UNL     1      -0.654 -14.167   2.689  1.00  0.00     0.198 A 
ATOM     83  C   UNL     1      -0.935 -12.617   0.878  1.00  0.00     0.198 A 
ATOM     84  F   UNL     1       0.953 -11.644  -0.139  1.00  0.00    -0.203 F 
ATOM     85  F   UNL     1      -1.180 -15.012   3.586  1.00  0.00    -0.200 F 
ATOM     86  C   UNL     1      -1.484 -13.471   1.823  1.00  0.00     0.200 A 
ATOM     87  F   UNL     1      -1.735 -11.935   0.047  1.00  0.00    -0.200 F 
ATOM     88  F   UNL     1      -2.813 -13.629   1.894  1.00  0.00    -0.200 F 
ENDBRANCH  54  78
BRANCH  66  89
ATOM     89  C   UNL     1       6.471 -17.315  -0.436  1.00  0.00     0.064 A 
ATOM     90  C   UNL     1       6.042 -17.616  -1.736  1.00  0.00     0.173 A 
ATOM     91  C   UNL     1       6.955 -18.364   0.359  1.00  0.00     0.173 A 
ATOM     92  F   UNL     1       5.555 -16.648  -2.527  1.00  0.00    -0.203 F 
ATOM     93  C   UNL     1       6.079 -18.922  -2.216  1.00  0.00     0.198 A 
ATOM     94  C   UNL     1       7.013 -19.665  -0.132  1.00  0.00     0.198 A 
ATOM     95  F   UNL     1       7.381 -18.124   1.609  1.00  0.00    -0.203 F 
ATOM     96  F   UNL     1       5.627 -19.195  -3.447  1.00  0.00    -0.200 F 
ATOM     97  C   UNL     1       6.570 -19.944  -1.416  1.00  0.00     0.200 A 
ATOM     98  F   UNL     1       7.496 -20.649   0.639  1.00  0.00    -0.200 F 
ATOM     99  F   UNL     1       6.610 -21.200  -1.881  1.00  0.00    -0.200 F 
ENDBRANCH  66  89
ENDBRANCH  40  41
ENDBRANCH  32  35
ENDBRANCH  30  31
ENDBRANCH  29  30
ENDBRANCH  28  29
ENDBRANCH   3  28
TORSDOF 16
