REMARK SMILES CCOc1ccc(C(=O)N2CCC(C(=O)NCCCNC(=O)c3ccc(-c4c5nc(c(-c6c(F)c(F)c(F)c(F)c6F)c6ccc([nH]6)c(-c6c(F)c(F)c(F)c(F)c6F)c6nc(c(-c7c(F)c(F)c(F)c(F)c7F)c7ccc4[nH]7)C=C6)C=C5)cc3)(c3ccccc3)CC2)cc1OC
REMARK SMILES IDX 17 1 16 2 14 3 15 4 13 6 8 7 9 8 10 9 11 10 93 11 12 12
REMARK SMILES IDX 92 13 7 14 4 15 5 16 95 17 6 18 94 19 3 20 2 21 1 22 96 23
REMARK SMILES IDX 97 24 86 25 87 26 91 27 88 28 90 29 89 30 18 31 19 32 20 33
REMARK SMILES IDX 21 34 22 36 23 37 24 38 85 39 25 40 84 41 26 42 27 43 28 44
REMARK SMILES IDX 78 45 29 46 83 47 77 48 79 49 30 50 82 51 76 52 75 53 31 55
REMARK SMILES IDX 63 56 43 57 62 58 44 59 47 60 61 61 80 62 45 63 46 64 60 66
REMARK SMILES IDX 81 67 48 68 32 69 33 70 41 71 34 72 35 73 39 74 42 75 36 76
REMARK SMILES IDX 37 77 40 78 38 79 64 80 65 81 73 82 66 83 67 84 71 85 74 86
REMARK SMILES IDX 68 87 69 88 72 89 70 90 49 91 50 92 58 93 51 94 52 95 56 96
REMARK SMILES IDX 59 97 53 98 54 99 57 100 55 101
REMARK H PARENT 16 5 20 35 79 54 47 65
REMARK Flexibility Score: inf
ROOT
ATOM      1  C   UNL     1      10.288   3.957   3.044  1.00  0.00     0.117 C 
ENDROOT
BRANCH   1   2
ATOM      2  N   UNL     1      11.126   3.945   1.851  1.00  0.00    -0.355 N 
ATOM      3  C   UNL     1      11.054   3.273   0.659  1.00  0.00     0.230 C 
ATOM      4  O   UNL     1      12.048   3.437  -0.050  1.00  0.00    -0.274 OA
ATOM      5  H   UNL     1      11.905   4.544   1.915  1.00  0.00     0.163 HD
BRANCH   3   6
ATOM      6  C   UNL     1       9.830   2.361   0.292  1.00  0.00     0.077 C 
ATOM      7  C   UNL     1       6.534   1.190   2.893  1.00  0.00     0.253 C 
ATOM      8  O   UNL     1       6.865   0.761   4.000  1.00  0.00    -0.269 OA
ATOM      9  N   UNL     1       7.501   1.555   1.938  1.00  0.00    -0.339 N 
ATOM     10  C   UNL     1       8.589   0.606   1.787  1.00  0.00     0.121 C 
ATOM     11  C   UNL     1       7.304   2.554   0.889  1.00  0.00     0.121 C 
ATOM     12  C   UNL     1       9.905   1.185   1.303  1.00  0.00     0.043 C 
ATOM     13  C   UNL     1       8.567   3.261   0.424  1.00  0.00     0.043 C 
BRANCH   7  14
ATOM     14  C   UNL     1       5.077   1.169   2.546  1.00  0.00     0.043 A 
ATOM     15  C   UNL     1       2.343   0.873   1.901  1.00  0.00     0.161 A 
ATOM     16  C   UNL     1       2.768   0.857   3.239  1.00  0.00     0.051 A 
ATOM     17  C   UNL     1       3.274   1.068   0.886  1.00  0.00     0.161 A 
ATOM     18  C   UNL     1       4.125   1.014   3.560  1.00  0.00     0.018 A 
ATOM     19  C   UNL     1       4.628   1.134   1.226  1.00  0.00     0.064 A 
BRANCH  15  20
ATOM     20  O   UNL     1       1.014   0.735   1.618  1.00  0.00    -0.490 OA
BRANCH  20  21
ATOM     21  C   UNL     1       0.517  -0.581   1.892  1.00  0.00     0.226 C 
ATOM     22  C   UNL     1      -0.133  -1.123   0.630  1.00  0.00     0.049 C 
ENDBRANCH  20  21
ENDBRANCH  15  20
BRANCH  17  23
ATOM     23  O   UNL     1       3.099   1.179  -0.463  1.00  0.00    -0.493 OA
ATOM     24  C   UNL     1       1.796   1.325  -0.995  1.00  0.00     0.278 C 
ENDBRANCH  17  23
ENDBRANCH   7  14
BRANCH   6  25
ATOM     25  C   UNL     1       9.813   1.756  -1.160  1.00  0.00    -0.032 A 
ATOM     26  C   UNL     1      10.746   2.071  -2.161  1.00  0.00     0.005 A 
ATOM     27  C   UNL     1       8.795   0.852  -1.545  1.00  0.00     0.005 A 
ATOM     28  C   UNL     1      10.678   1.512  -3.447  1.00  0.00     0.000 A 
ATOM     29  C   UNL     1       8.710   0.306  -2.832  1.00  0.00     0.000 A 
ATOM     30  C   UNL     1       9.658   0.634  -3.785  1.00  0.00     0.000 A 
ENDBRANCH   6  25
ENDBRANCH   3   6
ENDBRANCH   1   2
BRANCH   1  31
ATOM     31  C   UNL     1      11.010   3.405   4.267  1.00  0.00     0.042 C 
BRANCH  31  32
ATOM     32  C   UNL     1      12.290   4.143   4.627  1.00  0.00     0.118 C 
BRANCH  32  33
ATOM     33  N   UNL     1      12.061   5.539   4.968  1.00  0.00    -0.352 N 
ATOM     34  C   UNL     1      12.306   6.219   6.134  1.00  0.00     0.251 C 
ATOM     35  H   UNL     1      11.667   6.082   4.247  1.00  0.00     0.163 HD
ATOM     36  O   UNL     1      11.868   7.357   6.272  1.00  0.00    -0.269 OA
BRANCH  34  37
ATOM     37  C   UNL     1      13.072   5.590   7.232  1.00  0.00     0.039 A 
ATOM     38  C   UNL     1      12.663   5.824   8.549  1.00  0.00     0.014 A 
ATOM     39  C   UNL     1      14.204   4.807   6.985  1.00  0.00     0.014 A 
ATOM     40  C   UNL     1      13.353   5.229   9.607  1.00  0.00     0.010 A 
ATOM     41  C   UNL     1      14.835   4.142   8.034  1.00  0.00     0.010 A 
ATOM     42  C   UNL     1      14.425   4.356   9.357  1.00  0.00    -0.014 A 
BRANCH  42  43
ATOM     43  C   UNL     1      15.120   3.671  10.476  1.00  0.00     0.031 A 
ATOM     44  C   UNL     1      16.571   3.949  10.759  1.00  0.00     0.074 A 
ATOM     45  C   UNL     1      14.451   2.766  11.215  1.00  0.00     0.049 A 
ATOM     46  N   UNL     1      17.342   3.451  11.694  1.00  0.00    -0.248 NA
ATOM     47  C   UNL     1      17.256   4.890   9.860  1.00  0.00     0.031 C 
ATOM     48  C   UNL     1      13.062   2.358  10.997  1.00  0.00     0.029 A 
ATOM     49  N   UNL     1      14.848   2.025  12.300  1.00  0.00    -0.354 N 
ATOM     50  C   UNL     1      18.597   4.007  11.487  1.00  0.00     0.074 A 
ATOM     51  C   UNL     1      18.502   4.836  10.305  1.00  0.00     0.031 C 
ATOM     52  C   UNL     1      12.712   1.468  11.939  1.00  0.00     0.029 A 
ATOM     53  C   UNL     1      13.857   1.220  12.808  1.00  0.00     0.049 A 
ATOM     54  H   UNL     1      15.755   2.067  12.679  1.00  0.00     0.167 HD
ATOM     55  C   UNL     1      19.721   3.862  12.230  1.00  0.00     0.037 A 
ATOM     56  C   UNL     1      13.871   0.381  13.861  1.00  0.00     0.037 A 
ATOM     57  C   UNL     1      19.805   3.058  13.421  1.00  0.00     0.049 A 
ATOM     58  C   UNL     1      15.123   0.259  14.685  1.00  0.00     0.074 A 
ATOM     59  C   UNL     1      20.878   2.899  14.282  1.00  0.00     0.029 A 
ATOM     60  N   UNL     1      18.774   2.276  13.920  1.00  0.00    -0.354 N 
ATOM     61  N   UNL     1      16.280   0.856  14.528  1.00  0.00    -0.248 NA
ATOM     62  C   UNL     1      15.066  -0.643  15.843  1.00  0.00     0.031 C 
ATOM     63  C   UNL     1      20.510   1.986  15.276  1.00  0.00     0.029 A 
ATOM     64  C   UNL     1      19.192   1.615  15.065  1.00  0.00     0.049 A 
ATOM     65  H   UNL     1      17.878   2.200  13.519  1.00  0.00     0.167 HD
ATOM     66  C   UNL     1      17.079   0.420  15.575  1.00  0.00     0.074 A 
ATOM     67  C   UNL     1      16.266  -0.472  16.376  1.00  0.00     0.031 C 
ATOM     68  C   UNL     1      18.371   0.729  15.849  1.00  0.00     0.037 A 
BRANCH  55  69
ATOM     69  C   UNL     1      20.951   4.597  11.780  1.00  0.00     0.064 A 
ATOM     70  C   UNL     1      21.045   5.995  11.864  1.00  0.00     0.173 A 
ATOM     71  C   UNL     1      22.064   3.894  11.293  1.00  0.00     0.173 A 
ATOM     72  F   UNL     1      20.006   6.716  12.312  1.00  0.00    -0.203 F 
ATOM     73  C   UNL     1      22.196   6.663  11.452  1.00  0.00     0.198 A 
ATOM     74  C   UNL     1      23.224   4.563  10.911  1.00  0.00     0.198 A 
ATOM     75  F   UNL     1      22.030   2.557  11.196  1.00  0.00    -0.203 F 
ATOM     76  F   UNL     1      22.243   8.001  11.497  1.00  0.00    -0.200 F 
ATOM     77  C   UNL     1      23.286   5.946  10.983  1.00  0.00     0.200 A 
ATOM     78  F   UNL     1      24.282   3.868  10.470  1.00  0.00    -0.200 F 
ATOM     79  F   UNL     1      24.395   6.590  10.595  1.00  0.00    -0.200 F 
ENDBRANCH  55  69
BRANCH  56  80
ATOM     80  C   UNL     1      12.646  -0.380  14.218  1.00  0.00     0.064 A 
ATOM     81  C   UNL     1      11.924  -0.076  15.381  1.00  0.00     0.173 A 
ATOM     82  C   UNL     1      12.173  -1.424  13.410  1.00  0.00     0.173 A 
ATOM     83  F   UNL     1      12.348   0.901  16.196  1.00  0.00    -0.203 F 
ATOM     84  C   UNL     1      10.789  -0.803  15.734  1.00  0.00     0.198 A 
ATOM     85  C   UNL     1      11.022  -2.131  13.749  1.00  0.00     0.198 A 
ATOM     86  F   UNL     1      12.825  -1.749  12.284  1.00  0.00    -0.203 F 
ATOM     87  F   UNL     1      10.145  -0.523  16.875  1.00  0.00    -0.200 F 
ATOM     88  C   UNL     1      10.335  -1.826  14.915  1.00  0.00     0.200 A 
ATOM     89  F   UNL     1      10.579  -3.110  12.948  1.00  0.00    -0.200 F 
ATOM     90  F   UNL     1       9.242  -2.522  15.253  1.00  0.00    -0.200 F 
ENDBRANCH  56  80
BRANCH  68  91
ATOM     91  C   UNL     1      18.973   0.114  17.079  1.00  0.00     0.064 A 
ATOM     92  C   UNL     1      19.270  -1.256  17.147  1.00  0.00     0.173 A 
ATOM     93  C   UNL     1      19.268   0.906  18.199  1.00  0.00     0.173 A 
ATOM     94  F   UNL     1      18.992  -2.059  16.108  1.00  0.00    -0.203 F 
ATOM     95  C   UNL     1      19.806  -1.815  18.303  1.00  0.00     0.198 A 
ATOM     96  C   UNL     1      19.835   0.349  19.341  1.00  0.00     0.198 A 
ATOM     97  F   UNL     1      19.011   2.223  18.183  1.00  0.00    -0.203 F 
ATOM     98  F   UNL     1      20.026  -3.136  18.366  1.00  0.00    -0.200 F 
ATOM     99  C   UNL     1      20.093  -1.012  19.397  1.00  0.00     0.200 A 
ATOM    100  F   UNL     1      20.123   1.128  20.393  1.00  0.00    -0.200 F 
ATOM    101  F   UNL     1      20.609  -1.553  20.509  1.00  0.00    -0.200 F 
ENDBRANCH  68  91
ENDBRANCH  42  43
ENDBRANCH  34  37
ENDBRANCH  32  33
ENDBRANCH  31  32
ENDBRANCH   1  31
TORSDOF 15
