REMARK SMILES CCn1nc(C)c(NS(=O)(=O)c2cc(C(=O)NCCCNC(=O)c3ccc(-c4c5nc(c(-c6c(F)c(F)c(F)c(F)c6F)c6ccc([nH]6)c(-c6c(F)c(F)c(F)c(F)c6F)c6nc(c(-c7c(F)c(F)c(F)c(F)c7F)c7ccc4[nH]7)C=C6)C=C5)cc3)cc(F)c2C)c1C
REMARK SMILES IDX 18 1 17 2 15 3 16 4 14 6 12 7 13 8 90 9 88 10 91 11 87 12
REMARK SMILES IDX 89 13 9 14 10 15 11 16 8 17 7 19 3 20 4 21 92 22 5 23 93 24
REMARK SMILES IDX 6 25 2 26 1 27 19 28 20 29 21 30 22 31 23 33 24 34 25 35
REMARK SMILES IDX 86 36 26 37 85 38 27 39 28 40 29 41 79 42 30 43 84 44 78 45
REMARK SMILES IDX 80 46 31 47 83 48 77 49 76 50 32 52 64 53 44 54 63 55 45 56
REMARK SMILES IDX 48 57 62 58 81 59 46 60 47 61 61 63 82 64 49 65 33 66 34 67
REMARK SMILES IDX 42 68 35 69 36 70 40 71 43 72 37 73 38 74 41 75 39 76 65 77
REMARK SMILES IDX 66 78 74 79 67 80 68 81 72 82 75 83 69 84 70 85 73 86 71 87
REMARK SMILES IDX 50 88 51 89 59 90 52 91 53 92 57 93 60 94 54 95 55 96 58 97
REMARK SMILES IDX 56 98
REMARK H PARENT 17 5 8 18 21 32 80 51 48 62
REMARK Flexibility Score: inf
ROOT
ATOM      1  C   UNL     1       3.303  -7.144   7.884  1.00  0.00     0.118 C 
ENDROOT
BRANCH   1   2
ATOM      2  N   UNL     1       3.882  -5.924   8.437  1.00  0.00    -0.352 N 
ATOM      3  C   UNL     1       3.721  -4.608   8.067  1.00  0.00     0.251 C 
ATOM      4  O   UNL     1       4.303  -3.732   8.700  1.00  0.00    -0.269 OA
ATOM      5  H   UNL     1       4.487  -6.065   9.201  1.00  0.00     0.163 HD
BRANCH   3   6
ATOM      6  C   UNL     1       2.798  -4.229   6.966  1.00  0.00     0.044 A 
ATOM      7  C   UNL     1       1.550  -4.821   4.946  1.00  0.00     0.094 A 
ATOM      8  C   UNL     1       2.595  -5.034   5.853  1.00  0.00     0.036 A 
ATOM      9  C   UNL     1       0.749  -3.688   5.085  1.00  0.00     0.005 A 
ATOM     10  C   UNL     1       1.085  -2.784   6.112  1.00  0.00     0.128 A 
ATOM     11  C   UNL     1      -0.400  -3.333   4.195  1.00  0.00     0.049 C 
ATOM     12  C   UNL     1       2.077  -3.048   7.056  1.00  0.00     0.053 A 
ATOM     13  F   UNL     1       0.406  -1.633   6.220  1.00  0.00    -0.207 F 
BRANCH   7  14
ATOM     14  S   UNL     1       1.302  -6.150   3.786  1.00  0.00     0.262 S 
ATOM     15  O   UNL     1      -0.004  -6.696   4.077  1.00  0.00    -0.201 OA
ATOM     16  O   UNL     1       2.472  -7.011   3.843  1.00  0.00    -0.201 OA
BRANCH  14  17
ATOM     17  N   UNL     1       1.227  -5.571   2.230  1.00  0.00    -0.276 N 
ATOM     18  H   UNL     1       0.876  -6.202   1.560  1.00  0.00     0.180 HD
BRANCH  17  19
ATOM     19  C   UNL     1       1.592  -4.320   1.741  1.00  0.00     0.093 A 
ATOM     20  N   UNL     1       1.397  -2.458   0.604  1.00  0.00    -0.268 N 
ATOM     21  N   UNL     1       2.439  -2.233   1.421  1.00  0.00    -0.176 NA
ATOM     22  C   UNL     1       0.948  -3.750   0.659  1.00  0.00     0.060 A 
ATOM     23  C   UNL     1       2.596  -3.380   2.097  1.00  0.00     0.084 A 
ATOM     24  C   UNL     1      -0.058  -4.331  -0.268  1.00  0.00     0.069 C 
ATOM     25  C   UNL     1       3.730  -3.472   3.048  1.00  0.00     0.071 C 
BRANCH  20  26
ATOM     26  C   UNL     1       0.845  -1.389  -0.209  1.00  0.00     0.141 C 
ATOM     27  C   UNL     1       1.238   0.019   0.207  1.00  0.00     0.029 C 
ENDBRANCH  20  26
ENDBRANCH  17  19
ENDBRANCH  14  17
ENDBRANCH   7  14
ENDBRANCH   3   6
ENDBRANCH   1   2
BRANCH   1  28
ATOM     28  C   UNL     1       4.207  -7.728   6.786  1.00  0.00     0.042 C 
BRANCH  28  29
ATOM     29  C   UNL     1       5.152  -8.736   7.367  1.00  0.00     0.118 C 
BRANCH  29  30
ATOM     30  N   UNL     1       4.468  -9.996   7.657  1.00  0.00    -0.352 N 
ATOM     31  C   UNL     1       5.035 -11.224   7.914  1.00  0.00     0.251 C 
ATOM     32  H   UNL     1       3.484  -9.961   7.670  1.00  0.00     0.163 HD
ATOM     33  O   UNL     1       4.400 -12.259   7.766  1.00  0.00    -0.269 OA
BRANCH  31  34
ATOM     34  C   UNL     1       6.416 -11.255   8.413  1.00  0.00     0.039 A 
ATOM     35  C   UNL     1       7.259 -12.357   8.236  1.00  0.00     0.014 A 
ATOM     36  C   UNL     1       6.835 -10.159   9.154  1.00  0.00     0.014 A 
ATOM     37  C   UNL     1       8.510 -12.342   8.845  1.00  0.00     0.010 A 
ATOM     38  C   UNL     1       8.136 -10.015   9.478  1.00  0.00     0.010 A 
ATOM     39  C   UNL     1       8.910 -11.165   9.477  1.00  0.00    -0.014 A 
BRANCH  39  40
ATOM     40  C   UNL     1      10.101 -10.978  10.271  1.00  0.00     0.031 A 
ATOM     41  C   UNL     1      11.378 -10.939   9.575  1.00  0.00     0.074 A 
ATOM     42  C   UNL     1       9.870 -10.595  11.549  1.00  0.00     0.049 A 
ATOM     43  N   UNL     1      12.502 -11.244  10.106  1.00  0.00    -0.248 NA
ATOM     44  C   UNL     1      11.478 -10.594   8.160  1.00  0.00     0.031 C 
ATOM     45  C   UNL     1      10.735  -9.966  12.528  1.00  0.00     0.029 A 
ATOM     46  N   UNL     1       8.663 -10.784  12.251  1.00  0.00    -0.354 N 
ATOM     47  C   UNL     1      13.475 -10.764   9.257  1.00  0.00     0.074 A 
ATOM     48  C   UNL     1      12.803 -10.574   7.995  1.00  0.00     0.031 C 
ATOM     49  C   UNL     1      10.191 -10.138  13.751  1.00  0.00     0.029 A 
ATOM     50  C   UNL     1       9.011 -10.980  13.595  1.00  0.00     0.049 A 
ATOM     51  H   UNL     1       7.754 -10.780  11.873  1.00  0.00     0.167 HD
ATOM     52  C   UNL     1      14.662 -10.376   9.809  1.00  0.00     0.037 A 
ATOM     53  C   UNL     1       8.839 -12.235  14.109  1.00  0.00     0.037 A 
ATOM     54  C   UNL     1      14.607 -10.595  11.264  1.00  0.00     0.049 A 
ATOM     55  C   UNL     1      10.172 -12.900  14.325  1.00  0.00     0.074 A 
ATOM     56  C   UNL     1      14.328  -9.733  12.313  1.00  0.00     0.029 A 
ATOM     57  N   UNL     1      14.427 -11.885  11.760  1.00  0.00    -0.354 N 
ATOM     58  N   UNL     1      11.254 -12.592  13.660  1.00  0.00    -0.248 NA
ATOM     59  C   UNL     1      10.409 -13.886  15.370  1.00  0.00     0.031 C 
ATOM     60  C   UNL     1      13.882 -10.518  13.414  1.00  0.00     0.029 A 
ATOM     61  C   UNL     1      13.900 -11.852  13.040  1.00  0.00     0.049 A 
ATOM     62  H   UNL     1      14.644 -12.709  11.266  1.00  0.00     0.167 HD
ATOM     63  C   UNL     1      12.319 -13.255  14.198  1.00  0.00     0.074 A 
ATOM     64  C   UNL     1      11.737 -14.059  15.261  1.00  0.00     0.031 C 
ATOM     65  C   UNL     1      13.601 -13.086  13.757  1.00  0.00     0.037 A 
BRANCH  52  66
ATOM     66  C   UNL     1      15.724  -9.515   9.145  1.00  0.00     0.064 A 
ATOM     67  C   UNL     1      16.714  -8.884   9.933  1.00  0.00     0.173 A 
ATOM     68  C   UNL     1      15.831  -9.244   7.765  1.00  0.00     0.173 A 
ATOM     69  F   UNL     1      16.797  -9.098  11.253  1.00  0.00    -0.203 F 
ATOM     70  C   UNL     1      17.671  -8.013   9.399  1.00  0.00     0.198 A 
ATOM     71  C   UNL     1      16.771  -8.353   7.233  1.00  0.00     0.198 A 
ATOM     72  F   UNL     1      15.074  -9.861   6.857  1.00  0.00    -0.203 F 
ATOM     73  F   UNL     1      18.576  -7.445  10.208  1.00  0.00    -0.200 F 
ATOM     74  C   UNL     1      17.689  -7.734   8.050  1.00  0.00     0.200 A 
ATOM     75  F   UNL     1      16.782  -8.113   5.913  1.00  0.00    -0.200 F 
ATOM     76  F   UNL     1      18.602  -6.898   7.537  1.00  0.00    -0.200 F 
ENDBRANCH  52  66
BRANCH  53  77
ATOM     77  C   UNL     1       7.574 -12.860  13.594  1.00  0.00     0.064 A 
ATOM     78  C   UNL     1       6.382 -12.183  13.936  1.00  0.00     0.173 A 
ATOM     79  C   UNL     1       7.550 -13.646  12.431  1.00  0.00     0.173 A 
ATOM     80  F   UNL     1       6.331 -11.455  15.063  1.00  0.00    -0.203 F 
ATOM     81  C   UNL     1       5.319 -12.091  13.041  1.00  0.00     0.198 A 
ATOM     82  C   UNL     1       6.454 -13.592  11.559  1.00  0.00     0.198 A 
ATOM     83  F   UNL     1       8.629 -14.352  12.066  1.00  0.00    -0.203 F 
ATOM     84  F   UNL     1       4.294 -11.266  13.304  1.00  0.00    -0.200 F 
ATOM     85  C   UNL     1       5.376 -12.759  11.832  1.00  0.00     0.200 A 
ATOM     86  F   UNL     1       6.480 -14.280  10.409  1.00  0.00    -0.200 F 
ATOM     87  F   UNL     1       4.416 -12.560  10.918  1.00  0.00    -0.200 F 
ENDBRANCH  53  77
BRANCH  65  88
ATOM     88  C   UNL     1      14.725 -14.043  14.056  1.00  0.00     0.064 A 
ATOM     89  C   UNL     1      14.524 -15.403  14.340  1.00  0.00     0.173 A 
ATOM     90  C   UNL     1      16.074 -13.643  13.900  1.00  0.00     0.173 A 
ATOM     91  F   UNL     1      13.297 -15.943  14.360  1.00  0.00    -0.203 F 
ATOM     92  C   UNL     1      15.589 -16.276  14.555  1.00  0.00     0.198 A 
ATOM     93  C   UNL     1      17.132 -14.538  14.029  1.00  0.00     0.198 A 
ATOM     94  F   UNL     1      16.407 -12.383  13.585  1.00  0.00    -0.203 F 
ATOM     95  F   UNL     1      15.341 -17.547  14.898  1.00  0.00    -0.200 F 
ATOM     96  C   UNL     1      16.891 -15.847  14.386  1.00  0.00     0.200 A 
ATOM     97  F   UNL     1      18.383 -14.125  13.785  1.00  0.00    -0.200 F 
ATOM     98  F   UNL     1      17.910 -16.701  14.544  1.00  0.00    -0.200 F 
ENDBRANCH  65  88
ENDBRANCH  39  40
ENDBRANCH  31  34
ENDBRANCH  29  30
ENDBRANCH  28  29
ENDBRANCH   1  28
TORSDOF 14
