REMARK SMILES Cc1cccc(CS(=O)(=O)c2ccc(C(=O)NCCCNC(=O)c3ccc(-c4c5nc(c(-c6c(F)c(F)c(F)c(F)c6F)c6ccc([nH]6)c(-c6c(F)c(F)c(F)c(F)c6F)c6nc(c(-c7c(F)c(F)c(F)c(F)c7F)c7ccc4[nH]7)C=C6)C=C5)cc3)cc2F)n1
REMARK SMILES IDX 18 1 17 2 15 3 16 4 14 6 11 7 12 8 88 9 13 10 87 11 89 12
REMARK SMILES IDX 8 13 9 14 10 15 7 16 6 17 1 18 2 19 3 20 90 21 4 22 5 23
REMARK SMILES IDX 19 24 20 25 21 26 22 27 23 29 24 30 25 31 86 32 26 33 85 34
REMARK SMILES IDX 27 35 28 36 29 37 79 38 30 39 84 40 78 41 80 42 31 43 83 44
REMARK SMILES IDX 77 45 76 46 32 48 64 49 44 50 63 51 45 52 48 53 62 54 81 55
REMARK SMILES IDX 46 56 47 57 61 59 82 60 49 61 33 62 34 63 42 64 35 65 36 66
REMARK SMILES IDX 40 67 43 68 37 69 38 70 41 71 39 72 65 73 66 74 74 75 67 76
REMARK SMILES IDX 68 77 72 78 75 79 69 80 70 81 73 82 71 83 50 84 51 85 59 86
REMARK SMILES IDX 52 87 53 88 57 89 60 90 54 91 55 92 58 93 56 94
REMARK H PARENT 17 5 21 28 80 47 48 58
REMARK Flexibility Score: inf
ROOT
ATOM      1  C   UNL     1      -2.509   2.389   8.037  1.00  0.00     0.118 C 
ENDROOT
BRANCH   1   2
ATOM      2  N   UNL     1      -2.548   1.004   7.603  1.00  0.00    -0.352 N 
ATOM      3  C   UNL     1      -2.408   0.428   6.369  1.00  0.00     0.251 C 
ATOM      4  O   UNL     1      -2.459  -0.798   6.287  1.00  0.00    -0.269 OA
ATOM      5  H   UNL     1      -2.705   0.359   8.330  1.00  0.00     0.163 HD
BRANCH   3   6
ATOM      6  C   UNL     1      -2.137   1.215   5.140  1.00  0.00     0.042 A 
ATOM      7  C   UNL     1      -1.500   2.573   2.759  1.00  0.00     0.103 A 
ATOM      8  C   UNL     1      -0.922   1.331   3.038  1.00  0.00     0.024 A 
ATOM      9  C   UNL     1      -2.382   3.130   3.679  1.00  0.00     0.142 A 
ATOM     10  C   UNL     1      -1.264   0.643   4.205  1.00  0.00     0.015 A 
ATOM     11  C   UNL     1      -2.712   2.453   4.855  1.00  0.00     0.054 A 
ATOM     12  F   UNL     1      -2.937   4.333   3.495  1.00  0.00    -0.206 F 
BRANCH   7  13
ATOM     13  S   UNL     1      -1.013   3.473   1.306  1.00  0.00     0.186 S 
ATOM     14  O   UNL     1       0.437   3.562   1.357  1.00  0.00    -0.223 OA
ATOM     15  O   UNL     1      -1.782   4.704   1.276  1.00  0.00    -0.223 OA
BRANCH  13  16
ATOM     16  C   UNL     1      -1.564   2.545  -0.113  1.00  0.00     0.198 C 
BRANCH  16  17
ATOM     17  C   UNL     1      -0.981   1.166  -0.154  1.00  0.00     0.056 A 
ATOM     18  C   UNL     1       2.431  -0.208  -0.136  1.00  0.00     0.067 C 
ATOM     19  C   UNL     1       0.934  -0.169  -0.186  1.00  0.00     0.038 A 
ATOM     20  C   UNL     1       0.177  -1.331  -0.166  1.00  0.00     0.023 A 
ATOM     21  N   UNL     1       0.366   1.059  -0.199  1.00  0.00    -0.257 NA
ATOM     22  C   UNL     1      -1.210  -1.220  -0.168  1.00  0.00     0.004 A 
ATOM     23  C   UNL     1      -1.801   0.041  -0.164  1.00  0.00     0.025 A 
ENDBRANCH  16  17
ENDBRANCH  13  16
ENDBRANCH   7  13
ENDBRANCH   3   6
ENDBRANCH   1   2
BRANCH   1  24
ATOM     24  C   UNL     1      -3.920   2.915   8.293  1.00  0.00     0.042 C 
BRANCH  24  25
ATOM     25  C   UNL     1      -4.559   2.337   9.553  1.00  0.00     0.118 C 
BRANCH  25  26
ATOM     26  N   UNL     1      -3.919   2.831  10.763  1.00  0.00    -0.352 N 
ATOM     27  C   UNL     1      -4.447   3.538  11.813  1.00  0.00     0.251 C 
ATOM     28  H   UNL     1      -2.959   2.626  10.840  1.00  0.00     0.163 HD
ATOM     29  O   UNL     1      -3.695   4.068  12.627  1.00  0.00    -0.269 OA
BRANCH  27  30
ATOM     30  C   UNL     1      -5.910   3.673  11.972  1.00  0.00     0.039 A 
ATOM     31  C   UNL     1      -6.431   4.900  12.394  1.00  0.00     0.014 A 
ATOM     32  C   UNL     1      -6.764   2.587  11.760  1.00  0.00     0.014 A 
ATOM     33  C   UNL     1      -7.810   5.051  12.555  1.00  0.00     0.010 A 
ATOM     34  C   UNL     1      -8.143   2.758  11.851  1.00  0.00     0.010 A 
ATOM     35  C   UNL     1      -8.679   3.989  12.257  1.00  0.00    -0.014 A 
BRANCH  35  36
ATOM     36  C   UNL     1     -10.151   4.148  12.364  1.00  0.00     0.031 A 
ATOM     37  C   UNL     1     -10.929   3.342  13.366  1.00  0.00     0.074 A 
ATOM     38  C   UNL     1     -10.792   4.977  11.518  1.00  0.00     0.049 A 
ATOM     39  N   UNL     1     -12.223   3.288  13.559  1.00  0.00    -0.248 NA
ATOM     40  C   UNL     1     -10.154   2.462  14.255  1.00  0.00     0.031 C 
ATOM     41  C   UNL     1     -10.148   5.784  10.481  1.00  0.00     0.029 A 
ATOM     42  N   UNL     1     -12.126   5.275  11.391  1.00  0.00    -0.354 N 
ATOM     43  C   UNL     1     -12.415   2.364  14.577  1.00  0.00     0.074 A 
ATOM     44  C   UNL     1     -11.113   1.842  14.929  1.00  0.00     0.031 C 
ATOM     45  C   UNL     1     -11.082   6.507   9.843  1.00  0.00     0.029 A 
ATOM     46  C   UNL     1     -12.394   6.183  10.396  1.00  0.00     0.049 A 
ATOM     47  H   UNL     1     -12.823   4.876  11.959  1.00  0.00     0.167 HD
ATOM     48  C   UNL     1     -13.573   2.003  15.178  1.00  0.00     0.037 A 
ATOM     49  C   UNL     1     -13.566   6.693   9.972  1.00  0.00     0.037 A 
ATOM     50  C   UNL     1     -14.862   2.549  14.843  1.00  0.00     0.049 A 
ATOM     51  C   UNL     1     -14.840   6.265  10.648  1.00  0.00     0.074 A 
ATOM     52  C   UNL     1     -16.086   2.289  15.434  1.00  0.00     0.029 A 
ATOM     53  N   UNL     1     -15.093   3.466  13.829  1.00  0.00    -0.354 N 
ATOM     54  N   UNL     1     -15.004   5.427  11.642  1.00  0.00    -0.248 NA
ATOM     55  C   UNL     1     -16.090   6.852  10.145  1.00  0.00     0.031 C 
ATOM     56  C   UNL     1     -17.064   3.010  14.745  1.00  0.00     0.029 A 
ATOM     57  C   UNL     1     -16.444   3.764  13.762  1.00  0.00     0.049 A 
ATOM     58  H   UNL     1     -14.400   3.849  13.244  1.00  0.00     0.167 HD
ATOM     59  C   UNL     1     -16.368   5.404  11.901  1.00  0.00     0.074 A 
ATOM     60  C   UNL     1     -16.986   6.321  10.966  1.00  0.00     0.031 C 
ATOM     61  C   UNL     1     -17.044   4.685  12.830  1.00  0.00     0.037 A 
BRANCH  48  62
ATOM     62  C   UNL     1     -13.507   0.977  16.273  1.00  0.00     0.064 A 
ATOM     63  C   UNL     1     -14.081  -0.292  16.096  1.00  0.00     0.173 A 
ATOM     64  C   UNL     1     -12.945   1.273  17.523  1.00  0.00     0.173 A 
ATOM     65  F   UNL     1     -14.638  -0.625  14.922  1.00  0.00    -0.203 F 
ATOM     66  C   UNL     1     -14.105  -1.219  17.135  1.00  0.00     0.198 A 
ATOM     67  C   UNL     1     -12.944   0.333  18.550  1.00  0.00     0.198 A 
ATOM     68  F   UNL     1     -12.374   2.468  17.741  1.00  0.00    -0.203 F 
ATOM     69  F   UNL     1     -14.689  -2.411  16.953  1.00  0.00    -0.200 F 
ATOM     70  C   UNL     1     -13.534  -0.907  18.359  1.00  0.00     0.200 A 
ATOM     71  F   UNL     1     -12.369   0.627  19.725  1.00  0.00    -0.200 F 
ATOM     72  F   UNL     1     -13.549  -1.804  19.355  1.00  0.00    -0.200 F 
ENDBRANCH  48  62
BRANCH  49  73
ATOM     73  C   UNL     1     -13.575   7.695   8.874  1.00  0.00     0.064 A 
ATOM     74  C   UNL     1     -13.247   7.342   7.557  1.00  0.00     0.173 A 
ATOM     75  C   UNL     1     -13.876   9.039   9.134  1.00  0.00     0.173 A 
ATOM     76  F   UNL     1     -12.945   6.070   7.258  1.00  0.00    -0.203 F 
ATOM     77  C   UNL     1     -13.197   8.299   6.547  1.00  0.00     0.198 A 
ATOM     78  C   UNL     1     -13.854   9.991   8.117  1.00  0.00     0.198 A 
ATOM     79  F   UNL     1     -14.215   9.421  10.374  1.00  0.00    -0.203 F 
ATOM     80  F   UNL     1     -12.844   7.942   5.304  1.00  0.00    -0.200 F 
ATOM     81  C   UNL     1     -13.505   9.622   6.826  1.00  0.00     0.200 A 
ATOM     82  F   UNL     1     -14.173  11.264   8.387  1.00  0.00    -0.200 F 
ATOM     83  F   UNL     1     -13.466  10.541   5.852  1.00  0.00    -0.200 F 
ENDBRANCH  49  73
BRANCH  61  84
ATOM     84  C   UNL     1     -18.531   4.870  12.908  1.00  0.00     0.064 A 
ATOM     85  C   UNL     1     -19.110   5.505  14.018  1.00  0.00     0.173 A 
ATOM     86  C   UNL     1     -19.388   4.340  11.933  1.00  0.00     0.173 A 
ATOM     87  F   UNL     1     -18.333   6.021  14.983  1.00  0.00    -0.203 F 
ATOM     88  C   UNL     1     -20.492   5.585  14.158  1.00  0.00     0.198 A 
ATOM     89  C   UNL     1     -20.770   4.448  12.062  1.00  0.00     0.198 A 
ATOM     90  F   UNL     1     -18.883   3.735  10.848  1.00  0.00    -0.203 F 
ATOM     91  F   UNL     1     -21.022   6.160  15.246  1.00  0.00    -0.200 F 
ATOM     92  C   UNL     1     -21.320   5.059  13.179  1.00  0.00     0.200 A 
ATOM     93  F   UNL     1     -21.570   3.959  11.104  1.00  0.00    -0.200 F 
ATOM     94  F   UNL     1     -22.651   5.141  13.311  1.00  0.00    -0.200 F 
ENDBRANCH  61  84
ENDBRANCH  35  36
ENDBRANCH  27  30
ENDBRANCH  25  26
ENDBRANCH  24  25
ENDBRANCH   1  24
TORSDOF 13
