REMARK SMILES Cc1cccc(C[NH2+]Cc2c(C(=O)NCCCNC(=O)c3ccc(-c4c5nc(c(-c6c(F)c(F)c(F)c(F)c6F)c6ccc([nH]6)c(-c6c(F)c(F)c(F)c(F)c6F)c6nc(c(-c7c(F)c(F)c(F)c(F)c7F)c7ccc4[nH]7)C=C6)C=C5)cc3)c(C)n(Cc3cccc(F)c3)c2C)c1
REMARK SMILES IDX 15 1 14 2 12 3 13 4 11 6 10 7 95 8 84 9 86 10 96 11 85 12
REMARK SMILES IDX 9 13 8 14 7 17 6 18 1 19 2 20 3 21 97 22 4 23 5 24 87 25
REMARK SMILES IDX 88 26 89 27 94 28 90 29 92 30 91 31 93 32 16 33 17 34 18 35
REMARK SMILES IDX 19 36 20 38 21 39 22 40 83 41 23 42 82 43 24 44 25 45 26 46
REMARK SMILES IDX 76 47 27 48 81 49 75 50 77 51 28 52 80 53 74 54 73 55 29 57
REMARK SMILES IDX 61 58 41 59 60 60 42 61 45 62 59 63 78 64 43 65 44 66 58 68
REMARK SMILES IDX 79 69 46 70 30 71 31 72 39 73 32 74 33 75 37 76 40 77 34 78
REMARK SMILES IDX 35 79 38 80 36 81 62 82 63 83 71 84 64 85 65 86 69 87 72 88
REMARK SMILES IDX 66 89 67 90 70 91 68 92 47 93 48 94 56 95 49 96 50 97 54 98
REMARK SMILES IDX 57 99 51 100 52 101 55 102 53 103
REMARK H PARENT 14 5 8 15 8 16 18 37 77 56 45 67
REMARK Flexibility Score: inf
ROOT
ATOM      1  C   UNL     1      -5.373   5.652  -1.921  1.00  0.00     0.118 C 
ENDROOT
BRANCH   1   2
ATOM      2  N   UNL     1      -4.809   6.833  -1.299  1.00  0.00    -0.352 N 
ATOM      3  C   UNL     1      -3.562   7.226  -0.886  1.00  0.00     0.253 C 
ATOM      4  O   UNL     1      -3.569   8.341  -0.349  1.00  0.00    -0.269 OA
ATOM      5  H   UNL     1      -5.490   7.524  -1.131  1.00  0.00     0.163 HD
BRANCH   3   6
ATOM      6  C   UNL     1      -2.285   6.489  -1.081  1.00  0.00     0.069 A 
ATOM      7  C   UNL     1      -1.898   5.079  -1.002  1.00  0.00     0.040 A 
ATOM      8  C   UNL     1      -0.511   5.027  -1.159  1.00  0.00     0.025 A 
ATOM      9  C   UNL     1      -1.086   7.202  -1.253  1.00  0.00     0.028 A 
ATOM     10  N   UNL     1      -0.050   6.309  -1.405  1.00  0.00    -0.343 N 
ATOM     11  C   UNL     1       0.433   3.874  -1.052  1.00  0.00     0.065 C 
ATOM     12  C   UNL     1      -0.907   8.693  -1.261  1.00  0.00     0.065 C 
BRANCH   7  13
ATOM     13  C   UNL     1      -2.854   3.955  -0.727  1.00  0.00     0.300 C 
BRANCH  13  14
ATOM     14  N   UNL     1      -2.368   2.591  -0.679  1.00  0.00    -0.339 N 
ATOM     15  H   UNL     1      -3.123   1.976  -0.983  1.00  0.00     0.346 HD
ATOM     16  H   UNL     1      -1.549   2.560  -1.286  1.00  0.00     0.346 HD
BRANCH  14  17
ATOM     17  C   UNL     1      -1.921   2.142   0.628  1.00  0.00     0.297 C 
BRANCH  17  18
ATOM     18  C   UNL     1      -1.181   0.830   0.487  1.00  0.00     0.006 A 
ATOM     19  C   UNL     1       2.435  -0.349   0.237  1.00  0.00     0.044 C 
ATOM     20  C   UNL     1       0.935  -0.366   0.253  1.00  0.00    -0.051 A 
ATOM     21  C   UNL     1       0.231  -1.540  -0.026  1.00  0.00     0.003 A 
ATOM     22  C   UNL     1       0.220   0.798   0.549  1.00  0.00     0.013 A 
ATOM     23  C   UNL     1      -1.165  -1.536  -0.047  1.00  0.00     0.001 A 
ATOM     24  C   UNL     1      -1.867  -0.354   0.192  1.00  0.00     0.009 A 
ENDBRANCH  17  18
ENDBRANCH  14  17
ENDBRANCH  13  14
ENDBRANCH   7  13
BRANCH  10  25
ATOM     25  C   UNL     1       1.354   6.645  -1.690  1.00  0.00     0.157 C 
BRANCH  25  26
ATOM     26  C   UNL     1       1.905   5.979  -2.936  1.00  0.00    -0.025 A 
ATOM     27  C   UNL     1       3.265   5.619  -2.971  1.00  0.00     0.006 A 
ATOM     28  C   UNL     1       1.099   5.671  -4.042  1.00  0.00     0.044 A 
ATOM     29  C   UNL     1       3.786   4.905  -4.052  1.00  0.00     0.003 A 
ATOM     30  C   UNL     1       1.627   4.950  -5.107  1.00  0.00     0.123 A 
ATOM     31  C   UNL     1       2.959   4.557  -5.117  1.00  0.00     0.039 A 
ATOM     32  F   UNL     1       0.830   4.608  -6.128  1.00  0.00    -0.207 F 
ENDBRANCH  25  26
ENDBRANCH  10  25
ENDBRANCH   3   6
ENDBRANCH   1   2
BRANCH   1  33
ATOM     33  C   UNL     1      -5.816   4.653  -0.852  1.00  0.00     0.042 C 
BRANCH  33  34
ATOM     34  C   UNL     1      -7.295   4.644  -0.519  1.00  0.00     0.118 C 
BRANCH  34  35
ATOM     35  N   UNL     1      -7.960   3.407  -0.932  1.00  0.00    -0.352 N 
ATOM     36  C   UNL     1      -9.257   2.991  -0.692  1.00  0.00     0.251 C 
ATOM     37  H   UNL     1      -7.406   2.784  -1.454  1.00  0.00     0.163 HD
ATOM     38  O   UNL     1      -9.674   1.935  -1.133  1.00  0.00    -0.269 OA
BRANCH  36  39
ATOM     39  C   UNL     1     -10.167   3.930  -0.002  1.00  0.00     0.039 A 
ATOM     40  C   UNL     1     -11.315   4.339  -0.686  1.00  0.00     0.014 A 
ATOM     41  C   UNL     1      -9.728   4.605   1.132  1.00  0.00     0.014 A 
ATOM     42  C   UNL     1     -11.864   5.581  -0.391  1.00  0.00     0.010 A 
ATOM     43  C   UNL     1     -10.185   5.889   1.333  1.00  0.00     0.010 A 
ATOM     44  C   UNL     1     -11.209   6.402   0.526  1.00  0.00    -0.014 A 
BRANCH  44  45
ATOM     45  C   UNL     1     -11.440   7.839   0.617  1.00  0.00     0.031 A 
ATOM     46  C   UNL     1     -12.050   8.422   1.830  1.00  0.00     0.074 A 
ATOM     47  C   UNL     1     -10.973   8.649  -0.362  1.00  0.00     0.049 A 
ATOM     48  N   UNL     1     -12.596   9.590   1.881  1.00  0.00    -0.248 NA
ATOM     49  C   UNL     1     -12.131   7.702   3.094  1.00  0.00     0.031 C 
ATOM     50  C   UNL     1     -10.797  10.098  -0.299  1.00  0.00     0.029 A 
ATOM     51  N   UNL     1     -10.728   8.327  -1.710  1.00  0.00    -0.354 N 
ATOM     52  C   UNL     1     -12.839   9.888   3.202  1.00  0.00     0.074 A 
ATOM     53  C   UNL     1     -12.583   8.657   3.912  1.00  0.00     0.031 C 
ATOM     54  C   UNL     1     -10.767  10.587  -1.548  1.00  0.00     0.029 A 
ATOM     55  C   UNL     1     -11.076   9.487  -2.443  1.00  0.00     0.049 A 
ATOM     56  H   UNL     1     -10.386   7.476  -2.067  1.00  0.00     0.167 HD
ATOM     57  C   UNL     1     -13.104  11.181   3.553  1.00  0.00     0.037 A 
ATOM     58  C   UNL     1     -12.095   9.488  -3.350  1.00  0.00     0.037 A 
ATOM     59  C   UNL     1     -13.205  12.035   2.371  1.00  0.00     0.049 A 
ATOM     60  C   UNL     1     -13.180  10.495  -3.055  1.00  0.00     0.074 A 
ATOM     61  C   UNL     1     -12.313  12.899   1.756  1.00  0.00     0.029 A 
ATOM     62  N   UNL     1     -14.245  11.837   1.468  1.00  0.00    -0.354 N 
ATOM     63  N   UNL     1     -13.383  11.018  -1.879  1.00  0.00    -0.248 NA
ATOM     64  C   UNL     1     -14.144  10.959  -4.049  1.00  0.00     0.031 C 
ATOM     65  C   UNL     1     -12.806  13.196   0.463  1.00  0.00     0.029 A 
ATOM     66  C   UNL     1     -14.003  12.522   0.294  1.00  0.00     0.049 A 
ATOM     67  H   UNL     1     -15.041  11.284   1.641  1.00  0.00     0.167 HD
ATOM     68  C   UNL     1     -14.480  11.840  -1.928  1.00  0.00     0.074 A 
ATOM     69  C   UNL     1     -14.907  11.786  -3.313  1.00  0.00     0.031 C 
ATOM     70  C   UNL     1     -14.946  12.477  -0.813  1.00  0.00     0.037 A 
BRANCH  57  71
ATOM     71  C   UNL     1     -12.975  11.722   4.963  1.00  0.00     0.064 A 
ATOM     72  C   UNL     1     -12.605  13.067   5.192  1.00  0.00     0.173 A 
ATOM     73  C   UNL     1     -13.134  10.956   6.133  1.00  0.00     0.173 A 
ATOM     74  F   UNL     1     -12.538  13.957   4.195  1.00  0.00    -0.203 F 
ATOM     75  C   UNL     1     -12.288  13.556   6.463  1.00  0.00     0.198 A 
ATOM     76  C   UNL     1     -12.762  11.427   7.397  1.00  0.00     0.198 A 
ATOM     77  F   UNL     1     -13.716   9.753   6.103  1.00  0.00    -0.203 F 
ATOM     78  F   UNL     1     -11.931  14.840   6.611  1.00  0.00    -0.200 F 
ATOM     79  C   UNL     1     -12.324  12.724   7.561  1.00  0.00     0.200 A 
ATOM     80  F   UNL     1     -12.836  10.610   8.458  1.00  0.00    -0.200 F 
ATOM     81  F   UNL     1     -11.972  13.177   8.771  1.00  0.00    -0.200 F 
ENDBRANCH  57  71
BRANCH  58  82
ATOM     82  C   UNL     1     -12.317   8.166  -3.989  1.00  0.00     0.064 A 
ATOM     83  C   UNL     1     -11.296   7.638  -4.801  1.00  0.00     0.173 A 
ATOM     84  C   UNL     1     -13.294   7.282  -3.518  1.00  0.00     0.173 A 
ATOM     85  F   UNL     1     -10.333   8.444  -5.276  1.00  0.00    -0.203 F 
ATOM     86  C   UNL     1     -11.190   6.268  -5.030  1.00  0.00     0.198 A 
ATOM     87  C   UNL     1     -13.191   5.911  -3.760  1.00  0.00     0.198 A 
ATOM     88  F   UNL     1     -14.279   7.722  -2.721  1.00  0.00    -0.203 F 
ATOM     89  F   UNL     1     -10.141   5.784  -5.711  1.00  0.00    -0.200 F 
ATOM     90  C   UNL     1     -12.121   5.403  -4.484  1.00  0.00     0.200 A 
ATOM     91  F   UNL     1     -14.072   5.068  -3.203  1.00  0.00    -0.200 F 
ATOM     92  F   UNL     1     -11.965   4.078  -4.614  1.00  0.00    -0.200 F 
ENDBRANCH  58  82
BRANCH  70  93
ATOM     93  C   UNL     1     -16.269  13.194  -0.673  1.00  0.00     0.064 A 
ATOM     94  C   UNL     1     -17.410  12.900  -1.439  1.00  0.00     0.173 A 
ATOM     95  C   UNL     1     -16.469  14.129   0.374  1.00  0.00     0.173 A 
ATOM     96  F   UNL     1     -17.394  11.947  -2.379  1.00  0.00    -0.203 F 
ATOM     97  C   UNL     1     -18.635  13.537  -1.218  1.00  0.00     0.198 A 
ATOM     98  C   UNL     1     -17.708  14.717   0.629  1.00  0.00     0.198 A 
ATOM     99  F   UNL     1     -15.475  14.479   1.204  1.00  0.00    -0.203 F 
ATOM    100  F   UNL     1     -19.681  13.249  -2.006  1.00  0.00    -0.200 F 
ATOM    101  C   UNL     1     -18.788  14.434  -0.178  1.00  0.00     0.200 A 
ATOM    102  F   UNL     1     -17.850  15.541   1.677  1.00  0.00    -0.200 F 
ATOM    103  F   UNL     1     -19.977  15.004   0.058  1.00  0.00    -0.200 F 
ENDBRANCH  70  93
ENDBRANCH  44  45
ENDBRANCH  36  39
ENDBRANCH  34  35
ENDBRANCH  33  34
ENDBRANCH   1  33
TORSDOF 16
