REMARK SMILES Cc1c(C(=O)NCCCNC(=O)c2ccc(-c3c4nc(c(-c5c(F)c(F)c(F)c(F)c5F)c5ccc([nH]5)c(-c5c(F)c(F)c(F)c(F)c5F)c5nc(c(-c6c(F)c(F)c(F)c(F)c6F)c6ccc3[nH]6)C=C5)C=C4)cc2)sc2c1c(=O)n(Cc1ccccc1)c(=O)n2CC[NH+]1CCCCC1
REMARK SMILES IDX 7 1 6 2 4 3 5 4 3 6 1 7 2 8 78 9 76 10 77 11 79 12 91 13
REMARK SMILES IDX 80 14 81 15 89 16 90 17 92 18 93 19 94 20 95 21 99 22 96 24
REMARK SMILES IDX 98 25 97 26 82 27 83 28 84 29 88 30 85 31 87 32 86 33 8 34
REMARK SMILES IDX 9 35 10 36 11 37 12 39 13 40 14 41 75 42 15 43 74 44 16 45
REMARK SMILES IDX 17 46 18 47 68 48 19 49 73 50 67 51 69 52 20 53 72 54 66 55
REMARK SMILES IDX 65 56 21 58 53 59 33 60 52 61 34 62 37 63 51 64 70 65 35 66
REMARK SMILES IDX 36 67 50 69 71 70 38 71 22 72 23 73 31 74 24 75 25 76 29 77
REMARK SMILES IDX 32 78 26 79 27 80 30 81 28 82 54 83 55 84 63 85 56 86 57 87
REMARK SMILES IDX 61 88 64 89 58 90 59 91 62 92 60 93 39 94 40 95 48 96 41 97
REMARK SMILES IDX 42 98 46 99 49 100 43 101 44 102 47 103 45 104
REMARK H PARENT 6 5 94 23 10 38 69 57 37 68
REMARK Flexibility Score: inf
ROOT
ATOM      1  C   UNL     1       2.674   5.479  -2.794  1.00  0.00     0.118 C 
ENDROOT
BRANCH   1   2
ATOM      2  N   UNL     1       2.658   4.657  -1.576  1.00  0.00    -0.351 N 
ATOM      3  C   UNL     1       2.472   3.316  -1.276  1.00  0.00     0.261 C 
ATOM      4  O   UNL     1       2.653   3.041  -0.085  1.00  0.00    -0.268 OA
ATOM      5  H   UNL     1       2.821   5.195  -0.768  1.00  0.00     0.163 HD
BRANCH   3   6
ATOM      6  C   UNL     1       1.989   2.312  -2.225  1.00  0.00     0.098 A 
ATOM      7  C   UNL     1       1.337   0.417  -0.596  1.00  0.00     0.047 C 
ATOM      8  C   UNL     1       1.397   1.059  -1.952  1.00  0.00    -0.012 A 
ATOM      9  C   UNL     1       0.653   0.587  -3.113  1.00  0.00     0.079 A 
ATOM     10  S   UNL     1       2.049   2.531  -3.922  1.00  0.00    -0.111 S 
ATOM     11  C   UNL     1       0.735   1.517  -4.110  1.00  0.00     0.113 A 
ATOM     12  C   UNL     1      -0.314  -0.473  -3.292  1.00  0.00     0.265 A 
ATOM     13  N   UNL     1      -0.232   1.713  -5.075  1.00  0.00    -0.279 N 
ATOM     14  O   UNL     1      -0.648  -1.220  -2.363  1.00  0.00    -0.268 OA
ATOM     15  N   UNL     1      -0.870  -0.526  -4.571  1.00  0.00    -0.255 N 
ATOM     16  C   UNL     1      -1.032   0.606  -5.382  1.00  0.00     0.332 A 
ATOM     17  O   UNL     1      -1.867   0.659  -6.287  1.00  0.00    -0.247 OA
BRANCH  13  18
ATOM     18  C   UNL     1      -0.627   3.049  -5.576  1.00  0.00     0.189 C 
BRANCH  18  19
ATOM     19  C   UNL     1      -1.982   3.630  -4.995  1.00  0.00     0.284 C 
BRANCH  19  20
ATOM     20  N   UNL     1      -2.219   3.939  -3.549  1.00  0.00    -0.333 N 
ATOM     21  C   UNL     1      -1.528   3.031  -2.650  1.00  0.00     0.262 C 
ATOM     22  C   UNL     1      -1.998   5.349  -3.214  1.00  0.00     0.262 C 
ATOM     23  H   UNL     1      -3.215   3.774  -3.398  1.00  0.00     0.348 HD
ATOM     24  C   UNL     1      -1.657   3.289  -1.157  1.00  0.00     0.062 C 
ATOM     25  C   UNL     1      -2.018   5.670  -1.703  1.00  0.00     0.062 C 
ATOM     26  C   UNL     1      -1.199   4.701  -0.858  1.00  0.00     0.012 C 
ENDBRANCH  19  20
ENDBRANCH  18  19
ENDBRANCH  13  18
BRANCH  15  27
ATOM     27  C   UNL     1      -1.543  -1.759  -4.957  1.00  0.00     0.166 C 
BRANCH  27  28
ATOM     28  C   UNL     1      -0.526  -2.830  -5.313  1.00  0.00    -0.028 A 
ATOM     29  C   UNL     1      -0.155  -3.055  -6.646  1.00  0.00     0.005 A 
ATOM     30  C   UNL     1       0.117  -3.563  -4.302  1.00  0.00     0.005 A 
ATOM     31  C   UNL     1       0.844  -3.984  -6.953  1.00  0.00     0.000 A 
ATOM     32  C   UNL     1       1.129  -4.471  -4.609  1.00  0.00     0.000 A 
ATOM     33  C   UNL     1       1.493  -4.681  -5.934  1.00  0.00     0.000 A 
ENDBRANCH  27  28
ENDBRANCH  15  27
ENDBRANCH   3   6
ENDBRANCH   1   2
BRANCH   1  34
ATOM     34  C   UNL     1       1.537   6.490  -2.902  1.00  0.00     0.042 C 
BRANCH  34  35
ATOM     35  C   UNL     1       1.661   7.663  -1.961  1.00  0.00     0.118 C 
BRANCH  35  36
ATOM     36  N   UNL     1       2.263   8.848  -2.565  1.00  0.00    -0.352 N 
ATOM     37  C   UNL     1       2.018  10.184  -2.299  1.00  0.00     0.251 C 
ATOM     38  H   UNL     1       2.938   8.672  -3.260  1.00  0.00     0.163 HD
ATOM     39  O   UNL     1       2.390  11.040  -3.095  1.00  0.00    -0.269 OA
BRANCH  37  40
ATOM     40  C   UNL     1       1.333  10.589  -1.046  1.00  0.00     0.039 A 
ATOM     41  C   UNL     1       0.803  11.873  -0.877  1.00  0.00     0.014 A 
ATOM     42  C   UNL     1       1.265   9.687   0.011  1.00  0.00     0.014 A 
ATOM     43  C   UNL     1       0.320  12.232   0.382  1.00  0.00     0.010 A 
ATOM     44  C   UNL     1       0.519   9.938   1.117  1.00  0.00     0.010 A 
ATOM     45  C   UNL     1       0.244  11.254   1.385  1.00  0.00    -0.014 A 
BRANCH  45  46
ATOM     46  C   UNL     1      -0.176  11.520   2.745  1.00  0.00     0.031 A 
ATOM     47  C   UNL     1      -1.565  12.001   2.807  1.00  0.00     0.074 A 
ATOM     48  C   UNL     1       0.534  11.148   3.835  1.00  0.00     0.049 A 
ATOM     49  N   UNL     1      -1.949  13.209   3.029  1.00  0.00    -0.248 NA
ATOM     50  C   UNL     1      -2.634  11.094   2.360  1.00  0.00     0.031 C 
ATOM     51  C   UNL     1       1.770  10.357   3.926  1.00  0.00     0.029 A 
ATOM     52  N   UNL     1       0.237  11.366   5.145  1.00  0.00    -0.354 N 
ATOM     53  C   UNL     1      -3.333  13.172   2.971  1.00  0.00     0.074 A 
ATOM     54  C   UNL     1      -3.679  11.924   2.343  1.00  0.00     0.031 C 
ATOM     55  C   UNL     1       1.995   9.998   5.214  1.00  0.00     0.029 A 
ATOM     56  C   UNL     1       1.022  10.665   6.059  1.00  0.00     0.049 A 
ATOM     57  H   UNL     1      -0.483  11.976   5.427  1.00  0.00     0.167 HD
ATOM     58  C   UNL     1      -4.067  14.050   3.704  1.00  0.00     0.037 A 
ATOM     59  C   UNL     1       0.847  10.647   7.408  1.00  0.00     0.037 A 
ATOM     60  C   UNL     1      -3.244  15.146   4.163  1.00  0.00     0.049 A 
ATOM     61  C   UNL     1       0.032  11.844   7.742  1.00  0.00     0.074 A 
ATOM     62  C   UNL     1      -2.504  16.128   3.533  1.00  0.00     0.029 A 
ATOM     63  N   UNL     1      -2.756  15.075   5.445  1.00  0.00    -0.354 N 
ATOM     64  N   UNL     1       0.459  13.069   7.617  1.00  0.00    -0.248 NA
ATOM     65  C   UNL     1      -1.413  11.679   7.763  1.00  0.00     0.031 C 
ATOM     66  C   UNL     1      -1.316  16.257   4.314  1.00  0.00     0.029 A 
ATOM     67  C   UNL     1      -1.426  15.410   5.417  1.00  0.00     0.049 A 
ATOM     68  H   UNL     1      -3.272  14.828   6.247  1.00  0.00     0.167 HD
ATOM     69  C   UNL     1      -0.627  13.768   7.112  1.00  0.00     0.074 A 
ATOM     70  C   UNL     1      -1.771  12.875   7.289  1.00  0.00     0.031 C 
ATOM     71  C   UNL     1      -0.444  14.872   6.331  1.00  0.00     0.037 A 
BRANCH  58  72
ATOM     72  C   UNL     1      -5.395  13.717   4.332  1.00  0.00     0.064 A 
ATOM     73  C   UNL     1      -6.123  14.746   4.958  1.00  0.00     0.173 A 
ATOM     74  C   UNL     1      -5.847  12.405   4.596  1.00  0.00     0.173 A 
ATOM     75  F   UNL     1      -5.765  16.029   4.800  1.00  0.00    -0.203 F 
ATOM     76  C   UNL     1      -7.175  14.476   5.835  1.00  0.00     0.198 A 
ATOM     77  C   UNL     1      -6.933  12.142   5.426  1.00  0.00     0.198 A 
ATOM     78  F   UNL     1      -5.196  11.319   4.164  1.00  0.00    -0.203 F 
ATOM     79  F   UNL     1      -7.755  15.480   6.505  1.00  0.00    -0.200 F 
ATOM     80  C   UNL     1      -7.578  13.174   6.070  1.00  0.00     0.200 A 
ATOM     81  F   UNL     1      -7.291  10.871   5.658  1.00  0.00    -0.200 F 
ATOM     82  F   UNL     1      -8.549  12.909   6.953  1.00  0.00    -0.200 F 
ENDBRANCH  58  72
BRANCH  59  83
ATOM     83  C   UNL     1       0.999   9.534   8.382  1.00  0.00     0.064 A 
ATOM     84  C   UNL     1       0.930   9.785   9.767  1.00  0.00     0.173 A 
ATOM     85  C   UNL     1       0.859   8.191   7.988  1.00  0.00     0.173 A 
ATOM     86  F   UNL     1       1.025  11.040  10.230  1.00  0.00    -0.203 F 
ATOM     87  C   UNL     1       0.668   8.767  10.691  1.00  0.00     0.198 A 
ATOM     88  C   UNL     1       0.602   7.174   8.913  1.00  0.00     0.198 A 
ATOM     89  F   UNL     1       0.862   7.854   6.691  1.00  0.00    -0.203 F 
ATOM     90  F   UNL     1       0.521   9.063  11.991  1.00  0.00    -0.200 F 
ATOM     91  C   UNL     1       0.483   7.465  10.261  1.00  0.00     0.200 A 
ATOM     92  F   UNL     1       0.391   5.922   8.482  1.00  0.00    -0.200 F 
ATOM     93  F   UNL     1       0.148   6.504  11.132  1.00  0.00    -0.200 F 
ENDBRANCH  59  83
BRANCH  71  94
ATOM     94  C   UNL     1       0.944  15.454   6.253  1.00  0.00     0.064 A 
ATOM     95  C   UNL     1       2.053  14.795   5.691  1.00  0.00     0.173 A 
ATOM     96  C   UNL     1       1.115  16.793   6.626  1.00  0.00     0.173 A 
ATOM     97  F   UNL     1       1.954  13.542   5.234  1.00  0.00    -0.203 F 
ATOM     98  C   UNL     1       3.279  15.444   5.535  1.00  0.00     0.198 A 
ATOM     99  C   UNL     1       2.328  17.449   6.436  1.00  0.00     0.198 A 
ATOM    100  F   UNL     1       0.081  17.485   7.128  1.00  0.00    -0.203 F 
ATOM    101  F   UNL     1       4.322  14.794   4.997  1.00  0.00    -0.200 F 
ATOM    102  C   UNL     1       3.411  16.774   5.897  1.00  0.00     0.200 A 
ATOM    103  F   UNL     1       2.436  18.748   6.747  1.00  0.00    -0.200 F 
ATOM    104  F   UNL     1       4.573  17.414   5.702  1.00  0.00    -0.200 F 
ENDBRANCH  71  94
ENDBRANCH  45  46
ENDBRANCH  37  40
ENDBRANCH  35  36
ENDBRANCH  34  35
ENDBRANCH   1  34
TORSDOF 15
