REMARK SMILES CCOc1ccc(N(Cc2ccc(C(=O)NCCCNC(=O)c3ccc(-c4c5nc(c(-c6c(F)c(F)c(F)c(F)c6F)c6ccc([nH]6)c(-c6c(F)c(F)c(F)c(F)c6F)c6nc(c(-c7c(F)c(F)c(F)c(F)c7F)c7ccc4[nH]7)C=C6)C=C5)cc3)cc2)S(C)(=O)=O)cc1
REMARK SMILES IDX 14 1 15 2 16 3 13 5 10 6 11 7 87 8 12 9 86 10 9 11 8 12 7 13
REMARK SMILES IDX 4 14 5 15 93 16 6 17 92 18 3 19 2 20 1 21 88 22 89 23 90 24
REMARK SMILES IDX 91 25 17 26 18 27 19 28 20 29 21 30 22 32 23 33 24 34 85 35
REMARK SMILES IDX 25 36 84 37 26 38 27 39 28 40 78 41 29 42 83 43 77 44 79 45
REMARK SMILES IDX 30 46 82 47 76 48 75 49 31 51 63 52 43 53 62 54 44 55 47 56
REMARK SMILES IDX 61 57 80 58 45 59 46 60 60 62 81 63 48 64 32 65 33 66 41 67
REMARK SMILES IDX 34 68 35 69 39 70 42 71 36 72 37 73 40 74 38 75 64 76 65 77
REMARK SMILES IDX 73 78 66 79 67 80 71 81 74 82 68 83 69 84 72 85 70 86 49 87
REMARK SMILES IDX 50 88 58 89 51 90 52 91 56 92 59 93 53 94 54 95 57 96 55 97
REMARK H PARENT 16 4 20 31 79 50 47 61
REMARK Flexibility Score: inf
ROOT
ATOM      1  C   UNL     1      10.427   4.503   4.515  1.00  0.00     0.251 C 
ATOM      2  O   UNL     1      10.493   3.487   5.207  1.00  0.00    -0.269 OA
ATOM      3  N   UNL     1      11.329   5.497   4.763  1.00  0.00    -0.352 N 
ATOM      4  H   UNL     1      12.037   5.253   5.402  1.00  0.00     0.163 HD
ENDROOT
BRANCH   1   5
ATOM      5  C   UNL     1       9.465   4.559   3.384  1.00  0.00     0.039 A 
ATOM      6  C   UNL     1       7.852   4.397   1.056  1.00  0.00    -0.027 A 
ATOM      7  C   UNL     1       8.462   3.268   1.612  1.00  0.00     0.006 A 
ATOM      8  C   UNL     1       8.030   5.617   1.719  1.00  0.00     0.006 A 
ATOM      9  C   UNL     1       9.246   3.338   2.756  1.00  0.00     0.014 A 
ATOM     10  C   UNL     1       8.810   5.691   2.888  1.00  0.00     0.014 A 
BRANCH   6  11
ATOM     11  C   UNL     1       7.135   4.323  -0.284  1.00  0.00     0.170 C 
BRANCH  11  12
ATOM     12  N   UNL     1       6.470   3.010  -0.559  1.00  0.00    -0.266 N 
BRANCH  12  13
ATOM     13  C   UNL     1       5.015   2.898  -0.512  1.00  0.00     0.052 A 
ATOM     14  C   UNL     1       2.221   2.523  -0.174  1.00  0.00     0.119 A 
ATOM     15  C   UNL     1       2.851   3.621   0.398  1.00  0.00     0.048 A 
ATOM     16  C   UNL     1       2.956   1.651  -0.958  1.00  0.00     0.048 A 
ATOM     17  C   UNL     1       4.241   3.789   0.253  1.00  0.00     0.031 A 
ATOM     18  C   UNL     1       4.331   1.833  -1.111  1.00  0.00     0.031 A 
BRANCH  14  19
ATOM     19  O   UNL     1       0.870   2.377  -0.057  1.00  0.00    -0.494 OA
BRANCH  19  20
ATOM     20  C   UNL     1       0.490   1.307   0.822  1.00  0.00     0.226 C 
ATOM     21  C   UNL     1       0.507  -0.060   0.151  1.00  0.00     0.049 C 
ENDBRANCH  19  20
ENDBRANCH  14  19
ENDBRANCH  12  13
BRANCH  12  22
ATOM     22  S   UNL     1       7.418   1.912  -1.473  1.00  0.00     0.232 S 
ATOM     23  C   UNL     1       7.277   0.408  -0.503  1.00  0.00     0.183 C 
ATOM     24  O   UNL     1       6.816   1.694  -2.768  1.00  0.00    -0.207 OA
ATOM     25  O   UNL     1       8.810   2.316  -1.388  1.00  0.00    -0.207 OA
ENDBRANCH  12  22
ENDBRANCH  11  12
ENDBRANCH   6  11
ENDBRANCH   1   5
BRANCH   3  26
ATOM     26  C   UNL     1      11.425   6.845   4.252  1.00  0.00     0.118 C 
BRANCH  26  27
ATOM     27  C   UNL     1      10.672   7.793   5.181  1.00  0.00     0.042 C 
BRANCH  27  28
ATOM     28  C   UNL     1      11.347   7.930   6.542  1.00  0.00     0.118 C 
BRANCH  28  29
ATOM     29  N   UNL     1      12.659   8.546   6.422  1.00  0.00    -0.352 N 
ATOM     30  C   UNL     1      13.116   9.736   6.919  1.00  0.00     0.251 C 
ATOM     31  H   UNL     1      13.318   8.028   5.905  1.00  0.00     0.163 HD
ATOM     32  O   UNL     1      14.132  10.239   6.450  1.00  0.00    -0.269 OA
BRANCH  30  33
ATOM     33  C   UNL     1      12.397  10.408   8.019  1.00  0.00     0.039 A 
ATOM     34  C   UNL     1      12.352  11.803   8.032  1.00  0.00     0.014 A 
ATOM     35  C   UNL     1      11.823   9.676   9.063  1.00  0.00     0.014 A 
ATOM     36  C   UNL     1      11.707  12.460   9.078  1.00  0.00     0.010 A 
ATOM     37  C   UNL     1      11.100  10.328  10.055  1.00  0.00     0.010 A 
ATOM     38  C   UNL     1      11.053  11.728  10.083  1.00  0.00    -0.014 A 
BRANCH  38  39
ATOM     39  C   UNL     1      10.319  12.429  11.163  1.00  0.00     0.031 A 
ATOM     40  C   UNL     1      10.764  12.313  12.593  1.00  0.00     0.074 A 
ATOM     41  C   UNL     1       9.234  13.159  10.845  1.00  0.00     0.049 A 
ATOM     42  N   UNL     1      10.273  12.891  13.661  1.00  0.00    -0.248 NA
ATOM     43  C   UNL     1      11.893  11.410  12.867  1.00  0.00     0.031 C 
ATOM     44  C   UNL     1       8.676  13.294   9.498  1.00  0.00     0.029 A 
ATOM     45  N   UNL     1       8.416  13.935  11.624  1.00  0.00    -0.354 N 
ATOM     46  C   UNL     1      11.031  12.422  14.727  1.00  0.00     0.074 A 
ATOM     47  C   UNL     1      11.965  11.459  14.188  1.00  0.00     0.031 C 
ATOM     48  C   UNL     1       7.640  14.145   9.536  1.00  0.00     0.029 A 
ATOM     49  C   UNL     1       7.437  14.582  10.912  1.00  0.00     0.049 A 
ATOM     50  H   UNL     1       8.520  14.019  12.599  1.00  0.00     0.167 HD
ATOM     51  C   UNL     1      10.971  12.786  16.031  1.00  0.00     0.037 A 
ATOM     52  C   UNL     1       6.487  15.440  11.326  1.00  0.00     0.037 A 
ATOM     53  C   UNL     1      10.035  13.747  16.556  1.00  0.00     0.049 A 
ATOM     54  C   UNL     1       6.434  15.818  12.780  1.00  0.00     0.074 A 
ATOM     55  C   UNL     1       9.915  14.221  17.850  1.00  0.00     0.029 A 
ATOM     56  N   UNL     1       9.046  14.374  15.809  1.00  0.00    -0.354 N 
ATOM     57  N   UNL     1       7.205  15.431  13.768  1.00  0.00    -0.248 NA
ATOM     58  C   UNL     1       5.383  16.765  13.173  1.00  0.00     0.031 C 
ATOM     59  C   UNL     1       8.816  15.087  17.899  1.00  0.00     0.029 A 
ATOM     60  C   UNL     1       8.293  15.209  16.622  1.00  0.00     0.049 A 
ATOM     61  H   UNL     1       8.901  14.246  14.844  1.00  0.00     0.167 HD
ATOM     62  C   UNL     1       6.751  16.104  14.893  1.00  0.00     0.074 A 
ATOM     63  C   UNL     1       5.656  16.946  14.456  1.00  0.00     0.031 C 
ATOM     64  C   UNL     1       7.196  16.031  16.173  1.00  0.00     0.037 A 
BRANCH  51  65
ATOM     65  C   UNL     1      11.943  12.132  16.976  1.00  0.00     0.064 A 
ATOM     66  C   UNL     1      13.326  12.363  16.891  1.00  0.00     0.173 A 
ATOM     67  C   UNL     1      11.487  11.271  17.986  1.00  0.00     0.173 A 
ATOM     68  F   UNL     1      13.819  13.168  15.938  1.00  0.00    -0.203 F 
ATOM     69  C   UNL     1      14.216  11.725  17.752  1.00  0.00     0.198 A 
ATOM     70  C   UNL     1      12.378  10.665  18.869  1.00  0.00     0.198 A 
ATOM     71  F   UNL     1      10.177  11.017  18.119  1.00  0.00    -0.203 F 
ATOM     72  F   UNL     1      15.536  11.911  17.607  1.00  0.00    -0.200 F 
ATOM     73  C   UNL     1      13.741  10.882  18.744  1.00  0.00     0.200 A 
ATOM     74  F   UNL     1      11.915   9.862  19.838  1.00  0.00    -0.200 F 
ATOM     75  F   UNL     1      14.598  10.271  19.574  1.00  0.00    -0.200 F 
ENDBRANCH  51  65
BRANCH  52  76
ATOM     76  C   UNL     1       5.543  16.031  10.341  1.00  0.00     0.064 A 
ATOM     77  C   UNL     1       5.593  17.396  10.026  1.00  0.00     0.173 A 
ATOM     78  C   UNL     1       4.581  15.246   9.690  1.00  0.00     0.173 A 
ATOM     79  F   UNL     1       6.486  18.192  10.634  1.00  0.00    -0.203 F 
ATOM     80  C   UNL     1       4.703  17.957   9.113  1.00  0.00     0.198 A 
ATOM     81  C   UNL     1       3.713  15.802   8.753  1.00  0.00     0.198 A 
ATOM     82  F   UNL     1       4.498  13.932   9.948  1.00  0.00    -0.203 F 
ATOM     83  F   UNL     1       4.742  19.273   8.866  1.00  0.00    -0.200 F 
ATOM     84  C   UNL     1       3.768  17.158   8.472  1.00  0.00     0.200 A 
ATOM     85  F   UNL     1       2.825  15.022   8.121  1.00  0.00    -0.200 F 
ATOM     86  F   UNL     1       2.917  17.697   7.588  1.00  0.00    -0.200 F 
ENDBRANCH  52  76
BRANCH  64  87
ATOM     87  C   UNL     1       6.508  16.910  17.181  1.00  0.00     0.064 A 
ATOM     88  C   UNL     1       5.173  16.700  17.558  1.00  0.00     0.173 A 
ATOM     89  C   UNL     1       7.192  17.986  17.769  1.00  0.00     0.173 A 
ATOM     90  F   UNL     1       4.468  15.695  17.016  1.00  0.00    -0.203 F 
ATOM     91  C   UNL     1       4.533  17.564  18.442  1.00  0.00     0.198 A 
ATOM     92  C   UNL     1       6.562  18.822  18.686  1.00  0.00     0.198 A 
ATOM     93  F   UNL     1       8.474  18.227  17.455  1.00  0.00    -0.203 F 
ATOM     94  F   UNL     1       3.234  17.391  18.723  1.00  0.00    -0.200 F 
ATOM     95  C   UNL     1       5.229  18.622  19.009  1.00  0.00     0.200 A 
ATOM     96  F   UNL     1       7.241  19.833  19.246  1.00  0.00    -0.200 F 
ATOM     97  F   UNL     1       4.610  19.456  19.855  1.00  0.00    -0.200 F 
ENDBRANCH  64  87
ENDBRANCH  38  39
ENDBRANCH  30  33
ENDBRANCH  28  29
ENDBRANCH  27  28
ENDBRANCH  26  27
ENDBRANCH   3  26
TORSDOF 16
