REMARK SMILES O=C(NCCCNC(=O)c1cc(N2C(=O)C[C@H](Nc3ccccc3O)C2=O)ccc1O)c1ccc(-c2c3nc(c(-c4c(F)c(F)c(F)c(F)c4F)c4ccc([nH]4)c(-c4c(F)c(F)c(F)c(F)c4F)c4nc(c(-c5c(F)c(F)c(F)c(F)c5F)c5ccc2[nH]5)C=C4)C=C3)cc1
REMARK SMILES IDX 6 1 5 2 4 3 3 4 1 5 2 6 32 8 33 9 94 10 34 11 93 12 35 13
REMARK SMILES IDX 36 14 37 15 87 16 38 17 92 18 86 19 88 20 39 21 91 22 85 23
REMARK SMILES IDX 84 24 40 26 72 27 52 28 71 29 53 30 56 31 70 32 89 33 54 34
REMARK SMILES IDX 55 35 69 37 90 38 57 39 41 40 42 41 50 42 43 43 44 44 48 45
REMARK SMILES IDX 51 46 45 47 46 48 49 49 47 50 73 51 74 52 82 53 75 54 76 55
REMARK SMILES IDX 80 56 83 57 77 58 78 59 81 60 79 61 58 62 59 63 67 64 60 65
REMARK SMILES IDX 61 66 65 67 68 68 62 69 63 70 66 71 64 72 7 73 8 74 9 76
REMARK SMILES IDX 10 77 11 78 30 79 12 80 29 81 28 82 31 83 13 85 14 86 26 87
REMARK SMILES IDX 15 88 16 89 17 90 27 91 18 92 19 94 20 95 24 96 21 97 23 98
REMARK SMILES IDX 22 99 25 100
REMARK H PARENT 3 7 88 25 56 36 7 75 31 84 18 93 25 101
REMARK Flexibility Score: inf
ROOT
ATOM      1  C   UNL     1       4.533  -3.660   0.643  1.00  0.00     0.118 C 
ENDROOT
BRANCH   1   2
ATOM      2  C   UNL     1       5.018  -2.236   0.862  1.00  0.00     0.042 C 
BRANCH   2   3
ATOM      3  C   UNL     1       4.625  -1.271  -0.247  1.00  0.00     0.118 C 
BRANCH   3   4
ATOM      4  N   UNL     1       3.187  -1.046  -0.327  1.00  0.00    -0.352 N 
ATOM      5  O   UNL     1       1.216   0.000  -0.007  1.00  0.00    -0.269 OA
ATOM      6  C   UNL     1       2.441   0.070  -0.033  1.00  0.00     0.251 C 
ATOM      7  H   UNL     1       2.665  -1.819  -0.642  1.00  0.00     0.163 HD
BRANCH   6   8
ATOM      8  C   UNL     1       3.108   1.352   0.284  1.00  0.00     0.039 A 
ATOM      9  C   UNL     1       4.216   1.784  -0.445  1.00  0.00     0.014 A 
ATOM     10  C   UNL     1       2.607   2.142   1.323  1.00  0.00     0.014 A 
ATOM     11  C   UNL     1       4.933   2.895  -0.020  1.00  0.00     0.010 A 
ATOM     12  C   UNL     1       3.264   3.325   1.677  1.00  0.00     0.010 A 
ATOM     13  C   UNL     1       4.458   3.688   1.036  1.00  0.00    -0.014 A 
BRANCH  13  14
ATOM     14  C   UNL     1       5.205   4.915   1.413  1.00  0.00     0.031 A 
ATOM     15  C   UNL     1       5.825   5.064   2.773  1.00  0.00     0.074 A 
ATOM     16  C   UNL     1       5.349   5.890   0.494  1.00  0.00     0.049 A 
ATOM     17  N   UNL     1       6.529   6.059   3.256  1.00  0.00    -0.248 NA
ATOM     18  C   UNL     1       5.622   3.960   3.723  1.00  0.00     0.031 C 
ATOM     19  C   UNL     1       4.786   5.860  -0.857  1.00  0.00     0.029 A 
ATOM     20  N   UNL     1       6.029   7.079   0.544  1.00  0.00    -0.354 N 
ATOM     21  C   UNL     1       6.830   5.713   4.566  1.00  0.00     0.074 A 
ATOM     22  C   UNL     1       6.210   4.429   4.815  1.00  0.00     0.031 C 
ATOM     23  C   UNL     1       5.191   6.948  -1.526  1.00  0.00     0.029 A 
ATOM     24  C   UNL     1       5.983   7.785  -0.632  1.00  0.00     0.049 A 
ATOM     25  H   UNL     1       6.505   7.396   1.346  1.00  0.00     0.167 HD
ATOM     26  C   UNL     1       7.564   6.402   5.474  1.00  0.00     0.037 A 
ATOM     27  C   UNL     1       6.507   8.981  -0.955  1.00  0.00     0.037 A 
ATOM     28  C   UNL     1       8.193   7.672   5.213  1.00  0.00     0.049 A 
ATOM     29  C   UNL     1       7.293   9.734   0.078  1.00  0.00     0.074 A 
ATOM     30  C   UNL     1       8.992   8.430   6.052  1.00  0.00     0.029 A 
ATOM     31  N   UNL     1       8.090   8.376   4.020  1.00  0.00    -0.354 N 
ATOM     32  N   UNL     1       7.598   9.382   1.303  1.00  0.00    -0.248 NA
ATOM     33  C   UNL     1       7.802  11.053  -0.316  1.00  0.00     0.031 C 
ATOM     34  C   UNL     1       9.328   9.615   5.387  1.00  0.00     0.029 A 
ATOM     35  C   UNL     1       8.787   9.571   4.112  1.00  0.00     0.049 A 
ATOM     36  H   UNL     1       7.594   8.070   3.226  1.00  0.00     0.167 HD
ATOM     37  C   UNL     1       8.352  10.424   1.821  1.00  0.00     0.074 A 
ATOM     38  C   UNL     1       8.471  11.415   0.770  1.00  0.00     0.031 C 
ATOM     39  C   UNL     1       8.896  10.548   3.057  1.00  0.00     0.037 A 
BRANCH  26  40
ATOM     40  C   UNL     1       7.701   5.810   6.849  1.00  0.00     0.064 A 
ATOM     41  C   UNL     1       8.465   4.658   7.089  1.00  0.00     0.173 A 
ATOM     42  C   UNL     1       7.077   6.421   7.949  1.00  0.00     0.173 A 
ATOM     43  F   UNL     1       9.074   4.028   6.073  1.00  0.00    -0.203 F 
ATOM     44  C   UNL     1       8.569   4.119   8.370  1.00  0.00     0.198 A 
ATOM     45  C   UNL     1       7.210   5.897   9.233  1.00  0.00     0.198 A 
ATOM     46  F   UNL     1       6.342   7.530   7.780  1.00  0.00    -0.203 F 
ATOM     47  F   UNL     1       9.259   2.987   8.564  1.00  0.00    -0.200 F 
ATOM     48  C   UNL     1       7.947   4.742   9.441  1.00  0.00     0.200 A 
ATOM     49  F   UNL     1       6.618   6.509  10.269  1.00  0.00    -0.200 F 
ATOM     50  F   UNL     1       8.050   4.223  10.672  1.00  0.00    -0.200 F 
ENDBRANCH  26  40
BRANCH  27  51
ATOM     51  C   UNL     1       6.307   9.522  -2.322  1.00  0.00     0.064 A 
ATOM     52  C   UNL     1       7.376   9.611  -3.223  1.00  0.00     0.173 A 
ATOM     53  C   UNL     1       5.039   9.925  -2.769  1.00  0.00     0.173 A 
ATOM     54  F   UNL     1       8.609   9.254  -2.836  1.00  0.00    -0.203 F 
ATOM     55  C   UNL     1       7.186  10.089  -4.518  1.00  0.00     0.198 A 
ATOM     56  C   UNL     1       4.846  10.375  -4.072  1.00  0.00     0.198 A 
ATOM     57  F   UNL     1       3.983   9.851  -1.946  1.00  0.00    -0.203 F 
ATOM     58  F   UNL     1       8.231  10.194  -5.350  1.00  0.00    -0.200 F 
ATOM     59  C   UNL     1       5.920  10.462  -4.944  1.00  0.00     0.200 A 
ATOM     60  F   UNL     1       3.617  10.716  -4.485  1.00  0.00    -0.200 F 
ATOM     61  F   UNL     1       5.736  10.907  -6.194  1.00  0.00    -0.200 F 
ENDBRANCH  27  51
BRANCH  39  62
ATOM     62  C   UNL     1       9.699  11.787   3.326  1.00  0.00     0.064 A 
ATOM     63  C   UNL     1       9.091  13.042   3.474  1.00  0.00     0.173 A 
ATOM     64  C   UNL     1      11.094  11.712   3.459  1.00  0.00     0.173 A 
ATOM     65  F   UNL     1       7.762  13.169   3.338  1.00  0.00    -0.203 F 
ATOM     66  C   UNL     1       9.853  14.182   3.718  1.00  0.00     0.198 A 
ATOM     67  C   UNL     1      11.849  12.848   3.733  1.00  0.00     0.198 A 
ATOM     68  F   UNL     1      11.723  10.535   3.330  1.00  0.00    -0.203 F 
ATOM     69  F   UNL     1       9.256  15.379   3.804  1.00  0.00    -0.200 F 
ATOM     70  C   UNL     1      11.229  14.083   3.854  1.00  0.00     0.200 A 
ATOM     71  F   UNL     1      13.178  12.749   3.875  1.00  0.00    -0.200 F 
ATOM     72  F   UNL     1      11.961  15.180   4.092  1.00  0.00    -0.200 F 
ENDBRANCH  39  62
ENDBRANCH  13  14
ENDBRANCH   6   8
ENDBRANCH   3   4
ENDBRANCH   2   3
ENDBRANCH   1   2
BRANCH   1  73
ATOM     73  N   UNL     1       5.059  -4.226  -0.584  1.00  0.00    -0.352 N 
ATOM     74  C   UNL     1       5.833  -5.339  -0.765  1.00  0.00     0.255 C 
ATOM     75  H   UNL     1       4.825  -3.738  -1.407  1.00  0.00     0.163 HD
ATOM     76  O   UNL     1       6.301  -5.571  -1.878  1.00  0.00    -0.269 OA
BRANCH  74  77
ATOM     77  C   UNL     1       6.148  -6.253   0.352  1.00  0.00     0.083 A 
ATOM     78  C   UNL     1       7.491  -6.635   0.493  1.00  0.00     0.044 A 
ATOM     79  C   UNL     1       5.167  -6.854   1.147  1.00  0.00     0.128 A 
ATOM     80  C   UNL     1       7.853  -7.649   1.389  1.00  0.00     0.053 A 
ATOM     81  C   UNL     1       5.527  -7.818   2.087  1.00  0.00     0.049 A 
ATOM     82  C   UNL     1       6.859  -8.232   2.184  1.00  0.00     0.031 A 
BRANCH  79  83
ATOM     83  O   UNL     1       3.847  -6.534   0.996  1.00  0.00    -0.507 OA
ATOM     84  H   UNL     1       3.590  -5.887   0.368  1.00  0.00     0.293 HD
ENDBRANCH  79  83
BRANCH  80  85
ATOM     85  N   UNL     1       9.187  -8.119   1.426  1.00  0.00    -0.249 N 
ATOM     86  C   UNL     1       9.530  -9.444   1.529  1.00  0.00     0.236 C 
ATOM     87  C   UNL     1      10.286  -7.296   1.365  1.00  0.00     0.256 C 
ATOM     88  O   UNL     1       8.787 -10.406   1.652  1.00  0.00    -0.274 OA
ATOM     89  C   UNL     1      11.013  -9.585   1.365  1.00  0.00     0.136 C 
ATOM     90  C   UNL     1      11.543  -8.161   1.345  1.00  0.00     0.179 C 
ATOM     91  O   UNL     1      10.275  -6.071   1.429  1.00  0.00    -0.272 OA
BRANCH  90  92
ATOM     92  N   UNL     1      12.387  -7.941   2.531  1.00  0.00    -0.370 N 
ATOM     93  H   UNL     1      12.027  -8.027   3.443  1.00  0.00     0.161 HD
BRANCH  92  94
ATOM     94  C   UNL     1      13.730  -7.604   2.299  1.00  0.00     0.077 A 
ATOM     95  C   UNL     1      14.737  -8.392   2.863  1.00  0.00     0.029 A 
ATOM     96  C   UNL     1      14.106  -6.414   1.654  1.00  0.00     0.138 A 
ATOM     97  C   UNL     1      16.082  -8.025   2.748  1.00  0.00     0.002 A 
ATOM     98  C   UNL     1      15.443  -6.036   1.539  1.00  0.00     0.048 A 
ATOM     99  C   UNL     1      16.434  -6.848   2.087  1.00  0.00     0.004 A 
BRANCH  96 100
ATOM    100  O   UNL     1      13.128  -5.606   1.145  1.00  0.00    -0.506 OA
ATOM    101  H   UNL     1      12.228  -5.855   1.219  1.00  0.00     0.293 HD
ENDBRANCH  96 100
ENDBRANCH  92  94
ENDBRANCH  90  92
ENDBRANCH  80  85
ENDBRANCH  74  77
ENDBRANCH   1  73
TORSDOF 15
