REMARK SMILES O=C(C[N@@H+]1CCC[C@@H]1c1nc2ccccc2s1)Nc1sc2c(c1C(=O)NCCCNC(=O)c1ccc(-c3c4nc(c(-c5c(F)c(F)c(F)c(F)c5F)c5ccc([nH]5)c(-c5c(F)c(F)c(F)c(F)c5F)c5nc(c(-c6c(F)c(F)c(F)c(F)c6F)c6ccc3[nH]6)C=C5)C=C4)cc1)CCCC2
REMARK SMILES IDX 27 1 26 2 24 3 25 4 23 6 19 7 20 8 21 9 22 10 99 11 96 12
REMARK SMILES IDX 98 13 97 14 18 15 1 16 2 17 3 19 4 20 5 21 8 22 6 24 7 25
REMARK SMILES IDX 9 26 10 27 17 28 11 29 16 30 12 31 15 32 13 33 14 34 28 35
REMARK SMILES IDX 29 36 30 37 31 38 32 40 33 41 34 42 95 43 35 44 94 45 36 46
REMARK SMILES IDX 37 47 38 48 88 49 39 50 93 51 87 52 89 53 40 54 92 55 86 56
REMARK SMILES IDX 85 57 41 59 73 60 53 61 72 62 54 63 57 64 71 65 90 66 55 67
REMARK SMILES IDX 56 68 70 70 91 71 58 72 42 73 43 74 51 75 44 76 45 77 49 78
REMARK SMILES IDX 52 79 46 80 47 81 50 82 48 83 74 84 75 85 83 86 76 87 77 88
REMARK SMILES IDX 81 89 84 90 78 91 79 92 82 93 80 94 59 95 60 96 68 97 61 98
REMARK SMILES IDX 62 99 66 100 69 101 63 102 64 103 67 104 65 105
REMARK H PARENT 26 5 18 18 4 23 30 39 89 58 57 69
REMARK Flexibility Score: inf
ROOT
ATOM      1  C   UNL     1       4.026   5.987   1.293  1.00  0.00     0.118 C 
ENDROOT
BRANCH   1   2
ATOM      2  N   UNL     1       4.790   4.767   1.444  1.00  0.00    -0.352 N 
ATOM      3  C   UNL     1       4.572   3.572   2.075  1.00  0.00     0.254 C 
ATOM      4  O   UNL     1       5.484   2.749   1.923  1.00  0.00    -0.269 OA
ATOM      5  H   UNL     1       5.664   4.806   0.992  1.00  0.00     0.163 HD
BRANCH   3   6
ATOM      6  C   UNL     1       3.341   3.181   2.785  1.00  0.00     0.078 A 
ATOM      7  C   UNL     1       2.909   1.851   2.657  1.00  0.00     0.109 A 
ATOM      8  S   UNL     1       1.575   1.477   3.625  1.00  0.00    -0.122 S 
ATOM      9  C   UNL     1       1.442   3.067   4.169  1.00  0.00     0.011 A 
ATOM     10  C   UNL     1       2.430   3.904   3.674  1.00  0.00    -0.019 A 
ATOM     11  C   UNL     1       0.354   3.451   5.125  1.00  0.00     0.047 C 
ATOM     12  C   UNL     1       2.441   5.346   4.096  1.00  0.00     0.037 C 
ATOM     13  C   UNL     1       0.128   4.962   5.079  1.00  0.00     0.006 C 
ATOM     14  C   UNL     1       1.460   5.697   5.226  1.00  0.00     0.005 C 
BRANCH   7  15
ATOM     15  N   UNL     1       3.486   0.867   1.856  1.00  0.00    -0.312 N 
ATOM     16  O   UNL     1       1.825  -0.791   1.799  1.00  0.00    -0.268 OA
ATOM     17  C   UNL     1       2.911  -0.336   1.450  1.00  0.00     0.280 C 
ATOM     18  H   UNL     1       4.402   1.041   1.542  1.00  0.00     0.170 HD
BRANCH  17  19
ATOM     19  C   UNL     1       3.852  -1.151   0.558  1.00  0.00     0.364 C 
BRANCH  19  20
ATOM     20  N   UNL     1       3.926  -0.883  -0.909  1.00  0.00    -0.319 N 
ATOM     21  C   UNL     1       5.282  -1.238  -1.373  1.00  0.00     0.263 C 
ATOM     22  C   UNL     1       3.751   0.484  -1.474  1.00  0.00     0.245 C 
ATOM     23  H   UNL     1       3.116  -1.420  -1.221  1.00  0.00     0.349 HD
ATOM     24  C   UNL     1       6.096   0.020  -1.089  1.00  0.00     0.068 C 
ATOM     25  C   UNL     1       5.102   1.169  -1.266  1.00  0.00     0.079 C 
BRANCH  22  26
ATOM     26  C   UNL     1       2.485   1.208  -1.101  1.00  0.00     0.151 A 
ATOM     27  N   UNL     1       1.337   0.582  -0.944  1.00  0.00    -0.235 NA
ATOM     28  S   UNL     1       2.387   2.912  -0.875  1.00  0.00    -0.113 S 
ATOM     29  C   UNL     1       0.462   1.380  -0.242  1.00  0.00     0.082 A 
ATOM     30  C   UNL     1       0.867   2.705  -0.078  1.00  0.00     0.055 A 
ATOM     31  C   UNL     1      -0.733   0.944   0.360  1.00  0.00     0.030 A 
ATOM     32  C   UNL     1       0.106   3.618   0.671  1.00  0.00     0.021 A 
ATOM     33  C   UNL     1      -1.467   1.827   1.153  1.00  0.00     0.002 A 
ATOM     34  C   UNL     1      -1.051   3.147   1.304  1.00  0.00     0.002 A 
ENDBRANCH  22  26
ENDBRANCH  19  20
ENDBRANCH  17  19
ENDBRANCH   7  15
ENDBRANCH   3   6
ENDBRANCH   1   2
BRANCH   1  35
ATOM     35  C   UNL     1       4.526   7.043   2.278  1.00  0.00     0.042 C 
BRANCH  35  36
ATOM     36  C   UNL     1       5.833   7.706   1.858  1.00  0.00     0.118 C 
BRANCH  36  37
ATOM     37  N   UNL     1       5.609   8.972   1.183  1.00  0.00    -0.352 N 
ATOM     38  C   UNL     1       5.930  10.252   1.576  1.00  0.00     0.251 C 
ATOM     39  H   UNL     1       5.159   8.905   0.310  1.00  0.00     0.163 HD
ATOM     40  O   UNL     1       5.453  11.203   0.968  1.00  0.00    -0.269 OA
BRANCH  38  41
ATOM     41  C   UNL     1       6.830  10.501   2.732  1.00  0.00     0.039 A 
ATOM     42  C   UNL     1       6.564  11.591   3.568  1.00  0.00     0.014 A 
ATOM     43  C   UNL     1       7.965   9.720   2.963  1.00  0.00     0.014 A 
ATOM     44  C   UNL     1       7.405  11.870   4.651  1.00  0.00     0.010 A 
ATOM     45  C   UNL     1       8.755   9.946   4.090  1.00  0.00     0.010 A 
ATOM     46  C   UNL     1       8.498  11.036   4.935  1.00  0.00    -0.014 A 
BRANCH  46  47
ATOM     47  C   UNL     1       9.416  11.317   6.072  1.00  0.00     0.031 A 
ATOM     48  C   UNL     1      10.863  11.641   5.806  1.00  0.00     0.074 A 
ATOM     49  C   UNL     1       8.973  11.224   7.340  1.00  0.00     0.049 A 
ATOM     50  N   UNL     1      11.845  11.818   6.655  1.00  0.00    -0.248 NA
ATOM     51  C   UNL     1      11.267  11.747   4.395  1.00  0.00     0.031 C 
ATOM     52  C   UNL     1       7.609  10.875   7.737  1.00  0.00     0.029 A 
ATOM     53  N   UNL     1       9.630  11.403   8.533  1.00  0.00    -0.354 N 
ATOM     54  C   UNL     1      12.981  12.021   5.882  1.00  0.00     0.074 A 
ATOM     55  C   UNL     1      12.578  11.903   4.497  1.00  0.00     0.031 C 
ATOM     56  C   UNL     1       7.524  10.886   9.078  1.00  0.00     0.029 A 
ATOM     57  C   UNL     1       8.834  11.210   9.635  1.00  0.00     0.049 A 
ATOM     58  H   UNL     1      10.582  11.648   8.591  1.00  0.00     0.167 HD
ATOM     59  C   UNL     1      14.243  12.305   6.286  1.00  0.00     0.037 A 
ATOM     60  C   UNL     1       9.129  11.283  10.947  1.00  0.00     0.037 A 
ATOM     61  C   UNL     1      14.634  12.478   7.660  1.00  0.00     0.049 A 
ATOM     62  C   UNL     1      10.528  11.640  11.371  1.00  0.00     0.074 A 
ATOM     63  C   UNL     1      15.872  12.832   8.168  1.00  0.00     0.029 A 
ATOM     64  N   UNL     1      13.786  12.319   8.745  1.00  0.00    -0.354 N 
ATOM     65  N   UNL     1      11.581  11.880  10.629  1.00  0.00    -0.248 NA
ATOM     66  C   UNL     1      10.777  11.744  12.816  1.00  0.00     0.031 C 
ATOM     67  C   UNL     1      15.780  12.861   9.564  1.00  0.00     0.029 A 
ATOM     68  C   UNL     1      14.475  12.561   9.922  1.00  0.00     0.049 A 
ATOM     69  H   UNL     1      12.835  12.071   8.688  1.00  0.00     0.167 HD
ATOM     70  C   UNL     1      12.608  12.188  11.511  1.00  0.00     0.074 A 
ATOM     71  C   UNL     1      12.049  12.117  12.845  1.00  0.00     0.031 C 
ATOM     72  C   UNL     1      13.899  12.499  11.240  1.00  0.00     0.037 A 
BRANCH  59  73
ATOM     73  C   UNL     1      15.294  12.456   5.225  1.00  0.00     0.064 A 
ATOM     74  C   UNL     1      15.317  13.564   4.365  1.00  0.00     0.173 A 
ATOM     75  C   UNL     1      16.307  11.495   5.085  1.00  0.00     0.173 A 
ATOM     76  F   UNL     1      14.363  14.504   4.450  1.00  0.00    -0.203 F 
ATOM     77  C   UNL     1      16.297  13.690   3.385  1.00  0.00     0.198 A 
ATOM     78  C   UNL     1      17.302  11.639   4.122  1.00  0.00     0.198 A 
ATOM     79  F   UNL     1      16.334  10.418   5.885  1.00  0.00    -0.203 F 
ATOM     80  F   UNL     1      16.269  14.732   2.542  1.00  0.00    -0.200 F 
ATOM     81  C   UNL     1      17.292  12.731   3.268  1.00  0.00     0.200 A 
ATOM     82  F   UNL     1      18.269  10.717   4.016  1.00  0.00    -0.200 F 
ATOM     83  F   UNL     1      18.237  12.856   2.325  1.00  0.00    -0.200 F 
ENDBRANCH  59  73
BRANCH  60  84
ATOM     84  C   UNL     1       8.068  11.047  11.959  1.00  0.00     0.064 A 
ATOM     85  C   UNL     1       7.550  12.108  12.715  1.00  0.00     0.173 A 
ATOM     86  C   UNL     1       7.550   9.765  12.192  1.00  0.00     0.173 A 
ATOM     87  F   UNL     1       8.030  13.349  12.542  1.00  0.00    -0.203 F 
ATOM     88  C   UNL     1       6.566  11.894  13.677  1.00  0.00     0.198 A 
ATOM     89  C   UNL     1       6.548   9.556  13.138  1.00  0.00     0.198 A 
ATOM     90  F   UNL     1       8.009   8.718  11.491  1.00  0.00    -0.203 F 
ATOM     91  F   UNL     1       6.117  12.920  14.413  1.00  0.00    -0.200 F 
ATOM     92  C   UNL     1       6.062  10.619  13.884  1.00  0.00     0.200 A 
ATOM     93  F   UNL     1       6.054   8.325  13.326  1.00  0.00    -0.200 F 
ATOM     94  F   UNL     1       5.112  10.413  14.806  1.00  0.00    -0.200 F 
ENDBRANCH  60  84
BRANCH  72  95
ATOM     95  C   UNL     1      14.786  12.822  12.405  1.00  0.00     0.064 A 
ATOM     96  C   UNL     1      15.260  11.822  13.265  1.00  0.00     0.173 A 
ATOM     97  C   UNL     1      15.199  14.143  12.636  1.00  0.00     0.173 A 
ATOM     98  F   UNL     1      14.880  10.547  13.092  1.00  0.00    -0.203 F 
ATOM     99  C   UNL     1      16.099  12.136  14.331  1.00  0.00     0.198 A 
ATOM    100  C   UNL     1      16.057  14.450  13.688  1.00  0.00     0.198 A 
ATOM    101  F   UNL     1      14.777  15.134  11.837  1.00  0.00    -0.203 F 
ATOM    102  F   UNL     1      16.508  11.171  15.166  1.00  0.00    -0.200 F 
ATOM    103  C   UNL     1      16.502  13.448  14.537  1.00  0.00     0.200 A 
ATOM    104  F   UNL     1      16.454  15.715  13.880  1.00  0.00    -0.200 F 
ATOM    105  F   UNL     1      17.314  13.747  15.561  1.00  0.00    -0.200 F 
ENDBRANCH  72  95
ENDBRANCH  46  47
ENDBRANCH  38  41
ENDBRANCH  36  37
ENDBRANCH  35  36
ENDBRANCH   1  35
TORSDOF 14
