REMARK SMILES O=C(CS(=O)(=O)[C@@H]1CCOC2(CCCCC2)C1)NCCCNC(=O)c1ccc(-c2c3nc(c(-c4c(F)c(F)c(F)c(F)c4F)c4ccc([nH]4)c(-c4c(F)c(F)c(F)c(F)c4F)c4nc(c(-c5c(F)c(F)c(F)c(F)c5F)c5ccc2[nH]5)C=C4)C=C3)cc1
REMARK SMILES IDX 20 1 19 2 18 3 1 4 2 5 3 7 4 8 5 9 6 10 7 11 8 12 17 13 9 14
REMARK SMILES IDX 11 15 10 16 12 17 16 18 13 19 15 20 14 21 21 22 22 23 23 24
REMARK SMILES IDX 24 26 25 27 26 28 87 29 27 30 86 31 28 32 29 33 30 34 80 35
REMARK SMILES IDX 31 36 85 37 79 38 81 39 32 40 84 41 78 42 77 43 33 45 65 46
REMARK SMILES IDX 45 47 64 48 46 49 49 50 63 51 82 52 47 53 48 54 62 56 83 57
REMARK SMILES IDX 50 58 34 59 35 60 43 61 36 62 37 63 41 64 44 65 38 66 39 67
REMARK SMILES IDX 42 68 40 69 66 70 67 71 75 72 68 73 69 74 73 75 76 76 70 77
REMARK SMILES IDX 71 78 74 79 72 80 51 81 52 82 60 83 53 84 54 85 58 86 61 87
REMARK SMILES IDX 55 88 56 89 59 90 57 91
REMARK H PARENT 18 6 22 25 81 44 49 55
REMARK Flexibility Score: inf
ROOT
ATOM      1  C   UNL     1       2.374   3.396  -1.624  1.00  0.00     0.042 C 
ENDROOT
BRANCH   1   2
ATOM      2  C   UNL     1       2.106   1.964  -2.065  1.00  0.00     0.117 C 
BRANCH   2   3
ATOM      3  N   UNL     1       2.973   1.014  -1.401  1.00  0.00    -0.355 N 
ATOM      4  O   UNL     1       1.848   1.110   0.569  1.00  0.00    -0.274 OA
ATOM      5  C   UNL     1       2.755   0.628  -0.109  1.00  0.00     0.235 C 
ATOM      6  H   UNL     1       3.738   0.637  -1.893  1.00  0.00     0.163 HD
BRANCH   5   7
ATOM      7  C   UNL     1       3.723  -0.333   0.491  1.00  0.00     0.236 C 
BRANCH   7   8
ATOM      8  S   UNL     1       4.207  -1.703  -0.539  1.00  0.00     0.162 S 
ATOM      9  O   UNL     1       4.778  -1.084  -1.729  1.00  0.00    -0.228 OA
ATOM     10  O   UNL     1       5.069  -2.533   0.285  1.00  0.00    -0.228 OA
BRANCH   8  11
ATOM     11  C   UNL     1       2.860  -2.766  -1.135  1.00  0.00     0.114 C 
ATOM     12  C   UNL     1       1.589  -2.047  -1.543  1.00  0.00     0.048 C 
ATOM     13  C   UNL     1       2.539  -4.040  -0.322  1.00  0.00     0.055 C 
ATOM     14  C   UNL     1       0.666  -1.846  -0.359  1.00  0.00     0.162 C 
ATOM     15  C   UNL     1       1.502  -3.825   0.796  1.00  0.00     0.069 C 
ATOM     16  O   UNL     1       0.394  -3.070   0.289  1.00  0.00    -0.375 OA
ATOM     17  C   UNL     1       2.189  -3.225   2.028  1.00  0.00     0.035 C 
ATOM     18  C   UNL     1       0.842  -5.133   1.287  1.00  0.00     0.035 C 
ATOM     19  C   UNL     1       1.215  -2.835   3.122  1.00  0.00     0.003 C 
ATOM     20  C   UNL     1      -0.160  -4.850   2.429  1.00  0.00     0.003 C 
ATOM     21  C   UNL     1       0.451  -4.063   3.591  1.00  0.00     0.000 C 
ENDBRANCH   8  11
ENDBRANCH   7   8
ENDBRANCH   5   7
ENDBRANCH   2   3
ENDBRANCH   1   2
BRANCH   1  22
ATOM     22  C   UNL     1       3.849   3.772  -1.647  1.00  0.00     0.118 C 
BRANCH  22  23
ATOM     23  N   UNL     1       4.462   3.565  -2.950  1.00  0.00    -0.352 N 
ATOM     24  C   UNL     1       5.160   4.437  -3.742  1.00  0.00     0.251 C 
ATOM     25  H   UNL     1       4.358   2.658  -3.320  1.00  0.00     0.163 HD
ATOM     26  O   UNL     1       5.442   4.126  -4.894  1.00  0.00    -0.269 OA
BRANCH  24  27
ATOM     27  C   UNL     1       5.559   5.758  -3.215  1.00  0.00     0.039 A 
ATOM     28  C   UNL     1       5.461   6.869  -4.054  1.00  0.00     0.014 A 
ATOM     29  C   UNL     1       6.055   5.899  -1.916  1.00  0.00     0.014 A 
ATOM     30  C   UNL     1       5.830   8.127  -3.579  1.00  0.00     0.010 A 
ATOM     31  C   UNL     1       6.332   7.165  -1.413  1.00  0.00     0.010 A 
ATOM     32  C   UNL     1       6.250   8.288  -2.248  1.00  0.00    -0.014 A 
BRANCH  32  33
ATOM     33  C   UNL     1       6.656   9.620  -1.736  1.00  0.00     0.031 A 
ATOM     34  C   UNL     1       8.075   9.854  -1.296  1.00  0.00     0.074 A 
ATOM     35  C   UNL     1       5.744  10.606  -1.640  1.00  0.00     0.049 A 
ATOM     36  N   UNL     1       8.624  10.938  -0.808  1.00  0.00    -0.248 NA
ATOM     37  C   UNL     1       8.997   8.710  -1.392  1.00  0.00     0.031 C 
ATOM     38  C   UNL     1       4.328  10.485  -1.989  1.00  0.00     0.029 A 
ATOM     39  N   UNL     1       5.874  11.906  -1.221  1.00  0.00    -0.354 N 
ATOM     40  C   UNL     1       9.943  10.602  -0.530  1.00  0.00     0.074 A 
ATOM     41  C   UNL     1      10.096   9.198  -0.838  1.00  0.00     0.031 C 
ATOM     42  C   UNL     1       3.727  11.671  -1.801  1.00  0.00     0.029 A 
ATOM     43  C   UNL     1       4.705  12.624  -1.286  1.00  0.00     0.049 A 
ATOM     44  H   UNL     1       6.724  12.287  -0.904  1.00  0.00     0.167 HD
ATOM     45  C   UNL     1      10.944  11.399  -0.088  1.00  0.00     0.037 A 
ATOM     46  C   UNL     1       4.454  13.908  -0.967  1.00  0.00     0.037 A 
ATOM     47  C   UNL     1      10.791  12.802   0.194  1.00  0.00     0.049 A 
ATOM     48  C   UNL     1       5.585  14.772  -0.475  1.00  0.00     0.074 A 
ATOM     49  C   UNL     1      11.752  13.711   0.600  1.00  0.00     0.029 A 
ATOM     50  N   UNL     1       9.595  13.498   0.101  1.00  0.00    -0.354 N 
ATOM     51  N   UNL     1       6.844  14.462  -0.284  1.00  0.00    -0.248 NA
ATOM     52  C   UNL     1       5.259  16.171  -0.167  1.00  0.00     0.031 C 
ATOM     53  C   UNL     1      11.127  14.945   0.803  1.00  0.00     0.029 A 
ATOM     54  C   UNL     1       9.789  14.822   0.461  1.00  0.00     0.049 A 
ATOM     55  H   UNL     1       8.735  13.110  -0.179  1.00  0.00     0.167 HD
ATOM     56  C   UNL     1       7.468  15.633   0.127  1.00  0.00     0.074 A 
ATOM     57  C   UNL     1       6.450  16.662   0.145  1.00  0.00     0.031 C 
ATOM     58  C   UNL     1       8.767  15.838   0.458  1.00  0.00     0.037 A 
BRANCH  45  59
ATOM     59  C   UNL     1      12.294  10.771   0.114  1.00  0.00     0.064 A 
ATOM     60  C   UNL     1      13.064  10.313  -0.967  1.00  0.00     0.173 A 
ATOM     61  C   UNL     1      12.837  10.649   1.402  1.00  0.00     0.173 A 
ATOM     62  F   UNL     1      12.588  10.393  -2.218  1.00  0.00    -0.203 F 
ATOM     63  C   UNL     1      14.310   9.725  -0.762  1.00  0.00     0.198 A 
ATOM     64  C   UNL     1      14.099  10.094   1.599  1.00  0.00     0.198 A 
ATOM     65  F   UNL     1      12.147  11.074   2.471  1.00  0.00    -0.203 F 
ATOM     66  F   UNL     1      15.001   9.243  -1.805  1.00  0.00    -0.200 F 
ATOM     67  C   UNL     1      14.830   9.624   0.519  1.00  0.00     0.200 A 
ATOM     68  F   UNL     1      14.606  10.009   2.837  1.00  0.00    -0.200 F 
ATOM     69  F   UNL     1      16.033   9.065   0.713  1.00  0.00    -0.200 F 
ENDBRANCH  45  59
BRANCH  46  70
ATOM     70  C   UNL     1       3.086  14.464  -1.135  1.00  0.00     0.064 A 
ATOM     71  C   UNL     1       2.817  15.436  -2.109  1.00  0.00     0.173 A 
ATOM     72  C   UNL     1       2.023  14.046  -0.321  1.00  0.00     0.173 A 
ATOM     73  F   UNL     1       3.804  15.881  -2.901  1.00  0.00    -0.203 F 
ATOM     74  C   UNL     1       1.546  15.990  -2.243  1.00  0.00     0.198 A 
ATOM     75  C   UNL     1       0.745  14.578  -0.477  1.00  0.00     0.198 A 
ATOM     76  F   UNL     1       2.224  13.113   0.621  1.00  0.00    -0.203 F 
ATOM     77  F   UNL     1       1.330  16.957  -3.145  1.00  0.00    -0.200 F 
ATOM     78  C   UNL     1       0.509  15.557  -1.430  1.00  0.00     0.200 A 
ATOM     79  F   UNL     1      -0.258  14.145   0.299  1.00  0.00    -0.200 F 
ATOM     80  F   UNL     1      -0.714  16.089  -1.559  1.00  0.00    -0.200 F 
ENDBRANCH  46  70
BRANCH  58  81
ATOM     81  C   UNL     1       9.175  17.240   0.813  1.00  0.00     0.064 A 
ATOM     82  C   UNL     1       8.757  17.857   2.001  1.00  0.00     0.173 A 
ATOM     83  C   UNL     1      10.025  17.963  -0.038  1.00  0.00     0.173 A 
ATOM     84  F   UNL     1       7.933  17.214   2.843  1.00  0.00    -0.203 F 
ATOM     85  C   UNL     1       9.145  19.159   2.306  1.00  0.00     0.198 A 
ATOM     86  C   UNL     1      10.441  19.251   0.288  1.00  0.00     0.198 A 
ATOM     87  F   UNL     1      10.463  17.416  -1.182  1.00  0.00    -0.203 F 
ATOM     88  F   UNL     1       8.685  19.750   3.418  1.00  0.00    -0.200 F 
ATOM     89  C   UNL     1       9.992  19.851   1.454  1.00  0.00     0.200 A 
ATOM     90  F   UNL     1      11.274  19.911  -0.528  1.00  0.00    -0.200 F 
ATOM     91  F   UNL     1      10.370  21.102   1.753  1.00  0.00    -0.200 F 
ENDBRANCH  58  81
ENDBRANCH  32  33
ENDBRANCH  24  27
ENDBRANCH  22  23
ENDBRANCH   1  22
TORSDOF 12
