REMARK SMILES O=C(CSc1nnc2sc3ccccc3n12)N[C@H](Cc1c[nH]c2ccccc12)C(=O)NCCCNC(=O)c1ccc(-c2c3nc(c(-c4c(F)c(F)c(F)c(F)c4F)c4ccc([nH]4)c(-c4c(F)c(F)c(F)c(F)c4F)c4nc(c(-c5c(F)c(F)c(F)c(F)c5F)c5ccc2[nH]5)C=C4)C=C3)cc1
REMARK SMILES IDX 32 1 31 2 29 3 30 4 18 6 17 7 1 8 2 9 3 11 4 12 5 13 6 14
REMARK SMILES IDX 16 15 7 16 8 17 15 18 9 19 10 20 14 21 11 22 13 23 12 24
REMARK SMILES IDX 19 25 20 26 21 27 28 28 22 29 23 30 27 31 24 33 26 34 25 35
REMARK SMILES IDX 33 36 34 37 35 38 36 39 37 41 38 42 39 43 100 44 40 45 99 46
REMARK SMILES IDX 41 47 42 48 43 49 93 50 44 51 98 52 92 53 94 54 45 55 97 56
REMARK SMILES IDX 91 57 90 58 46 60 78 61 58 62 77 63 59 64 62 65 76 66 95 67
REMARK SMILES IDX 60 68 61 69 75 71 96 72 63 73 47 74 48 75 56 76 49 77 50 78
REMARK SMILES IDX 54 79 57 80 51 81 52 82 55 83 53 84 79 85 80 86 88 87 81 88
REMARK SMILES IDX 82 89 86 90 89 91 83 92 84 93 87 94 85 95 64 96 65 97 73 98
REMARK SMILES IDX 66 99 67 100 71 101 74 102 68 103 69 104 72 105 70 106
REMARK H PARENT 31 5 17 10 22 32 35 40 94 59 62 70
REMARK Flexibility Score: inf
ROOT
ATOM      1  C   UNL     1       5.605   0.008   3.075  1.00  0.00     0.117 C 
ENDROOT
BRANCH   1   2
ATOM      2  N   UNL     1       4.358   0.469   3.638  1.00  0.00    -0.354 N 
ATOM      3  C   UNL     1       3.101   0.052   3.339  1.00  0.00     0.242 C 
ATOM      4  O   UNL     1       2.162   0.535   3.980  1.00  0.00    -0.273 OA
ATOM      5  H   UNL     1       4.428   1.173   4.323  1.00  0.00     0.163 HD
BRANCH   3   6
ATOM      6  C   UNL     1       2.807  -0.885   2.165  1.00  0.00     0.175 C 
BRANCH   6   7
ATOM      7  N   UNL     1       3.232  -2.316   2.303  1.00  0.00    -0.343 N 
ATOM      8  O   UNL     1       4.582  -2.268   4.179  1.00  0.00    -0.274 OA
ATOM      9  C   UNL     1       3.818  -2.870   3.432  1.00  0.00     0.231 C 
ATOM     10  H   UNL     1       3.084  -2.909   1.532  1.00  0.00     0.164 HD
BRANCH   9  11
ATOM     11  C   UNL     1       3.483  -4.318   3.767  1.00  0.00     0.178 C 
BRANCH  11  12
ATOM     12  S   UNL     1       1.691  -4.532   3.780  1.00  0.00    -0.076 SA
BRANCH  12  13
ATOM     13  C   UNL     1       1.254  -4.743   5.456  1.00  0.00     0.197 A 
ATOM     14  N   UNL     1       0.776  -5.893   5.915  1.00  0.00    -0.122 NA
ATOM     15  N   UNL     1       0.755  -3.739   6.244  1.00  0.00    -0.260 N 
ATOM     16  N   UNL     1      -0.194  -5.613   6.881  1.00  0.00    -0.118 NA
ATOM     17  C   UNL     1      -0.247  -4.312   6.965  1.00  0.00     0.217 A 
ATOM     18  C   UNL     1       0.950  -2.388   6.490  1.00  0.00     0.068 A 
ATOM     19  S   UNL     1      -1.220  -3.164   7.822  1.00  0.00    -0.094 S 
ATOM     20  C   UNL     1      -0.087  -1.877   7.284  1.00  0.00     0.055 A 
ATOM     21  C   UNL     1       2.051  -1.636   6.168  1.00  0.00     0.028 A 
ATOM     22  C   UNL     1      -0.100  -0.536   7.636  1.00  0.00     0.021 A 
ATOM     23  C   UNL     1       2.078  -0.309   6.594  1.00  0.00     0.002 A 
ATOM     24  C   UNL     1       0.990   0.257   7.268  1.00  0.00     0.002 A 
ENDBRANCH  12  13
ENDBRANCH  11  12
ENDBRANCH   9  11
ENDBRANCH   6   7
BRANCH   6  25
ATOM     25  C   UNL     1       3.101  -0.225   0.786  1.00  0.00     0.072 C 
BRANCH  25  26
ATOM     26  C   UNL     1       3.116   1.302   0.666  1.00  0.00    -0.020 A 
ATOM     27  C   UNL     1       2.652   2.272   1.540  1.00  0.00     0.087 A 
ATOM     28  C   UNL     1       3.613   2.048  -0.468  1.00  0.00     0.003 A 
ATOM     29  N   UNL     1       3.062   3.506   1.116  1.00  0.00    -0.361 N 
ATOM     30  C   UNL     1       3.600   3.406  -0.137  1.00  0.00     0.046 A 
ATOM     31  C   UNL     1       4.071   1.692  -1.752  1.00  0.00     0.010 A 
ATOM     32  H   UNL     1       2.982   4.339   1.634  1.00  0.00     0.166 HD
ATOM     33  C   UNL     1       4.053   4.416  -0.991  1.00  0.00     0.026 A 
ATOM     34  C   UNL     1       4.478   2.696  -2.643  1.00  0.00     0.001 A 
ATOM     35  C   UNL     1       4.480   4.035  -2.262  1.00  0.00     0.002 A 
ENDBRANCH  25  26
ENDBRANCH   6  25
ENDBRANCH   3   6
ENDBRANCH   1   2
BRANCH   1  36
ATOM     36  C   UNL     1       6.511   1.152   2.678  1.00  0.00     0.042 C 
BRANCH  36  37
ATOM     37  C   UNL     1       6.997   1.991   3.865  1.00  0.00     0.118 C 
BRANCH  37  38
ATOM     38  N   UNL     1       7.447   1.242   5.026  1.00  0.00    -0.352 N 
ATOM     39  C   UNL     1       8.633   0.682   5.430  1.00  0.00     0.251 C 
ATOM     40  H   UNL     1       6.727   1.102   5.682  1.00  0.00     0.163 HD
ATOM     41  O   UNL     1       8.687   0.283   6.584  1.00  0.00    -0.269 OA
BRANCH  39  42
ATOM     42  C   UNL     1       9.801   0.451   4.539  1.00  0.00     0.039 A 
ATOM     43  C   UNL     1       9.832   0.743   3.182  1.00  0.00     0.014 A 
ATOM     44  C   UNL     1      10.899  -0.224   5.106  1.00  0.00     0.014 A 
ATOM     45  C   UNL     1      10.825   0.213   2.374  1.00  0.00     0.010 A 
ATOM     46  C   UNL     1      11.940  -0.695   4.312  1.00  0.00     0.010 A 
ATOM     47  C   UNL     1      11.862  -0.538   2.935  1.00  0.00    -0.014 A 
BRANCH  47  48
ATOM     48  C   UNL     1      12.879  -1.034   2.013  1.00  0.00     0.031 A 
ATOM     49  C   UNL     1      13.493   0.026   1.162  1.00  0.00     0.074 A 
ATOM     50  C   UNL     1      13.269  -2.321   1.933  1.00  0.00     0.049 A 
ATOM     51  N   UNL     1      13.429   0.155  -0.123  1.00  0.00    -0.248 NA
ATOM     52  C   UNL     1      14.135   1.159   1.847  1.00  0.00     0.031 C 
ATOM     53  C   UNL     1      12.963  -3.424   2.847  1.00  0.00     0.029 A 
ATOM     54  N   UNL     1      14.104  -2.899   1.022  1.00  0.00    -0.354 N 
ATOM     55  C   UNL     1      14.148   1.309  -0.431  1.00  0.00     0.074 A 
ATOM     56  C   UNL     1      14.456   1.948   0.821  1.00  0.00     0.031 C 
ATOM     57  C   UNL     1      13.774  -4.471   2.573  1.00  0.00     0.029 A 
ATOM     58  C   UNL     1      14.538  -4.169   1.375  1.00  0.00     0.049 A 
ATOM     59  H   UNL     1      14.376  -2.454   0.187  1.00  0.00     0.167 HD
ATOM     60  C   UNL     1      14.605   1.549  -1.690  1.00  0.00     0.037 A 
ATOM     61  C   UNL     1      15.496  -4.891   0.747  1.00  0.00     0.037 A 
ATOM     62  C   UNL     1      13.905   0.753  -2.660  1.00  0.00     0.049 A 
ATOM     63  C   UNL     1      15.610  -4.368  -0.634  1.00  0.00     0.074 A 
ATOM     64  C   UNL     1      12.641   0.743  -3.209  1.00  0.00     0.029 A 
ATOM     65  N   UNL     1      14.476  -0.453  -2.962  1.00  0.00    -0.354 N 
ATOM     66  N   UNL     1      14.680  -4.487  -1.539  1.00  0.00    -0.248 NA
ATOM     67  C   UNL     1      16.646  -3.389  -0.927  1.00  0.00     0.031 C 
ATOM     68  C   UNL     1      12.370  -0.624  -3.515  1.00  0.00     0.029 A 
ATOM     69  C   UNL     1      13.491  -1.381  -3.171  1.00  0.00     0.049 A 
ATOM     70  H   UNL     1      15.443  -0.627  -3.019  1.00  0.00     0.167 HD
ATOM     71  C   UNL     1      14.774  -3.328  -2.289  1.00  0.00     0.074 A 
ATOM     72  C   UNL     1      16.087  -2.779  -1.974  1.00  0.00     0.031 C 
ATOM     73  C   UNL     1      13.665  -2.785  -2.868  1.00  0.00     0.037 A 
BRANCH  60  74
ATOM     74  C   UNL     1      15.946   2.179  -1.998  1.00  0.00     0.064 A 
ATOM     75  C   UNL     1      16.289   2.459  -3.338  1.00  0.00     0.173 A 
ATOM     76  C   UNL     1      17.017   2.221  -1.079  1.00  0.00     0.173 A 
ATOM     77  F   UNL     1      15.361   2.420  -4.305  1.00  0.00    -0.203 F 
ATOM     78  C   UNL     1      17.611   2.697  -3.730  1.00  0.00     0.198 A 
ATOM     79  C   UNL     1      18.325   2.509  -1.466  1.00  0.00     0.198 A 
ATOM     80  F   UNL     1      16.866   1.876   0.205  1.00  0.00    -0.203 F 
ATOM     81  F   UNL     1      17.906   2.841  -5.029  1.00  0.00    -0.200 F 
ATOM     82  C   UNL     1      18.628   2.717  -2.794  1.00  0.00     0.200 A 
ATOM     83  F   UNL     1      19.300   2.498  -0.546  1.00  0.00    -0.200 F 
ATOM     84  F   UNL     1      19.902   2.886  -3.172  1.00  0.00    -0.200 F 
ENDBRANCH  60  74
BRANCH  61  85
ATOM     85  C   UNL     1      16.550  -5.740   1.353  1.00  0.00     0.064 A 
ATOM     86  C   UNL     1      17.312  -6.617   0.562  1.00  0.00     0.173 A 
ATOM     87  C   UNL     1      17.041  -5.476   2.646  1.00  0.00     0.173 A 
ATOM     88  F   UNL     1      16.935  -6.889  -0.696  1.00  0.00    -0.203 F 
ATOM     89  C   UNL     1      18.518  -7.157   1.020  1.00  0.00     0.198 A 
ATOM     90  C   UNL     1      18.241  -6.021   3.103  1.00  0.00     0.198 A 
ATOM     91  F   UNL     1      16.422  -4.601   3.451  1.00  0.00    -0.203 F 
ATOM     92  F   UNL     1      19.257  -7.926   0.207  1.00  0.00    -0.200 F 
ATOM     93  C   UNL     1      18.989  -6.846   2.284  1.00  0.00     0.200 A 
ATOM     94  F   UNL     1      18.706  -5.681   4.314  1.00  0.00    -0.200 F 
ATOM     95  F   UNL     1      20.180  -7.302   2.695  1.00  0.00    -0.200 F 
ENDBRANCH  61  85
BRANCH  73  96
ATOM     96  C   UNL     1      12.460  -3.671  -3.010  1.00  0.00     0.064 A 
ATOM     97  C   UNL     1      11.721  -4.183  -1.929  1.00  0.00     0.173 A 
ATOM     98  C   UNL     1      11.974  -3.919  -4.300  1.00  0.00     0.173 A 
ATOM     99  F   UNL     1      12.071  -3.915  -0.665  1.00  0.00    -0.203 F 
ATOM    100  C   UNL     1      10.570  -4.942  -2.139  1.00  0.00     0.198 A 
ATOM    101  C   UNL     1      10.803  -4.643  -4.505  1.00  0.00     0.198 A 
ATOM    102  F   UNL     1      12.612  -3.413  -5.367  1.00  0.00    -0.203 F 
ATOM    103  F   UNL     1       9.886  -5.431  -1.093  1.00  0.00    -0.200 F 
ATOM    104  C   UNL     1      10.108  -5.163  -3.426  1.00  0.00     0.200 A 
ATOM    105  F   UNL     1      10.334  -4.811  -5.749  1.00  0.00    -0.200 F 
ATOM    106  F   UNL     1       8.976  -5.852  -3.625  1.00  0.00    -0.200 F 
ENDBRANCH  73  96
ENDBRANCH  47  48
ENDBRANCH  39  42
ENDBRANCH  37  38
ENDBRANCH  36  37
ENDBRANCH   1  36
TORSDOF 16
