REMARK SMILES O=C(NCCCNC(=O)c1ccc(-c2c3nc(c(-c4c(F)c(F)c(F)c(F)c4F)c4ccc([nH]4)c(-c4c(F)c(F)c(F)c(F)c4F)c4nc(c(-c5c(F)c(F)c(F)c(F)c5F)c5ccc2[nH]5)C=C4)C=C3)cc1)C1=Cc2c(ccc(Cl)c2Cl)O[C@H]1C(F)(F)F
REMARK SMILES IDX 5 1 4 2 3 3 1 4 2 5 73 7 74 8 84 9 75 10 83 11 76 12 81 13
REMARK SMILES IDX 77 14 79 15 82 16 78 17 80 18 85 19 86 20 87 21 88 22 6 23
REMARK SMILES IDX 7 24 8 25 9 27 10 28 11 29 72 30 12 31 71 32 13 33 14 34
REMARK SMILES IDX 15 35 65 36 16 37 70 38 64 39 66 40 17 41 69 42 63 43 62 44
REMARK SMILES IDX 18 46 50 47 30 48 49 49 31 50 34 51 48 52 67 53 32 54 33 55
REMARK SMILES IDX 47 57 68 58 35 59 19 60 20 61 28 62 21 63 22 64 26 65 29 66
REMARK SMILES IDX 23 67 24 68 27 69 25 70 51 71 52 72 60 73 53 74 54 75 58 76
REMARK SMILES IDX 61 77 55 78 56 79 59 80 57 81 36 82 37 83 45 84 38 85 39 86
REMARK SMILES IDX 43 87 46 88 40 89 41 90 44 91 42 92
REMARK H PARENT 3 6 7 26 66 45 34 56
REMARK Flexibility Score: inf
ROOT
ATOM      1  C   UNL     1       3.976   2.621   1.293  1.00  0.00     0.042 C 
ENDROOT
BRANCH   1   2
ATOM      2  C   UNL     1       3.728   1.161   0.975  1.00  0.00     0.118 C 
BRANCH   2   3
ATOM      3  N   UNL     1       2.378   0.800   0.591  1.00  0.00    -0.352 N 
ATOM      4  O   UNL     1       0.796  -0.463  -0.406  1.00  0.00    -0.270 OA
ATOM      5  C   UNL     1       1.978  -0.305  -0.117  1.00  0.00     0.251 C 
ATOM      6  H   UNL     1       1.666   1.419   0.870  1.00  0.00     0.163 HD
BRANCH   5   7
ATOM      7  C   UNL     1       2.986  -1.297  -0.587  1.00  0.00     0.067 C 
ATOM      8  C   UNL     1       3.533  -2.105   0.337  1.00  0.00     0.027 C 
ATOM      9  C   UNL     1       3.742  -0.904  -1.830  1.00  0.00     0.314 C 
ATOM     10  C   UNL     1       4.947  -1.748   0.618  1.00  0.00     0.037 A 
ATOM     11  O   UNL     1       5.190  -0.858  -1.644  1.00  0.00    -0.475 OA
ATOM     12  C   UNL     1       5.676  -1.083  -0.381  1.00  0.00     0.129 A 
ATOM     13  C   UNL     1       5.481  -1.865   1.917  1.00  0.00     0.070 A 
ATOM     14  C   UNL     1       6.902  -0.492  -0.082  1.00  0.00     0.049 A 
ATOM     15  C   UNL     1       6.698  -1.237   2.217  1.00  0.00     0.060 A 
ATOM     16  Cl  UNL     1       4.573  -2.684   3.150  1.00  0.00    -0.082 Cl
ATOM     17  C   UNL     1       7.394  -0.541   1.223  1.00  0.00     0.026 A 
ATOM     18  Cl  UNL     1       7.361  -1.217   3.812  1.00  0.00    -0.083 Cl
BRANCH   9  19
ATOM     19  C   UNL     1       3.382  -1.798  -3.034  1.00  0.00     0.429 C 
ATOM     20  F   UNL     1       2.446  -2.730  -2.741  1.00  0.00    -0.167 F 
ATOM     21  F   UNL     1       2.901  -1.055  -4.060  1.00  0.00    -0.167 F 
ATOM     22  F   UNL     1       4.462  -2.470  -3.504  1.00  0.00    -0.167 F 
ENDBRANCH   9  19
ENDBRANCH   5   7
ENDBRANCH   2   3
ENDBRANCH   1   2
BRANCH   1  23
ATOM     23  C   UNL     1       3.604   3.024   2.709  1.00  0.00     0.118 C 
BRANCH  23  24
ATOM     24  N   UNL     1       4.408   2.377   3.746  1.00  0.00    -0.352 N 
ATOM     25  C   UNL     1       5.399   2.834   4.585  1.00  0.00     0.251 C 
ATOM     26  H   UNL     1       4.198   1.423   3.868  1.00  0.00     0.163 HD
ATOM     27  O   UNL     1       5.973   2.032   5.320  1.00  0.00    -0.269 OA
BRANCH  25  28
ATOM     28  C   UNL     1       5.826   4.252   4.598  1.00  0.00     0.039 A 
ATOM     29  C   UNL     1       7.173   4.559   4.833  1.00  0.00     0.014 A 
ATOM     30  C   UNL     1       4.920   5.289   4.406  1.00  0.00     0.014 A 
ATOM     31  C   UNL     1       7.615   5.885   4.764  1.00  0.00     0.010 A 
ATOM     32  C   UNL     1       5.377   6.584   4.198  1.00  0.00     0.010 A 
ATOM     33  C   UNL     1       6.729   6.904   4.384  1.00  0.00    -0.014 A 
BRANCH  33  34
ATOM     34  C   UNL     1       7.156   8.317   4.204  1.00  0.00     0.031 A 
ATOM     35  C   UNL     1       6.469   9.406   4.986  1.00  0.00     0.074 A 
ATOM     36  C   UNL     1       8.065   8.635   3.261  1.00  0.00     0.049 A 
ATOM     37  N   UNL     1       6.528  10.705   4.834  1.00  0.00    -0.248 NA
ATOM     38  C   UNL     1       5.545   8.970   6.046  1.00  0.00     0.031 C 
ATOM     39  C   UNL     1       8.767   7.683   2.400  1.00  0.00     0.029 A 
ATOM     40  N   UNL     1       8.537   9.859   2.853  1.00  0.00    -0.354 N 
ATOM     41  C   UNL     1       5.615  11.231   5.740  1.00  0.00     0.074 A 
ATOM     42  C   UNL     1       4.973  10.112   6.394  1.00  0.00     0.031 C 
ATOM     43  C   UNL     1       9.598   8.353   1.586  1.00  0.00     0.029 A 
ATOM     44  C   UNL     1       9.453   9.784   1.832  1.00  0.00     0.049 A 
ATOM     45  H   UNL     1       8.247  10.709   3.256  1.00  0.00     0.167 HD
ATOM     46  C   UNL     1       5.355  12.530   6.024  1.00  0.00     0.037 A 
ATOM     47  C   UNL     1      10.092  10.761   1.161  1.00  0.00     0.037 A 
ATOM     48  C   UNL     1       6.046  13.637   5.419  1.00  0.00     0.049 A 
ATOM     49  C   UNL     1       9.818  12.196   1.521  1.00  0.00     0.074 A 
ATOM     50  C   UNL     1       5.919  14.987   5.689  1.00  0.00     0.029 A 
ATOM     51  N   UNL     1       7.011  13.515   4.428  1.00  0.00    -0.354 N 
ATOM     52  N   UNL     1       8.987  12.681   2.412  1.00  0.00    -0.248 NA
ATOM     53  C   UNL     1      10.572  13.219   0.784  1.00  0.00     0.031 C 
ATOM     54  C   UNL     1       6.782  15.686   4.839  1.00  0.00     0.029 A 
ATOM     55  C   UNL     1       7.480  14.768   4.070  1.00  0.00     0.049 A 
ATOM     56  H   UNL     1       7.316  12.664   4.038  1.00  0.00     0.167 HD
ATOM     57  C   UNL     1       9.140  14.060   2.365  1.00  0.00     0.074 A 
ATOM     58  C   UNL     1      10.151  14.334   1.365  1.00  0.00     0.031 C 
ATOM     59  C   UNL     1       8.500  15.015   3.083  1.00  0.00     0.037 A 
BRANCH  46  60
ATOM     60  C   UNL     1       4.288  12.818   7.041  1.00  0.00     0.064 A 
ATOM     61  C   UNL     1       4.455  12.498   8.398  1.00  0.00     0.173 A 
ATOM     62  C   UNL     1       3.085  13.430   6.658  1.00  0.00     0.173 A 
ATOM     63  F   UNL     1       5.581  11.899   8.816  1.00  0.00    -0.203 F 
ATOM     64  C   UNL     1       3.442  12.739   9.323  1.00  0.00     0.198 A 
ATOM     65  C   UNL     1       2.088  13.702   7.592  1.00  0.00     0.198 A 
ATOM     66  F   UNL     1       2.873  13.763   5.376  1.00  0.00    -0.203 F 
ATOM     67  F   UNL     1       3.601  12.362  10.599  1.00  0.00    -0.200 F 
ATOM     68  C   UNL     1       2.263  13.346   8.921  1.00  0.00     0.200 A 
ATOM     69  F   UNL     1       0.954  14.301   7.205  1.00  0.00    -0.200 F 
ATOM     70  F   UNL     1       1.290  13.578   9.812  1.00  0.00    -0.200 F 
ENDBRANCH  46  60
BRANCH  47  71
ATOM     71  C   UNL     1      11.083  10.414   0.109  1.00  0.00     0.064 A 
ATOM     72  C   UNL     1      12.453  10.620   0.324  1.00  0.00     0.173 A 
ATOM     73  C   UNL     1      10.691   9.868  -1.121  1.00  0.00     0.173 A 
ATOM     74  F   UNL     1      12.876  11.158   1.477  1.00  0.00    -0.203 F 
ATOM     75  C   UNL     1      13.392  10.310  -0.658  1.00  0.00     0.198 A 
ATOM     76  C   UNL     1      11.632   9.532  -2.093  1.00  0.00     0.198 A 
ATOM     77  F   UNL     1       9.393   9.643  -1.374  1.00  0.00    -0.203 F 
ATOM     78  F   UNL     1      14.691  10.555  -0.441  1.00  0.00    -0.200 F 
ATOM     79  C   UNL     1      12.981   9.761  -1.863  1.00  0.00     0.200 A 
ATOM     80  F   UNL     1      11.233   8.987  -3.250  1.00  0.00    -0.200 F 
ATOM     81  F   UNL     1      13.884   9.456  -2.805  1.00  0.00    -0.200 F 
ENDBRANCH  47  71
BRANCH  59  82
ATOM     82  C   UNL     1       8.905  16.440   2.848  1.00  0.00     0.064 A 
ATOM     83  C   UNL     1       8.543  17.124   1.678  1.00  0.00     0.173 A 
ATOM     84  C   UNL     1       9.623  17.142   3.827  1.00  0.00     0.173 A 
ATOM     85  F   UNL     1       7.870  16.490   0.706  1.00  0.00    -0.203 F 
ATOM     86  C   UNL     1       8.906  18.455   1.489  1.00  0.00     0.198 A 
ATOM     87  C   UNL     1       9.959  18.480   3.647  1.00  0.00     0.198 A 
ATOM     88  F   UNL     1       9.986  16.532   4.966  1.00  0.00    -0.203 F 
ATOM     89  F   UNL     1       8.588  19.077   0.346  1.00  0.00    -0.200 F 
ATOM     90  C   UNL     1       9.605  19.133   2.477  1.00  0.00     0.200 A 
ATOM     91  F   UNL     1      10.623  19.138   4.608  1.00  0.00    -0.200 F 
ATOM     92  F   UNL     1       9.945  20.417   2.296  1.00  0.00    -0.200 F 
ENDBRANCH  59  82
ENDBRANCH  33  34
ENDBRANCH  25  28
ENDBRANCH  23  24
ENDBRANCH   1  23
TORSDOF 11
