REMARK SMILES COc1cc(/C=N/c2cccc(F)c2)ccc1OCc1cccc(C(=O)NCCCNC(=O)c2ccc(-c3c4nc(c(-c5c(F)c(F)c(F)c(F)c5F)c5ccc([nH]5)c(-c5c(F)c(F)c(F)c(F)c5F)c5nc(c(-c6c(F)c(F)c(F)c(F)c6F)c6ccc3[nH]6)C=C5)C=C4)cc2)c1
REMARK SMILES IDX 25 1 26 2 27 3 24 5 20 6 21 7 97 8 22 9 23 10 19 11 18 12
REMARK SMILES IDX 17 13 3 14 4 15 5 16 16 17 15 18 2 19 1 20 6 21 7 22 8 23
REMARK SMILES IDX 9 24 14 25 10 26 12 27 11 28 13 29 28 30 29 31 30 32 31 33
REMARK SMILES IDX 32 34 33 36 34 37 35 38 96 39 36 40 95 41 37 42 38 43 39 44
REMARK SMILES IDX 89 45 40 46 94 47 88 48 90 49 41 50 93 51 87 52 86 53 42 55
REMARK SMILES IDX 74 56 54 57 73 58 55 59 58 60 72 61 91 62 56 63 57 64 71 66
REMARK SMILES IDX 92 67 59 68 43 69 44 70 52 71 45 72 46 73 50 74 53 75 47 76
REMARK SMILES IDX 48 77 51 78 49 79 75 80 76 81 84 82 77 83 78 84 82 85 85 86
REMARK SMILES IDX 79 87 80 88 83 89 81 90 60 91 61 92 69 93 62 94 63 95 67 96
REMARK SMILES IDX 70 97 64 98 65 99 68 100 66 101
REMARK H PARENT 27 4 31 35 90 54 58 65
REMARK Flexibility Score: inf
ROOT
ATOM      1  C   UNL     1      -1.960   1.210  -0.447  1.00  0.00     0.251 C 
ATOM      2  O   UNL     1      -2.823   2.093  -0.462  1.00  0.00    -0.269 OA
ATOM      3  N   UNL     1      -2.409  -0.076  -0.251  1.00  0.00    -0.352 N 
ATOM      4  H   UNL     1      -3.374  -0.132  -0.061  1.00  0.00     0.163 HD
ENDROOT
BRANCH   1   5
ATOM      5  C   UNL     1      -0.519   1.620  -0.545  1.00  0.00     0.040 A 
ATOM      6  C   UNL     1       1.885   1.234  -0.869  1.00  0.00    -0.010 A 
ATOM      7  C   UNL     1       2.120   2.544  -0.400  1.00  0.00     0.007 A 
ATOM      8  C   UNL     1       0.546   0.835  -1.027  1.00  0.00     0.021 A 
ATOM      9  C   UNL     1       1.074   3.389  -0.042  1.00  0.00     0.001 A 
ATOM     10  C   UNL     1      -0.233   2.916  -0.084  1.00  0.00     0.014 A 
BRANCH   6  11
ATOM     11  C   UNL     1       3.136   0.352  -0.970  1.00  0.00     0.265 C 
BRANCH  11  12
ATOM     12  O   UNL     1       3.293  -1.013  -1.383  1.00  0.00    -0.485 OA
BRANCH  12  13
ATOM     13  C   UNL     1       2.319  -1.671  -2.049  1.00  0.00     0.161 A 
ATOM     14  C   UNL     1       1.419  -2.515  -1.394  1.00  0.00     0.161 A 
ATOM     15  C   UNL     1       0.472  -3.208  -2.155  1.00  0.00     0.060 A 
ATOM     16  C   UNL     1       0.460  -3.129  -3.549  1.00  0.00    -0.003 A 
ATOM     17  C   UNL     1       2.375  -1.677  -3.455  1.00  0.00     0.051 A 
ATOM     18  C   UNL     1       1.452  -2.414  -4.210  1.00  0.00     0.014 A 
BRANCH  14  19
ATOM     19  O   UNL     1       1.317  -2.815  -0.066  1.00  0.00    -0.493 OA
ATOM     20  C   UNL     1       1.849  -1.944   0.914  1.00  0.00     0.278 C 
ENDBRANCH  14  19
BRANCH  16  21
ATOM     21  C   UNL     1      -0.607  -3.831  -4.289  1.00  0.00     0.120 C 
ATOM     22  N   UNL     1      -1.715  -4.126  -3.689  1.00  0.00    -0.256 NA
BRANCH  22  23
ATOM     23  C   UNL     1      -2.677  -4.887  -4.366  1.00  0.00     0.066 A 
ATOM     24  C   UNL     1      -4.002  -4.437  -4.403  1.00  0.00     0.028 A 
ATOM     25  C   UNL     1      -2.376  -6.148  -4.885  1.00  0.00     0.067 A 
ATOM     26  C   UNL     1      -5.014  -5.231  -4.954  1.00  0.00     0.005 A 
ATOM     27  C   UNL     1      -3.385  -6.930  -5.435  1.00  0.00     0.125 A 
ATOM     28  C   UNL     1      -4.702  -6.486  -5.472  1.00  0.00     0.039 A 
ATOM     29  F   UNL     1      -3.085  -8.142  -5.923  1.00  0.00    -0.207 F 
ENDBRANCH  22  23
ENDBRANCH  16  21
ENDBRANCH  12  13
ENDBRANCH  11  12
ENDBRANCH   6  11
ENDBRANCH   1   5
BRANCH   3  30
ATOM     30  C   UNL     1      -1.745  -1.362  -0.267  1.00  0.00     0.118 C 
BRANCH  30  31
ATOM     31  C   UNL     1      -1.857  -2.167   1.019  1.00  0.00     0.042 C 
BRANCH  31  32
ATOM     32  C   UNL     1      -3.109  -3.021   1.141  1.00  0.00     0.118 C 
BRANCH  32  33
ATOM     33  N   UNL     1      -3.183  -4.095   0.154  1.00  0.00    -0.352 N 
ATOM     34  C   UNL     1      -3.253  -5.459   0.287  1.00  0.00     0.251 C 
ATOM     35  H   UNL     1      -3.181  -3.783  -0.779  1.00  0.00     0.163 HD
ATOM     36  O   UNL     1      -3.216  -6.161  -0.730  1.00  0.00    -0.269 OA
BRANCH  34  37
ATOM     37  C   UNL     1      -3.345  -6.132   1.603  1.00  0.00     0.039 A 
ATOM     38  C   UNL     1      -2.725  -7.380   1.756  1.00  0.00     0.014 A 
ATOM     39  C   UNL     1      -4.064  -5.598   2.671  1.00  0.00     0.014 A 
ATOM     40  C   UNL     1      -2.767  -8.046   2.984  1.00  0.00     0.010 A 
ATOM     41  C   UNL     1      -4.020  -6.210   3.924  1.00  0.00     0.010 A 
ATOM     42  C   UNL     1      -3.379  -7.445   4.094  1.00  0.00    -0.014 A 
BRANCH  42  43
ATOM     43  C   UNL     1      -3.367  -8.096   5.432  1.00  0.00     0.031 A 
ATOM     44  C   UNL     1      -4.659  -8.474   6.107  1.00  0.00     0.074 A 
ATOM     45  C   UNL     1      -2.195  -8.290   6.070  1.00  0.00     0.049 A 
ATOM     46  N   UNL     1      -4.856  -8.978   7.300  1.00  0.00    -0.248 NA
ATOM     47  C   UNL     1      -5.897  -8.225   5.352  1.00  0.00     0.031 C 
ATOM     48  C   UNL     1      -0.878  -7.925   5.548  1.00  0.00     0.029 A 
ATOM     49  N   UNL     1      -1.923  -8.834   7.302  1.00  0.00    -0.354 N 
ATOM     50  C   UNL     1      -6.234  -9.085   7.443  1.00  0.00     0.074 A 
ATOM     51  C   UNL     1      -6.826  -8.541   6.241  1.00  0.00     0.031 C 
ATOM     52  C   UNL     1       0.063  -8.278   6.438  1.00  0.00     0.029 A 
ATOM     53  C   UNL     1      -0.585  -8.855   7.612  1.00  0.00     0.049 A 
ATOM     54  H   UNL     1      -2.622  -9.177   7.905  1.00  0.00     0.167 HD
ATOM     55  C   UNL     1      -6.940  -9.614   8.471  1.00  0.00     0.037 A 
ATOM     56  C   UNL     1       0.049  -9.282   8.721  1.00  0.00     0.037 A 
ATOM     57  C   UNL     1      -6.346 -10.182   9.654  1.00  0.00     0.049 A 
ATOM     58  C   UNL     1      -0.760  -9.860   9.851  1.00  0.00     0.074 A 
ATOM     59  C   UNL     1      -6.972 -10.800  10.722  1.00  0.00     0.029 A 
ATOM     60  N   UNL     1      -4.986 -10.199   9.924  1.00  0.00    -0.354 N 
ATOM     61  N   UNL     1      -2.058 -10.020   9.944  1.00  0.00    -0.248 NA
ATOM     62  C   UNL     1      -0.013 -10.322  11.029  1.00  0.00     0.031 C 
ATOM     63  C   UNL     1      -5.995 -11.143  11.663  1.00  0.00     0.029 A 
ATOM     64  C   UNL     1      -4.755 -10.793  11.155  1.00  0.00     0.049 A 
ATOM     65  H   UNL     1      -4.287  -9.842   9.329  1.00  0.00     0.167 HD
ATOM     66  C   UNL     1      -2.281 -10.626  11.174  1.00  0.00     0.074 A 
ATOM     67  C   UNL     1      -0.982 -10.821  11.783  1.00  0.00     0.031 C 
ATOM     68  C   UNL     1      -3.455 -10.985  11.747  1.00  0.00     0.037 A 
BRANCH  55  69
ATOM     69  C   UNL     1      -8.440  -9.607   8.362  1.00  0.00     0.064 A 
ATOM     70  C   UNL     1      -9.115 -10.409   7.429  1.00  0.00     0.173 A 
ATOM     71  C   UNL     1      -9.213  -8.816   9.225  1.00  0.00     0.173 A 
ATOM     72  F   UNL     1      -8.425 -11.178   6.573  1.00  0.00    -0.203 F 
ATOM     73  C   UNL     1     -10.505 -10.392   7.340  1.00  0.00     0.198 A 
ATOM     74  C   UNL     1     -10.604  -8.828   9.157  1.00  0.00     0.198 A 
ATOM     75  F   UNL     1      -8.621  -8.036  10.142  1.00  0.00    -0.203 F 
ATOM     76  F   UNL     1     -11.124 -11.125   6.404  1.00  0.00    -0.200 F 
ATOM     77  C   UNL     1     -11.248  -9.608   8.209  1.00  0.00     0.200 A 
ATOM     78  F   UNL     1     -11.322  -8.081  10.008  1.00  0.00    -0.200 F 
ATOM     79  F   UNL     1     -12.586  -9.599   8.128  1.00  0.00    -0.200 F 
ENDBRANCH  55  69
BRANCH  56  80
ATOM     80  C   UNL     1       1.531  -9.200   8.809  1.00  0.00     0.064 A 
ATOM     81  C   UNL     1       2.317 -10.361   8.815  1.00  0.00     0.173 A 
ATOM     82  C   UNL     1       2.192  -7.966   8.899  1.00  0.00     0.173 A 
ATOM     83  F   UNL     1       1.731 -11.566   8.752  1.00  0.00    -0.203 F 
ATOM     84  C   UNL     1       3.704 -10.293   8.930  1.00  0.00     0.198 A 
ATOM     85  C   UNL     1       3.581  -7.897   8.982  1.00  0.00     0.198 A 
ATOM     86  F   UNL     1       1.488  -6.824   8.895  1.00  0.00    -0.203 F 
ATOM     87  F   UNL     1       4.426 -11.420   8.984  1.00  0.00    -0.200 F 
ATOM     88  C   UNL     1       4.335  -9.061   9.007  1.00  0.00     0.200 A 
ATOM     89  F   UNL     1       4.189  -6.704   9.042  1.00  0.00    -0.200 F 
ATOM     90  F   UNL     1       5.670  -8.995   9.115  1.00  0.00    -0.200 F 
ENDBRANCH  56  80
BRANCH  68  91
ATOM     91  C   UNL     1      -3.389 -11.657  13.089  1.00  0.00     0.064 A 
ATOM     92  C   UNL     1      -3.024 -10.957  14.248  1.00  0.00     0.173 A 
ATOM     93  C   UNL     1      -3.727 -13.013  13.221  1.00  0.00     0.173 A 
ATOM     94  F   UNL     1      -2.678  -9.662  14.174  1.00  0.00    -0.203 F 
ATOM     95  C   UNL     1      -2.972 -11.596  15.484  1.00  0.00     0.198 A 
ATOM     96  C   UNL     1      -3.706 -13.640  14.463  1.00  0.00     0.198 A 
ATOM     97  F   UNL     1      -4.090 -13.728  12.145  1.00  0.00    -0.203 F 
ATOM     98  F   UNL     1      -2.568 -10.920  16.569  1.00  0.00    -0.200 F 
ATOM     99  C   UNL     1      -3.320 -12.934  15.592  1.00  0.00     0.200 A 
ATOM    100  F   UNL     1      -4.058 -14.929  14.568  1.00  0.00    -0.200 F 
ATOM    101  F   UNL     1      -3.275 -13.545  16.784  1.00  0.00    -0.200 F 
ENDBRANCH  68  91
ENDBRANCH  42  43
ENDBRANCH  34  37
ENDBRANCH  32  33
ENDBRANCH  31  32
ENDBRANCH  30  31
ENDBRANCH   3  30
TORSDOF 16
