REMARK SMILES CC(=O)N[C@H]1[C@@H](Oc2ccc(C)c(C)c2)O[C@H]2CO[C@H](c3ccco3)O[C@@H]2[C@H]1OCC(=O)NCCCNC(=O)c1ccc(-c2c3nc(c(-c4c(F)c(F)c(F)c(F)c4F)c4ccc([nH]4)c(-c4c(F)c(F)c(F)c(F)c4F)c4nc(c(-c5c(F)c(F)c(F)c(F)c5F)c5ccc2[nH]5)C=C4)C=C3)cc1
REMARK SMILES IDX 34 1 33 2 31 3 32 4 30 6 29 7 28 8 5 9 6 10 16 11 27 12
REMARK SMILES IDX 17 13 26 14 18 15 20 16 19 17 4 18 1 19 2 20 3 21 7 23 8 24
REMARK SMILES IDX 9 25 15 26 10 27 13 28 11 29 14 30 12 31 21 32 22 33 25 34
REMARK SMILES IDX 23 35 24 36 35 37 36 38 37 39 38 40 39 42 40 43 41 44 102 45
REMARK SMILES IDX 42 46 101 47 43 48 44 49 45 50 95 51 46 52 100 53 94 54
REMARK SMILES IDX 96 55 47 56 99 57 93 58 92 59 48 61 80 62 60 63 79 64 61 65
REMARK SMILES IDX 64 66 78 67 97 68 62 69 63 70 77 72 98 73 65 74 49 75 50 76
REMARK SMILES IDX 58 77 51 78 52 79 56 80 59 81 53 82 54 83 57 84 55 85 81 86
REMARK SMILES IDX 82 87 90 88 83 89 84 90 88 91 91 92 85 93 86 94 89 95 87 96
REMARK SMILES IDX 66 97 67 98 75 99 68 100 69 101 73 102 76 103 70 104 71 105
REMARK SMILES IDX 74 106 72 107
REMARK H PARENT 33 5 4 22 37 41 96 60 64 71
REMARK Flexibility Score: inf
ROOT
ATOM      1  C   UNL     1      -2.161  -3.929  -1.861  1.00  0.00     0.117 C 
ENDROOT
BRANCH   1   2
ATOM      2  N   UNL     1      -2.559  -3.648  -0.495  1.00  0.00    -0.354 N 
ATOM      3  C   UNL     1      -1.937  -2.884   0.441  1.00  0.00     0.246 C 
ATOM      4  O   UNL     1      -2.389  -2.881   1.589  1.00  0.00    -0.272 OA
ATOM      5  H   UNL     1      -3.400  -4.072  -0.205  1.00  0.00     0.163 HD
BRANCH   3   6
ATOM      6  C   UNL     1      -0.719  -2.035   0.065  1.00  0.00     0.260 C 
BRANCH   6   7
ATOM      7  O   UNL     1       0.565  -2.606  -0.100  1.00  0.00    -0.363 OA
BRANCH   7   8
ATOM      8  C   UNL     1       1.305  -3.060   1.055  1.00  0.00     0.179 C 
ATOM      9  C   UNL     1       1.848  -1.953   2.037  1.00  0.00     0.182 C 
ATOM     10  C   UNL     1       2.129  -2.522   3.501  1.00  0.00     0.333 C 
ATOM     11  O   UNL     1       1.427  -3.695   3.896  1.00  0.00    -0.332 OA
ATOM     12  C   UNL     1       0.675  -4.305   1.710  1.00  0.00     0.184 C 
ATOM     13  C   UNL     1       1.454  -4.724   2.943  1.00  0.00     0.180 C 
ATOM     14  O   UNL     1       0.666  -5.397   0.785  1.00  0.00    -0.337 OA
ATOM     15  C   UNL     1       0.754  -5.948   3.521  1.00  0.00     0.199 C 
ATOM     16  C   UNL     1       0.076  -6.567   1.355  1.00  0.00     0.319 C 
ATOM     17  O   UNL     1       0.720  -6.983   2.556  1.00  0.00    -0.343 OA
BRANCH   9  18
ATOM     18  N   UNL     1       1.152  -0.652   2.014  1.00  0.00    -0.345 N 
ATOM     19  C   UNL     1       2.089   0.329  -0.059  1.00  0.00     0.114 C 
ATOM     20  C   UNL     1       1.243   0.412   1.174  1.00  0.00     0.217 C 
ATOM     21  O   UNL     1       0.605   1.430   1.443  1.00  0.00    -0.275 OA
ATOM     22  H   UNL     1       0.500  -0.533   2.742  1.00  0.00     0.164 HD
ENDBRANCH   9  18
BRANCH  10  23
ATOM     23  O   UNL     1       2.035  -1.544   4.549  1.00  0.00    -0.463 OA
BRANCH  23  24
ATOM     24  C   UNL     1       0.794  -1.139   4.975  1.00  0.00     0.123 A 
ATOM     25  C   UNL     1      -0.436  -1.623   4.527  1.00  0.00     0.047 A 
ATOM     26  C   UNL     1       0.810  -0.041   5.832  1.00  0.00     0.050 A 
ATOM     27  C   UNL     1      -1.606  -0.910   4.781  1.00  0.00     0.007 A 
ATOM     28  C   UNL     1      -0.368   0.667   6.130  1.00  0.00    -0.045 A 
ATOM     29  C   UNL     1      -1.578   0.269   5.534  1.00  0.00    -0.048 A 
ATOM     30  C   UNL     1      -0.254   1.848   7.052  1.00  0.00     0.045 C 
ATOM     31  C   UNL     1      -2.838   1.078   5.650  1.00  0.00     0.044 C 
ENDBRANCH  23  24
ENDBRANCH  10  23
BRANCH  16  32
ATOM     32  C   UNL     1       0.273  -7.708   0.414  1.00  0.00     0.159 A 
ATOM     33  C   UNL     1       0.081  -9.068   0.569  1.00  0.00     0.051 A 
ATOM     34  O   UNL     1       0.764  -7.458  -0.839  1.00  0.00    -0.464 OA
ATOM     35  C   UNL     1       0.539  -9.677  -0.619  1.00  0.00     0.042 A 
ATOM     36  C   UNL     1       0.924  -8.656  -1.453  1.00  0.00     0.195 A 
ENDBRANCH  16  32
ENDBRANCH   7   8
ENDBRANCH   6   7
ENDBRANCH   3   6
ENDBRANCH   1   2
BRANCH   1  37
ATOM     37  C   UNL     1      -1.589  -5.334  -2.014  1.00  0.00     0.042 C 
BRANCH  37  38
ATOM     38  C   UNL     1      -2.483  -6.456  -1.486  1.00  0.00     0.118 C 
BRANCH  38  39
ATOM     39  N   UNL     1      -3.723  -6.598  -2.232  1.00  0.00    -0.352 N 
ATOM     40  C   UNL     1      -4.229  -7.703  -2.874  1.00  0.00     0.251 C 
ATOM     41  H   UNL     1      -4.279  -5.787  -2.285  1.00  0.00     0.163 HD
ATOM     42  O   UNL     1      -5.212  -7.593  -3.599  1.00  0.00    -0.269 OA
BRANCH  40  43
ATOM     43  C   UNL     1      -3.582  -9.024  -2.716  1.00  0.00     0.039 A 
ATOM     44  C   UNL     1      -3.279  -9.768  -3.859  1.00  0.00     0.014 A 
ATOM     45  C   UNL     1      -3.292  -9.544  -1.453  1.00  0.00     0.014 A 
ATOM     46  C   UNL     1      -2.615 -10.995  -3.741  1.00  0.00     0.010 A 
ATOM     47  C   UNL     1      -2.585 -10.745  -1.342  1.00  0.00     0.010 A 
ATOM     48  C   UNL     1      -2.210 -11.475  -2.485  1.00  0.00    -0.014 A 
BRANCH  48  49
ATOM     49  C   UNL     1      -1.335 -12.681  -2.356  1.00  0.00     0.031 A 
ATOM     50  C   UNL     1      -1.754 -13.869  -1.529  1.00  0.00     0.074 A 
ATOM     51  C   UNL     1      -0.096 -12.671  -2.895  1.00  0.00     0.049 A 
ATOM     52  N   UNL     1      -1.077 -14.955  -1.236  1.00  0.00    -0.248 NA
ATOM     53  C   UNL     1      -3.097 -13.825  -0.934  1.00  0.00     0.031 C 
ATOM     54  C   UNL     1       0.486 -11.570  -3.666  1.00  0.00     0.029 A 
ATOM     55  N   UNL     1       0.919 -13.599  -2.836  1.00  0.00    -0.354 N 
ATOM     56  C   UNL     1      -1.912 -15.720  -0.432  1.00  0.00     0.074 A 
ATOM     57  C   UNL     1      -3.114 -14.941  -0.219  1.00  0.00     0.031 C 
ATOM     58  C   UNL     1       1.752 -11.875  -3.990  1.00  0.00     0.029 A 
ATOM     59  C   UNL     1       2.082 -13.186  -3.440  1.00  0.00     0.049 A 
ATOM     60  H   UNL     1       0.820 -14.477  -2.401  1.00  0.00     0.167 HD
ATOM     61  C   UNL     1      -1.717 -16.971   0.053  1.00  0.00     0.037 A 
ATOM     62  C   UNL     1       3.288 -13.780  -3.537  1.00  0.00     0.037 A 
ATOM     63  C   UNL     1      -0.535 -17.765  -0.170  1.00  0.00     0.049 A 
ATOM     64  C   UNL     1       3.498 -15.150  -2.954  1.00  0.00     0.074 A 
ATOM     65  C   UNL     1      -0.298 -19.080   0.198  1.00  0.00     0.029 A 
ATOM     66  N   UNL     1       0.613 -17.319  -0.804  1.00  0.00    -0.354 N 
ATOM     67  N   UNL     1       2.653 -15.909  -2.302  1.00  0.00    -0.248 NA
ATOM     68  C   UNL     1       4.827 -15.753  -3.137  1.00  0.00     0.031 C 
ATOM     69  C   UNL     1       1.012 -19.410  -0.165  1.00  0.00     0.029 A 
ATOM     70  C   UNL     1       1.574 -18.319  -0.804  1.00  0.00     0.049 A 
ATOM     71  H   UNL     1       0.729 -16.423  -1.197  1.00  0.00     0.167 HD
ATOM     72  C   UNL     1       3.334 -17.088  -2.027  1.00  0.00     0.074 A 
ATOM     73  C   UNL     1       4.659 -16.950  -2.593  1.00  0.00     0.031 C 
ATOM     74  C   UNL     1       2.894 -18.186  -1.367  1.00  0.00     0.037 A 
BRANCH  61  75
ATOM     75  C   UNL     1      -2.828 -17.584   0.859  1.00  0.00     0.064 A 
ATOM     76  C   UNL     1      -4.042 -17.958   0.263  1.00  0.00     0.173 A 
ATOM     77  C   UNL     1      -2.659 -17.854   2.226  1.00  0.00     0.173 A 
ATOM     78  F   UNL     1      -4.255 -17.723  -1.040  1.00  0.00    -0.203 F 
ATOM     79  C   UNL     1      -5.059 -18.545   1.012  1.00  0.00     0.198 A 
ATOM     80  C   UNL     1      -3.665 -18.471   2.965  1.00  0.00     0.198 A 
ATOM     81  F   UNL     1      -1.512 -17.531   2.843  1.00  0.00    -0.203 F 
ATOM     82  F   UNL     1      -6.228 -18.847   0.430  1.00  0.00    -0.200 F 
ATOM     83  C   UNL     1      -4.867 -18.807   2.360  1.00  0.00     0.200 A 
ATOM     84  F   UNL     1      -3.473 -18.740   4.263  1.00  0.00    -0.200 F 
ATOM     85  F   UNL     1      -5.843 -19.380   3.077  1.00  0.00    -0.200 F 
ENDBRANCH  61  75
BRANCH  62  86
ATOM     86  C   UNL     1       4.399 -13.088  -4.242  1.00  0.00     0.064 A 
ATOM     87  C   UNL     1       4.854 -13.546  -5.486  1.00  0.00     0.173 A 
ATOM     88  C   UNL     1       5.037 -11.973  -3.682  1.00  0.00     0.173 A 
ATOM     89  F   UNL     1       4.288 -14.624  -6.050  1.00  0.00    -0.203 F 
ATOM     90  C   UNL     1       5.923 -12.930  -6.132  1.00  0.00     0.198 A 
ATOM     91  C   UNL     1       6.089 -11.340  -4.342  1.00  0.00     0.198 A 
ATOM     92  F   UNL     1       4.633 -11.492  -2.497  1.00  0.00    -0.203 F 
ATOM     93  F   UNL     1       6.371 -13.419  -7.297  1.00  0.00    -0.200 F 
ATOM     94  C   UNL     1       6.537 -11.825  -5.561  1.00  0.00     0.200 A 
ATOM     95  F   UNL     1       6.671 -10.265  -3.794  1.00  0.00    -0.200 F 
ATOM     96  F   UNL     1       7.566 -11.233  -6.183  1.00  0.00    -0.200 F 
ENDBRANCH  62  86
BRANCH  74  97
ATOM     97  C   UNL     1       3.840 -19.346  -1.236  1.00  0.00     0.064 A 
ATOM     98  C   UNL     1       4.957 -19.292  -0.390  1.00  0.00     0.173 A 
ATOM     99  C   UNL     1       3.603 -20.541  -1.934  1.00  0.00     0.173 A 
ATOM    100  F   UNL     1       5.239 -18.167   0.285  1.00  0.00    -0.203 F 
ATOM    101  C   UNL     1       5.811 -20.384  -0.260  1.00  0.00     0.198 A 
ATOM    102  C   UNL     1       4.443 -21.641  -1.778  1.00  0.00     0.198 A 
ATOM    103  F   UNL     1       2.549 -20.647  -2.756  1.00  0.00    -0.203 F 
ATOM    104  F   UNL     1       6.896 -20.294   0.522  1.00  0.00    -0.200 F 
ATOM    105  C   UNL     1       5.549 -21.560  -0.947  1.00  0.00     0.200 A 
ATOM    106  F   UNL     1       4.180 -22.780  -2.433  1.00  0.00    -0.200 F 
ATOM    107  F   UNL     1       6.366 -22.614  -0.811  1.00  0.00    -0.200 F 
ENDBRANCH  74  97
ENDBRANCH  48  49
ENDBRANCH  40  43
ENDBRANCH  38  39
ENDBRANCH  37  38
ENDBRANCH   1  37
TORSDOF 16
