REMARK SMILES O=C(NCCCNC(=O)[C@H]1CCC(=O)N(C[C@@H]2COc3ccccc32)C1)c1ccc(-c2c3nc(c(-c4c(F)c(F)c(F)c(F)c4F)c4ccc([nH]4)c(-c4c(F)c(F)c(F)c(F)c4F)c4nc(c(-c5c(F)c(F)c(F)c(F)c5F)c5ccc2[nH]5)C=C4)C=C3)cc1
REMARK SMILES IDX 5 1 4 2 3 3 1 4 2 5 27 7 28 8 89 9 29 10 88 11 30 12 31 13
REMARK SMILES IDX 32 14 82 15 33 16 87 17 81 18 83 19 34 20 86 21 80 22 79 23
REMARK SMILES IDX 35 25 67 26 47 27 66 28 48 29 51 30 65 31 84 32 49 33 50 34
REMARK SMILES IDX 64 36 85 37 52 38 36 39 37 40 45 41 38 42 39 43 43 44 46 45
REMARK SMILES IDX 40 46 41 47 44 48 42 49 68 50 69 51 77 52 70 53 71 54 75 55
REMARK SMILES IDX 78 56 72 57 73 58 76 59 74 60 53 61 54 62 62 63 55 64 56 65
REMARK SMILES IDX 60 66 63 67 57 68 58 69 61 70 59 71 6 72 7 73 8 74 9 76
REMARK SMILES IDX 10 77 11 78 26 79 12 80 15 81 13 82 14 83 16 84 17 85 18 86
REMARK SMILES IDX 25 87 19 88 20 89 24 90 21 91 23 92 22 93
REMARK H PARENT 3 6 83 24 51 35 7 75
REMARK Flexibility Score: inf
ROOT
ATOM      1  C   UNL     1      13.744  -7.129   5.832  1.00  0.00     0.042 C 
ENDROOT
BRANCH   1   2
ATOM      2  C   UNL     1      13.680  -8.040   7.047  1.00  0.00     0.118 C 
BRANCH   2   3
ATOM      3  N   UNL     1      12.590  -9.003   6.954  1.00  0.00    -0.352 N 
ATOM      4  O   UNL     1      11.629 -11.001   6.554  1.00  0.00    -0.269 OA
ATOM      5  C   UNL     1      12.635 -10.371   6.856  1.00  0.00     0.251 C 
ATOM      6  H   UNL     1      11.686  -8.613   6.963  1.00  0.00     0.163 HD
BRANCH   5   7
ATOM      7  C   UNL     1      13.906 -11.079   7.105  1.00  0.00     0.039 A 
ATOM      8  C   UNL     1      14.737 -10.689   8.157  1.00  0.00     0.014 A 
ATOM      9  C   UNL     1      14.263 -12.154   6.287  1.00  0.00     0.014 A 
ATOM     10  C   UNL     1      15.992 -11.262   8.293  1.00  0.00     0.010 A 
ATOM     11  C   UNL     1      15.479 -12.806   6.496  1.00  0.00     0.010 A 
ATOM     12  C   UNL     1      16.366 -12.345   7.482  1.00  0.00    -0.014 A 
BRANCH  12  13
ATOM     13  C   UNL     1      17.660 -13.022   7.739  1.00  0.00     0.031 A 
ATOM     14  C   UNL     1      18.748 -13.038   6.706  1.00  0.00     0.074 A 
ATOM     15  C   UNL     1      17.847 -13.609   8.936  1.00  0.00     0.049 A 
ATOM     16  N   UNL     1      19.941 -13.574   6.774  1.00  0.00    -0.248 NA
ATOM     17  C   UNL     1      18.459 -12.376   5.426  1.00  0.00     0.031 C 
ATOM     18  C   UNL     1      16.854 -13.659  10.012  1.00  0.00     0.029 A 
ATOM     19  N   UNL     1      18.935 -14.258   9.459  1.00  0.00    -0.354 N 
ATOM     20  C   UNL     1      20.536 -13.332   5.543  1.00  0.00     0.074 A 
ATOM     21  C   UNL     1      19.561 -12.631   4.735  1.00  0.00     0.031 C 
ATOM     22  C   UNL     1      17.395 -14.255  11.083  1.00  0.00     0.029 A 
ATOM     23  C   UNL     1      18.742 -14.696  10.745  1.00  0.00     0.049 A 
ATOM     24  H   UNL     1      19.773 -14.396   8.960  1.00  0.00     0.167 HD
ATOM     25  C   UNL     1      21.785 -13.662   5.133  1.00  0.00     0.037 A 
ATOM     26  C   UNL     1      19.553 -15.395  11.558  1.00  0.00     0.037 A 
ATOM     27  C   UNL     1      22.746 -14.361   5.950  1.00  0.00     0.049 A 
ATOM     28  C   UNL     1      20.913 -15.788  11.060  1.00  0.00     0.074 A 
ATOM     29  C   UNL     1      24.049 -14.711   5.644  1.00  0.00     0.029 A 
ATOM     30  N   UNL     1      22.500 -14.829   7.235  1.00  0.00    -0.354 N 
ATOM     31  N   UNL     1      21.482 -15.521   9.910  1.00  0.00    -0.248 NA
ATOM     32  C   UNL     1      21.743 -16.583  11.974  1.00  0.00     0.031 C 
ATOM     33  C   UNL     1      24.569 -15.447   6.715  1.00  0.00     0.029 A 
ATOM     34  C   UNL     1      23.617 -15.494   7.720  1.00  0.00     0.049 A 
ATOM     35  H   UNL     1      21.658 -14.706   7.729  1.00  0.00     0.167 HD
ATOM     36  C   UNL     1      22.746 -16.090   9.969  1.00  0.00     0.074 A 
ATOM     37  C   UNL     1      22.863 -16.704  11.277  1.00  0.00     0.031 C 
ATOM     38  C   UNL     1      23.720 -16.101   9.025  1.00  0.00     0.037 A 
BRANCH  25  39
ATOM     39  C   UNL     1      22.170 -13.303   3.723  1.00  0.00     0.064 A 
ATOM     40  C   UNL     1      22.332 -11.971   3.312  1.00  0.00     0.173 A 
ATOM     41  C   UNL     1      22.394 -14.311   2.771  1.00  0.00     0.173 A 
ATOM     42  F   UNL     1      22.123 -10.967   4.176  1.00  0.00    -0.203 F 
ATOM     43  C   UNL     1      22.662 -11.661   1.994  1.00  0.00     0.198 A 
ATOM     44  C   UNL     1      22.758 -13.998   1.464  1.00  0.00     0.198 A 
ATOM     45  F   UNL     1      22.262 -15.602   3.109  1.00  0.00    -0.203 F 
ATOM     46  F   UNL     1      22.747 -10.380   1.610  1.00  0.00    -0.200 F 
ATOM     47  C   UNL     1      22.879 -12.674   1.073  1.00  0.00     0.200 A 
ATOM     48  F   UNL     1      22.983 -14.980   0.580  1.00  0.00    -0.200 F 
ATOM     49  F   UNL     1      23.195 -12.374  -0.195  1.00  0.00    -0.200 F 
ENDBRANCH  25  39
BRANCH  26  50
ATOM     50  C   UNL     1      19.091 -15.754  12.923  1.00  0.00     0.064 A 
ATOM     51  C   UNL     1      19.676 -15.174  14.056  1.00  0.00     0.173 A 
ATOM     52  C   UNL     1      18.037 -16.658  13.122  1.00  0.00     0.173 A 
ATOM     53  F   UNL     1      20.697 -14.315  13.917  1.00  0.00    -0.203 F 
ATOM     54  C   UNL     1      19.232 -15.493  15.337  1.00  0.00     0.198 A 
ATOM     55  C   UNL     1      17.572 -16.951  14.402  1.00  0.00     0.198 A 
ATOM     56  F   UNL     1      17.437 -17.233  12.069  1.00  0.00    -0.203 F 
ATOM     57  F   UNL     1      19.832 -14.951  16.406  1.00  0.00    -0.200 F 
ATOM     58  C   UNL     1      18.174 -16.374  15.508  1.00  0.00     0.200 A 
ATOM     59  F   UNL     1      16.536 -17.786  14.560  1.00  0.00    -0.200 F 
ATOM     60  F   UNL     1      17.738 -16.669  16.741  1.00  0.00    -0.200 F 
ENDBRANCH  26  50
BRANCH  38  61
ATOM     61  C   UNL     1      25.017 -16.765   9.391  1.00  0.00     0.064 A 
ATOM     62  C   UNL     1      25.121 -18.155   9.547  1.00  0.00     0.173 A 
ATOM     63  C   UNL     1      26.179 -15.996   9.564  1.00  0.00     0.173 A 
ATOM     64  F   UNL     1      24.037 -18.933   9.410  1.00  0.00    -0.203 F 
ATOM     65  C   UNL     1      26.333 -18.747   9.893  1.00  0.00     0.198 A 
ATOM     66  C   UNL     1      27.396 -16.596   9.874  1.00  0.00     0.198 A 
ATOM     67  F   UNL     1      26.136 -14.663   9.423  1.00  0.00    -0.203 F 
ATOM     68  F   UNL     1      26.396 -20.071  10.094  1.00  0.00    -0.200 F 
ATOM     69  C   UNL     1      27.470 -17.969  10.048  1.00  0.00     0.200 A 
ATOM     70  F   UNL     1      28.497 -15.843  10.008  1.00  0.00    -0.200 F 
ATOM     71  F   UNL     1      28.637 -18.542  10.374  1.00  0.00    -0.200 F 
ENDBRANCH  38  61
ENDBRANCH  12  13
ENDBRANCH   5   7
ENDBRANCH   2   3
ENDBRANCH   1   2
BRANCH   1  72
ATOM     72  C   UNL     1      12.540  -6.206   5.737  1.00  0.00     0.117 C 
BRANCH  72  73
ATOM     73  N   UNL     1      12.575  -5.197   6.788  1.00  0.00    -0.356 N 
ATOM     74  C   UNL     1      12.788  -3.855   6.742  1.00  0.00     0.224 C 
ATOM     75  H   UNL     1      12.416  -5.550   7.693  1.00  0.00     0.163 HD
ATOM     76  O   UNL     1      12.830  -3.246   7.813  1.00  0.00    -0.275 OA
BRANCH  74  77
ATOM     77  C   UNL     1      12.904  -3.107   5.425  1.00  0.00     0.098 C 
ATOM     78  C   UNL     1      14.100  -3.518   4.585  1.00  0.00     0.025 C 
ATOM     79  C   UNL     1      11.580  -3.215   4.688  1.00  0.00     0.133 C 
ATOM     80  C   UNL     1      14.078  -2.805   3.249  1.00  0.00     0.101 C 
ATOM     81  N   UNL     1      11.591  -2.902   3.269  1.00  0.00    -0.341 N 
ATOM     82  C   UNL     1      12.753  -2.852   2.511  1.00  0.00     0.222 C 
ATOM     83  O   UNL     1      12.741  -2.736   1.285  1.00  0.00    -0.275 OA
BRANCH  81  84
ATOM     84  C   UNL     1      10.287  -2.733   2.604  1.00  0.00     0.131 C 
BRANCH  84  85
ATOM     85  C   UNL     1       9.369  -3.962   2.483  1.00  0.00     0.080 C 
ATOM     86  C   UNL     1       8.603  -4.362   3.756  1.00  0.00     0.239 C 
ATOM     87  C   UNL     1       9.959  -5.274   2.119  1.00  0.00     0.002 A 
ATOM     88  O   UNL     1       8.482  -5.803   3.819  1.00  0.00    -0.493 OA
ATOM     89  C   UNL     1       9.379  -6.266   2.894  1.00  0.00     0.122 A 
ATOM     90  C   UNL     1      10.845  -5.600   1.106  1.00  0.00     0.008 A 
ATOM     91  C   UNL     1       9.659  -7.605   2.701  1.00  0.00     0.047 A 
ATOM     92  C   UNL     1      11.147  -6.948   0.896  1.00  0.00     0.001 A 
ATOM     93  C   UNL     1      10.556  -7.946   1.688  1.00  0.00     0.004 A 
ENDBRANCH  84  85
ENDBRANCH  81  84
ENDBRANCH  74  77
ENDBRANCH  72  73
ENDBRANCH   1  72
TORSDOF 12
