REMARK SMILES CC[C@@H]1CCC[C@@H](Oc2cncc(C(=O)NCCCNC(=O)c3ccc(-c4c5nc(c(-c6c(F)c(F)c(F)c(F)c6F)c6ccc([nH]6)c(-c6c(F)c(F)c(F)c(F)c6F)c6nc(c(-c7c(F)c(F)c(F)c(F)c7F)c7ccc4[nH]7)C=C6)C=C5)cc3)n2)C1
REMARK SMILES IDX 17 1 16 2 14 3 15 4 13 6 9 7 10 8 86 9 11 10 12 11 8 12 7 13
REMARK SMILES IDX 3 14 4 15 87 16 5 17 6 18 2 19 1 20 18 21 19 22 20 23 21 24
REMARK SMILES IDX 22 26 23 27 24 28 85 29 25 30 84 31 26 32 27 33 28 34 78 35
REMARK SMILES IDX 29 36 83 37 77 38 79 39 30 40 82 41 76 42 75 43 31 45 63 46
REMARK SMILES IDX 43 47 62 48 44 49 47 50 61 51 80 52 45 53 46 54 60 56 81 57
REMARK SMILES IDX 48 58 32 59 33 60 41 61 34 62 35 63 39 64 42 65 36 66 37 67
REMARK SMILES IDX 40 68 38 69 64 70 65 71 73 72 66 73 67 74 71 75 74 76 68 77
REMARK SMILES IDX 69 78 72 79 70 80 49 81 50 82 58 83 51 84 52 85 56 86 59 87
REMARK SMILES IDX 53 88 54 89 57 90 55 91
REMARK H PARENT 16 5 20 25 79 44 47 55
REMARK Flexibility Score: inf
ROOT
ATOM      1  C   UNL     1       6.991   3.518   3.159  1.00  0.00     0.118 C 
ENDROOT
BRANCH   1   2
ATOM      2  N   UNL     1       7.438   2.387   3.954  1.00  0.00    -0.351 N 
ATOM      3  C   UNL     1       6.730   1.439   4.651  1.00  0.00     0.271 C 
ATOM      4  O   UNL     1       7.373   0.622   5.313  1.00  0.00    -0.267 OA
ATOM      5  H   UNL     1       8.416   2.283   4.001  1.00  0.00     0.163 HD
BRANCH   3   6
ATOM      6  C   UNL     1       5.245   1.348   4.621  1.00  0.00     0.150 A 
ATOM      7  C   UNL     1       3.177   2.119   3.912  1.00  0.00     0.233 A 
ATOM      8  C   UNL     1       2.607   1.036   4.554  1.00  0.00     0.179 A 
ATOM      9  N   UNL     1       4.518   2.290   3.967  1.00  0.00    -0.205 NA
ATOM     10  N   UNL     1       3.309   0.088   5.231  1.00  0.00    -0.257 NA
ATOM     11  C   UNL     1       4.646   0.268   5.246  1.00  0.00     0.145 A 
BRANCH   7  12
ATOM     12  O   UNL     1       2.577   3.115   3.231  1.00  0.00    -0.473 OA
BRANCH  12  13
ATOM     13  C   UNL     1       1.267   3.165   2.662  1.00  0.00     0.175 C 
ATOM     14  C   UNL     1       0.373   0.830   2.082  1.00  0.00    -0.008 C 
ATOM     15  C   UNL     1      -0.781   1.057   3.082  1.00  0.00     0.004 C 
ATOM     16  C   UNL     1       0.940   2.151   1.563  1.00  0.00     0.048 C 
ATOM     17  C   UNL     1      -0.590   2.153   4.135  1.00  0.00     0.004 C 
ATOM     18  C   UNL     1       0.124   3.404   3.644  1.00  0.00     0.045 C 
BRANCH  14  19
ATOM     19  C   UNL     1      -0.103  -0.124   0.963  1.00  0.00     0.000 C 
ATOM     20  C   UNL     1       0.831  -0.228  -0.235  1.00  0.00     0.004 C 
ENDBRANCH  14  19
ENDBRANCH  12  13
ENDBRANCH   7  12
ENDBRANCH   3   6
ENDBRANCH   1   2
BRANCH   1  21
ATOM     21  C   UNL     1       6.952   4.801   3.985  1.00  0.00     0.042 C 
BRANCH  21  22
ATOM     22  C   UNL     1       8.315   5.194   4.556  1.00  0.00     0.118 C 
BRANCH  22  23
ATOM     23  N   UNL     1       9.333   5.336   3.521  1.00  0.00    -0.352 N 
ATOM     24  C   UNL     1      10.073   6.425   3.143  1.00  0.00     0.251 C 
ATOM     25  H   UNL     1       9.518   4.515   3.010  1.00  0.00     0.163 HD
ATOM     26  O   UNL     1      10.708   6.401   2.094  1.00  0.00    -0.269 OA
BRANCH  24  27
ATOM     27  C   UNL     1      10.104   7.631   3.992  1.00  0.00     0.039 A 
ATOM     28  C   UNL     1      10.024   8.886   3.384  1.00  0.00     0.014 A 
ATOM     29  C   UNL     1      10.243   7.526   5.378  1.00  0.00     0.014 A 
ATOM     30  C   UNL     1      10.012  10.036   4.174  1.00  0.00     0.010 A 
ATOM     31  C   UNL     1      10.160   8.667   6.169  1.00  0.00     0.010 A 
ATOM     32  C   UNL     1      10.038   9.931   5.574  1.00  0.00    -0.014 A 
BRANCH  32  33
ATOM     33  C   UNL     1       9.904  11.131   6.435  1.00  0.00     0.031 A 
ATOM     34  C   UNL     1      11.030  11.550   7.335  1.00  0.00     0.074 A 
ATOM     35  C   UNL     1       8.731  11.792   6.458  1.00  0.00     0.049 A 
ATOM     36  N   UNL     1      11.067  12.517   8.217  1.00  0.00    -0.248 NA
ATOM     37  C   UNL     1      12.270  10.762   7.253  1.00  0.00     0.031 C 
ATOM     38  C   UNL     1       7.550  11.445   5.664  1.00  0.00     0.029 A 
ATOM     39  N   UNL     1       8.331  12.883   7.187  1.00  0.00    -0.354 N 
ATOM     40  C   UNL     1      12.325  12.447   8.800  1.00  0.00     0.074 A 
ATOM     41  C   UNL     1      13.003  11.313   8.210  1.00  0.00     0.031 C 
ATOM     42  C   UNL     1       6.566  12.316   5.935  1.00  0.00     0.029 A 
ATOM     43  C   UNL     1       7.031  13.255   6.950  1.00  0.00     0.049 A 
ATOM     44  H   UNL     1       8.920  13.354   7.820  1.00  0.00     0.167 HD
ATOM     45  C   UNL     1      12.869  13.268   9.730  1.00  0.00     0.037 A 
ATOM     46  C   UNL     1       6.292  14.236   7.502  1.00  0.00     0.037 A 
ATOM     47  C   UNL     1      12.193  14.404  10.300  1.00  0.00     0.049 A 
ATOM     48  C   UNL     1       6.917  15.124   8.542  1.00  0.00     0.074 A 
ATOM     49  C   UNL     1      12.678  15.336  11.200  1.00  0.00     0.029 A 
ATOM     50  N   UNL     1      10.879  14.759  10.027  1.00  0.00    -0.354 N 
ATOM     51  N   UNL     1       8.132  15.094   9.034  1.00  0.00    -0.248 NA
ATOM     52  C   UNL     1       6.069  16.186   9.101  1.00  0.00     0.031 C 
ATOM     53  C   UNL     1      11.644  16.225  11.510  1.00  0.00     0.029 A 
ATOM     54  C   UNL     1      10.529  15.880  10.763  1.00  0.00     0.049 A 
ATOM     55  H   UNL     1      10.284  14.285   9.402  1.00  0.00     0.167 HD
ATOM     56  C   UNL     1       8.202  16.142   9.941  1.00  0.00     0.074 A 
ATOM     57  C   UNL     1       6.913  16.802   9.916  1.00  0.00     0.031 C 
ATOM     58  C   UNL     1       9.239  16.522  10.726  1.00  0.00     0.037 A 
BRANCH  45  59
ATOM     59  C   UNL     1      14.267  12.970  10.189  1.00  0.00     0.064 A 
ATOM     60  C   UNL     1      15.374  13.155   9.346  1.00  0.00     0.173 A 
ATOM     61  C   UNL     1      14.509  12.537  11.502  1.00  0.00     0.173 A 
ATOM     62  F   UNL     1      15.197  13.558   8.079  1.00  0.00    -0.203 F 
ATOM     63  C   UNL     1      16.667  12.891   9.791  1.00  0.00     0.198 A 
ATOM     64  C   UNL     1      15.806  12.303  11.953  1.00  0.00     0.198 A 
ATOM     65  F   UNL     1      13.488  12.350  12.352  1.00  0.00    -0.203 F 
ATOM     66  F   UNL     1      17.703  13.031   8.954  1.00  0.00    -0.200 F 
ATOM     67  C   UNL     1      16.882  12.473  11.096  1.00  0.00     0.200 A 
ATOM     68  F   UNL     1      16.014  11.913  13.218  1.00  0.00    -0.200 F 
ATOM     69  F   UNL     1      18.128  12.229  11.526  1.00  0.00    -0.200 F 
ENDBRANCH  45  59
BRANCH  46  70
ATOM     70  C   UNL     1       4.885  14.439   7.068  1.00  0.00     0.064 A 
ATOM     71  C   UNL     1       4.515  15.573   6.333  1.00  0.00     0.173 A 
ATOM     72  C   UNL     1       3.884  13.507   7.377  1.00  0.00     0.173 A 
ATOM     73  F   UNL     1       5.434  16.502   6.029  1.00  0.00    -0.203 F 
ATOM     74  C   UNL     1       3.194  15.779   5.941  1.00  0.00     0.198 A 
ATOM     75  C   UNL     1       2.568  13.698   6.960  1.00  0.00     0.198 A 
ATOM     76  F   UNL     1       4.186  12.401   8.073  1.00  0.00    -0.203 F 
ATOM     77  F   UNL     1       2.860  16.895   5.279  1.00  0.00    -0.200 F 
ATOM     78  C   UNL     1       2.223  14.838   6.250  1.00  0.00     0.200 A 
ATOM     79  F   UNL     1       1.636  12.780   7.246  1.00  0.00    -0.200 F 
ATOM     80  F   UNL     1       0.953  15.034   5.869  1.00  0.00    -0.200 F 
ENDBRANCH  46  70
BRANCH  58  81
ATOM     81  C   UNL     1       9.029  17.721  11.605  1.00  0.00     0.064 A 
ATOM     82  C   UNL     1       8.196  17.668  12.732  1.00  0.00     0.173 A 
ATOM     83  C   UNL     1       9.693  18.927  11.334  1.00  0.00     0.173 A 
ATOM     84  F   UNL     1       7.526  16.543  13.024  1.00  0.00    -0.203 F 
ATOM     85  C   UNL     1       8.015  18.787  13.541  1.00  0.00     0.198 A 
ATOM     86  C   UNL     1       9.534  20.034  12.162  1.00  0.00     0.198 A 
ATOM     87  F   UNL     1      10.505  19.028  10.271  1.00  0.00    -0.203 F 
ATOM     88  F   UNL     1       7.175  18.728  14.584  1.00  0.00    -0.200 F 
ATOM     89  C   UNL     1       8.689  19.965  13.260  1.00  0.00     0.200 A 
ATOM     90  F   UNL     1      10.197  21.168  11.897  1.00  0.00    -0.200 F 
ATOM     91  F   UNL     1       8.518  21.039  14.043  1.00  0.00    -0.200 F 
ENDBRANCH  58  81
ENDBRANCH  32  33
ENDBRANCH  24  27
ENDBRANCH  22  23
ENDBRANCH  21  22
ENDBRANCH   1  21
TORSDOF 13
