REMARK SMILES O=C(NCCCNC(=O)c1ccc(Br)c(NC(=S)NC(=O)c2cccs2)c1)c1ccc(-c2c3nc(c(-c4c(F)c(F)c(F)c(F)c4F)c4ccc([nH]4)c(-c4c(F)c(F)c(F)c(F)c4F)c4nc(c(-c5c(F)c(F)c(F)c(F)c5F)c5ccc2[nH]5)C=C4)C=C3)cc1
REMARK SMILES IDX 6 1 5 2 4 3 3 4 1 5 2 6 28 8 29 9 90 10 30 11 89 12 31 13
REMARK SMILES IDX 32 14 33 15 83 16 34 17 88 18 82 19 84 20 35 21 87 22 81 23
REMARK SMILES IDX 80 24 36 26 68 27 48 28 67 29 49 30 52 31 66 32 85 33 50 34
REMARK SMILES IDX 51 35 65 37 86 38 53 39 37 40 38 41 46 42 39 43 40 44 44 45
REMARK SMILES IDX 47 46 41 47 42 48 45 49 43 50 69 51 70 52 78 53 71 54 72 55
REMARK SMILES IDX 76 56 79 57 73 58 74 59 77 60 75 61 54 62 55 63 63 64 56 65
REMARK SMILES IDX 57 66 61 67 64 68 58 69 59 70 62 71 60 72 7 73 8 74 9 76
REMARK SMILES IDX 10 77 11 78 27 79 12 80 15 81 13 82 14 83 16 84 17 86 18 87
REMARK SMILES IDX 19 88 20 89 21 91 22 92 23 93 26 94 24 95 25 96
REMARK H PARENT 3 7 84 25 52 36 7 75 16 85 19 90
REMARK Flexibility Score: inf
ROOT
ATOM      1  C   UNL     1       4.190  -3.615  -0.638  1.00  0.00     0.118 C 
ENDROOT
BRANCH   1   2
ATOM      2  C   UNL     1       4.852  -2.379  -0.047  1.00  0.00     0.042 C 
BRANCH   2   3
ATOM      3  C   UNL     1       4.484  -1.075  -0.741  1.00  0.00     0.118 C 
BRANCH   3   4
ATOM      4  N   UNL     1       3.049  -0.801  -0.743  1.00  0.00    -0.352 N 
ATOM      5  O   UNL     1       1.073   0.030  -0.039  1.00  0.00    -0.269 OA
ATOM      6  C   UNL     1       2.298   0.076   0.004  1.00  0.00     0.251 C 
ATOM      7  H   UNL     1       2.531  -1.334  -1.389  1.00  0.00     0.163 HD
BRANCH   6   8
ATOM      8  C   UNL     1       2.969   1.043   0.894  1.00  0.00     0.039 A 
ATOM      9  C   UNL     1       4.110   1.715   0.465  1.00  0.00     0.014 A 
ATOM     10  C   UNL     1       2.473   1.257   2.182  1.00  0.00     0.014 A 
ATOM     11  C   UNL     1       4.890   2.392   1.387  1.00  0.00     0.010 A 
ATOM     12  C   UNL     1       3.186   2.067   3.071  1.00  0.00     0.010 A 
ATOM     13  C   UNL     1       4.433   2.593   2.699  1.00  0.00    -0.014 A 
BRANCH  13  14
ATOM     14  C   UNL     1       5.272   3.384   3.636  1.00  0.00     0.031 A 
ATOM     15  C   UNL     1       5.789   2.788   4.917  1.00  0.00     0.074 A 
ATOM     16  C   UNL     1       5.609   4.643   3.292  1.00  0.00     0.049 A 
ATOM     17  N   UNL     1       6.566   3.328   5.824  1.00  0.00    -0.248 NA
ATOM     18  C   UNL     1       5.377   1.411   5.231  1.00  0.00     0.031 C 
ATOM     19  C   UNL     1       5.167   5.330   2.076  1.00  0.00     0.029 A 
ATOM     20  N   UNL     1       6.420   5.559   3.911  1.00  0.00    -0.354 N 
ATOM     21  C   UNL     1       6.712   2.373   6.822  1.00  0.00     0.074 A 
ATOM     22  C   UNL     1       5.917   1.230   6.428  1.00  0.00     0.031 C 
ATOM     23  C   UNL     1       5.762   6.527   2.003  1.00  0.00     0.029 A 
ATOM     24  C   UNL     1       6.556   6.731   3.207  1.00  0.00     0.049 A 
ATOM     25  H   UNL     1       6.862   5.393   4.774  1.00  0.00     0.167 HD
ATOM     26  C   UNL     1       7.449   2.443   7.958  1.00  0.00     0.037 A 
ATOM     27  C   UNL     1       7.226   7.857   3.507  1.00  0.00     0.037 A 
ATOM     28  C   UNL     1       8.243   3.586   8.337  1.00  0.00     0.049 A 
ATOM     29  C   UNL     1       7.993   7.921   4.797  1.00  0.00     0.074 A 
ATOM     30  C   UNL     1       9.053   3.742   9.449  1.00  0.00     0.029 A 
ATOM     31  N   UNL     1       8.315   4.774   7.623  1.00  0.00    -0.354 N 
ATOM     32  N   UNL     1       8.155   6.997   5.712  1.00  0.00    -0.248 NA
ATOM     33  C   UNL     1       8.673   9.187   5.092  1.00  0.00     0.031 C 
ATOM     34  C   UNL     1       9.550   5.050   9.449  1.00  0.00     0.029 A 
ATOM     35  C   UNL     1       9.128   5.679   8.290  1.00  0.00     0.049 A 
ATOM     36  H   UNL     1       7.857   4.949   6.769  1.00  0.00     0.167 HD
ATOM     37  C   UNL     1       8.988   7.554   6.672  1.00  0.00     0.074 A 
ATOM     38  C   UNL     1       9.309   8.891   6.216  1.00  0.00     0.031 C 
ATOM     39  C   UNL     1       9.449   7.006   7.823  1.00  0.00     0.037 A 
BRANCH  26  40
ATOM     40  C   UNL     1       7.402   1.269   8.899  1.00  0.00     0.064 A 
ATOM     41  C   UNL     1       7.950   0.021   8.565  1.00  0.00     0.173 A 
ATOM     42  C   UNL     1       6.831   1.408  10.175  1.00  0.00     0.173 A 
ATOM     43  F   UNL     1       8.503  -0.175   7.358  1.00  0.00    -0.203 F 
ATOM     44  C   UNL     1       7.894  -1.050   9.455  1.00  0.00     0.198 A 
ATOM     45  C   UNL     1       6.812   0.347  11.076  1.00  0.00     0.198 A 
ATOM     46  F   UNL     1       6.299   2.580  10.554  1.00  0.00    -0.203 F 
ATOM     47  F   UNL     1       8.370  -2.249   9.089  1.00  0.00    -0.200 F 
ATOM     48  C   UNL     1       7.333  -0.884  10.712  1.00  0.00     0.200 A 
ATOM     49  F   UNL     1       6.286   0.517  12.297  1.00  0.00    -0.200 F 
ATOM     50  F   UNL     1       7.287  -1.913  11.569  1.00  0.00    -0.200 F 
ENDBRANCH  26  40
BRANCH  27  51
ATOM     51  C   UNL     1       7.194   9.014   2.573  1.00  0.00     0.064 A 
ATOM     52  C   UNL     1       8.358   9.452   1.927  1.00  0.00     0.173 A 
ATOM     53  C   UNL     1       6.004   9.712   2.316  1.00  0.00     0.173 A 
ATOM     54  F   UNL     1       9.524   8.828   2.150  1.00  0.00    -0.203 F 
ATOM     55  C   UNL     1       8.339  10.564   1.088  1.00  0.00     0.198 A 
ATOM     56  C   UNL     1       5.979  10.797   1.445  1.00  0.00     0.198 A 
ATOM     57  F   UNL     1       4.859   9.328   2.900  1.00  0.00    -0.203 F 
ATOM     58  F   UNL     1       9.479  11.000   0.533  1.00  0.00    -0.200 F 
ATOM     59  C   UNL     1       7.149  11.231   0.842  1.00  0.00     0.200 A 
ATOM     60  F   UNL     1       4.822  11.424   1.194  1.00  0.00    -0.200 F 
ATOM     61  F   UNL     1       7.131  12.299   0.033  1.00  0.00    -0.200 F 
ENDBRANCH  27  51
BRANCH  39  62
ATOM     62  C   UNL     1      10.411   7.828   8.637  1.00  0.00     0.064 A 
ATOM     63  C   UNL     1      10.025   9.011   9.284  1.00  0.00     0.173 A 
ATOM     64  C   UNL     1      11.745   7.413   8.776  1.00  0.00     0.173 A 
ATOM     65  F   UNL     1       8.766   9.462   9.176  1.00  0.00    -0.203 F 
ATOM     66  C   UNL     1      10.948   9.772   9.998  1.00  0.00     0.198 A 
ATOM     67  C   UNL     1      12.654   8.151   9.528  1.00  0.00     0.198 A 
ATOM     68  F   UNL     1      12.169   6.284   8.187  1.00  0.00    -0.203 F 
ATOM     69  F   UNL     1      10.574  10.938  10.542  1.00  0.00    -0.200 F 
ATOM     70  C   UNL     1      12.259   9.338  10.125  1.00  0.00     0.200 A 
ATOM     71  F   UNL     1      13.914   7.718   9.667  1.00  0.00    -0.200 F 
ATOM     72  F   UNL     1      13.145  10.069  10.815  1.00  0.00    -0.200 F 
ENDBRANCH  39  62
ENDBRANCH  13  14
ENDBRANCH   6   8
ENDBRANCH   3   4
ENDBRANCH   2   3
ENDBRANCH   1   2
BRANCH   1  73
ATOM     73  N   UNL     1       4.308  -3.652  -2.084  1.00  0.00    -0.352 N 
ATOM     74  C   UNL     1       5.162  -4.313  -2.929  1.00  0.00     0.251 C 
ATOM     75  H   UNL     1       3.644  -3.094  -2.549  1.00  0.00     0.163 HD
ATOM     76  O   UNL     1       5.346  -3.732  -3.997  1.00  0.00    -0.269 OA
BRANCH  74  77
ATOM     77  C   UNL     1       5.780  -5.714  -2.507  1.00  0.00     0.041 A 
ATOM     78  C   UNL     1       4.608  -6.587  -1.421  1.00  0.00     0.015 A 
ATOM     79  C   UNL     1       7.506  -6.772  -2.858  1.00  0.00     0.041 A 
ATOM     80  C   UNL     1       5.119  -8.169  -0.782  1.00  0.00     0.018 A 
ATOM     81  C   UNL     1       7.921  -8.192  -2.130  1.00  0.00     0.055 A 
ATOM     82  C   UNL     1       6.712  -8.908  -1.126  1.00  0.00     0.041 A 
ATOM     83  Br  UNL     1       7.140 -10.509  -0.208  1.00  0.00    -0.049 Br
BRANCH  81  84
ATOM     84  N   UNL     1       9.310  -8.376  -2.289  1.00  0.00    -0.331 N 
ATOM     85  H   UNL     1       9.661  -9.230  -1.948  1.00  0.00     0.169 HD
BRANCH  84  86
ATOM     86  C   UNL     1      10.262  -7.526  -2.859  1.00  0.00     0.177 C 
ATOM     87  S   UNL     1      11.846  -8.095  -2.876  1.00  0.00    -0.040 S 
BRANCH  86  88
ATOM     88  N   UNL     1      10.066  -6.218  -3.466  1.00  0.00    -0.298 N 
ATOM     89  C   UNL     1       9.215  -5.017  -3.918  1.00  0.00     0.267 C 
ATOM     90  H   UNL     1      10.977  -5.958  -3.733  1.00  0.00     0.172 HD
ATOM     91  O   UNL     1       9.755  -4.193  -4.657  1.00  0.00    -0.268 OA
BRANCH  89  92
ATOM     92  C   UNL     1       7.768  -4.875  -3.414  1.00  0.00     0.092 A 
ATOM     93  C   UNL     1       7.635  -5.064  -1.721  1.00  0.00     0.025 A 
ATOM     94  S   UNL     1       6.359  -6.231  -4.653  1.00  0.00    -0.139 S 
ATOM     95  C   UNL     1       6.705  -6.654  -1.206  1.00  0.00     0.012 A 
ATOM     96  C   UNL     1       5.885  -7.541  -2.780  1.00  0.00     0.065 A 
ENDBRANCH  89  92
ENDBRANCH  86  88
ENDBRANCH  84  86
ENDBRANCH  81  84
ENDBRANCH  74  77
ENDBRANCH   1  73
TORSDOF 14
