REMARK SMILES CC(C)(C)OC(=O)N[C@H](Cc1ccc(N=[N+]=[N-])cc1)C(=O)NCCCNC(=O)c1ccc(-c2c3nc(c(-c4c(F)c(F)c(F)c(F)c4F)c4ccc([nH]4)c(-c4c(F)c(F)c(F)c(F)c4F)c4nc(c(-c5c(F)c(F)c(F)c(F)c5F)c5ccc2[nH]5)C=C4)C=C3)cc1
REMARK SMILES IDX 23 1 22 2 20 3 21 4 9 6 8 7 6 8 7 9 5 11 2 12 1 13 3 14 4 15
REMARK SMILES IDX 10 16 11 17 12 18 19 19 13 20 18 21 14 22 15 23 16 24 17 25
REMARK SMILES IDX 24 26 25 27 26 28 27 29 28 31 29 32 30 33 91 34 31 35 90 36
REMARK SMILES IDX 32 37 33 38 34 39 84 40 35 41 89 42 83 43 85 44 36 45 88 46
REMARK SMILES IDX 82 47 81 48 37 50 69 51 49 52 68 53 50 54 53 55 67 56 86 57
REMARK SMILES IDX 51 58 52 59 66 61 87 62 54 63 38 64 39 65 47 66 40 67 41 68
REMARK SMILES IDX 45 69 48 70 42 71 43 72 46 73 44 74 70 75 71 76 79 77 72 78
REMARK SMILES IDX 73 79 77 80 80 81 74 82 75 83 78 84 76 85 55 86 56 87 64 88
REMARK SMILES IDX 57 89 58 90 62 91 65 92 59 93 60 94 63 95 61 96
REMARK H PARENT 22 5 8 10 26 30 85 49 53 60
REMARK Flexibility Score: inf
ROOT
ATOM      1  C   UNL     1       1.439  -6.310   4.952  1.00  0.00     0.117 C 
ENDROOT
BRANCH   1   2
ATOM      2  N   UNL     1       1.077  -6.332   3.547  1.00  0.00    -0.354 N 
ATOM      3  C   UNL     1       1.227  -5.374   2.587  1.00  0.00     0.243 C 
ATOM      4  O   UNL     1       0.584  -5.517   1.543  1.00  0.00    -0.273 OA
ATOM      5  H   UNL     1       0.657  -7.168   3.239  1.00  0.00     0.163 HD
BRANCH   3   6
ATOM      6  C   UNL     1       2.038  -4.086   2.850  1.00  0.00     0.179 C 
BRANCH   6   7
ATOM      7  N   UNL     1       3.336  -4.399   3.445  1.00  0.00    -0.309 N 
ATOM      8  C   UNL     1       4.365  -5.061   2.852  1.00  0.00     0.408 C 
ATOM      9  O   UNL     1       5.426  -5.202   3.443  1.00  0.00    -0.225 OA
ATOM     10  H   UNL     1       3.480  -4.100   4.372  1.00  0.00     0.167 HD
BRANCH   8  11
ATOM     11  O   UNL     1       4.063  -5.537   1.623  1.00  0.00    -0.444 OA
BRANCH  11  12
ATOM     12  C   UNL     1       5.034  -6.340   0.899  1.00  0.00     0.106 C 
ATOM     13  C   UNL     1       4.348  -6.720  -0.422  1.00  0.00     0.056 C 
ATOM     14  C   UNL     1       5.365  -7.633   1.656  1.00  0.00     0.056 C 
ATOM     15  C   UNL     1       6.294  -5.528   0.574  1.00  0.00     0.056 C 
ENDBRANCH  11  12
ENDBRANCH   8  11
ENDBRANCH   6   7
BRANCH   6  16
ATOM     16  C   UNL     1       1.165  -3.074   3.651  1.00  0.00     0.070 C 
BRANCH  16  17
ATOM     17  C   UNL     1       1.782  -2.479   4.901  1.00  0.00    -0.045 A 
ATOM     18  C   UNL     1       1.324  -2.840   6.172  1.00  0.00     0.004 A 
ATOM     19  C   UNL     1       2.866  -1.599   4.812  1.00  0.00     0.004 A 
ATOM     20  C   UNL     1       1.994  -2.411   7.321  1.00  0.00     0.010 A 
ATOM     21  C   UNL     1       3.527  -1.161   5.968  1.00  0.00     0.010 A 
ATOM     22  C   UNL     1       3.112  -1.578   7.241  1.00  0.00     0.038 A 
BRANCH  22  23
ATOM     23  N   UNL     1       3.731  -1.236   8.459  1.00  0.00    -0.061 NA
ATOM     24  N   UNL     1       4.698  -0.462   8.392  1.00  0.00     0.005 N 
ATOM     25  N   UNL     1       5.589   0.253   8.345  1.00  0.00    -0.003 NA
ENDBRANCH  22  23
ENDBRANCH  16  17
ENDBRANCH   6  16
ENDBRANCH   3   6
ENDBRANCH   1   2
BRANCH   1  26
ATOM     26  C   UNL     1       0.200  -6.178   5.830  1.00  0.00     0.042 C 
BRANCH  26  27
ATOM     27  C   UNL     1      -0.657  -7.432   5.873  1.00  0.00     0.118 C 
BRANCH  27  28
ATOM     28  N   UNL     1       0.016  -8.529   6.548  1.00  0.00    -0.352 N 
ATOM     29  C   UNL     1      -0.285  -9.164   7.726  1.00  0.00     0.251 C 
ATOM     30  H   UNL     1       0.815  -8.872   6.086  1.00  0.00     0.163 HD
ATOM     31  O   UNL     1       0.547  -9.905   8.242  1.00  0.00    -0.269 OA
BRANCH  29  32
ATOM     32  C   UNL     1      -1.593  -8.956   8.388  1.00  0.00     0.039 A 
ATOM     33  C   UNL     1      -1.639  -8.912   9.784  1.00  0.00     0.014 A 
ATOM     34  C   UNL     1      -2.774  -8.849   7.651  1.00  0.00     0.014 A 
ATOM     35  C   UNL     1      -2.858  -8.706  10.433  1.00  0.00     0.010 A 
ATOM     36  C   UNL     1      -3.972  -8.545   8.292  1.00  0.00     0.010 A 
ATOM     37  C   UNL     1      -4.030  -8.485   9.692  1.00  0.00    -0.014 A 
BRANCH  37  38
ATOM     38  C   UNL     1      -5.324  -8.200  10.365  1.00  0.00     0.031 A 
ATOM     39  C   UNL     1      -6.494  -9.130  10.185  1.00  0.00     0.074 A 
ATOM     40  C   UNL     1      -5.462  -7.072  11.089  1.00  0.00     0.049 A 
ATOM     41  N   UNL     1      -7.718  -9.019  10.638  1.00  0.00    -0.248 NA
ATOM     42  C   UNL     1      -6.270 -10.332   9.364  1.00  0.00     0.031 C 
ATOM     43  C   UNL     1      -4.419  -6.066  11.294  1.00  0.00     0.029 A 
ATOM     44  N   UNL     1      -6.541  -6.573  11.777  1.00  0.00    -0.354 N 
ATOM     45  C   UNL     1      -8.408 -10.117  10.141  1.00  0.00     0.074 A 
ATOM     46  C   UNL     1      -7.485 -10.859   9.312  1.00  0.00     0.031 C 
ATOM     47  C   UNL     1      -4.900  -5.082  12.070  1.00  0.00     0.029 A 
ATOM     48  C   UNL     1      -6.299  -5.362  12.379  1.00  0.00     0.049 A 
ATOM     49  H   UNL     1      -7.406  -7.040  11.834  1.00  0.00     0.167 HD
ATOM     50  C   UNL     1      -9.692 -10.481  10.371  1.00  0.00     0.037 A 
ATOM     51  C   UNL     1      -7.117  -4.558  13.085  1.00  0.00     0.037 A 
ATOM     52  C   UNL     1     -10.596  -9.756  11.225  1.00  0.00     0.049 A 
ATOM     53  C   UNL     1      -8.539  -4.992  13.325  1.00  0.00     0.074 A 
ATOM     54  C   UNL     1     -11.888 -10.091  11.592  1.00  0.00     0.029 A 
ATOM     55  N   UNL     1     -10.307  -8.546  11.837  1.00  0.00    -0.354 N 
ATOM     56  N   UNL     1      -9.152  -6.080  12.926  1.00  0.00    -0.248 NA
ATOM     57  C   UNL     1      -9.382  -4.090  14.123  1.00  0.00     0.031 C 
ATOM     58  C   UNL     1     -12.406  -9.049  12.366  1.00  0.00     0.029 A 
ATOM     59  C   UNL     1     -11.412  -8.101  12.547  1.00  0.00     0.049 A 
ATOM     60  H   UNL     1      -9.446  -8.072  11.777  1.00  0.00     0.167 HD
ATOM     61  C   UNL     1     -10.437  -6.009  13.449  1.00  0.00     0.074 A 
ATOM     62  C   UNL     1     -10.509  -4.781  14.211  1.00  0.00     0.031 C 
ATOM     63  C   UNL     1     -11.466  -6.880  13.309  1.00  0.00     0.037 A 
BRANCH  50  64
ATOM     64  C   UNL     1     -10.210 -11.715   9.689  1.00  0.00     0.064 A 
ATOM     65  C   UNL     1      -9.769 -12.999  10.040  1.00  0.00     0.173 A 
ATOM     66  C   UNL     1     -11.220 -11.613   8.719  1.00  0.00     0.173 A 
ATOM     67  F   UNL     1      -8.799 -13.154  10.955  1.00  0.00    -0.203 F 
ATOM     68  C   UNL     1     -10.303 -14.133   9.432  1.00  0.00     0.198 A 
ATOM     69  C   UNL     1     -11.775 -12.749   8.137  1.00  0.00     0.198 A 
ATOM     70  F   UNL     1     -11.683 -10.410   8.348  1.00  0.00    -0.203 F 
ATOM     71  F   UNL     1      -9.837 -15.347   9.755  1.00  0.00    -0.200 F 
ATOM     72  C   UNL     1     -11.313 -14.008   8.490  1.00  0.00     0.200 A 
ATOM     73  F   UNL     1     -12.763 -12.626   7.240  1.00  0.00    -0.200 F 
ATOM     74  F   UNL     1     -11.840 -15.101   7.920  1.00  0.00    -0.200 F 
ENDBRANCH  50  64
BRANCH  51  75
ATOM     75  C   UNL     1      -6.621  -3.257  13.611  1.00  0.00     0.064 A 
ATOM     76  C   UNL     1      -6.516  -3.023  14.990  1.00  0.00     0.173 A 
ATOM     77  C   UNL     1      -6.274  -2.208  12.747  1.00  0.00     0.173 A 
ATOM     78  F   UNL     1      -6.852  -3.987  15.860  1.00  0.00    -0.203 F 
ATOM     79  C   UNL     1      -6.124  -1.780  15.483  1.00  0.00     0.198 A 
ATOM     80  C   UNL     1      -5.845  -0.978  13.241  1.00  0.00     0.198 A 
ATOM     81  F   UNL     1      -6.347  -2.379  11.419  1.00  0.00    -0.203 F 
ATOM     82  F   UNL     1      -6.101  -1.564  16.805  1.00  0.00    -0.200 F 
ATOM     83  C   UNL     1      -5.785  -0.760  14.608  1.00  0.00     0.200 A 
ATOM     84  F   UNL     1      -5.500  -0.001  12.390  1.00  0.00    -0.200 F 
ATOM     85  F   UNL     1      -5.412   0.437  15.082  1.00  0.00    -0.200 F 
ENDBRANCH  51  75
BRANCH  63  86
ATOM     86  C   UNL     1     -12.744  -6.563  14.032  1.00  0.00     0.064 A 
ATOM     87  C   UNL     1     -13.566  -5.492  13.649  1.00  0.00     0.173 A 
ATOM     88  C   UNL     1     -13.171  -7.367  15.101  1.00  0.00     0.173 A 
ATOM     89  F   UNL     1     -13.198  -4.684  12.642  1.00  0.00    -0.203 F 
ATOM     90  C   UNL     1     -14.749  -5.218  14.330  1.00  0.00     0.198 A 
ATOM     91  C   UNL     1     -14.374  -7.113  15.754  1.00  0.00     0.198 A 
ATOM     92  F   UNL     1     -12.429  -8.409  15.502  1.00  0.00    -0.203 F 
ATOM     93  F   UNL     1     -15.488  -4.155  13.984  1.00  0.00    -0.200 F 
ATOM     94  C   UNL     1     -15.156  -6.034  15.375  1.00  0.00     0.200 A 
ATOM     95  F   UNL     1     -14.775  -7.915  16.750  1.00  0.00    -0.200 F 
ATOM     96  F   UNL     1     -16.300  -5.774  16.023  1.00  0.00    -0.200 F 
ENDBRANCH  63  86
ENDBRANCH  37  38
ENDBRANCH  29  32
ENDBRANCH  27  28
ENDBRANCH  26  27
ENDBRANCH   1  26
TORSDOF 16
