REMARK SMILES C[C@H](Oc1ccc(-c2ccccc2)cc1)C(=O)N[C@H](C)C(=O)NCCCNC(=O)c1ccc(-c2c3nc(c(-c4c(F)c(F)c(F)c(F)c4F)c4ccc([nH]4)c(-c4c(F)c(F)c(F)c(F)c4F)c4nc(c(-c5c(F)c(F)c(F)c(F)c5F)c5ccc2[nH]5)C=C4)C=C3)cc1
REMARK SMILES IDX 21 1 22 2 23 3 19 5 20 6 18 7 16 8 17 9 2 11 1 12 3 13 4 14
REMARK SMILES IDX 5 15 15 16 6 17 14 18 7 19 8 20 9 21 13 22 10 23 12 24 11 25
REMARK SMILES IDX 24 26 25 27 26 28 27 29 28 30 29 32 30 33 31 34 92 35 32 36
REMARK SMILES IDX 91 37 33 38 34 39 35 40 85 41 36 42 90 43 84 44 86 45 37 46
REMARK SMILES IDX 89 47 83 48 82 49 38 51 70 52 50 53 69 54 51 55 54 56 68 57
REMARK SMILES IDX 87 58 52 59 53 60 67 62 88 63 55 64 39 65 40 66 48 67 41 68
REMARK SMILES IDX 42 69 46 70 49 71 43 72 44 73 47 74 45 75 71 76 72 77 80 78
REMARK SMILES IDX 73 79 74 80 78 81 81 82 75 83 76 84 79 85 77 86 56 87 57 88
REMARK SMILES IDX 65 89 58 90 59 91 63 92 66 93 60 94 61 95 64 96 62 97
REMARK H PARENT 23 4 18 10 27 31 86 50 54 61
REMARK Flexibility Score: inf
ROOT
ATOM      1  C   UNL     1      -1.214   3.862   0.137  1.00  0.00     0.242 C 
ATOM      2  O   UNL     1      -0.409   4.641   0.661  1.00  0.00    -0.273 OA
ATOM      3  N   UNL     1      -2.488   4.318  -0.011  1.00  0.00    -0.354 N 
ATOM      4  H   UNL     1      -2.622   5.253   0.269  1.00  0.00     0.163 HD
ENDROOT
BRANCH   1   5
ATOM      5  C   UNL     1      -0.808   2.393  -0.143  1.00  0.00     0.168 C 
ATOM      6  C   UNL     1      -1.010   1.595   1.132  1.00  0.00     0.041 C 
BRANCH   5   7
ATOM      7  N   UNL     1      -1.292   1.894  -1.444  1.00  0.00    -0.341 N 
ATOM      8  C   UNL     1      -1.928   0.816  -1.972  1.00  0.00     0.261 C 
ATOM      9  O   UNL     1      -2.123   0.865  -3.195  1.00  0.00    -0.271 OA
ATOM     10  H   UNL     1      -1.091   2.548  -2.152  1.00  0.00     0.164 HD
BRANCH   8  11
ATOM     11  C   UNL     1      -2.506  -0.360  -1.170  1.00  0.00     0.258 C 
ATOM     12  C   UNL     1      -3.837   0.083  -0.561  1.00  0.00     0.064 C 
BRANCH  11  13
ATOM     13  O   UNL     1      -1.475  -0.810  -0.307  1.00  0.00    -0.481 OA
BRANCH  13  14
ATOM     14  C   UNL     1      -1.631  -1.827   0.577  1.00  0.00     0.120 A 
ATOM     15  C   UNL     1      -2.799  -2.511   0.871  1.00  0.00     0.047 A 
ATOM     16  C   UNL     1      -0.473  -2.136   1.294  1.00  0.00     0.047 A 
ATOM     17  C   UNL     1      -2.837  -3.401   1.948  1.00  0.00     0.012 A 
ATOM     18  C   UNL     1      -0.499  -3.053   2.348  1.00  0.00     0.012 A 
ATOM     19  C   UNL     1      -1.696  -3.679   2.718  1.00  0.00    -0.018 A 
BRANCH  19  20
ATOM     20  C   UNL     1      -1.777  -4.581   3.879  1.00  0.00    -0.018 A 
ATOM     21  C   UNL     1      -2.495  -5.786   3.804  1.00  0.00     0.009 A 
ATOM     22  C   UNL     1      -1.183  -4.247   5.108  1.00  0.00     0.009 A 
ATOM     23  C   UNL     1      -2.636  -6.616   4.918  1.00  0.00     0.001 A 
ATOM     24  C   UNL     1      -1.317  -5.079   6.223  1.00  0.00     0.001 A 
ATOM     25  C   UNL     1      -2.050  -6.259   6.128  1.00  0.00     0.000 A 
ENDBRANCH  19  20
ENDBRANCH  13  14
ENDBRANCH  11  13
ENDBRANCH   8  11
ENDBRANCH   5   7
ENDBRANCH   1   5
BRANCH   3  26
ATOM     26  C   UNL     1      -3.679   3.666  -0.509  1.00  0.00     0.117 C 
BRANCH  26  27
ATOM     27  C   UNL     1      -4.651   3.285   0.601  1.00  0.00     0.042 C 
BRANCH  27  28
ATOM     28  C   UNL     1      -5.365   4.472   1.232  1.00  0.00     0.118 C 
BRANCH  28  29
ATOM     29  N   UNL     1      -6.190   5.197   0.275  1.00  0.00    -0.352 N 
ATOM     30  C   UNL     1      -7.540   5.434   0.245  1.00  0.00     0.251 C 
ATOM     31  H   UNL     1      -5.692   5.582  -0.482  1.00  0.00     0.163 HD
ATOM     32  O   UNL     1      -8.043   5.895  -0.775  1.00  0.00    -0.269 OA
BRANCH  30  33
ATOM     33  C   UNL     1      -8.398   5.137   1.413  1.00  0.00     0.039 A 
ATOM     34  C   UNL     1      -9.700   4.679   1.187  1.00  0.00     0.014 A 
ATOM     35  C   UNL     1      -7.960   5.361   2.720  1.00  0.00     0.014 A 
ATOM     36  C   UNL     1     -10.539   4.399   2.267  1.00  0.00     0.010 A 
ATOM     37  C   UNL     1      -8.763   4.995   3.797  1.00  0.00     0.010 A 
ATOM     38  C   UNL     1     -10.066   4.525   3.583  1.00  0.00    -0.014 A 
BRANCH  38  39
ATOM     39  C   UNL     1     -10.927   4.189   4.745  1.00  0.00     0.031 A 
ATOM     40  C   UNL     1     -11.306   5.252   5.740  1.00  0.00     0.074 A 
ATOM     41  C   UNL     1     -11.319   2.915   4.937  1.00  0.00     0.049 A 
ATOM     42  N   UNL     1     -11.990   5.143   6.851  1.00  0.00    -0.248 NA
ATOM     43  C   UNL     1     -10.827   6.616   5.464  1.00  0.00     0.031 C 
ATOM     44  C   UNL     1     -10.976   1.786   4.071  1.00  0.00     0.029 A 
ATOM     45  N   UNL     1     -12.083   2.352   5.928  1.00  0.00    -0.354 N 
ATOM     46  C   UNL     1     -12.011   6.414   7.409  1.00  0.00     0.074 A 
ATOM     47  C   UNL     1     -11.220   7.267   6.549  1.00  0.00     0.031 C 
ATOM     48  C   UNL     1     -11.543   0.671   4.556  1.00  0.00     0.029 A 
ATOM     49  C   UNL     1     -12.257   0.997   5.787  1.00  0.00     0.049 A 
ATOM     50  H   UNL     1     -12.470   2.870   6.670  1.00  0.00     0.167 HD
ATOM     51  C   UNL     1     -12.654   6.839   8.523  1.00  0.00     0.037 A 
ATOM     52  C   UNL     1     -12.910   0.116   6.567  1.00  0.00     0.037 A 
ATOM     53  C   UNL     1     -13.457   5.991   9.365  1.00  0.00     0.049 A 
ATOM     54  C   UNL     1     -13.614   0.611   7.801  1.00  0.00     0.074 A 
ATOM     55  C   UNL     1     -14.191   6.333  10.487  1.00  0.00     0.029 A 
ATOM     56  N   UNL     1     -13.629   4.627   9.176  1.00  0.00    -0.354 N 
ATOM     57  N   UNL     1     -13.681   1.828   8.284  1.00  0.00    -0.248 NA
ATOM     58  C   UNL     1     -14.341  -0.389   8.594  1.00  0.00     0.031 C 
ATOM     59  C   UNL     1     -14.767   5.168  11.005  1.00  0.00     0.029 A 
ATOM     60  C   UNL     1     -14.441   4.109  10.173  1.00  0.00     0.049 A 
ATOM     61  H   UNL     1     -13.233   4.104   8.442  1.00  0.00     0.167 HD
ATOM     62  C   UNL     1     -14.479   1.747   9.417  1.00  0.00     0.074 A 
ATOM     63  C   UNL     1     -14.886   0.362   9.540  1.00  0.00     0.031 C 
ATOM     64  C   UNL     1     -14.842   2.729  10.278  1.00  0.00     0.037 A 
BRANCH  51  65
ATOM     65  C   UNL     1     -12.518   8.289   8.893  1.00  0.00     0.064 A 
ATOM     66  C   UNL     1     -13.096   9.305   8.116  1.00  0.00     0.173 A 
ATOM     67  C   UNL     1     -11.826   8.668  10.054  1.00  0.00     0.173 A 
ATOM     68  F   UNL     1     -13.759   8.999   6.990  1.00  0.00    -0.203 F 
ATOM     69  C   UNL     1     -12.959  10.645   8.468  1.00  0.00     0.198 A 
ATOM     70  C   UNL     1     -11.720  10.007  10.421  1.00  0.00     0.198 A 
ATOM     71  F   UNL     1     -11.258   7.739  10.838  1.00  0.00    -0.203 F 
ATOM     72  F   UNL     1     -13.472  11.599   7.679  1.00  0.00    -0.200 F 
ATOM     73  C   UNL     1     -12.277  10.995   9.623  1.00  0.00     0.200 A 
ATOM     74  F   UNL     1     -11.073  10.342  11.546  1.00  0.00    -0.200 F 
ATOM     75  F   UNL     1     -12.151  12.284   9.964  1.00  0.00    -0.200 F 
ENDBRANCH  51  65
BRANCH  52  76
ATOM     76  C   UNL     1     -12.947  -1.321   6.190  1.00  0.00     0.064 A 
ATOM     77  C   UNL     1     -14.140  -1.926   5.767  1.00  0.00     0.173 A 
ATOM     78  C   UNL     1     -11.795  -2.119   6.243  1.00  0.00     0.173 A 
ATOM     79  F   UNL     1     -15.272  -1.209   5.717  1.00  0.00    -0.203 F 
ATOM     80  C   UNL     1     -14.183  -3.278   5.433  1.00  0.00     0.198 A 
ATOM     81  C   UNL     1     -11.833  -3.464   5.879  1.00  0.00     0.198 A 
ATOM     82  F   UNL     1     -10.627  -1.588   6.633  1.00  0.00    -0.203 F 
ATOM     83  F   UNL     1     -15.346  -3.841   5.078  1.00  0.00    -0.200 F 
ATOM     84  C   UNL     1     -13.028  -4.044   5.484  1.00  0.00     0.200 A 
ATOM     85  F   UNL     1     -10.711  -4.196   5.912  1.00  0.00    -0.200 F 
ATOM     86  F   UNL     1     -13.069  -5.343   5.157  1.00  0.00    -0.200 F 
ENDBRANCH  52  76
BRANCH  64  87
ATOM     87  C   UNL     1     -15.754   2.350  11.409  1.00  0.00     0.064 A 
ATOM     88  C   UNL     1     -15.312   1.563  12.483  1.00  0.00     0.173 A 
ATOM     89  C   UNL     1     -17.080   2.809  11.434  1.00  0.00     0.173 A 
ATOM     90  F   UNL     1     -14.058   1.086  12.499  1.00  0.00    -0.203 F 
ATOM     91  C   UNL     1     -16.172   1.225  13.524  1.00  0.00     0.198 A 
ATOM     92  C   UNL     1     -17.927   2.498  12.493  1.00  0.00     0.198 A 
ATOM     93  F   UNL     1     -17.551   3.572  10.435  1.00  0.00    -0.203 F 
ATOM     94  F   UNL     1     -15.744   0.428  14.512  1.00  0.00    -0.200 F 
ATOM     95  C   UNL     1     -17.476   1.699  13.533  1.00  0.00     0.200 A 
ATOM     96  F   UNL     1     -19.182   2.969  12.507  1.00  0.00    -0.200 F 
ATOM     97  F   UNL     1     -18.300   1.378  14.539  1.00  0.00    -0.200 F 
ENDBRANCH  64  87
ENDBRANCH  38  39
ENDBRANCH  30  33
ENDBRANCH  28  29
ENDBRANCH  27  28
ENDBRANCH  26  27
ENDBRANCH   3  26
TORSDOF 15
