REMARK SMILES COc1ccc(-c2sc(N)nc2C(=O)NCCCNC(=O)c2ccc(-c3c4nc(c(-c5c(F)c(F)c(F)c(F)c5F)c5ccc([nH]5)c(-c5c(F)c(F)c(F)c(F)c5F)c5nc(c(-c6c(F)c(F)c(F)c(F)c6F)c6ccc3[nH]6)C=C5)C=C4)cc2)cc1OC
REMARK SMILES IDX 17 1 16 2 15 3 13 4 14 5 12 7 7 8 8 9 9 10 11 11 6 12 3 13
REMARK SMILES IDX 4 14 86 15 5 16 85 17 2 18 1 19 87 20 88 21 10 22 18 25
REMARK SMILES IDX 19 26 20 27 21 29 22 30 23 31 84 32 24 33 83 34 25 35 26 36
REMARK SMILES IDX 27 37 77 38 28 39 82 40 76 41 78 42 29 43 81 44 75 45 74 46
REMARK SMILES IDX 30 48 62 49 42 50 61 51 43 52 46 53 60 54 79 55 44 56 45 57
REMARK SMILES IDX 59 59 80 60 47 61 31 62 32 63 40 64 33 65 34 66 38 67 41 68
REMARK SMILES IDX 35 69 36 70 39 71 37 72 63 73 64 74 72 75 65 76 66 77 70 78
REMARK SMILES IDX 73 79 67 80 68 81 71 82 69 83 48 84 49 85 57 86 50 87 51 88
REMARK SMILES IDX 55 89 58 90 52 91 53 92 56 93 54 94
REMARK H PARENT 15 6 10 23 10 24 19 28 78 47 46 58
REMARK Flexibility Score: inf
ROOT
ATOM      1  C   UNL     1       6.368   5.272   7.290  1.00  0.00     0.042 C 
ENDROOT
BRANCH   1   2
ATOM      2  C   UNL     1       4.932   5.738   7.071  1.00  0.00     0.118 C 
BRANCH   2   3
ATOM      3  N   UNL     1       4.459   5.424   5.735  1.00  0.00    -0.351 N 
ATOM      4  C   UNL     1       3.554   4.505   5.266  1.00  0.00     0.271 C 
ATOM      5  O   UNL     1       3.371   4.523   4.045  1.00  0.00    -0.267 OA
ATOM      6  H   UNL     1       4.866   5.977   5.029  1.00  0.00     0.163 HD
BRANCH   4   7
ATOM      7  C   UNL     1       2.842   3.577   6.164  1.00  0.00     0.149 A 
ATOM      8  C   UNL     1       1.941   2.602   5.733  1.00  0.00     0.069 A 
ATOM      9  S   UNL     1       1.255   1.798   7.089  1.00  0.00    -0.096 S 
ATOM     10  C   UNL     1       2.235   2.726   8.135  1.00  0.00     0.181 A 
ATOM     11  N   UNL     1       3.008   3.599   7.549  1.00  0.00    -0.215 NA
BRANCH   8  12
ATOM     12  C   UNL     1       1.577   2.171   4.381  1.00  0.00    -0.002 A 
ATOM     13  C   UNL     1       1.032   1.489   1.707  1.00  0.00     0.160 A 
ATOM     14  C   UNL     1       0.021   2.007   2.531  1.00  0.00     0.051 A 
ATOM     15  C   UNL     1       2.319   1.293   2.217  1.00  0.00     0.161 A 
ATOM     16  C   UNL     1       0.290   2.343   3.864  1.00  0.00     0.014 A 
ATOM     17  C   UNL     1       2.568   1.625   3.555  1.00  0.00     0.060 A 
BRANCH  13  18
ATOM     18  O   UNL     1       0.753   1.335   0.375  1.00  0.00    -0.493 OA
ATOM     19  C   UNL     1       0.023   0.139   0.109  1.00  0.00     0.278 C 
ENDBRANCH  13  18
BRANCH  15  20
ATOM     20  O   UNL     1       3.444   0.849   1.579  1.00  0.00    -0.493 OA
ATOM     21  C   UNL     1       3.310   0.240   0.307  1.00  0.00     0.278 C 
ENDBRANCH  15  20
ENDBRANCH   8  12
BRANCH  10  22
ATOM     22  N   UNL     1       2.211   2.565   9.461  1.00  0.00    -0.375 N 
ATOM     23  H   UNL     1       1.614   1.895   9.865  1.00  0.00     0.159 HD
ATOM     24  H   UNL     1       2.791   3.117  10.035  1.00  0.00     0.159 HD
ENDBRANCH  10  22
ENDBRANCH   4   7
ENDBRANCH   2   3
ENDBRANCH   1   2
BRANCH   1  25
ATOM     25  C   UNL     1       7.394   6.015   6.436  1.00  0.00     0.118 C 
BRANCH  25  26
ATOM     26  N   UNL     1       7.433   7.446   6.719  1.00  0.00    -0.352 N 
ATOM     27  C   UNL     1       8.449   8.238   7.191  1.00  0.00     0.251 C 
ATOM     28  H   UNL     1       6.590   7.922   6.542  1.00  0.00     0.163 HD
ATOM     29  O   UNL     1       8.204   9.386   7.551  1.00  0.00    -0.269 OA
BRANCH  27  30
ATOM     30  C   UNL     1       9.831   7.722   7.285  1.00  0.00     0.039 A 
ATOM     31  C   UNL     1      10.601   8.064   8.400  1.00  0.00     0.014 A 
ATOM     32  C   UNL     1      10.385   6.941   6.269  1.00  0.00     0.014 A 
ATOM     33  C   UNL     1      11.900   7.567   8.527  1.00  0.00     0.010 A 
ATOM     34  C   UNL     1      11.649   6.381   6.433  1.00  0.00     0.010 A 
ATOM     35  C   UNL     1      12.422   6.688   7.564  1.00  0.00    -0.014 A 
BRANCH  35  36
ATOM     36  C   UNL     1      13.765   6.073   7.729  1.00  0.00     0.031 A 
ATOM     37  C   UNL     1      14.856   6.352   6.732  1.00  0.00     0.074 A 
ATOM     38  C   UNL     1      13.980   5.211   8.743  1.00  0.00     0.049 A 
ATOM     39  N   UNL     1      16.064   5.850   6.665  1.00  0.00    -0.248 NA
ATOM     40  C   UNL     1      14.544   7.301   5.651  1.00  0.00     0.031 C 
ATOM     41  C   UNL     1      12.988   4.822   9.748  1.00  0.00     0.029 A 
ATOM     42  N   UNL     1      15.098   4.493   9.090  1.00  0.00    -0.354 N 
ATOM     43  C   UNL     1      16.644   6.404   5.531  1.00  0.00     0.074 A 
ATOM     44  C   UNL     1      15.645   7.249   4.914  1.00  0.00     0.031 C 
ATOM     45  C   UNL     1      13.545   3.951  10.604  1.00  0.00     0.029 A 
ATOM     46  C   UNL     1      14.917   3.683  10.186  1.00  0.00     0.049 A 
ATOM     47  H   UNL     1      15.950   4.552   8.599  1.00  0.00     0.167 HD
ATOM     48  C   UNL     1      17.902   6.237   5.060  1.00  0.00     0.037 A 
ATOM     49  C   UNL     1      15.755   2.808  10.774  1.00  0.00     0.037 A 
ATOM     50  C   UNL     1      18.904   5.423   5.697  1.00  0.00     0.049 A 
ATOM     51  C   UNL     1      17.147   2.643  10.221  1.00  0.00     0.074 A 
ATOM     52  C   UNL     1      20.231   5.254   5.338  1.00  0.00     0.029 A 
ATOM     53  N   UNL     1      18.690   4.638   6.819  1.00  0.00    -0.354 N 
ATOM     54  N   UNL     1      17.710   3.241   9.199  1.00  0.00    -0.248 NA
ATOM     55  C   UNL     1      18.024   1.685  10.908  1.00  0.00     0.031 C 
ATOM     56  C   UNL     1      20.802   4.320   6.205  1.00  0.00     0.029 A 
ATOM     57  C   UNL     1      19.853   3.958   7.146  1.00  0.00     0.049 A 
ATOM     58  H   UNL     1      17.840   4.573   7.311  1.00  0.00     0.167 HD
ATOM     59  C   UNL     1      19.012   2.761   9.145  1.00  0.00     0.074 A 
ATOM     60  C   UNL     1      19.162   1.836  10.248  1.00  0.00     0.031 C 
ATOM     61  C   UNL     1      19.994   3.056   8.260  1.00  0.00     0.037 A 
BRANCH  48  62
ATOM     62  C   UNL     1      18.286   6.947   3.794  1.00  0.00     0.064 A 
ATOM     63  C   UNL     1      18.469   8.337   3.754  1.00  0.00     0.173 A 
ATOM     64  C   UNL     1      18.565   6.215   2.630  1.00  0.00     0.173 A 
ATOM     65  F   UNL     1      18.207   9.085   4.836  1.00  0.00    -0.203 F 
ATOM     66  C   UNL     1      18.907   8.969   2.592  1.00  0.00     0.198 A 
ATOM     67  C   UNL     1      19.032   6.845   1.480  1.00  0.00     0.198 A 
ATOM     68  F   UNL     1      18.413   4.882   2.616  1.00  0.00    -0.203 F 
ATOM     69  F   UNL     1      19.047  10.301   2.568  1.00  0.00    -0.200 F 
ATOM     70  C   UNL     1      19.200   8.222   1.461  1.00  0.00     0.200 A 
ATOM     71  F   UNL     1      19.331   6.120   0.393  1.00  0.00    -0.200 F 
ATOM     72  F   UNL     1      19.645   8.828   0.352  1.00  0.00    -0.200 F 
ENDBRANCH  48  62
BRANCH  49  73
ATOM     73  C   UNL     1      15.313   2.012  11.951  1.00  0.00     0.064 A 
ATOM     74  C   UNL     1      15.908   2.187  13.210  1.00  0.00     0.173 A 
ATOM     75  C   UNL     1      14.324   1.023  11.833  1.00  0.00     0.173 A 
ATOM     76  F   UNL     1      16.872   3.105  13.372  1.00  0.00    -0.203 F 
ATOM     77  C   UNL     1      15.564   1.375  14.289  1.00  0.00     0.198 A 
ATOM     78  C   UNL     1      13.954   0.238  12.923  1.00  0.00     0.198 A 
ATOM     79  F   UNL     1      13.717   0.817  10.655  1.00  0.00    -0.203 F 
ATOM     80  F   UNL     1      16.203   1.515  15.459  1.00  0.00    -0.200 F 
ATOM     81  C   UNL     1      14.586   0.404  14.146  1.00  0.00     0.200 A 
ATOM     82  F   UNL     1      12.996  -0.688  12.784  1.00  0.00    -0.200 F 
ATOM     83  F   UNL     1      14.262  -0.382  15.182  1.00  0.00    -0.200 F 
ENDBRANCH  49  73
BRANCH  61  84
ATOM     84  C   UNL     1      21.336   2.417   8.476  1.00  0.00     0.064 A 
ATOM     85  C   UNL     1      21.545   1.045   8.271  1.00  0.00     0.173 A 
ATOM     86  C   UNL     1      22.439   3.199   8.855  1.00  0.00     0.173 A 
ATOM     87  F   UNL     1      20.521   0.251   7.921  1.00  0.00    -0.203 F 
ATOM     88  C   UNL     1      22.800   0.475   8.469  1.00  0.00     0.198 A 
ATOM     89  C   UNL     1      23.699   2.632   9.015  1.00  0.00     0.198 A 
ATOM     90  F   UNL     1      22.296   4.518   9.055  1.00  0.00    -0.203 F 
ATOM     91  F   UNL     1      22.963  -0.847   8.322  1.00  0.00    -0.200 F 
ATOM     92  C   UNL     1      23.877   1.270   8.832  1.00  0.00     0.200 A 
ATOM     93  F   UNL     1      24.742   3.405   9.348  1.00  0.00    -0.200 F 
ATOM     94  F   UNL     1      25.086   0.720   9.012  1.00  0.00    -0.200 F 
ENDBRANCH  61  84
ENDBRANCH  35  36
ENDBRANCH  27  30
ENDBRANCH  25  26
ENDBRANCH   1  25
TORSDOF 14
