REMARK SMILES CCC([NH3+])(CC)C(=O)N1CCC[N@H+](CC(=O)NCCCNC(=O)c2ccc(-c3c4nc(c(-c5c(F)c(F)c(F)c(F)c5F)c5ccc([nH]5)c(-c5c(F)c(F)c(F)c(F)c5F)c5nc(c(-c6c(F)c(F)c(F)c(F)c6F)c6ccc3[nH]6)C=C5)C=C4)cc2)CC1
REMARK SMILES IDX 15 1 16 2 17 3 14 5 13 6 87 8 88 9 9 10 7 11 8 12 3 13 2 14
REMARK SMILES IDX 1 15 4 16 5 20 6 21 10 22 11 23 12 25 18 27 19 28 20 29
REMARK SMILES IDX 21 30 22 31 23 33 24 34 25 35 86 36 26 37 85 38 27 39 28 40
REMARK SMILES IDX 29 41 79 42 30 43 84 44 78 45 80 46 31 47 83 48 77 49 76 50
REMARK SMILES IDX 32 52 64 53 44 54 63 55 45 56 48 57 62 58 81 59 46 60 47 61
REMARK SMILES IDX 61 63 82 64 49 65 33 66 34 67 42 68 35 69 36 70 40 71 43 72
REMARK SMILES IDX 37 73 38 74 41 75 39 76 65 77 66 78 74 79 67 80 68 81 72 82
REMARK SMILES IDX 75 83 69 84 70 85 73 86 71 87 50 88 51 89 59 90 52 91 53 92
REMARK SMILES IDX 57 93 60 94 54 95 55 96 58 97 56 98
REMARK H PARENT 17 4 13 7 4 17 4 18 4 19 21 32 80 51 48 62
REMARK Flexibility Score: 80.00
ROOT
ATOM      1  C   UNL     1       3.989   3.267   4.609  1.00  0.00     0.275 C 
ATOM      2  O   UNL     1       3.055   3.336   5.414  1.00  0.00    -0.269 OA
ATOM      3  N   UNL     1       3.715   3.599   3.311  1.00  0.00    -0.351 N 
ATOM      4  H   UNL     1       2.761   3.572   3.069  1.00  0.00     0.163 HD
ENDROOT
BRANCH   1   5
ATOM      5  C   UNL     1       5.384   2.817   5.042  1.00  0.00     0.363 C 
BRANCH   5   6
ATOM      6  N   UNL     1       5.516   1.376   5.275  1.00  0.00    -0.326 N 
ATOM      7  H   UNL     1       6.515   1.433   5.476  1.00  0.00     0.348 HD
BRANCH   6   8
ATOM      8  C   UNL     1       5.586   0.464   4.154  1.00  0.00     0.284 C 
BRANCH   8   9
ATOM      9  C   UNL     1       4.313   0.150   3.355  1.00  0.00     0.181 C 
BRANCH   9  10
ATOM     10  N   UNL     1       3.050  -0.247   3.987  1.00  0.00    -0.331 N 
BRANCH  10  11
ATOM     11  C   UNL     1       2.088  -0.708   3.068  1.00  0.00     0.284 C 
ATOM     12  O   UNL     1       2.480  -1.164   1.983  1.00  0.00    -0.268 OA
BRANCH  11  13
ATOM     13  C   UNL     1       0.523  -0.468   3.273  1.00  0.00     0.173 C 
BRANCH  13  14
ATOM     14  C   UNL     1      -0.275  -1.133   2.095  1.00  0.00     0.075 C 
ATOM     15  C   UNL     1      -0.165  -0.479   0.728  1.00  0.00     0.011 C 
ENDBRANCH  13  14
BRANCH  13  16
ATOM     16  N   UNL     1       0.282   1.000   3.235  1.00  0.00    -0.345 N 
ATOM     17  H   UNL     1      -0.712   1.186   3.364  1.00  0.00     0.345 HD
ATOM     18  H   UNL     1       0.583   1.371   2.333  1.00  0.00     0.345 HD
ATOM     19  H   UNL     1       0.812   1.451   3.982  1.00  0.00     0.345 HD
ENDBRANCH  13  16
BRANCH  13  20
ATOM     20  C   UNL     1      -0.113  -1.024   4.567  1.00  0.00     0.075 C 
ATOM     21  C   UNL     1       0.284  -2.462   4.879  1.00  0.00     0.011 C 
ENDBRANCH  13  20
ENDBRANCH  11  13
ENDBRANCH  10  11
BRANCH  10  22
ATOM     22  C   UNL     1       2.777   0.129   5.372  1.00  0.00     0.126 C 
BRANCH  22  23
ATOM     23  C   UNL     1       3.864  -0.190   6.386  1.00  0.00     0.083 CG0
ATOM     24  G   UNL     1       4.990   0.832   6.508  1.00  0.00     0.000 G0
ENDBRANCH  22  23
ENDBRANCH  10  22
ENDBRANCH   9  10
ENDBRANCH   8   9
ENDBRANCH   6   8
BRANCH   6  25
ATOM     25  C   UNL     1       4.990   0.832   6.508  1.00  0.00     0.264 CG0
ATOM     26  G   UNL     1       3.864  -0.190   6.386  1.00  0.00     0.000 G0
ENDBRANCH   6  25
ENDBRANCH   5   6
ENDBRANCH   1   5
BRANCH   3  27
ATOM     27  C   UNL     1       4.608   3.986   2.228  1.00  0.00     0.118 C 
BRANCH  27  28
ATOM     28  C   UNL     1       4.699   2.999   1.059  1.00  0.00     0.042 C 
BRANCH  28  29
ATOM     29  C   UNL     1       3.366   2.583   0.422  1.00  0.00     0.118 C 
BRANCH  29  30
ATOM     30  N   UNL     1       3.025   3.413  -0.729  1.00  0.00    -0.352 N 
ATOM     31  C   UNL     1       2.883   3.084  -2.055  1.00  0.00     0.251 C 
ATOM     32  H   UNL     1       2.872   4.363  -0.521  1.00  0.00     0.163 HD
ATOM     33  O   UNL     1       2.844   3.999  -2.892  1.00  0.00    -0.269 OA
BRANCH  31  34
ATOM     34  C   UNL     1       2.761   1.682  -2.528  1.00  0.00     0.039 A 
ATOM     35  C   UNL     1       3.335   1.300  -3.744  1.00  0.00     0.014 A 
ATOM     36  C   UNL     1       1.988   0.753  -1.835  1.00  0.00     0.014 A 
ATOM     37  C   UNL     1       3.178  -0.011  -4.227  1.00  0.00     0.010 A 
ATOM     38  C   UNL     1       1.886  -0.573  -2.282  1.00  0.00     0.010 A 
ATOM     39  C   UNL     1       2.469  -0.975  -3.489  1.00  0.00    -0.014 A 
BRANCH  39  40
ATOM     40  C   UNL     1       2.371  -2.397  -3.943  1.00  0.00     0.031 A 
ATOM     41  C   UNL     1       1.044  -3.047  -4.259  1.00  0.00     0.074 A 
ATOM     42  C   UNL     1       3.486  -3.154  -3.998  1.00  0.00     0.049 A 
ATOM     43  N   UNL     1       0.799  -4.265  -4.686  1.00  0.00    -0.248 NA
ATOM     44  C   UNL     1      -0.166  -2.242  -4.039  1.00  0.00     0.031 C 
ATOM     45  C   UNL     1       4.825  -2.709  -3.616  1.00  0.00     0.029 A 
ATOM     46  N   UNL     1       3.667  -4.462  -4.383  1.00  0.00    -0.354 N 
ATOM     47  C   UNL     1      -0.585  -4.374  -4.771  1.00  0.00     0.074 A 
ATOM     48  C   UNL     1      -1.129  -3.116  -4.305  1.00  0.00     0.031 C 
ATOM     49  C   UNL     1       5.694  -3.714  -3.809  1.00  0.00     0.029 A 
ATOM     50  C   UNL     1       4.973  -4.881  -4.314  1.00  0.00     0.049 A 
ATOM     51  H   UNL     1       2.930  -5.043  -4.681  1.00  0.00     0.167 HD
ATOM     52  C   UNL     1      -1.334  -5.412  -5.221  1.00  0.00     0.037 A 
ATOM     53  C   UNL     1       5.538  -6.063  -4.628  1.00  0.00     0.037 A 
ATOM     54  C   UNL     1      -0.804  -6.655  -5.723  1.00  0.00     0.049 A 
ATOM     55  C   UNL     1       4.696  -7.178  -5.184  1.00  0.00     0.074 A 
ATOM     56  C   UNL     1      -1.486  -7.711  -6.308  1.00  0.00     0.029 A 
ATOM     57  N   UNL     1       0.532  -7.018  -5.691  1.00  0.00    -0.354 N 
ATOM     58  N   UNL     1       3.404  -7.214  -5.391  1.00  0.00    -0.248 NA
ATOM     59  C   UNL     1       5.398  -8.411  -5.570  1.00  0.00     0.031 C 
ATOM     60  C   UNL     1      -0.568  -8.727  -6.593  1.00  0.00     0.029 A 
ATOM     61  C   UNL     1       0.692  -8.287  -6.228  1.00  0.00     0.049 A 
ATOM     62  H   UNL     1       1.262  -6.457  -5.340  1.00  0.00     0.167 HD
ATOM     63  C   UNL     1       3.143  -8.453  -5.959  1.00  0.00     0.074 A 
ATOM     64  C   UNL     1       4.412  -9.140  -6.073  1.00  0.00     0.031 C 
ATOM     65  C   UNL     1       1.954  -8.969  -6.354  1.00  0.00     0.037 A 
BRANCH  52  66
ATOM     66  C   UNL     1      -2.829  -5.249  -5.227  1.00  0.00     0.064 A 
ATOM     67  C   UNL     1      -3.466  -4.388  -6.133  1.00  0.00     0.173 A 
ATOM     68  C   UNL     1      -3.638  -6.026  -4.383  1.00  0.00     0.173 A 
ATOM     69  F   UNL     1      -2.740  -3.626  -6.965  1.00  0.00    -0.203 F 
ATOM     70  C   UNL     1      -4.855  -4.291  -6.176  1.00  0.00     0.198 A 
ATOM     71  C   UNL     1      -5.027  -5.947  -4.448  1.00  0.00     0.198 A 
ATOM     72  F   UNL     1      -3.082  -6.880  -3.510  1.00  0.00    -0.203 F 
ATOM     73  F   UNL     1      -5.439  -3.435  -7.026  1.00  0.00    -0.200 F 
ATOM     74  C   UNL     1      -5.634  -5.076  -5.340  1.00  0.00     0.200 A 
ATOM     75  F   UNL     1      -5.780  -6.721  -3.654  1.00  0.00    -0.200 F 
ATOM     76  F   UNL     1      -6.971  -4.993  -5.395  1.00  0.00    -0.200 F 
ENDBRANCH  52  66
BRANCH  53  77
ATOM     77  C   UNL     1       7.006  -6.230  -4.486  1.00  0.00     0.064 A 
ATOM     78  C   UNL     1       7.834  -6.257  -5.617  1.00  0.00     0.173 A 
ATOM     79  C   UNL     1       7.610  -6.353  -3.228  1.00  0.00     0.173 A 
ATOM     80  F   UNL     1       7.296  -6.165  -6.842  1.00  0.00    -0.203 F 
ATOM     81  C   UNL     1       9.211  -6.417  -5.495  1.00  0.00     0.198 A 
ATOM     82  C   UNL     1       8.991  -6.488  -3.106  1.00  0.00     0.198 A 
ATOM     83  F   UNL     1       6.859  -6.328  -2.117  1.00  0.00    -0.203 F 
ATOM     84  F   UNL     1       9.976  -6.477  -6.593  1.00  0.00    -0.200 F 
ATOM     85  C   UNL     1       9.790  -6.526  -4.239  1.00  0.00     0.200 A 
ATOM     86  F   UNL     1       9.549  -6.581  -1.891  1.00  0.00    -0.200 F 
ATOM     87  F   UNL     1      11.116  -6.672  -4.122  1.00  0.00    -0.200 F 
ENDBRANCH  53  77
BRANCH  65  88
ATOM     88  C   UNL     1       1.962 -10.329  -6.988  1.00  0.00     0.064 A 
ATOM     89  C   UNL     1       2.178 -11.493  -6.236  1.00  0.00     0.173 A 
ATOM     90  C   UNL     1       1.714 -10.473  -8.362  1.00  0.00     0.173 A 
ATOM     91  F   UNL     1       2.435 -11.409  -4.922  1.00  0.00    -0.203 F 
ATOM     92  C   UNL     1       2.167 -12.748  -6.840  1.00  0.00     0.198 A 
ATOM     93  C   UNL     1       1.679 -11.731  -8.958  1.00  0.00     0.198 A 
ATOM     94  F   UNL     1       1.496  -9.392  -9.126  1.00  0.00    -0.203 F 
ATOM     95  F   UNL     1       2.418 -13.844  -6.109  1.00  0.00    -0.200 F 
ATOM     96  C   UNL     1       1.911 -12.867  -8.198  1.00  0.00     0.200 A 
ATOM     97  F   UNL     1       1.421 -11.844 -10.268  1.00  0.00    -0.200 F 
ATOM     98  F   UNL     1       1.897 -14.076  -8.775  1.00  0.00    -0.200 F 
ENDBRANCH  65  88
ENDBRANCH  39  40
ENDBRANCH  31  34
ENDBRANCH  29  30
ENDBRANCH  28  29
ENDBRANCH  27  28
ENDBRANCH   3  27
TORSDOF 16
