REMARK SMILES O=C(NCCCNC(=O)[C@@H]1[C@H](C(=O)Nc2ccc(Cn3cncn3)cc2)[C@@H]2C=C[C@H]1CC2)c1ccc(-c2c3nc(c(-c4c(F)c(F)c(F)c(F)c4F)c4ccc([nH]4)c(-c4c(F)c(F)c(F)c(F)c4F)c4nc(c(-c5c(F)c(F)c(F)c(F)c5F)c5ccc2[nH]5)C=C4)C=C3)cc1
REMARK SMILES IDX 6 1 5 2 4 3 3 4 1 5 2 6 33 8 34 9 95 10 35 11 94 12 36 13
REMARK SMILES IDX 37 14 38 15 88 16 39 17 93 18 87 19 89 20 40 21 92 22 86 23
REMARK SMILES IDX 85 24 41 26 73 27 53 28 72 29 54 30 57 31 71 32 90 33 55 34
REMARK SMILES IDX 56 35 70 37 91 38 58 39 42 40 43 41 51 42 44 43 45 44 49 45
REMARK SMILES IDX 52 46 46 47 47 48 50 49 48 50 74 51 75 52 83 53 76 54 77 55
REMARK SMILES IDX 81 56 84 57 78 58 79 59 82 60 80 61 59 62 60 63 68 64 61 65
REMARK SMILES IDX 62 66 66 67 69 68 63 69 64 70 67 71 65 72 7 73 8 74 9 76
REMARK SMILES IDX 10 77 11 78 30 79 27 80 29 81 31 82 28 83 32 84 12 85 13 86
REMARK SMILES IDX 14 87 15 89 16 90 26 91 17 92 25 93 18 94 19 95 20 96 21 97
REMARK SMILES IDX 24 98 22 99 23 100
REMARK H PARENT 3 7 89 25 57 36 7 75 14 88
REMARK Flexibility Score: inf
ROOT
ATOM      1  C   UNL     1       4.974  -3.128  -0.874  1.00  0.00     0.117 C 
ENDROOT
BRANCH   1   2
ATOM      2  C   UNL     1       5.098  -1.865  -0.032  1.00  0.00     0.042 C 
BRANCH   2   3
ATOM      3  C   UNL     1       4.656  -0.562  -0.706  1.00  0.00     0.118 C 
BRANCH   3   4
ATOM      4  N   UNL     1       3.244  -0.452  -1.006  1.00  0.00    -0.352 N 
ATOM      5  O   UNL     1       1.188   0.376  -0.949  1.00  0.00    -0.269 OA
ATOM      6  C   UNL     1       2.183   0.042  -0.297  1.00  0.00     0.251 C 
ATOM      7  H   UNL     1       3.000  -0.800  -1.894  1.00  0.00     0.163 HD
BRANCH   6   8
ATOM      8  C   UNL     1       2.109   0.091   1.188  1.00  0.00     0.039 A 
ATOM      9  C   UNL     1       3.175  -0.127   2.060  1.00  0.00     0.014 A 
ATOM     10  C   UNL     1       0.825   0.279   1.731  1.00  0.00     0.014 A 
ATOM     11  C   UNL     1       2.947  -0.323   3.416  1.00  0.00     0.010 A 
ATOM     12  C   UNL     1       0.594   0.130   3.091  1.00  0.00     0.010 A 
ATOM     13  C   UNL     1       1.650  -0.231   3.922  1.00  0.00    -0.014 A 
BRANCH  13  14
ATOM     14  C   UNL     1       1.472  -0.348   5.365  1.00  0.00     0.031 A 
ATOM     15  C   UNL     1       2.127   0.740   6.146  1.00  0.00     0.074 A 
ATOM     16  C   UNL     1       0.669  -1.266   5.937  1.00  0.00     0.049 A 
ATOM     17  N   UNL     1       3.015   0.639   7.082  1.00  0.00    -0.248 NA
ATOM     18  C   UNL     1       1.835   2.128   5.751  1.00  0.00     0.031 C 
ATOM     19  C   UNL     1      -0.248  -2.195   5.272  1.00  0.00     0.029 A 
ATOM     20  N   UNL     1       0.419  -1.487   7.260  1.00  0.00    -0.354 N 
ATOM     21  C   UNL     1       3.270   1.941   7.513  1.00  0.00     0.074 A 
ATOM     22  C   UNL     1       2.636   2.815   6.564  1.00  0.00     0.031 C 
ATOM     23  C   UNL     1      -1.110  -2.698   6.184  1.00  0.00     0.029 A 
ATOM     24  C   UNL     1      -0.730  -2.228   7.505  1.00  0.00     0.049 A 
ATOM     25  H   UNL     1       1.002  -1.151   7.978  1.00  0.00     0.167 HD
ATOM     26  C   UNL     1       3.783   2.187   8.751  1.00  0.00     0.037 A 
ATOM     27  C   UNL     1      -1.364  -2.373   8.697  1.00  0.00     0.037 A 
ATOM     28  C   UNL     1       4.455   1.023   9.270  1.00  0.00     0.049 A 
ATOM     29  C   UNL     1      -0.405  -2.001   9.766  1.00  0.00     0.074 A 
ATOM     30  C   UNL     1       5.533   0.257   8.873  1.00  0.00     0.029 A 
ATOM     31  N   UNL     1       3.811   0.279  10.226  1.00  0.00    -0.354 N 
ATOM     32  N   UNL     1       0.650  -2.699  10.077  1.00  0.00    -0.248 NA
ATOM     33  C   UNL     1      -0.389  -0.613  10.203  1.00  0.00     0.031 C 
ATOM     34  C   UNL     1       5.196  -1.079   9.244  1.00  0.00     0.029 A 
ATOM     35  C   UNL     1       3.960  -1.037   9.889  1.00  0.00     0.049 A 
ATOM     36  H   UNL     1       3.329   0.629  11.010  1.00  0.00     0.167 HD
ATOM     37  C   UNL     1       1.627  -1.753  10.343  1.00  0.00     0.074 A 
ATOM     38  C   UNL     1       0.908  -0.491  10.497  1.00  0.00     0.031 C 
ATOM     39  C   UNL     1       2.945  -2.032  10.128  1.00  0.00     0.037 A 
BRANCH  26  40
ATOM     40  C   UNL     1       3.307   3.307   9.659  1.00  0.00     0.064 A 
ATOM     41  C   UNL     1       3.879   3.416  10.946  1.00  0.00     0.173 A 
ATOM     42  C   UNL     1       2.108   4.029   9.473  1.00  0.00     0.173 A 
ATOM     43  F   UNL     1       5.033   2.797  11.238  1.00  0.00    -0.203 F 
ATOM     44  C   UNL     1       3.220   4.058  11.997  1.00  0.00     0.198 A 
ATOM     45  C   UNL     1       1.479   4.711  10.514  1.00  0.00     0.198 A 
ATOM     46  F   UNL     1       1.433   4.026   8.320  1.00  0.00    -0.203 F 
ATOM     47  F   UNL     1       3.724   3.988  13.237  1.00  0.00    -0.200 F 
ATOM     48  C   UNL     1       2.009   4.687  11.785  1.00  0.00     0.200 A 
ATOM     49  F   UNL     1       0.303   5.315  10.287  1.00  0.00    -0.200 F 
ATOM     50  F   UNL     1       1.332   5.226  12.806  1.00  0.00    -0.200 F 
ENDBRANCH  26  40
BRANCH  27  51
ATOM     51  C   UNL     1      -2.820  -2.494   8.960  1.00  0.00     0.064 A 
ATOM     52  C   UNL     1      -3.300  -2.938  10.204  1.00  0.00     0.173 A 
ATOM     53  C   UNL     1      -3.769  -1.910   8.098  1.00  0.00     0.173 A 
ATOM     54  F   UNL     1      -2.455  -3.460  11.106  1.00  0.00    -0.203 F 
ATOM     55  C   UNL     1      -4.642  -2.786  10.571  1.00  0.00     0.198 A 
ATOM     56  C   UNL     1      -5.109  -1.767   8.461  1.00  0.00     0.198 A 
ATOM     57  F   UNL     1      -3.397  -1.376   6.926  1.00  0.00    -0.203 F 
ATOM     58  F   UNL     1      -5.050  -3.163  11.791  1.00  0.00    -0.200 F 
ATOM     59  C   UNL     1      -5.543  -2.192   9.703  1.00  0.00     0.200 A 
ATOM     60  F   UNL     1      -5.961  -1.156   7.627  1.00  0.00    -0.200 F 
ATOM     61  F   UNL     1      -6.814  -1.991  10.076  1.00  0.00    -0.200 F 
ENDBRANCH  27  51
BRANCH  39  62
ATOM     62  C   UNL     1       3.329  -3.461   9.884  1.00  0.00     0.064 A 
ATOM     63  C   UNL     1       2.898  -4.213   8.778  1.00  0.00     0.173 A 
ATOM     64  C   UNL     1       4.284  -4.040  10.730  1.00  0.00     0.173 A 
ATOM     65  F   UNL     1       2.064  -3.692   7.869  1.00  0.00    -0.203 F 
ATOM     66  C   UNL     1       3.372  -5.505   8.558  1.00  0.00     0.198 A 
ATOM     67  C   UNL     1       4.784  -5.314  10.486  1.00  0.00     0.198 A 
ATOM     68  F   UNL     1       4.772  -3.344  11.769  1.00  0.00    -0.203 F 
ATOM     69  F   UNL     1       2.940  -6.209   7.501  1.00  0.00    -0.200 F 
ATOM     70  C   UNL     1       4.321  -6.050   9.407  1.00  0.00     0.200 A 
ATOM     71  F   UNL     1       5.740  -5.817  11.280  1.00  0.00    -0.200 F 
ATOM     72  F   UNL     1       4.812  -7.275   9.169  1.00  0.00    -0.200 F 
ENDBRANCH  39  62
ENDBRANCH  13  14
ENDBRANCH   6   8
ENDBRANCH   3   4
ENDBRANCH   2   3
ENDBRANCH   1   2
BRANCH   1  73
ATOM     73  N   UNL     1       5.808  -3.078  -2.047  1.00  0.00    -0.356 N 
ATOM     74  C   UNL     1       6.319  -4.033  -2.849  1.00  0.00     0.224 C 
ATOM     75  H   UNL     1       6.054  -2.164  -2.317  1.00  0.00     0.163 HD
ATOM     76  O   UNL     1       7.010  -3.591  -3.774  1.00  0.00    -0.275 OA
BRANCH  74  77
ATOM     77  C   UNL     1       6.218  -5.530  -2.604  1.00  0.00     0.098 C 
ATOM     78  C   UNL     1       6.546  -6.359  -3.885  1.00  0.00     0.098 C 
ATOM     79  C   UNL     1       5.082  -6.260  -1.817  1.00  0.00     0.025 C 
ATOM     80  C   UNL     1       5.911  -7.776  -3.767  1.00  0.00     0.025 C 
ATOM     81  C   UNL     1       3.992  -6.824  -2.704  1.00  0.00    -0.027 C 
ATOM     82  C   UNL     1       5.738  -7.546  -1.232  1.00  0.00     0.009 C 
ATOM     83  C   UNL     1       4.415  -7.629  -3.691  1.00  0.00    -0.027 C 
ATOM     84  C   UNL     1       6.325  -8.393  -2.399  1.00  0.00     0.009 C 
BRANCH  78  85
ATOM     85  C   UNL     1       6.436  -5.775  -5.321  1.00  0.00     0.228 C 
ATOM     86  O   UNL     1       7.440  -5.868  -6.050  1.00  0.00    -0.274 OA
ATOM     87  N   UNL     1       5.311  -5.334  -5.959  1.00  0.00    -0.326 N 
ATOM     88  H   UNL     1       5.454  -5.128  -6.911  1.00  0.00     0.169 HD
BRANCH  87  89
ATOM     89  C   UNL     1       4.000  -5.116  -5.532  1.00  0.00     0.041 A 
ATOM     90  C   UNL     1       2.968  -5.789  -6.185  1.00  0.00     0.026 A 
ATOM     91  C   UNL     1       3.677  -4.225  -4.518  1.00  0.00     0.026 A 
ATOM     92  C   UNL     1       1.679  -5.782  -5.642  1.00  0.00     0.008 A 
ATOM     93  C   UNL     1       2.394  -4.202  -3.971  1.00  0.00     0.008 A 
ATOM     94  C   UNL     1       1.408  -5.056  -4.474  1.00  0.00    -0.026 A 
BRANCH  94  95
ATOM     95  C   UNL     1       0.102  -5.215  -3.741  1.00  0.00     0.181 C 
BRANCH  95  96
ATOM     96  N   UNL     1      -0.813  -4.139  -4.040  1.00  0.00    -0.249 N 
ATOM     97  C   UNL     1      -1.522  -3.950  -5.183  1.00  0.00     0.220 A 
ATOM     98  N   UNL     1      -1.097  -3.192  -3.127  1.00  0.00    -0.160 NA
ATOM     99  N   UNL     1      -2.261  -2.872  -5.065  1.00  0.00    -0.224 NA
ATOM    100  C   UNL     1      -1.963  -2.433  -3.804  1.00  0.00     0.246 A 
ENDBRANCH  95  96
ENDBRANCH  94  95
ENDBRANCH  87  89
ENDBRANCH  78  85
ENDBRANCH  74  77
ENDBRANCH   1  73
TORSDOF 14
