REMARK SMILES CCOc1cc2nccc(Nc3ccc(C(=O)NCCCNC(=O)c4ccc(-c5c6nc(c(-c7c(F)c(F)c(F)c(F)c7F)c7ccc([nH]7)c(-c7c(F)c(F)c(F)c(F)c7F)c7nc(c(-c8c(F)c(F)c(F)c(F)c8F)c8ccc5[nH]8)C=C7)C=C6)cc4)cc3)c2cc1OCC
REMARK SMILES IDX 19 1 18 2 16 3 17 4 15 6 12 7 13 8 89 9 14 10 88 11 11 12
REMARK SMILES IDX 10 14 4 15 5 16 92 17 6 18 91 19 7 20 90 21 8 22 9 23 3 24
REMARK SMILES IDX 2 25 1 26 93 27 94 28 95 29 20 30 21 31 22 32 23 33 24 35
REMARK SMILES IDX 25 36 26 37 87 38 27 39 86 40 28 41 29 42 30 43 80 44 31 45
REMARK SMILES IDX 85 46 79 47 81 48 32 49 84 50 78 51 77 52 33 54 65 55 45 56
REMARK SMILES IDX 64 57 46 58 49 59 63 60 82 61 47 62 48 63 62 65 83 66 50 67
REMARK SMILES IDX 34 68 35 69 43 70 36 71 37 72 41 73 44 74 38 75 39 76 42 77
REMARK SMILES IDX 40 78 66 79 67 80 75 81 68 82 69 83 73 84 76 85 70 86 71 87
REMARK SMILES IDX 74 88 72 89 51 90 52 91 60 92 53 93 54 94 58 95 61 96 55 97
REMARK SMILES IDX 56 98 59 99 57 100
REMARK H PARENT 18 5 11 13 22 34 81 53 49 64
REMARK Flexibility Score: inf
ROOT
ATOM      1  C   UNL     1      13.321  -1.122  -4.485  1.00  0.00     0.118 C 
ENDROOT
BRANCH   1   2
ATOM      2  N   UNL     1      13.751  -1.756  -3.253  1.00  0.00    -0.352 N 
ATOM      3  C   UNL     1      13.054  -2.142  -2.139  1.00  0.00     0.251 C 
ATOM      4  O   UNL     1      13.679  -2.671  -1.221  1.00  0.00    -0.269 OA
ATOM      5  H   UNL     1      14.717  -1.942  -3.211  1.00  0.00     0.163 HD
BRANCH   3   6
ATOM      6  C   UNL     1      11.577  -2.022  -2.041  1.00  0.00     0.039 A 
ATOM      7  C   UNL     1       8.767  -2.040  -1.883  1.00  0.00     0.038 A 
ATOM      8  C   UNL     1       9.522  -3.041  -1.263  1.00  0.00     0.027 A 
ATOM      9  C   UNL     1       9.430  -1.008  -2.545  1.00  0.00     0.027 A 
ATOM     10  C   UNL     1      10.913  -3.038  -1.347  1.00  0.00     0.016 A 
ATOM     11  C   UNL     1      10.827  -0.975  -2.585  1.00  0.00     0.016 A 
BRANCH   7  12
ATOM     12  N   UNL     1       7.373  -2.130  -1.847  1.00  0.00    -0.355 N 
ATOM     13  H   UNL     1       7.006  -2.312  -0.952  1.00  0.00     0.167 HD
BRANCH  12  14
ATOM     14  C   UNL     1       6.392  -2.007  -2.857  1.00  0.00     0.050 A 
ATOM     15  C   UNL     1       2.359  -1.408  -1.765  1.00  0.00     0.163 A 
ATOM     16  C   UNL     1       2.719  -1.645  -3.100  1.00  0.00     0.079 A 
ATOM     17  C   UNL     1       3.356  -1.272  -0.801  1.00  0.00     0.161 A 
ATOM     18  C   UNL     1       4.053  -1.790  -3.489  1.00  0.00     0.076 A 
ATOM     19  C   UNL     1       4.682  -1.460  -1.167  1.00  0.00     0.063 A 
ATOM     20  N   UNL     1       4.357  -1.994  -4.783  1.00  0.00    -0.256 NA
ATOM     21  C   UNL     1       5.050  -1.748  -2.493  1.00  0.00     0.028 A 
ATOM     22  C   UNL     1       5.658  -2.160  -5.115  1.00  0.00     0.114 A 
ATOM     23  C   UNL     1       6.699  -2.167  -4.204  1.00  0.00     0.047 A 
BRANCH  15  24
ATOM     24  O   UNL     1       1.059  -1.436  -1.349  1.00  0.00    -0.490 OA
BRANCH  24  25
ATOM     25  C   UNL     1       0.169  -0.566  -2.050  1.00  0.00     0.226 C 
ATOM     26  C   UNL     1      -0.919  -0.161  -1.064  1.00  0.00     0.049 C 
ENDBRANCH  24  25
ENDBRANCH  15  24
BRANCH  17  27
ATOM     27  O   UNL     1       3.196  -0.989   0.526  1.00  0.00    -0.490 OA
BRANCH  27  28
ATOM     28  C   UNL     1       2.247   0.018   0.871  1.00  0.00     0.226 C 
ATOM     29  C   UNL     1       2.472   1.354   0.171  1.00  0.00     0.049 C 
ENDBRANCH  27  28
ENDBRANCH  17  27
ENDBRANCH  12  14
ENDBRANCH   7  12
ENDBRANCH   3   6
ENDBRANCH   1   2
BRANCH   1  30
ATOM     30  C   UNL     1      13.607   0.377  -4.439  1.00  0.00     0.042 C 
BRANCH  30  31
ATOM     31  C   UNL     1      15.087   0.700  -4.606  1.00  0.00     0.118 C 
BRANCH  31  32
ATOM     32  N   UNL     1      15.541   0.444  -5.964  1.00  0.00    -0.352 N 
ATOM     33  C   UNL     1      16.176   1.277  -6.848  1.00  0.00     0.251 C 
ATOM     34  H   UNL     1      15.367  -0.466  -6.298  1.00  0.00     0.163 HD
ATOM     35  O   UNL     1      16.270   0.949  -8.026  1.00  0.00    -0.269 OA
BRANCH  33  36
ATOM     36  C   UNL     1      16.746   2.564  -6.396  1.00  0.00     0.039 A 
ATOM     37  C   UNL     1      16.667   3.667  -7.251  1.00  0.00     0.014 A 
ATOM     38  C   UNL     1      17.416   2.675  -5.174  1.00  0.00     0.014 A 
ATOM     39  C   UNL     1      17.239   4.883  -6.874  1.00  0.00     0.010 A 
ATOM     40  C   UNL     1      17.921   3.907  -4.766  1.00  0.00     0.010 A 
ATOM     41  C   UNL     1      17.860   5.015  -5.623  1.00  0.00    -0.014 A 
BRANCH  41  42
ATOM     42  C   UNL     1      18.503   6.290  -5.218  1.00  0.00     0.031 A 
ATOM     43  C   UNL     1      19.993   6.345  -5.018  1.00  0.00     0.074 A 
ATOM     44  C   UNL     1      17.747   7.378  -4.985  1.00  0.00     0.049 A 
ATOM     45  N   UNL     1      20.739   7.337  -4.602  1.00  0.00    -0.248 NA
ATOM     46  C   UNL     1      20.743   5.109  -5.296  1.00  0.00     0.031 C 
ATOM     47  C   UNL     1      16.290   7.436  -5.107  1.00  0.00     0.029 A 
ATOM     48  N   UNL     1      18.099   8.643  -4.587  1.00  0.00    -0.354 N 
ATOM     49  C   UNL     1      22.035   6.839  -4.549  1.00  0.00     0.074 A 
ATOM     50  C   UNL     1      21.969   5.444  -4.923  1.00  0.00     0.031 C 
ATOM     51  C   UNL     1      15.874   8.677  -4.809  1.00  0.00     0.029 A 
ATOM     52  C   UNL     1      17.029   9.491  -4.442  1.00  0.00     0.049 A 
ATOM     53  H   UNL     1      19.030   8.916  -4.421  1.00  0.00     0.167 HD
ATOM     54  C   UNL     1      23.180   7.493  -4.239  1.00  0.00     0.037 A 
ATOM     55  C   UNL     1      16.988  10.780  -4.054  1.00  0.00     0.037 A 
ATOM     56  C   UNL     1      23.243   8.890  -3.900  1.00  0.00     0.049 A 
ATOM     57  C   UNL     1      18.276  11.487  -3.726  1.00  0.00     0.074 A 
ATOM     58  C   UNL     1      24.357   9.663  -3.623  1.00  0.00     0.029 A 
ATOM     59  N   UNL     1      22.140   9.726  -3.795  1.00  0.00    -0.354 N 
ATOM     60  N   UNL     1      19.502  11.023  -3.737  1.00  0.00    -0.248 NA
ATOM     61  C   UNL     1      18.173  12.902  -3.342  1.00  0.00     0.031 C 
ATOM     62  C   UNL     1      23.926  10.956  -3.310  1.00  0.00     0.029 A 
ATOM     63  C   UNL     1      22.547  11.003  -3.443  1.00  0.00     0.049 A 
ATOM     64  H   UNL     1      21.207   9.452  -3.948  1.00  0.00     0.167 HD
ATOM     65  C   UNL     1      20.318  12.093  -3.397  1.00  0.00     0.074 A 
ATOM     66  C   UNL     1      19.448  13.233  -3.196  1.00  0.00     0.031 C 
ATOM     67  C   UNL     1      21.667  12.129  -3.264  1.00  0.00     0.037 A 
BRANCH  54  68
ATOM     68  C   UNL     1      24.457   6.704  -4.256  1.00  0.00     0.064 A 
ATOM     69  C   UNL     1      25.015   6.231  -5.454  1.00  0.00     0.173 A 
ATOM     70  C   UNL     1      25.148   6.441  -3.063  1.00  0.00     0.173 A 
ATOM     71  F   UNL     1      24.389   6.444  -6.621  1.00  0.00    -0.203 F 
ATOM     72  C   UNL     1      26.199   5.497  -5.453  1.00  0.00     0.198 A 
ATOM     73  C   UNL     1      26.348   5.734  -3.070  1.00  0.00     0.198 A 
ATOM     74  F   UNL     1      24.663   6.874  -1.890  1.00  0.00    -0.203 F 
ATOM     75  F   UNL     1      26.683   5.010  -6.604  1.00  0.00    -0.200 F 
ATOM     76  C   UNL     1      26.867   5.255  -4.263  1.00  0.00     0.200 A 
ATOM     77  F   UNL     1      27.000   5.512  -1.920  1.00  0.00    -0.200 F 
ATOM     78  F   UNL     1      28.009   4.553  -4.265  1.00  0.00    -0.200 F 
ENDBRANCH  54  68
BRANCH  55  79
ATOM     79  C   UNL     1      15.686  11.493  -3.985  1.00  0.00     0.064 A 
ATOM     80  C   UNL     1      15.374  12.507  -4.901  1.00  0.00     0.173 A 
ATOM     81  C   UNL     1      14.732  11.180  -3.007  1.00  0.00     0.173 A 
ATOM     82  F   UNL     1      16.262  12.855  -5.844  1.00  0.00    -0.203 F 
ATOM     83  C   UNL     1      14.165  13.197  -4.827  1.00  0.00     0.198 A 
ATOM     84  C   UNL     1      13.512  11.851  -2.952  1.00  0.00     0.198 A 
ATOM     85  F   UNL     1      14.979  10.212  -2.112  1.00  0.00    -0.203 F 
ATOM     86  F   UNL     1      13.912  14.193  -5.687  1.00  0.00    -0.200 F 
ATOM     87  C   UNL     1      13.233  12.864  -3.856  1.00  0.00     0.200 A 
ATOM     88  F   UNL     1      12.607  11.516  -2.022  1.00  0.00    -0.200 F 
ATOM     89  F   UNL     1      12.069  13.525  -3.788  1.00  0.00    -0.200 F 
ENDBRANCH  55  79
BRANCH  67  90
ATOM     90  C   UNL     1      22.291  13.453  -2.933  1.00  0.00     0.064 A 
ATOM     91  C   UNL     1      22.166  14.031  -1.661  1.00  0.00     0.173 A 
ATOM     92  C   UNL     1      23.058  14.132  -3.892  1.00  0.00     0.173 A 
ATOM     93  F   UNL     1      21.431  13.428  -0.715  1.00  0.00    -0.203 F 
ATOM     94  C   UNL     1      22.765  15.254  -1.370  1.00  0.00     0.198 A 
ATOM     95  C   UNL     1      23.681  15.339  -3.588  1.00  0.00     0.198 A 
ATOM     96  F   UNL     1      23.214  13.618  -5.122  1.00  0.00    -0.203 F 
ATOM     97  F   UNL     1      22.593  15.811  -0.164  1.00  0.00    -0.200 F 
ATOM     98  C   UNL     1      23.528  15.902  -2.331  1.00  0.00     0.200 A 
ATOM     99  F   UNL     1      24.429  15.957  -4.513  1.00  0.00    -0.200 F 
ATOM    100  F   UNL     1      24.110  17.075  -2.046  1.00  0.00    -0.200 F 
ENDBRANCH  67  90
ENDBRANCH  41  42
ENDBRANCH  33  36
ENDBRANCH  31  32
ENDBRANCH  30  31
ENDBRANCH   1  30
TORSDOF 16
