REMARK SMILES Cc1cc(Cl)ccc1OCC(=O)Nc1ccc(CC(=O)NCCCNC(=O)c2ccc(-c3c4nc(c(-c5c(F)c(F)c(F)c(F)c5F)c5ccc([nH]5)c(-c5c(F)c(F)c(F)c(F)c5F)c5nc(c(-c6c(F)c(F)c(F)c(F)c6F)c6ccc3[nH]6)C=C5)C=C4)cc2)cc1
REMARK SMILES IDX 19 1 20 2 21 3 18 5 17 6 14 7 15 8 92 9 16 10 91 11 13 12
REMARK SMILES IDX 11 13 12 14 10 16 9 17 8 18 1 19 2 20 3 21 4 22 7 23 5 24
REMARK SMILES IDX 6 25 22 26 23 27 24 28 25 29 26 30 27 32 28 33 29 34 90 35
REMARK SMILES IDX 30 36 89 37 31 38 32 39 33 40 83 41 34 42 88 43 82 44 84 45
REMARK SMILES IDX 35 46 87 47 81 48 80 49 36 51 68 52 48 53 67 54 49 55 52 56
REMARK SMILES IDX 66 57 85 58 50 59 51 60 65 62 86 63 53 64 37 65 38 66 46 67
REMARK SMILES IDX 39 68 40 69 44 70 47 71 41 72 42 73 45 74 43 75 69 76 70 77
REMARK SMILES IDX 78 78 71 79 72 80 76 81 79 82 73 83 74 84 77 85 75 86 54 87
REMARK SMILES IDX 55 88 63 89 56 90 57 91 61 92 64 93 58 94 59 95 62 96 60 97
REMARK H PARENT 21 4 13 15 25 31 84 50 52 61
REMARK Flexibility Score: inf
ROOT
ATOM      1  C   UNL     1      -4.709  -6.304   4.798  1.00  0.00     0.224 C 
ATOM      2  O   UNL     1      -5.476  -6.667   5.692  1.00  0.00    -0.275 OA
ATOM      3  N   UNL     1      -3.365  -6.353   5.037  1.00  0.00    -0.356 N 
ATOM      4  H   UNL     1      -3.104  -6.742   5.903  1.00  0.00     0.163 HD
ENDROOT
BRANCH   1   5
ATOM      5  C   UNL     1      -5.228  -5.841   3.450  1.00  0.00     0.135 C 
BRANCH   5   6
ATOM      6  C   UNL     1      -5.083  -4.359   3.214  1.00  0.00    -0.039 A 
ATOM      7  C   UNL     1      -4.774  -1.597   2.746  1.00  0.00     0.041 A 
ATOM      8  C   UNL     1      -5.512  -2.054   3.843  1.00  0.00     0.026 A 
ATOM      9  C   UNL     1      -4.172  -2.529   1.911  1.00  0.00     0.026 A 
ATOM     10  C   UNL     1      -5.681  -3.425   4.067  1.00  0.00     0.006 A 
ATOM     11  C   UNL     1      -4.333  -3.896   2.130  1.00  0.00     0.006 A 
BRANCH   7  12
ATOM     12  N   UNL     1      -4.641  -0.213   2.582  1.00  0.00    -0.323 N 
ATOM     13  C   UNL     1      -4.343   0.557   1.492  1.00  0.00     0.262 C 
ATOM     14  O   UNL     1      -4.189   1.768   1.688  1.00  0.00    -0.271 OA
ATOM     15  H   UNL     1      -4.791   0.303   3.407  1.00  0.00     0.170 HD
BRANCH  13  16
ATOM     16  C   UNL     1      -4.388  -0.009   0.055  1.00  0.00     0.329 C 
BRANCH  16  17
ATOM     17  O   UNL     1      -3.329  -0.643  -0.633  1.00  0.00    -0.483 OA
BRANCH  17  18
ATOM     18  C   UNL     1      -2.035  -0.308  -0.370  1.00  0.00     0.123 A 
ATOM     19  C   UNL     1      -2.237   2.246  -0.614  1.00  0.00     0.048 C 
ATOM     20  C   UNL     1      -1.485   0.978  -0.335  1.00  0.00    -0.007 A 
ATOM     21  C   UNL     1      -0.105   1.112  -0.065  1.00  0.00     0.027 A 
ATOM     22  C   UNL     1       0.714  -0.006   0.087  1.00  0.00     0.041 A 
ATOM     23  C   UNL     1      -1.187  -1.424  -0.260  1.00  0.00     0.048 A 
ATOM     24  Cl  UNL     1       2.397   0.196   0.378  1.00  0.00    -0.084 Cl
ATOM     25  C   UNL     1       0.180  -1.280  -0.026  1.00  0.00     0.024 A 
ENDBRANCH  17  18
ENDBRANCH  16  17
ENDBRANCH  13  16
ENDBRANCH   7  12
ENDBRANCH   5   6
ENDBRANCH   1   5
BRANCH   3  26
ATOM     26  C   UNL     1      -2.267  -5.914   4.196  1.00  0.00     0.117 C 
BRANCH  26  27
ATOM     27  C   UNL     1      -1.729  -4.545   4.611  1.00  0.00     0.042 C 
BRANCH  27  28
ATOM     28  C   UNL     1      -1.064  -4.520   5.985  1.00  0.00     0.118 C 
BRANCH  28  29
ATOM     29  N   UNL     1       0.110  -5.375   6.053  1.00  0.00    -0.352 N 
ATOM     30  C   UNL     1       1.383  -5.116   6.483  1.00  0.00     0.251 C 
ATOM     31  H   UNL     1      -0.035  -6.296   5.737  1.00  0.00     0.163 HD
ATOM     32  O   UNL     1       2.259  -5.959   6.280  1.00  0.00    -0.269 OA
BRANCH  30  33
ATOM     33  C   UNL     1       1.736  -3.858   7.179  1.00  0.00     0.039 A 
ATOM     34  C   UNL     1       3.010  -3.319   6.962  1.00  0.00     0.014 A 
ATOM     35  C   UNL     1       0.880  -3.252   8.103  1.00  0.00     0.014 A 
ATOM     36  C   UNL     1       3.415  -2.173   7.649  1.00  0.00     0.010 A 
ATOM     37  C   UNL     1       1.258  -2.067   8.737  1.00  0.00     0.010 A 
ATOM     38  C   UNL     1       2.538  -1.530   8.535  1.00  0.00    -0.014 A 
BRANCH  38  39
ATOM     39  C   UNL     1       2.971  -0.323   9.284  1.00  0.00     0.031 A 
ATOM     40  C   UNL     1       3.123  -0.371  10.780  1.00  0.00     0.074 A 
ATOM     41  C   UNL     1       3.205   0.826   8.623  1.00  0.00     0.049 A 
ATOM     42  N   UNL     1       3.481   0.578  11.610  1.00  0.00    -0.248 NA
ATOM     43  C   UNL     1       2.807  -1.649  11.435  1.00  0.00     0.031 C 
ATOM     44  C   UNL     1       3.045   1.016   7.181  1.00  0.00     0.029 A 
ATOM     45  N   UNL     1       3.624   2.051   9.077  1.00  0.00    -0.354 N 
ATOM     46  C   UNL     1       3.423   0.015  12.878  1.00  0.00     0.074 A 
ATOM     47  C   UNL     1       2.940  -1.339  12.716  1.00  0.00     0.031 C 
ATOM     48  C   UNL     1       3.382   2.277   6.865  1.00  0.00     0.029 A 
ATOM     49  C   UNL     1       3.758   2.989   8.084  1.00  0.00     0.049 A 
ATOM     50  H   UNL     1       3.810   2.239  10.025  1.00  0.00     0.167 HD
ATOM     51  C   UNL     1       3.766   0.566  14.068  1.00  0.00     0.037 A 
ATOM     52  C   UNL     1       4.147   4.276   8.148  1.00  0.00     0.037 A 
ATOM     53  C   UNL     1       4.265   1.908  14.226  1.00  0.00     0.049 A 
ATOM     54  C   UNL     1       4.553   4.857   9.475  1.00  0.00     0.074 A 
ATOM     55  C   UNL     1       4.669   2.551  15.383  1.00  0.00     0.029 A 
ATOM     56  N   UNL     1       4.430   2.814  13.188  1.00  0.00    -0.354 N 
ATOM     57  N   UNL     1       4.549   4.298  10.660  1.00  0.00    -0.248 NA
ATOM     58  C   UNL     1       5.039   6.244   9.467  1.00  0.00     0.031 C 
ATOM     59  C   UNL     1       5.049   3.856  15.050  1.00  0.00     0.029 A 
ATOM     60  C   UNL     1       4.926   4.012  13.679  1.00  0.00     0.049 A 
ATOM     61  H   UNL     1       4.225   2.633  12.243  1.00  0.00     0.167 HD
ATOM     62  C   UNL     1       5.057   5.249  11.534  1.00  0.00     0.074 A 
ATOM     63  C   UNL     1       5.373   6.418  10.738  1.00  0.00     0.031 C 
ATOM     64  C   UNL     1       5.245   5.162  12.873  1.00  0.00     0.037 A 
BRANCH  51  65
ATOM     65  C   UNL     1       3.617  -0.291  15.292  1.00  0.00     0.064 A 
ATOM     66  C   UNL     1       4.452  -1.397  15.520  1.00  0.00     0.173 A 
ATOM     67  C   UNL     1       2.639  -0.001  16.255  1.00  0.00     0.173 A 
ATOM     68  F   UNL     1       5.395  -1.726  14.624  1.00  0.00    -0.203 F 
ATOM     69  C   UNL     1       4.289  -2.200  16.646  1.00  0.00     0.198 A 
ATOM     70  C   UNL     1       2.499  -0.787  17.396  1.00  0.00     0.198 A 
ATOM     71  F   UNL     1       1.818   1.047  16.091  1.00  0.00    -0.203 F 
ATOM     72  F   UNL     1       5.060  -3.284  16.811  1.00  0.00    -0.200 F 
ATOM     73  C   UNL     1       3.317  -1.891  17.585  1.00  0.00     0.200 A 
ATOM     74  F   UNL     1       1.567  -0.482  18.309  1.00  0.00    -0.200 F 
ATOM     75  F   UNL     1       3.161  -2.665  18.669  1.00  0.00    -0.200 F 
ENDBRANCH  51  65
BRANCH  52  76
ATOM     76  C   UNL     1       4.215   5.085   6.905  1.00  0.00     0.064 A 
ATOM     77  C   UNL     1       5.449   5.451   6.350  1.00  0.00     0.173 A 
ATOM     78  C   UNL     1       3.051   5.498   6.241  1.00  0.00     0.173 A 
ATOM     79  F   UNL     1       6.589   5.096   6.960  1.00  0.00    -0.203 F 
ATOM     80  C   UNL     1       5.517   6.215   5.187  1.00  0.00     0.198 A 
ATOM     81  C   UNL     1       3.120   6.239   5.064  1.00  0.00     0.198 A 
ATOM     82  F   UNL     1       1.847   5.168   6.729  1.00  0.00    -0.203 F 
ATOM     83  F   UNL     1       6.709   6.587   4.700  1.00  0.00    -0.200 F 
ATOM     84  C   UNL     1       4.352   6.603   4.541  1.00  0.00     0.200 A 
ATOM     85  F   UNL     1       1.994   6.602   4.436  1.00  0.00    -0.200 F 
ATOM     86  F   UNL     1       4.418   7.334   3.420  1.00  0.00    -0.200 F 
ENDBRANCH  52  76
BRANCH  64  87
ATOM     87  C   UNL     1       5.861   6.349  13.557  1.00  0.00     0.064 A 
ATOM     88  C   UNL     1       5.154   7.546  13.739  1.00  0.00     0.173 A 
ATOM     89  C   UNL     1       7.172   6.277  14.054  1.00  0.00     0.173 A 
ATOM     90  F   UNL     1       3.904   7.670  13.269  1.00  0.00    -0.203 F 
ATOM     91  C   UNL     1       5.749   8.640  14.363  1.00  0.00     0.198 A 
ATOM     92  C   UNL     1       7.752   7.362  14.704  1.00  0.00     0.198 A 
ATOM     93  F   UNL     1       7.888   5.152  13.912  1.00  0.00    -0.203 F 
ATOM     94  F   UNL     1       5.074   9.792  14.478  1.00  0.00    -0.200 F 
ATOM     95  C   UNL     1       7.044   8.545  14.850  1.00  0.00     0.200 A 
ATOM     96  F   UNL     1       9.000   7.265  15.184  1.00  0.00    -0.200 F 
ATOM     97  F   UNL     1       7.614   9.599  15.451  1.00  0.00    -0.200 F 
ENDBRANCH  64  87
ENDBRANCH  38  39
ENDBRANCH  30  33
ENDBRANCH  28  29
ENDBRANCH  27  28
ENDBRANCH  26  27
ENDBRANCH   3  26
TORSDOF 15
