REMARK SMILES CC(C)(C)OC(=O)N[C@@H](C(=O)NCCCNC(=O)c1ccc(-c2c3nc(c(-c4c(F)c(F)c(F)c(F)c4F)c4ccc([nH]4)c(-c4c(F)c(F)c(F)c(F)c4F)c4nc(c(-c5c(F)c(F)c(F)c(F)c5F)c5ccc2[nH]5)C=C4)C=C3)cc1)c1ccc([N+](=O)[O-])cc1
REMARK SMILES IDX 13 1 12 2 10 3 11 4 9 6 8 7 6 8 7 9 5 11 2 12 1 13 3 14 4 15
REMARK SMILES IDX 82 16 83 17 90 18 84 19 89 20 85 21 86 22 87 23 88 24 14 25
REMARK SMILES IDX 15 26 16 27 17 28 18 30 19 31 20 32 81 33 21 34 80 35 22 36
REMARK SMILES IDX 23 37 24 38 74 39 25 40 79 41 73 42 75 43 26 44 78 45 72 46
REMARK SMILES IDX 71 47 27 49 59 50 39 51 58 52 40 53 43 54 57 55 76 56 41 57
REMARK SMILES IDX 42 58 56 60 77 61 44 62 28 63 29 64 37 65 30 66 31 67 35 68
REMARK SMILES IDX 38 69 32 70 33 71 36 72 34 73 60 74 61 75 69 76 62 77 63 78
REMARK SMILES IDX 67 79 70 80 64 81 65 82 68 83 66 84 45 85 46 86 54 87 47 88
REMARK SMILES IDX 48 89 52 90 55 91 49 92 50 93 53 94 51 95
REMARK H PARENT 12 5 8 10 16 29 75 48 43 59
REMARK Flexibility Score: inf
ROOT
ATOM      1  C   UNL     1       4.008  -2.148   2.858  1.00  0.00     0.117 C 
ENDROOT
BRANCH   1   2
ATOM      2  N   UNL     1       4.236  -3.562   3.064  1.00  0.00    -0.354 N 
ATOM      3  C   UNL     1       3.307  -4.566   3.089  1.00  0.00     0.247 C 
ATOM      4  O   UNL     1       3.576  -5.526   3.816  1.00  0.00    -0.272 OA
ATOM      5  H   UNL     1       5.171  -3.834   3.202  1.00  0.00     0.163 HD
BRANCH   3   6
ATOM      6  C   UNL     1       1.969  -4.424   2.300  1.00  0.00     0.205 C 
BRANCH   6   7
ATOM      7  N   UNL     1       1.066  -3.675   3.171  1.00  0.00    -0.306 N 
ATOM      8  C   UNL     1       0.514  -2.451   2.955  1.00  0.00     0.408 C 
ATOM      9  O   UNL     1      -0.177  -1.918   3.815  1.00  0.00    -0.225 OA
ATOM     10  H   UNL     1       0.828  -4.110   4.021  1.00  0.00     0.168 HD
BRANCH   8  11
ATOM     11  O   UNL     1       0.830  -1.915   1.753  1.00  0.00    -0.444 OA
BRANCH  11  12
ATOM     12  C   UNL     1       0.404  -0.568   1.400  1.00  0.00     0.106 C 
ATOM     13  C   UNL     1       1.001  -0.307   0.006  1.00  0.00     0.056 C 
ATOM     14  C   UNL     1       0.980   0.482   2.360  1.00  0.00     0.056 C 
ATOM     15  C   UNL     1      -1.121  -0.471   1.305  1.00  0.00     0.056 C 
ENDBRANCH  11  12
ENDBRANCH   8  11
ENDBRANCH   6   7
BRANCH   6  16
ATOM     16  C   UNL     1       1.319  -5.761   1.903  1.00  0.00    -0.016 A 
ATOM     17  C   UNL     1      -0.047  -5.798   1.556  1.00  0.00     0.013 A 
ATOM     18  C   UNL     1       2.037  -6.971   1.840  1.00  0.00     0.013 A 
ATOM     19  C   UNL     1      -0.691  -7.003   1.251  1.00  0.00     0.086 A 
ATOM     20  C   UNL     1       1.401  -8.185   1.552  1.00  0.00     0.086 A 
ATOM     21  C   UNL     1       0.034  -8.198   1.273  1.00  0.00     0.269 A 
BRANCH  21  22
ATOM     22  N   UNL     1      -0.645  -9.472   1.008  1.00  0.00     0.062 N 
ATOM     23  O   UNL     1      -1.848  -9.434   0.712  1.00  0.00    -0.258 OA
ATOM     24  O   UNL     1       0.024 -10.512   1.098  1.00  0.00    -0.258 OA
ENDBRANCH  21  22
ENDBRANCH   6  16
ENDBRANCH   3   6
ENDBRANCH   1   2
BRANCH   1  25
ATOM     25  C   UNL     1       3.746  -1.444   4.191  1.00  0.00     0.042 C 
BRANCH  25  26
ATOM     26  C   UNL     1       4.947  -1.454   5.135  1.00  0.00     0.118 C 
BRANCH  26  27
ATOM     27  N   UNL     1       6.104  -0.789   4.555  1.00  0.00    -0.352 N 
ATOM     28  C   UNL     1       6.843   0.269   5.013  1.00  0.00     0.251 C 
ATOM     29  H   UNL     1       6.405  -1.161   3.694  1.00  0.00     0.163 HD
ATOM     30  O   UNL     1       7.631   0.825   4.253  1.00  0.00    -0.269 OA
BRANCH  28  31
ATOM     31  C   UNL     1       6.701   0.747   6.404  1.00  0.00     0.039 A 
ATOM     32  C   UNL     1       6.785   2.120   6.649  1.00  0.00     0.014 A 
ATOM     33  C   UNL     1       6.548  -0.144   7.470  1.00  0.00     0.014 A 
ATOM     34  C   UNL     1       6.677   2.600   7.954  1.00  0.00     0.010 A 
ATOM     35  C   UNL     1       6.356   0.341   8.761  1.00  0.00     0.010 A 
ATOM     36  C   UNL     1       6.434   1.717   9.019  1.00  0.00    -0.014 A 
BRANCH  36  37
ATOM     37  C   UNL     1       6.269   2.227  10.404  1.00  0.00     0.031 A 
ATOM     38  C   UNL     1       7.248   1.845  11.480  1.00  0.00     0.074 A 
ATOM     39  C   UNL     1       5.215   3.012  10.697  1.00  0.00     0.049 A 
ATOM     40  N   UNL     1       7.265   2.188  12.744  1.00  0.00    -0.248 NA
ATOM     41  C   UNL     1       8.340   0.938  11.093  1.00  0.00     0.031 C 
ATOM     42  C   UNL     1       4.172   3.411   9.751  1.00  0.00     0.029 A 
ATOM     43  N   UNL     1       4.846   3.616  11.873  1.00  0.00    -0.354 N 
ATOM     44  C   UNL     1       8.359   1.538  13.300  1.00  0.00     0.074 A 
ATOM     45  C   UNL     1       8.944   0.728  12.254  1.00  0.00     0.031 C 
ATOM     46  C   UNL     1       3.303   4.223  10.372  1.00  0.00     0.029 A 
ATOM     47  C   UNL     1       3.701   4.368  11.769  1.00  0.00     0.049 A 
ATOM     48  H   UNL     1       5.354   3.520  12.711  1.00  0.00     0.167 HD
ATOM     49  C   UNL     1       8.848   1.629  14.560  1.00  0.00     0.037 A 
ATOM     50  C   UNL     1       3.047   5.091  12.696  1.00  0.00     0.037 A 
ATOM     51  C   UNL     1       8.266   2.444  15.595  1.00  0.00     0.049 A 
ATOM     52  C   UNL     1       3.600   5.159  14.094  1.00  0.00     0.074 A 
ATOM     53  C   UNL     1       8.709   2.642  16.891  1.00  0.00     0.029 A 
ATOM     54  N   UNL     1       7.106   3.193  15.452  1.00  0.00    -0.354 N 
ATOM     55  N   UNL     1       4.677   4.599  14.589  1.00  0.00    -0.248 NA
ATOM     56  C   UNL     1       2.850   5.972  15.061  1.00  0.00     0.031 C 
ATOM     57  C   UNL     1       7.786   3.460  17.549  1.00  0.00     0.029 A 
ATOM     58  C   UNL     1       6.805   3.833  16.644  1.00  0.00     0.049 A 
ATOM     59  H   UNL     1       6.575   3.260  14.626  1.00  0.00     0.167 HD
ATOM     60  C   UNL     1       4.754   5.019  15.910  1.00  0.00     0.074 A 
ATOM     61  C   UNL     1       3.623   5.895  16.134  1.00  0.00     0.031 C 
ATOM     62  C   UNL     1       5.680   4.710  16.851  1.00  0.00     0.037 A 
BRANCH  49  63
ATOM     63  C   UNL     1      10.075   0.824  14.890  1.00  0.00     0.064 A 
ATOM     64  C   UNL     1      11.325   1.115  14.320  1.00  0.00     0.173 A 
ATOM     65  C   UNL     1      10.009  -0.231  15.813  1.00  0.00     0.173 A 
ATOM     66  F   UNL     1      11.444   2.106  13.424  1.00  0.00    -0.203 F 
ATOM     67  C   UNL     1      12.451   0.358  14.633  1.00  0.00     0.198 A 
ATOM     68  C   UNL     1      11.145  -0.961  16.152  1.00  0.00     0.198 A 
ATOM     69  F   UNL     1       8.843  -0.549  16.396  1.00  0.00    -0.203 F 
ATOM     70  F   UNL     1      13.620   0.619  14.031  1.00  0.00    -0.200 F 
ATOM     71  C   UNL     1      12.362  -0.673  15.555  1.00  0.00     0.200 A 
ATOM     72  F   UNL     1      11.061  -1.948  17.056  1.00  0.00    -0.200 F 
ATOM     73  F   UNL     1      13.449  -1.395  15.862  1.00  0.00    -0.200 F 
ENDBRANCH  49  63
BRANCH  50  74
ATOM     74  C   UNL     1       1.813   5.835  12.325  1.00  0.00     0.064 A 
ATOM     75  C   UNL     1       1.792   7.237  12.313  1.00  0.00     0.173 A 
ATOM     76  C   UNL     1       0.630   5.163  11.985  1.00  0.00     0.173 A 
ATOM     77  F   UNL     1       2.893   7.926  12.648  1.00  0.00    -0.203 F 
ATOM     78  C   UNL     1       0.629   7.937  12.001  1.00  0.00     0.198 A 
ATOM     79  C   UNL     1      -0.523   5.864  11.640  1.00  0.00     0.198 A 
ATOM     80  F   UNL     1       0.598   3.822  11.973  1.00  0.00    -0.203 F 
ATOM     81  F   UNL     1       0.623   9.276  12.050  1.00  0.00    -0.200 F 
ATOM     82  C   UNL     1      -0.526   7.251  11.659  1.00  0.00     0.200 A 
ATOM     83  F   UNL     1      -1.632   5.197  11.292  1.00  0.00    -0.200 F 
ATOM     84  F   UNL     1      -1.644   7.925  11.355  1.00  0.00    -0.200 F 
ENDBRANCH  50  74
BRANCH  62  85
ATOM     85  C   UNL     1       5.540   5.366  18.197  1.00  0.00     0.064 A 
ATOM     86  C   UNL     1       4.495   5.045  19.075  1.00  0.00     0.173 A 
ATOM     87  C   UNL     1       6.486   6.313  18.622  1.00  0.00     0.173 A 
ATOM     88  F   UNL     1       3.557   4.156  18.714  1.00  0.00    -0.203 F 
ATOM     89  C   UNL     1       4.380   5.675  20.312  1.00  0.00     0.198 A 
ATOM     90  C   UNL     1       6.389   6.912  19.874  1.00  0.00     0.198 A 
ATOM     91  F   UNL     1       7.511   6.651  17.825  1.00  0.00    -0.203 F 
ATOM     92  F   UNL     1       3.338   5.398  21.108  1.00  0.00    -0.200 F 
ATOM     93  C   UNL     1       5.331   6.601  20.714  1.00  0.00     0.200 A 
ATOM     94  F   UNL     1       7.320   7.793  20.267  1.00  0.00    -0.200 F 
ATOM     95  F   UNL     1       5.222   7.202  21.907  1.00  0.00    -0.200 F 
ENDBRANCH  62  85
ENDBRANCH  36  37
ENDBRANCH  28  31
ENDBRANCH  26  27
ENDBRANCH  25  26
ENDBRANCH   1  25
TORSDOF 15
