REMARK SMILES CC(=O)NCCNC(=O)C[N@@H+]1CC[C@@H](C(=O)NCCCNC(=O)c2ccc(-c3c4nc(c(-c5c(F)c(F)c(F)c(F)c5F)c5ccc([nH]5)c(-c5c(F)c(F)c(F)c(F)c5F)c5nc(c(-c6c(F)c(F)c(F)c(F)c6F)c6ccc3[nH]6)C=C5)C=C4)cc2)[C@H]1C
REMARK SMILES IDX 15 1 16 2 17 3 14 5 11 6 12 7 87 8 13 10 88 11 10 12 8 13
REMARK SMILES IDX 7 14 9 16 6 17 5 18 4 19 1 20 2 21 3 22 18 24 19 25 20 26
REMARK SMILES IDX 21 27 22 28 23 30 24 31 25 32 86 33 26 34 85 35 27 36 28 37
REMARK SMILES IDX 29 38 79 39 30 40 84 41 78 42 80 43 31 44 83 45 77 46 76 47
REMARK SMILES IDX 32 49 64 50 44 51 63 52 45 53 48 54 62 55 81 56 46 57 47 58
REMARK SMILES IDX 61 60 82 61 49 62 33 63 34 64 42 65 35 66 36 67 40 68 43 69
REMARK SMILES IDX 37 70 38 71 41 72 39 73 65 74 66 75 74 76 67 77 68 78 72 79
REMARK SMILES IDX 75 80 69 81 70 82 73 83 71 84 50 85 51 86 59 87 52 88 53 89
REMARK SMILES IDX 57 90 60 91 54 92 55 93 58 94 56 95
REMARK H PARENT 17 4 11 9 7 15 4 23 21 29 80 48 48 59
REMARK Flexibility Score: inf
ROOT
ATOM      1  C   UNL     1      -0.536  -5.229   4.325  1.00  0.00     0.229 C 
ATOM      2  O   UNL     1      -1.438  -5.507   3.523  1.00  0.00    -0.275 OA
ATOM      3  N   UNL     1      -0.934  -4.733   5.525  1.00  0.00    -0.356 N 
ATOM      4  H   UNL     1      -1.907  -4.595   5.591  1.00  0.00     0.163 HD
ENDROOT
BRANCH   1   5
ATOM      5  C   UNL     1       0.914  -5.412   3.891  1.00  0.00     0.142 C 
ATOM      6  N   UNL     1       2.928  -4.403   4.645  1.00  0.00    -0.324 N 
ATOM      7  C   UNL     1       3.158  -5.846   4.607  1.00  0.00     0.263 C 
ATOM      8  C   UNL     1       1.785  -4.153   3.744  1.00  0.00     0.194 C 
ATOM      9  H   UNL     1       2.692  -4.080   5.584  1.00  0.00     0.348 HD
ATOM     10  C   UNL     1       1.744  -6.405   4.697  1.00  0.00     0.081 C 
ATOM     11  C   UNL     1       1.091  -2.846   4.060  1.00  0.00     0.076 C 
BRANCH   6  12
ATOM     12  C   UNL     1       4.144  -3.618   4.360  1.00  0.00     0.363 C 
BRANCH  12  13
ATOM     13  C   UNL     1       3.969  -2.153   4.796  1.00  0.00     0.275 C 
ATOM     14  N   UNL     1       3.883  -1.145   3.877  1.00  0.00    -0.349 N 
ATOM     15  H   UNL     1       3.633  -0.271   4.255  1.00  0.00     0.163 HD
ATOM     16  O   UNL     1       3.859  -1.840   5.986  1.00  0.00    -0.269 OA
BRANCH  14  17
ATOM     17  C   UNL     1       4.095  -1.137   2.434  1.00  0.00     0.137 C 
BRANCH  17  18
ATOM     18  C   UNL     1       2.819  -1.030   1.579  1.00  0.00     0.137 C 
BRANCH  18  19
ATOM     19  N   UNL     1       1.906   0.014   2.024  1.00  0.00    -0.355 N 
ATOM     20  C   UNL     1       0.939   0.445  -0.199  1.00  0.00     0.114 C 
ATOM     21  C   UNL     1       0.953   0.657   1.289  1.00  0.00     0.216 C 
ATOM     22  O   UNL     1       0.133   1.381   1.853  1.00  0.00    -0.275 OA
ATOM     23  H   UNL     1       1.985   0.288   2.966  1.00  0.00     0.163 HD
ENDBRANCH  18  19
ENDBRANCH  17  18
ENDBRANCH  14  17
ENDBRANCH  12  13
ENDBRANCH   6  12
ENDBRANCH   1   5
BRANCH   3  24
ATOM     24  C   UNL     1      -0.211  -4.365   6.736  1.00  0.00     0.117 C 
BRANCH  24  25
ATOM     25  C   UNL     1      -0.364  -2.895   7.153  1.00  0.00     0.042 C 
BRANCH  25  26
ATOM     26  C   UNL     1      -1.783  -2.405   7.388  1.00  0.00     0.118 C 
BRANCH  26  27
ATOM     27  N   UNL     1      -2.213  -2.624   8.753  1.00  0.00    -0.352 N 
ATOM     28  C   UNL     1      -2.128  -1.811   9.856  1.00  0.00     0.251 C 
ATOM     29  H   UNL     1      -2.636  -3.498   8.916  1.00  0.00     0.163 HD
ATOM     30  O   UNL     1      -2.303  -2.311  10.966  1.00  0.00    -0.269 OA
BRANCH  28  31
ATOM     31  C   UNL     1      -1.827  -0.357   9.760  1.00  0.00     0.039 A 
ATOM     32  C   UNL     1      -1.095   0.235  10.798  1.00  0.00     0.014 A 
ATOM     33  C   UNL     1      -2.338   0.457   8.747  1.00  0.00     0.014 A 
ATOM     34  C   UNL     1      -0.863   1.616  10.808  1.00  0.00     0.010 A 
ATOM     35  C   UNL     1      -2.032   1.822   8.709  1.00  0.00     0.010 A 
ATOM     36  C   UNL     1      -1.316   2.424   9.754  1.00  0.00    -0.014 A 
BRANCH  36  37
ATOM     37  C   UNL     1      -1.093   3.898   9.758  1.00  0.00     0.031 A 
ATOM     38  C   UNL     1      -2.264   4.846   9.809  1.00  0.00     0.074 A 
ATOM     39  C   UNL     1       0.159   4.392   9.681  1.00  0.00     0.049 A 
ATOM     40  N   UNL     1      -2.276   6.157   9.765  1.00  0.00    -0.248 NA
ATOM     41  C   UNL     1      -3.602   4.242   9.895  1.00  0.00     0.031 C 
ATOM     42  C   UNL     1       1.379   3.591   9.590  1.00  0.00     0.029 A 
ATOM     43  N   UNL     1       0.611   5.690   9.657  1.00  0.00    -0.354 N 
ATOM     44  C   UNL     1      -3.616   6.526   9.796  1.00  0.00     0.074 A 
ATOM     45  C   UNL     1      -4.389   5.304   9.813  1.00  0.00     0.031 C 
ATOM     46  C   UNL     1       2.441   4.411   9.542  1.00  0.00     0.029 A 
ATOM     47  C   UNL     1       1.977   5.795   9.560  1.00  0.00     0.049 A 
ATOM     48  H   UNL     1       0.013   6.470   9.706  1.00  0.00     0.167 HD
ATOM     49  C   UNL     1      -4.154   7.770   9.832  1.00  0.00     0.037 A 
ATOM     50  C   UNL     1       2.768   6.884   9.483  1.00  0.00     0.037 A 
ATOM     51  C   UNL     1      -3.386   8.987   9.852  1.00  0.00     0.049 A 
ATOM     52  C   UNL     1       2.146   8.254   9.519  1.00  0.00     0.074 A 
ATOM     53  C   UNL     1      -3.838  10.291   9.961  1.00  0.00     0.029 A 
ATOM     54  N   UNL     1      -2.004   9.050   9.760  1.00  0.00    -0.354 N 
ATOM     55  N   UNL     1       0.883   8.588   9.618  1.00  0.00    -0.248 NA
ATOM     56  C   UNL     1       3.063   9.400   9.435  1.00  0.00     0.031 C 
ATOM     57  C   UNL     1      -2.733  11.146   9.887  1.00  0.00     0.029 A 
ATOM     58  C   UNL     1      -1.588  10.372   9.782  1.00  0.00     0.049 A 
ATOM     59  H   UNL     1      -1.406   8.271   9.689  1.00  0.00     0.167 HD
ATOM     60  C   UNL     1       0.854   9.976   9.632  1.00  0.00     0.074 A 
ATOM     61  C   UNL     1       2.228  10.424   9.549  1.00  0.00     0.031 C 
ATOM     62  C   UNL     1      -0.217  10.805   9.703  1.00  0.00     0.037 A 
BRANCH  49  63
ATOM     63  C   UNL     1      -5.652   7.880   9.857  1.00  0.00     0.064 A 
ATOM     64  C   UNL     1      -6.400   7.506  10.985  1.00  0.00     0.173 A 
ATOM     65  C   UNL     1      -6.347   8.407   8.757  1.00  0.00     0.173 A 
ATOM     66  F   UNL     1      -5.787   6.991  12.061  1.00  0.00    -0.203 F 
ATOM     67  C   UNL     1      -7.787   7.625  10.997  1.00  0.00     0.198 A 
ATOM     68  C   UNL     1      -7.731   8.553   8.785  1.00  0.00     0.198 A 
ATOM     69  F   UNL     1      -5.681   8.791   7.657  1.00  0.00    -0.203 F 
ATOM     70  F   UNL     1      -8.483   7.215  12.067  1.00  0.00    -0.200 F 
ATOM     71  C   UNL     1      -8.451   8.154   9.901  1.00  0.00     0.200 A 
ATOM     72  F   UNL     1      -8.370   9.079   7.731  1.00  0.00    -0.200 F 
ATOM     73  F   UNL     1      -9.786   8.274   9.918  1.00  0.00    -0.200 F 
ENDBRANCH  49  63
BRANCH  50  74
ATOM     74  C   UNL     1       4.242   6.723   9.383  1.00  0.00     0.064 A 
ATOM     75  C   UNL     1       5.080   7.083  10.448  1.00  0.00     0.173 A 
ATOM     76  C   UNL     1       4.844   6.212   8.224  1.00  0.00     0.173 A 
ATOM     77  F   UNL     1       4.553   7.600  11.568  1.00  0.00    -0.203 F 
ATOM     78  C   UNL     1       6.464   6.956  10.351  1.00  0.00     0.198 A 
ATOM     79  C   UNL     1       6.227   6.058   8.139  1.00  0.00     0.198 A 
ATOM     80  F   UNL     1       4.088   5.852   7.177  1.00  0.00    -0.203 F 
ATOM     81  F   UNL     1       7.244   7.352  11.367  1.00  0.00    -0.200 F 
ATOM     82  C   UNL     1       7.036   6.438   9.199  1.00  0.00     0.200 A 
ATOM     83  F   UNL     1       6.775   5.546   7.029  1.00  0.00    -0.200 F 
ATOM     84  F   UNL     1       8.367   6.312   9.107  1.00  0.00    -0.200 F 
ENDBRANCH  50  74
BRANCH  62  85
ATOM     85  C   UNL     1       0.054  12.281   9.720  1.00  0.00     0.064 A 
ATOM     86  C   UNL     1       0.480  12.963   8.571  1.00  0.00     0.173 A 
ATOM     87  C   UNL     1      -0.160  13.030  10.888  1.00  0.00     0.173 A 
ATOM     88  F   UNL     1       0.713  12.290   7.434  1.00  0.00    -0.203 F 
ATOM     89  C   UNL     1       0.704  14.337   8.596  1.00  0.00     0.198 A 
ATOM     90  C   UNL     1       0.037  14.408  10.901  1.00  0.00     0.198 A 
ATOM     91  F   UNL     1      -0.573  12.427  12.012  1.00  0.00    -0.203 F 
ATOM     92  F   UNL     1       1.153  14.961   7.498  1.00  0.00    -0.200 F 
ATOM     93  C   UNL     1       0.474  15.059   9.758  1.00  0.00     0.200 A 
ATOM     94  F   UNL     1      -0.197  15.106  12.021  1.00  0.00    -0.200 F 
ATOM     95  F   UNL     1       0.682  16.383   9.777  1.00  0.00    -0.200 F 
ENDBRANCH  62  85
ENDBRANCH  36  37
ENDBRANCH  28  31
ENDBRANCH  26  27
ENDBRANCH  25  26
ENDBRANCH  24  25
ENDBRANCH   3  24
TORSDOF 15
