REMARK SMILES [NH3+][C@]1(C(=O)NCCCNC(=O)c2ccc(-c3c4nc(c(-c5c(F)c(F)c(F)c(F)c5F)c5ccc([nH]5)c(-c5c(F)c(F)c(F)c(F)c5F)c5nc(c(-c6c(F)c(F)c(F)c(F)c6F)c6ccc3[nH]6)C=C5)C=C4)cc2)CCC[C@@H]1CCOc1ccc(CO)cc1
REMARK SMILES IDX 3 1 4 2 5 3 2 5 75 6 78 7 76 8 77 9 1 10 79 14 80 15 81 16
REMARK SMILES IDX 82 17 83 18 89 19 84 20 88 21 85 22 86 23 87 24 6 26 7 27
REMARK SMILES IDX 8 28 9 29 10 30 11 32 12 33 13 34 74 35 14 36 73 37 15 38
REMARK SMILES IDX 16 39 17 40 67 41 18 42 72 43 66 44 68 45 19 46 71 47 65 48
REMARK SMILES IDX 64 49 20 51 52 52 32 53 51 54 33 55 36 56 50 57 69 58 34 59
REMARK SMILES IDX 35 60 49 62 70 63 37 64 21 65 22 66 30 67 23 68 24 69 28 70
REMARK SMILES IDX 31 71 25 72 26 73 29 74 27 75 53 76 54 77 62 78 55 79 56 80
REMARK SMILES IDX 60 81 63 82 57 83 58 84 61 85 59 86 38 87 39 88 47 89 40 90
REMARK SMILES IDX 41 91 45 92 48 93 42 94 43 95 46 96 44 97
REMARK H PARENT 5 4 1 11 1 12 1 13 87 25 9 31 68 50 36 61
REMARK Flexibility Score: inf
ROOT
ATOM      1  C   UNL     1       0.836   0.452  -0.285  1.00  0.00     0.281 C 
ATOM      2  O   UNL     1       0.453   0.400  -1.466  1.00  0.00    -0.268 OA
ATOM      3  N   UNL     1       1.732   1.431  -0.051  1.00  0.00    -0.351 N 
ATOM      4  H   UNL     1       1.994   1.926  -0.860  1.00  0.00     0.163 HD
ENDROOT
BRANCH   1   5
ATOM      5  C   UNL     1       0.175  -0.502   0.776  1.00  0.00     0.176 C 
ATOM      6  C   UNL     1       0.012  -1.838  -0.013  1.00  0.00     0.079 C 
ATOM      7  C   UNL     1       0.892  -0.991   2.091  1.00  0.00     0.064 C 
ATOM      8  C   UNL     1      -0.310  -2.886   1.018  1.00  0.00     0.008 C 
ATOM      9  C   UNL     1       0.576  -2.506   2.183  1.00  0.00     0.011 C 
BRANCH   5  10
ATOM     10  N   UNL     1      -1.178   0.037   1.060  1.00  0.00    -0.345 N 
ATOM     11  H   UNL     1      -1.643  -0.556   1.747  1.00  0.00     0.345 HD
ATOM     12  H   UNL     1      -1.725   0.054   0.199  1.00  0.00     0.345 HD
ATOM     13  H   UNL     1      -1.095   0.984   1.429  1.00  0.00     0.345 HD
ENDBRANCH   5  10
BRANCH   7  14
ATOM     14  C   UNL     1       0.601  -0.181   3.408  1.00  0.00     0.052 C 
BRANCH  14  15
ATOM     15  C   UNL     1       0.505  -0.878   4.780  1.00  0.00     0.230 C 
BRANCH  15  16
ATOM     16  O   UNL     1       1.784  -1.090   5.404  1.00  0.00    -0.494 OA
BRANCH  16  17
ATOM     17  C   UNL     1       2.412  -2.203   4.927  1.00  0.00     0.119 A 
ATOM     18  C   UNL     1       1.923  -3.483   5.173  1.00  0.00     0.047 A 
ATOM     19  C   UNL     1       3.546  -2.011   4.145  1.00  0.00     0.047 A 
ATOM     20  C   UNL     1       2.475  -4.568   4.492  1.00  0.00     0.010 A 
ATOM     21  C   UNL     1       4.095  -3.091   3.459  1.00  0.00     0.010 A 
ATOM     22  C   UNL     1       3.525  -4.369   3.583  1.00  0.00    -0.022 A 
BRANCH  22  23
ATOM     23  C   UNL     1       3.987  -5.484   2.684  1.00  0.00     0.191 C 
BRANCH  23  24
ATOM     24  O   UNL     1       5.323  -5.864   2.970  1.00  0.00    -0.392 OA
ATOM     25  H   UNL     1       5.912  -5.108   2.825  1.00  0.00     0.211 HD
ENDBRANCH  23  24
ENDBRANCH  22  23
ENDBRANCH  16  17
ENDBRANCH  15  16
ENDBRANCH  14  15
ENDBRANCH   7  14
ENDBRANCH   1   5
BRANCH   3  26
ATOM     26  C   UNL     1       2.380   1.899   1.143  1.00  0.00     0.118 C 
BRANCH  26  27
ATOM     27  C   UNL     1       3.848   1.489   1.195  1.00  0.00     0.042 C 
BRANCH  27  28
ATOM     28  C   UNL     1       4.721   2.206   0.163  1.00  0.00     0.118 C 
BRANCH  28  29
ATOM     29  N   UNL     1       4.737   3.649   0.357  1.00  0.00    -0.352 N 
ATOM     30  C   UNL     1       5.780   4.525   0.496  1.00  0.00     0.251 C 
ATOM     31  H   UNL     1       3.846   4.066   0.395  1.00  0.00     0.163 HD
ATOM     32  O   UNL     1       5.550   5.677   0.852  1.00  0.00    -0.269 OA
BRANCH  30  33
ATOM     33  C   UNL     1       7.175   4.113   0.227  1.00  0.00     0.039 A 
ATOM     34  C   UNL     1       8.190   4.648   1.028  1.00  0.00     0.014 A 
ATOM     35  C   UNL     1       7.503   3.283  -0.848  1.00  0.00     0.014 A 
ATOM     36  C   UNL     1       9.524   4.327   0.774  1.00  0.00     0.010 A 
ATOM     37  C   UNL     1       8.830   2.911  -1.063  1.00  0.00     0.010 A 
ATOM     38  C   UNL     1       9.853   3.440  -0.263  1.00  0.00    -0.014 A 
BRANCH  38  39
ATOM     39  C   UNL     1      11.267   3.076  -0.532  1.00  0.00     0.031 A 
ATOM     40  C   UNL     1      11.927   3.500  -1.814  1.00  0.00     0.074 A 
ATOM     41  C   UNL     1      11.939   2.325   0.361  1.00  0.00     0.049 A 
ATOM     42  N   UNL     1      13.134   3.237  -2.250  1.00  0.00    -0.248 NA
ATOM     43  C   UNL     1      11.117   4.305  -2.740  1.00  0.00     0.031 C 
ATOM     44  C   UNL     1      11.391   1.819   1.620  1.00  0.00     0.029 A 
ATOM     45  N   UNL     1      13.226   1.850   0.341  1.00  0.00    -0.354 N 
ATOM     46  C   UNL     1      13.220   3.828  -3.504  1.00  0.00     0.074 A 
ATOM     47  C   UNL     1      11.931   4.424  -3.780  1.00  0.00     0.031 C 
ATOM     48  C   UNL     1      12.341   1.120   2.262  1.00  0.00     0.029 A 
ATOM     49  C   UNL     1      13.552   1.103   1.446  1.00  0.00     0.049 A 
ATOM     50  H   UNL     1      13.855   2.027  -0.395  1.00  0.00     0.167 HD
ATOM     51  C   UNL     1      14.285   3.886  -4.339  1.00  0.00     0.037 A 
ATOM     52  C   UNL     1      14.698   0.472   1.763  1.00  0.00     0.037 A 
ATOM     53  C   UNL     1      15.575   3.319  -4.046  1.00  0.00     0.049 A 
ATOM     54  C   UNL     1      15.869   0.562   0.823  1.00  0.00     0.074 A 
ATOM     55  C   UNL     1      16.736   3.379  -4.798  1.00  0.00     0.029 A 
ATOM     56  N   UNL     1      15.874   2.586  -2.907  1.00  0.00    -0.354 N 
ATOM     57  N   UNL     1      15.958   1.178  -0.330  1.00  0.00    -0.248 NA
ATOM     58  C   UNL     1      17.100  -0.127   1.233  1.00  0.00     0.031 C 
ATOM     59  C   UNL     1      17.727   2.650  -4.131  1.00  0.00     0.029 A 
ATOM     60  C   UNL     1      17.196   2.172  -2.944  1.00  0.00     0.049 A 
ATOM     61  H   UNL     1      15.240   2.390  -2.179  1.00  0.00     0.167 HD
ATOM     62  C   UNL     1      17.258   0.973  -0.772  1.00  0.00     0.074 A 
ATOM     63  C   UNL     1      17.926   0.189   0.245  1.00  0.00     0.031 C 
ATOM     64  C   UNL     1      17.844   1.395  -1.919  1.00  0.00     0.037 A 
BRANCH  51  65
ATOM     65  C   UNL     1      14.101   4.593  -5.651  1.00  0.00     0.064 A 
ATOM     66  C   UNL     1      13.958   5.987  -5.721  1.00  0.00     0.173 A 
ATOM     67  C   UNL     1      14.102   3.872  -6.855  1.00  0.00     0.173 A 
ATOM     68  F   UNL     1      13.940   6.721  -4.598  1.00  0.00    -0.203 F 
ATOM     69  C   UNL     1      13.795   6.630  -6.946  1.00  0.00     0.198 A 
ATOM     70  C   UNL     1      13.967   4.522  -8.079  1.00  0.00     0.198 A 
ATOM     71  F   UNL     1      14.241   2.538  -6.845  1.00  0.00    -0.203 F 
ATOM     72  F   UNL     1      13.614   7.957  -6.984  1.00  0.00    -0.200 F 
ATOM     73  C   UNL     1      13.806   5.898  -8.123  1.00  0.00     0.200 A 
ATOM     74  F   UNL     1      13.990   3.815  -9.217  1.00  0.00    -0.200 F 
ATOM     75  F   UNL     1      13.655   6.520  -9.301  1.00  0.00    -0.200 F 
ENDBRANCH  51  65
BRANCH  52  76
ATOM     76  C   UNL     1      14.802  -0.274   3.043  1.00  0.00     0.064 A 
ATOM     77  C   UNL     1      15.597   0.207   4.092  1.00  0.00     0.173 A 
ATOM     78  C   UNL     1      14.108  -1.476   3.246  1.00  0.00     0.173 A 
ATOM     79  F   UNL     1      16.294   1.342   3.937  1.00  0.00    -0.203 F 
ATOM     80  C   UNL     1      15.708  -0.495   5.290  1.00  0.00     0.198 A 
ATOM     81  C   UNL     1      14.199  -2.163   4.454  1.00  0.00     0.198 A 
ATOM     82  F   UNL     1      13.330  -1.975   2.274  1.00  0.00    -0.203 F 
ATOM     83  F   UNL     1      16.506  -0.034   6.263  1.00  0.00    -0.200 F 
ATOM     84  C   UNL     1      15.005  -1.676   5.473  1.00  0.00     0.200 A 
ATOM     85  F   UNL     1      13.508  -3.297   4.631  1.00  0.00    -0.200 F 
ATOM     86  F   UNL     1      15.108  -2.348   6.627  1.00  0.00    -0.200 F 
ENDBRANCH  52  76
BRANCH  64  87
ATOM     87  C   UNL     1      19.287   1.037  -2.121  1.00  0.00     0.064 A 
ATOM     88  C   UNL     1      19.681  -0.273  -2.429  1.00  0.00     0.173 A 
ATOM     89  C   UNL     1      20.282   2.022  -2.039  1.00  0.00     0.173 A 
ATOM     90  F   UNL     1      18.768  -1.254  -2.503  1.00  0.00    -0.203 F 
ATOM     91  C   UNL     1      21.023  -0.588  -2.624  1.00  0.00     0.198 A 
ATOM     92  C   UNL     1      21.620   1.709  -2.261  1.00  0.00     0.198 A 
ATOM     93  F   UNL     1      19.955   3.291  -1.752  1.00  0.00    -0.203 F 
ATOM     94  F   UNL     1      21.383  -1.855  -2.872  1.00  0.00    -0.200 F 
ATOM     95  C   UNL     1      21.990   0.404  -2.547  1.00  0.00     0.200 A 
ATOM     96  F   UNL     1      22.551   2.671  -2.198  1.00  0.00    -0.200 F 
ATOM     97  F   UNL     1      23.281   0.099  -2.739  1.00  0.00    -0.200 F 
ENDBRANCH  64  87
ENDBRANCH  38  39
ENDBRANCH  30  33
ENDBRANCH  28  29
ENDBRANCH  27  28
ENDBRANCH  26  27
ENDBRANCH   3  26
TORSDOF 17
