REMARK SMILES CC[C@@](O)(C(=O)NCCCNC(=O)c1ccc(-c2c3nc(c(-c4c(F)c(F)c(F)c(F)c4F)c4ccc([nH]4)c(-c4c(F)c(F)c(F)c(F)c4F)c4nc(c(-c5c(F)c(F)c(F)c(F)c5F)c5ccc2[nH]5)C=C4)C=C3)cc1)[C@@H](C)c1ccc(OC)c(OC)c1
REMARK SMILES IDX 8 1 7 2 5 3 6 4 3 6 2 7 1 8 4 9 77 11 78 12 79 13 80 14
REMARK SMILES IDX 88 15 81 16 85 17 82 18 86 19 87 20 83 21 84 22 9 23 10 24
REMARK SMILES IDX 11 25 12 26 13 28 14 29 15 30 76 31 16 32 75 33 17 34 18 35
REMARK SMILES IDX 19 36 69 37 20 38 74 39 68 40 70 41 21 42 73 43 67 44 66 45
REMARK SMILES IDX 22 47 54 48 34 49 53 50 35 51 38 52 52 53 71 54 36 55 37 56
REMARK SMILES IDX 51 58 72 59 39 60 23 61 24 62 32 63 25 64 26 65 30 66 33 67
REMARK SMILES IDX 27 68 28 69 31 70 29 71 55 72 56 73 64 74 57 75 58 76 62 77
REMARK SMILES IDX 65 78 59 79 60 80 63 81 61 82 40 83 41 84 49 85 42 86 43 87
REMARK SMILES IDX 47 88 50 89 44 90 45 91 48 92 46 93
REMARK H PARENT 7 5 4 10 11 27 70 46 38 57
REMARK Flexibility Score: inf
ROOT
ATOM      1  C   UNL     1      -1.997   3.127  -0.849  1.00  0.00     0.117 C 
ENDROOT
BRANCH   1   2
ATOM      2  N   UNL     1      -0.829   3.962  -0.594  1.00  0.00    -0.354 N 
ATOM      3  C   UNL     1       0.505   3.654  -0.528  1.00  0.00     0.252 C 
ATOM      4  O   UNL     1       1.281   4.612  -0.472  1.00  0.00    -0.272 OA
ATOM      5  H   UNL     1      -1.035   4.913  -0.443  1.00  0.00     0.163 HD
BRANCH   3   6
ATOM      6  C   UNL     1       1.005   2.162  -0.523  1.00  0.00     0.149 C 
BRANCH   6   7
ATOM      7  C   UNL     1       0.482   1.514   0.786  1.00  0.00     0.043 C 
ATOM      8  C   UNL     1       0.752   0.042   1.040  1.00  0.00     0.007 C 
ENDBRANCH   6   7
BRANCH   6   9
ATOM      9  O   UNL     1       0.379   1.580  -1.678  1.00  0.00    -0.379 OA
ATOM     10  H   UNL     1      -0.585   1.611  -1.573  1.00  0.00     0.212 HD
ENDBRANCH   6   9
BRANCH   6  11
ATOM     11  C   UNL     1       2.582   2.111  -0.699  1.00  0.00     0.058 C 
ATOM     12  C   UNL     1       3.287   2.592   0.594  1.00  0.00     0.016 C 
BRANCH  11  13
ATOM     13  C   UNL     1       3.230   0.792  -1.183  1.00  0.00    -0.038 A 
ATOM     14  C   UNL     1       2.501  -0.342  -1.550  1.00  0.00     0.008 A 
ATOM     15  C   UNL     1       4.634   0.683  -1.266  1.00  0.00     0.054 A 
ATOM     16  C   UNL     1       3.126  -1.556  -1.825  1.00  0.00     0.051 A 
ATOM     17  C   UNL     1       5.284  -0.529  -1.586  1.00  0.00     0.160 A 
ATOM     18  C   UNL     1       4.514  -1.674  -1.821  1.00  0.00     0.160 A 
BRANCH  17  19
ATOM     19  O   UNL     1       6.649  -0.638  -1.595  1.00  0.00    -0.493 OA
ATOM     20  C   UNL     1       7.374   0.528  -1.973  1.00  0.00     0.278 C 
ENDBRANCH  17  19
BRANCH  18  21
ATOM     21  O   UNL     1       4.917  -2.960  -2.048  1.00  0.00    -0.493 OA
ATOM     22  C   UNL     1       6.272  -3.195  -2.388  1.00  0.00     0.278 C 
ENDBRANCH  18  21
ENDBRANCH  11  13
ENDBRANCH   6  11
ENDBRANCH   3   6
ENDBRANCH   1   2
BRANCH   1  23
ATOM     23  C   UNL     1      -2.896   2.952   0.370  1.00  0.00     0.042 C 
BRANCH  23  24
ATOM     24  C   UNL     1      -3.541   4.237   0.860  1.00  0.00     0.118 C 
BRANCH  24  25
ATOM     25  N   UNL     1      -4.541   4.745  -0.066  1.00  0.00    -0.352 N 
ATOM     26  C   UNL     1      -5.902   4.838   0.066  1.00  0.00     0.251 C 
ATOM     27  H   UNL     1      -4.184   5.074  -0.922  1.00  0.00     0.163 HD
ATOM     28  O   UNL     1      -6.588   5.106  -0.923  1.00  0.00    -0.269 OA
BRANCH  26  29
ATOM     29  C   UNL     1      -6.563   4.609   1.370  1.00  0.00     0.039 A 
ATOM     30  C   UNL     1      -7.789   3.936   1.395  1.00  0.00     0.014 A 
ATOM     31  C   UNL     1      -6.013   5.089   2.562  1.00  0.00     0.014 A 
ATOM     32  C   UNL     1      -8.431   3.700   2.613  1.00  0.00     0.010 A 
ATOM     33  C   UNL     1      -6.605   4.773   3.781  1.00  0.00     0.010 A 
ATOM     34  C   UNL     1      -7.829   4.090   3.820  1.00  0.00    -0.014 A 
BRANCH  34  35
ATOM     35  C   UNL     1      -8.478   3.822   5.128  1.00  0.00     0.031 A 
ATOM     36  C   UNL     1      -8.908   4.967   6.005  1.00  0.00     0.074 A 
ATOM     37  C   UNL     1      -8.626   2.553   5.555  1.00  0.00     0.049 A 
ATOM     38  N   UNL     1      -9.428   4.942   7.207  1.00  0.00    -0.248 NA
ATOM     39  C   UNL     1      -8.699   6.323   5.472  1.00  0.00     0.031 C 
ATOM     40  C   UNL     1      -8.206   1.359   4.820  1.00  0.00     0.029 A 
ATOM     41  N   UNL     1      -9.164   2.056   6.716  1.00  0.00    -0.354 N 
ATOM     42  C   UNL     1      -9.585   6.271   7.578  1.00  0.00     0.074 A 
ATOM     43  C   UNL     1      -9.059   7.078   6.499  1.00  0.00     0.031 C 
ATOM     44  C   UNL     1      -8.524   0.268   5.535  1.00  0.00     0.029 A 
ATOM     45  C   UNL     1      -9.137   0.685   6.792  1.00  0.00     0.049 A 
ATOM     46  H   UNL     1      -9.533   2.629   7.427  1.00  0.00     0.167 HD
ATOM     47  C   UNL     1     -10.142   6.775   8.706  1.00  0.00     0.037 A 
ATOM     48  C   UNL     1      -9.558  -0.141   7.768  1.00  0.00     0.037 A 
ATOM     49  C   UNL     1     -10.699   5.971   9.761  1.00  0.00     0.049 A 
ATOM     50  C   UNL     1     -10.182   0.444   9.007  1.00  0.00     0.074 A 
ATOM     51  C   UNL     1     -11.347   6.384  10.912  1.00  0.00     0.029 A 
ATOM     52  N   UNL     1     -10.676   4.584   9.790  1.00  0.00    -0.354 N 
ATOM     53  N   UNL     1     -10.388   1.701   9.316  1.00  0.00    -0.248 NA
ATOM     54  C   UNL     1     -10.639  -0.508  10.029  1.00  0.00     0.031 C 
ATOM     55  C   UNL     1     -11.679   5.248  11.658  1.00  0.00     0.029 A 
ATOM     56  C   UNL     1     -11.280   4.126  10.950  1.00  0.00     0.049 A 
ATOM     57  H   UNL     1     -10.287   4.010   9.091  1.00  0.00     0.167 HD
ATOM     58  C   UNL     1     -11.023   1.691  10.550  1.00  0.00     0.074 A 
ATOM     59  C   UNL     1     -11.181   0.302  10.927  1.00  0.00     0.031 C 
ATOM     60  C   UNL     1     -11.438   2.739  11.304  1.00  0.00     0.037 A 
BRANCH  47  61
ATOM     61  C   UNL     1     -10.181   8.268   8.853  1.00  0.00     0.064 A 
ATOM     62  C   UNL     1     -11.017   9.066   8.057  1.00  0.00     0.173 A 
ATOM     63  C   UNL     1      -9.394   8.909   9.822  1.00  0.00     0.173 A 
ATOM     64  F   UNL     1     -11.780   8.504   7.107  1.00  0.00    -0.203 F 
ATOM     65  C   UNL     1     -11.041  10.450   8.204  1.00  0.00     0.198 A 
ATOM     66  C   UNL     1      -9.443  10.291   9.987  1.00  0.00     0.198 A 
ATOM     67  F   UNL     1      -8.580   8.194  10.614  1.00  0.00    -0.203 F 
ATOM     68  F   UNL     1     -11.809  11.195   7.396  1.00  0.00    -0.200 F 
ATOM     69  C   UNL     1     -10.260  11.061   9.173  1.00  0.00     0.200 A 
ATOM     70  F   UNL     1      -8.697  10.879  10.933  1.00  0.00    -0.200 F 
ATOM     71  F   UNL     1     -10.288  12.393   9.317  1.00  0.00    -0.200 F 
ENDBRANCH  47  61
BRANCH  48  72
ATOM     72  C   UNL     1      -9.435  -1.612   7.600  1.00  0.00     0.064 A 
ATOM     73  C   UNL     1     -10.572  -2.409   7.410  1.00  0.00     0.173 A 
ATOM     74  C   UNL     1      -8.187  -2.250   7.628  1.00  0.00     0.173 A 
ATOM     75  F   UNL     1     -11.789  -1.846   7.397  1.00  0.00    -0.203 F 
ATOM     76  C   UNL     1     -10.467  -3.792   7.274  1.00  0.00     0.198 A 
ATOM     77  C   UNL     1      -8.081  -3.630   7.464  1.00  0.00     0.198 A 
ATOM     78  F   UNL     1      -7.068  -1.531   7.802  1.00  0.00    -0.203 F 
ATOM     79  F   UNL     1     -11.574  -4.535   7.138  1.00  0.00    -0.200 F 
ATOM     80  C   UNL     1      -9.222  -4.400   7.295  1.00  0.00     0.200 A 
ATOM     81  F   UNL     1      -6.875  -4.213   7.472  1.00  0.00    -0.200 F 
ATOM     82  F   UNL     1      -9.121  -5.729   7.161  1.00  0.00    -0.200 F 
ENDBRANCH  48  72
BRANCH  60  83
ATOM     83  C   UNL     1     -12.136   2.422  12.594  1.00  0.00     0.064 A 
ATOM     84  C   UNL     1     -11.440   1.923  13.704  1.00  0.00     0.173 A 
ATOM     85  C   UNL     1     -13.513   2.655  12.730  1.00  0.00     0.173 A 
ATOM     86  F   UNL     1     -10.125   1.669  13.619  1.00  0.00    -0.203 F 
ATOM     87  C   UNL     1     -12.102   1.645  14.897  1.00  0.00     0.198 A 
ATOM     88  C   UNL     1     -14.166   2.403  13.932  1.00  0.00     0.198 A 
ATOM     89  F   UNL     1     -14.223   3.137  11.699  1.00  0.00    -0.203 F 
ATOM     90  F   UNL     1     -11.426   1.124  15.930  1.00  0.00    -0.200 F 
ATOM     91  C   UNL     1     -13.462   1.891  15.012  1.00  0.00     0.200 A 
ATOM     92  F   UNL     1     -15.478   2.653  14.046  1.00  0.00    -0.200 F 
ATOM     93  F   UNL     1     -14.097   1.628  16.163  1.00  0.00    -0.200 F 
ENDBRANCH  60  83
ENDBRANCH  34  35
ENDBRANCH  26  29
ENDBRANCH  24  25
ENDBRANCH  23  24
ENDBRANCH   1  23
TORSDOF 16
