REMARK SMILES Cc1ccccc1Sc1cncc(C(=O)NCCCNC(=O)c2ccc(-c3c4nc(c(-c5c(F)c(F)c(F)c(F)c5F)c5ccc([nH]5)c(-c5c(F)c(F)c(F)c(F)c5F)c5nc(c(-c6c(F)c(F)c(F)c(F)c6F)c6ccc3[nH]6)C=C5)C=C4)cc2)n1
REMARK SMILES IDX 18 1 17 2 16 3 14 4 15 5 13 7 9 8 10 9 86 10 11 11 12 12
REMARK SMILES IDX 8 13 7 14 1 15 2 16 3 17 4 18 6 19 5 20 19 21 20 22 21 23
REMARK SMILES IDX 22 25 23 26 24 27 85 28 25 29 84 30 26 31 27 32 28 33 78 34
REMARK SMILES IDX 29 35 83 36 77 37 79 38 30 39 82 40 76 41 75 42 31 44 63 45
REMARK SMILES IDX 43 46 62 47 44 48 47 49 61 50 80 51 45 52 46 53 60 55 81 56
REMARK SMILES IDX 48 57 32 58 33 59 41 60 34 61 35 62 39 63 42 64 36 65 37 66
REMARK SMILES IDX 40 67 38 68 64 69 65 70 73 71 66 72 67 73 71 74 74 75 68 76
REMARK SMILES IDX 69 77 72 78 70 79 49 80 50 81 58 82 51 83 52 84 56 85 59 86
REMARK SMILES IDX 53 87 54 88 57 89 55 90
REMARK H PARENT 16 6 20 24 79 43 47 54
REMARK Flexibility Score: inf
ROOT
ATOM      1  C   UNL     1       2.877   3.883   3.499  1.00  0.00     0.042 C 
ENDROOT
BRANCH   1   2
ATOM      2  C   UNL     1       3.942   4.694   2.762  1.00  0.00     0.118 C 
BRANCH   2   3
ATOM      3  N   UNL     1       5.235   4.016   2.742  1.00  0.00    -0.351 N 
ATOM      4  C   UNL     1       5.759   3.149   1.804  1.00  0.00     0.271 C 
ATOM      5  O   UNL     1       6.921   2.765   1.943  1.00  0.00    -0.267 OA
ATOM      6  H   UNL     1       5.819   4.206   3.511  1.00  0.00     0.163 HD
BRANCH   4   7
ATOM      7  C   UNL     1       4.972   2.683   0.626  1.00  0.00     0.147 A 
ATOM      8  C   UNL     1       2.953   2.379  -0.443  1.00  0.00     0.120 A 
ATOM      9  C   UNL     1       3.631   1.911  -1.563  1.00  0.00     0.146 A 
ATOM     10  N   UNL     1       3.621   2.779   0.664  1.00  0.00    -0.233 NA
ATOM     11  N   UNL     1       4.981   1.768  -1.600  1.00  0.00    -0.259 NA
ATOM     12  C   UNL     1       5.636   2.162  -0.476  1.00  0.00     0.145 A 
BRANCH   8  13
ATOM     13  S   UNL     1       1.212   2.604  -0.404  1.00  0.00    -0.068 SA
BRANCH  13  14
ATOM     14  C   UNL     1       0.412   1.019  -0.168  1.00  0.00     0.017 A 
ATOM     15  C   UNL     1       2.418  -0.536   0.341  1.00  0.00     0.045 C 
ATOM     16  C   UNL     1       0.960  -0.248   0.121  1.00  0.00    -0.037 A 
ATOM     17  C   UNL     1       0.095  -1.363   0.208  1.00  0.00     0.004 A 
ATOM     18  C   UNL     1      -1.285  -1.236   0.070  1.00  0.00     0.000 A 
ATOM     19  C   UNL     1      -0.993   1.120  -0.285  1.00  0.00     0.016 A 
ATOM     20  C   UNL     1      -1.833   0.013  -0.162  1.00  0.00     0.001 A 
ENDBRANCH  13  14
ENDBRANCH   8  13
ENDBRANCH   4   7
ENDBRANCH   2   3
ENDBRANCH   1   2
BRANCH   1  21
ATOM     21  C   UNL     1       2.904   4.127   5.003  1.00  0.00     0.118 C 
BRANCH  21  22
ATOM     22  N   UNL     1       2.042   5.218   5.452  1.00  0.00    -0.352 N 
ATOM     23  C   UNL     1       1.964   5.854   6.683  1.00  0.00     0.251 C 
ATOM     24  H   UNL     1       1.416   5.557   4.771  1.00  0.00     0.163 HD
ATOM     25  O   UNL     1       1.121   6.706   6.877  1.00  0.00    -0.269 OA
BRANCH  23  26
ATOM     26  C   UNL     1       2.996   5.581   7.718  1.00  0.00     0.039 A 
ATOM     27  C   UNL     1       3.535   6.669   8.421  1.00  0.00     0.014 A 
ATOM     28  C   UNL     1       3.554   4.317   7.859  1.00  0.00     0.014 A 
ATOM     29  C   UNL     1       4.770   6.533   9.054  1.00  0.00     0.010 A 
ATOM     30  C   UNL     1       4.826   4.208   8.379  1.00  0.00     0.010 A 
ATOM     31  C   UNL     1       5.460   5.329   8.922  1.00  0.00    -0.014 A 
BRANCH  31  32
ATOM     32  C   UNL     1       6.883   5.176   9.195  1.00  0.00     0.031 A 
ATOM     33  C   UNL     1       7.356   4.363  10.335  1.00  0.00     0.074 A 
ATOM     34  C   UNL     1       7.771   5.643   8.289  1.00  0.00     0.049 A 
ATOM     35  N   UNL     1       8.522   4.485  10.876  1.00  0.00    -0.248 NA
ATOM     36  C   UNL     1       6.531   3.350  10.981  1.00  0.00     0.031 C 
ATOM     37  C   UNL     1       9.181   5.280   8.172  1.00  0.00     0.029 A 
ATOM     38  N   UNL     1       7.600   6.682   7.357  1.00  0.00    -0.354 N 
ATOM     39  C   UNL     1       8.712   3.410  11.716  1.00  0.00     0.074 A 
ATOM     40  C   UNL     1       7.417   2.776  11.802  1.00  0.00     0.031 C 
ATOM     41  C   UNL     1       9.816   6.223   7.460  1.00  0.00     0.029 A 
ATOM     42  C   UNL     1       8.867   7.297   7.230  1.00  0.00     0.049 A 
ATOM     43  H   UNL     1       6.770   6.929   6.890  1.00  0.00     0.167 HD
ATOM     44  C   UNL     1       9.978   3.099  12.124  1.00  0.00     0.037 A 
ATOM     45  C   UNL     1       9.072   8.599   7.580  1.00  0.00     0.037 A 
ATOM     46  C   UNL     1      10.950   4.045  11.577  1.00  0.00     0.049 A 
ATOM     47  C   UNL     1      10.111   8.788   8.656  1.00  0.00     0.074 A 
ATOM     48  C   UNL     1      11.797   3.972  10.483  1.00  0.00     0.029 A 
ATOM     49  N   UNL     1      10.938   5.375  11.980  1.00  0.00    -0.354 N 
ATOM     50  N   UNL     1      10.476   7.846   9.478  1.00  0.00    -0.248 NA
ATOM     51  C   UNL     1      10.794  10.052   8.915  1.00  0.00     0.031 C 
ATOM     52  C   UNL     1      12.282   5.272  10.214  1.00  0.00     0.029 A 
ATOM     53  C   UNL     1      11.738   6.135  11.149  1.00  0.00     0.049 A 
ATOM     54  H   UNL     1      10.431   5.726  12.748  1.00  0.00     0.167 HD
ATOM     55  C   UNL     1      11.394   8.343  10.367  1.00  0.00     0.074 A 
ATOM     56  C   UNL     1      11.571   9.725   9.963  1.00  0.00     0.031 C 
ATOM     57  C   UNL     1      11.914   7.564  11.360  1.00  0.00     0.037 A 
BRANCH  44  58
ATOM     58  C   UNL     1      10.391   1.777  12.745  1.00  0.00     0.064 A 
ATOM     59  C   UNL     1      11.713   1.294  12.608  1.00  0.00     0.173 A 
ATOM     60  C   UNL     1       9.530   0.911  13.443  1.00  0.00     0.173 A 
ATOM     61  F   UNL     1      12.691   2.055  12.100  1.00  0.00    -0.203 F 
ATOM     62  C   UNL     1      12.093   0.006  12.996  1.00  0.00     0.198 A 
ATOM     63  C   UNL     1       9.893  -0.397  13.788  1.00  0.00     0.198 A 
ATOM     64  F   UNL     1       8.332   1.319  13.878  1.00  0.00    -0.203 F 
ATOM     65  F   UNL     1      13.360  -0.396  12.818  1.00  0.00    -0.200 F 
ATOM     66  C   UNL     1      11.171  -0.856  13.547  1.00  0.00     0.200 A 
ATOM     67  F   UNL     1       8.991  -1.207  14.362  1.00  0.00    -0.200 F 
ATOM     68  F   UNL     1      11.519  -2.106  13.878  1.00  0.00    -0.200 F 
ENDBRANCH  44  58
BRANCH  45  69
ATOM     69  C   UNL     1       7.867   9.447   7.407  1.00  0.00     0.064 A 
ATOM     70  C   UNL     1       7.410   9.690   6.098  1.00  0.00     0.173 A 
ATOM     71  C   UNL     1       6.967   9.656   8.459  1.00  0.00     0.173 A 
ATOM     72  F   UNL     1       8.235   9.501   5.056  1.00  0.00    -0.203 F 
ATOM     73  C   UNL     1       6.079  10.011   5.846  1.00  0.00     0.198 A 
ATOM     74  C   UNL     1       5.635   9.983   8.202  1.00  0.00     0.198 A 
ATOM     75  F   UNL     1       7.340   9.422   9.726  1.00  0.00    -0.203 F 
ATOM     76  F   UNL     1       5.647  10.127   4.582  1.00  0.00    -0.200 F 
ATOM     77  C   UNL     1       5.185  10.126   6.897  1.00  0.00     0.200 A 
ATOM     78  F   UNL     1       4.762  10.067   9.216  1.00  0.00    -0.200 F 
ATOM     79  F   UNL     1       3.884  10.333   6.652  1.00  0.00    -0.200 F 
ENDBRANCH  45  69
BRANCH  57  80
ATOM     80  C   UNL     1      12.724   8.031  12.547  1.00  0.00     0.064 A 
ATOM     81  C   UNL     1      12.656   9.326  13.086  1.00  0.00     0.173 A 
ATOM     82  C   UNL     1      13.508   7.110  13.287  1.00  0.00     0.173 A 
ATOM     83  F   UNL     1      11.858  10.263  12.558  1.00  0.00    -0.203 F 
ATOM     84  C   UNL     1      13.365   9.689  14.236  1.00  0.00     0.198 A 
ATOM     85  C   UNL     1      14.165   7.459  14.466  1.00  0.00     0.198 A 
ATOM     86  F   UNL     1      13.638   5.830  12.906  1.00  0.00    -0.203 F 
ATOM     87  F   UNL     1      13.298  10.950  14.685  1.00  0.00    -0.200 F 
ATOM     88  C   UNL     1      14.108   8.754  14.932  1.00  0.00     0.200 A 
ATOM     89  F   UNL     1      14.836   6.526  15.156  1.00  0.00    -0.200 F 
ATOM     90  F   UNL     1      14.746   9.096  16.059  1.00  0.00    -0.200 F 
ENDBRANCH  57  80
ENDBRANCH  31  32
ENDBRANCH  23  26
ENDBRANCH  21  22
ENDBRANCH   1  21
TORSDOF 12
