REMARK SMILES C/C=C(\C)[C@@H]1C=C[C@@H]2C[C@H](C)C[C@H](C)[C@@H]2[C@@H]1C(=O)C1=C(NCCCNC(=O)c2ccc(-c3c4nc(c(-c5c(F)c(F)c(F)c(F)c5F)c5ccc([nH]5)c(-c5c(F)c(F)c(F)c(F)c5F)c5nc(c(-c6c(F)c(F)c(F)c(F)c6F)c6ccc3[nH]6)C=C5)C=C4)cc2)[C@H](C[C@](C)(O)C(=O)[O-])NC1=O
REMARK SMILES IDX 22 1 21 2 20 4 19 5 100 6 91 7 99 8 101 9 17 11 18 12 16 13
REMARK SMILES IDX 5 14 6 15 7 16 15 17 8 18 13 19 9 20 12 21 14 22 10 23 11 24
REMARK SMILES IDX 3 25 1 26 2 27 4 28 92 29 93 30 94 31 95 32 96 34 97 35
REMARK SMILES IDX 98 36 23 37 24 38 25 39 26 40 27 42 28 43 29 44 90 45 30 46
REMARK SMILES IDX 89 47 31 48 32 49 33 50 83 51 34 52 88 53 82 54 84 55 35 56
REMARK SMILES IDX 87 57 81 58 80 59 36 61 68 62 48 63 67 64 49 65 52 66 66 67
REMARK SMILES IDX 85 68 50 69 51 70 65 72 86 73 53 74 37 75 38 76 46 77 39 78
REMARK SMILES IDX 40 79 44 80 47 81 41 82 42 83 45 84 43 85 69 86 70 87 78 88
REMARK SMILES IDX 71 89 72 90 76 91 79 92 73 93 74 94 77 95 75 96 54 97 55 98
REMARK SMILES IDX 63 99 56 100 57 101 61 102 64 103 58 104 59 105 62 106
REMARK SMILES IDX 60 107
REMARK H PARENT 21 3 99 10 95 33 25 41 84 60 52 71
REMARK Flexibility Score: inf
ROOT
ATOM      1  C   UNL     1      -4.111  10.731  -1.744  1.00  0.00     0.114 C 
ENDROOT
BRANCH   1   2
ATOM      2  N   UNL     1      -4.278  10.235  -0.393  1.00  0.00    -0.386 N 
ATOM      3  H   UNL     1      -3.997  10.857   0.316  1.00  0.00     0.160 HD
BRANCH   2   4
ATOM      4  C   UNL     1      -4.769   9.031   0.053  1.00  0.00     0.050 C 
ATOM      5  C   UNL     1      -5.838   8.281  -0.301  1.00  0.00     0.104 C 
ATOM      6  C   UNL     1      -5.904   7.262   0.793  1.00  0.00     0.257 C 
ATOM      7  C   UNL     1      -3.977   8.393   1.194  1.00  0.00     0.133 C 
ATOM      8  N   UNL     1      -4.996   7.588   1.762  1.00  0.00    -0.343 N 
ATOM      9  O   UNL     1      -6.575   6.246   0.930  1.00  0.00    -0.269 OA
ATOM     10  H   UNL     1      -5.042   7.308   2.704  1.00  0.00     0.164 HD
BRANCH   5  11
ATOM     11  C   UNL     1      -6.540   8.336  -1.629  1.00  0.00     0.174 C 
ATOM     12  O   UNL     1      -5.894   7.874  -2.586  1.00  0.00    -0.294 OA
BRANCH  11  13
ATOM     13  C   UNL     1      -7.963   8.961  -1.930  1.00  0.00     0.076 C 
ATOM     14  C   UNL     1      -8.444  10.018  -0.904  1.00  0.00     0.048 C 
ATOM     15  C   UNL     1      -8.692   9.279   0.400  1.00  0.00    -0.022 C 
ATOM     16  C   UNL     1      -9.095   7.983   0.403  1.00  0.00    -0.027 C 
ATOM     17  C   UNL     1      -9.214   8.014  -2.097  1.00  0.00     0.010 C 
ATOM     18  C   UNL     1      -9.371   7.138  -0.856  1.00  0.00     0.016 C 
ATOM     19  C   UNL     1      -9.441   7.209  -3.390  1.00  0.00    -0.010 C 
ATOM     20  C   UNL     1      -8.491   5.886  -1.003  1.00  0.00     0.011 C 
ATOM     21  C   UNL     1      -8.450   6.075  -3.558  1.00  0.00     0.007 C 
ATOM     22  C   UNL     1      -9.527   8.090  -4.634  1.00  0.00     0.008 C 
ATOM     23  C   UNL     1      -8.465   5.139  -2.345  1.00  0.00    -0.013 C 
ATOM     24  C   UNL     1      -7.204   4.259  -2.398  1.00  0.00     0.007 C 
BRANCH  14  25
ATOM     25  C   UNL     1      -7.767  11.399  -0.954  1.00  0.00    -0.070 C 
ATOM     26  C   UNL     1      -7.123  13.629   0.144  1.00  0.00     0.035 C 
ATOM     27  C   UNL     1      -7.580  12.197   0.120  1.00  0.00    -0.031 C 
ATOM     28  C   UNL     1      -7.547  11.906  -2.373  1.00  0.00     0.040 C 
ENDBRANCH  14  25
ENDBRANCH  11  13
ENDBRANCH   5  11
BRANCH   7  29
ATOM     29  C   UNL     1      -2.822   7.430   0.790  1.00  0.00     0.072 C 
BRANCH  29  30
ATOM     30  C   UNL     1      -1.888   7.728  -0.400  1.00  0.00     0.103 C 
ATOM     31  C   UNL     1      -0.779   8.698  -0.011  1.00  0.00     0.049 C 
BRANCH  30  32
ATOM     32  O   UNL     1      -2.557   8.270  -1.533  1.00  0.00    -0.384 OA
ATOM     33  H   UNL     1      -1.914   8.432  -2.241  1.00  0.00     0.211 HD
ENDBRANCH  30  32
BRANCH  30  34
ATOM     34  C   UNL     1      -1.308   6.402  -0.922  1.00  0.00     0.073 C 
ATOM     35  O   UNL     1      -0.167   5.988  -0.819  1.00  0.00    -0.547 OA
ATOM     36  O   UNL     1      -2.254   5.679  -1.575  1.00  0.00    -0.547 OA
ENDBRANCH  30  34
ENDBRANCH  29  30
ENDBRANCH   7  29
ENDBRANCH   2   4
ENDBRANCH   1   2
BRANCH   1  37
ATOM     37  C   UNL     1      -4.103  12.251  -1.716  1.00  0.00     0.042 C 
BRANCH  37  38
ATOM     38  C   UNL     1      -2.948  12.828  -0.909  1.00  0.00     0.118 C 
BRANCH  38  39
ATOM     39  N   UNL     1      -1.780  13.113  -1.719  1.00  0.00    -0.352 N 
ATOM     40  C   UNL     1      -1.289  14.326  -2.133  1.00  0.00     0.251 C 
ATOM     41  H   UNL     1      -1.268  12.326  -2.014  1.00  0.00     0.163 HD
ATOM     42  O   UNL     1      -0.382  14.377  -2.958  1.00  0.00    -0.269 OA
BRANCH  40  43
ATOM     43  C   UNL     1      -1.878  15.578  -1.609  1.00  0.00     0.039 A 
ATOM     44  C   UNL     1      -2.142  16.620  -2.499  1.00  0.00     0.014 A 
ATOM     45  C   UNL     1      -2.164  15.732  -0.250  1.00  0.00     0.014 A 
ATOM     46  C   UNL     1      -2.732  17.796  -2.033  1.00  0.00     0.010 A 
ATOM     47  C   UNL     1      -2.862  16.851   0.190  1.00  0.00     0.010 A 
ATOM     48  C   UNL     1      -3.121  17.913  -0.688  1.00  0.00    -0.014 A 
BRANCH  48  49
ATOM     49  C   UNL     1      -3.718  19.166  -0.159  1.00  0.00     0.031 A 
ATOM     50  C   UNL     1      -3.003  19.923   0.931  1.00  0.00     0.074 A 
ATOM     51  C   UNL     1      -4.904  19.606  -0.623  1.00  0.00     0.049 A 
ATOM     52  N   UNL     1      -3.388  20.982   1.598  1.00  0.00    -0.248 NA
ATOM     53  C   UNL     1      -1.695  19.396   1.356  1.00  0.00     0.031 C 
ATOM     54  C   UNL     1      -5.715  18.945  -1.647  1.00  0.00     0.029 A 
ATOM     55  N   UNL     1      -5.635  20.719  -0.290  1.00  0.00    -0.354 N 
ATOM     56  C   UNL     1      -2.385  21.226   2.529  1.00  0.00     0.074 A 
ATOM     57  C   UNL     1      -1.409  20.169   2.392  1.00  0.00     0.031 C 
ATOM     58  C   UNL     1      -6.811  19.684  -1.885  1.00  0.00     0.029 A 
ATOM     59  C   UNL     1      -6.801  20.849  -1.005  1.00  0.00     0.049 A 
ATOM     60  H   UNL     1      -5.351  21.364   0.398  1.00  0.00     0.167 HD
ATOM     61  C   UNL     1      -2.266  22.259   3.395  1.00  0.00     0.037 A 
ATOM     62  C   UNL     1      -7.750  21.803  -0.954  1.00  0.00     0.037 A 
ATOM     63  C   UNL     1      -3.206  23.342   3.491  1.00  0.00     0.049 A 
ATOM     64  C   UNL     1      -7.583  22.950   0.008  1.00  0.00     0.074 A 
ATOM     65  C   UNL     1      -3.160  24.456   4.309  1.00  0.00     0.029 A 
ATOM     66  N   UNL     1      -4.355  23.453   2.723  1.00  0.00    -0.354 N 
ATOM     67  N   UNL     1      -6.612  23.186   0.856  1.00  0.00    -0.248 NA
ATOM     68  C   UNL     1      -8.643  23.969   0.013  1.00  0.00     0.031 C 
ATOM     69  C   UNL     1      -4.295  25.232   4.052  1.00  0.00     0.029 A 
ATOM     70  C   UNL     1      -5.026  24.619   3.048  1.00  0.00     0.049 A 
ATOM     71  H   UNL     1      -4.649  22.800   2.047  1.00  0.00     0.167 HD
ATOM     72  C   UNL     1      -6.925  24.393   1.468  1.00  0.00     0.074 A 
ATOM     73  C   UNL     1      -8.169  24.847   0.884  1.00  0.00     0.031 C 
ATOM     74  C   UNL     1      -6.247  25.064   2.430  1.00  0.00     0.037 A 
BRANCH  61  75
ATOM     75  C   UNL     1      -1.058  22.282   4.286  1.00  0.00     0.064 A 
ATOM     76  C   UNL     1       0.223  22.540   3.774  1.00  0.00     0.173 A 
ATOM     77  C   UNL     1      -1.185  22.081   5.668  1.00  0.00     0.173 A 
ATOM     78  F   UNL     1       0.399  22.723   2.457  1.00  0.00    -0.203 F 
ATOM     79  C   UNL     1       1.336  22.570   4.609  1.00  0.00     0.198 A 
ATOM     80  C   UNL     1      -0.073  22.142   6.505  1.00  0.00     0.198 A 
ATOM     81  F   UNL     1      -2.387  21.833   6.209  1.00  0.00    -0.203 F 
ATOM     82  F   UNL     1       2.555  22.770   4.091  1.00  0.00    -0.200 F 
ATOM     83  C   UNL     1       1.186  22.380   5.975  1.00  0.00     0.200 A 
ATOM     84  F   UNL     1      -0.220  21.968   7.826  1.00  0.00    -0.200 F 
ATOM     85  F   UNL     1       2.257  22.418   6.779  1.00  0.00    -0.200 F 
ENDBRANCH  61  75
BRANCH  62  86
ATOM     86  C   UNL     1      -8.928  21.742  -1.859  1.00  0.00     0.064 A 
ATOM     87  C   UNL     1      -9.092  22.680  -2.888  1.00  0.00     0.173 A 
ATOM     88  C   UNL     1      -9.928  20.773  -1.696  1.00  0.00     0.173 A 
ATOM     89  F   UNL     1      -8.172  23.640  -3.071  1.00  0.00    -0.203 F 
ATOM     90  C   UNL     1     -10.225  22.671  -3.699  1.00  0.00     0.198 A 
ATOM     91  C   UNL     1     -11.047  20.747  -2.526  1.00  0.00     0.198 A 
ATOM     92  F   UNL     1      -9.818  19.850  -0.729  1.00  0.00    -0.203 F 
ATOM     93  F   UNL     1     -10.382  23.615  -4.637  1.00  0.00    -0.200 F 
ATOM     94  C   UNL     1     -11.200  21.703  -3.519  1.00  0.00     0.200 A 
ATOM     95  F   UNL     1     -11.983  19.803  -2.357  1.00  0.00    -0.200 F 
ATOM     96  F   UNL     1     -12.293  21.698  -4.295  1.00  0.00    -0.200 F 
ENDBRANCH  62  86
BRANCH  74  97
ATOM     97  C   UNL     1      -6.805  26.384   2.871  1.00  0.00     0.064 A 
ATOM     98  C   UNL     1      -7.951  26.466   3.674  1.00  0.00     0.173 A 
ATOM     99  C   UNL     1      -6.156  27.578   2.521  1.00  0.00     0.173 A 
ATOM    100  F   UNL     1      -8.612  25.352   4.022  1.00  0.00    -0.203 F 
ATOM    101  C   UNL     1      -8.443  27.700   4.090  1.00  0.00     0.198 A 
ATOM    102  C   UNL     1      -6.635  28.807   2.962  1.00  0.00     0.198 A 
ATOM    103  F   UNL     1      -5.051  27.550   1.760  1.00  0.00    -0.203 F 
ATOM    104  F   UNL     1      -9.565  27.759   4.821  1.00  0.00    -0.200 F 
ATOM    105  C   UNL     1      -7.781  28.868   3.741  1.00  0.00     0.200 A 
ATOM    106  F   UNL     1      -5.987  29.934   2.635  1.00  0.00    -0.200 F 
ATOM    107  F   UNL     1      -8.252  30.054   4.149  1.00  0.00    -0.200 F 
ENDBRANCH  74  97
ENDBRANCH  48  49
ENDBRANCH  40  43
ENDBRANCH  38  39
ENDBRANCH  37  38
ENDBRANCH   1  37
TORSDOF 17
