REMARK SMILES NS(=O)(=O)c1ccc(-n2nc(NC(=O)NCCCCCCCCCCC(=O)NCCCNC(=O)c3ccc(-c4c5nc(c(-c6c(F)c(F)c(F)c(F)c6F)c6ccc([nH]6)c(-c6c(F)c(F)c(F)c(F)c6F)c6nc(c(-c7c(F)c(F)c(F)c(F)c7F)c7ccc4[nH]7)C=C6)C=C5)cc3)cc2-c2ccccc2)cc1
REMARK SMILES IDX 22 1 21 2 20 3 19 4 18 5 17 6 16 7 15 8 12 9 13 10 14 12
REMARK SMILES IDX 11 14 9 15 10 16 99 17 98 18 8 19 5 20 6 21 107 22 7 23
REMARK SMILES IDX 106 24 2 25 3 26 4 27 1 28 100 31 101 32 105 33 102 34
REMARK SMILES IDX 104 35 103 36 23 37 24 38 25 39 26 40 27 41 28 42 29 44
REMARK SMILES IDX 30 45 31 46 32 47 33 48 34 50 35 51 36 52 97 53 37 54 96 55
REMARK SMILES IDX 38 56 39 57 40 58 90 59 41 60 95 61 89 62 91 63 42 64 94 65
REMARK SMILES IDX 88 66 87 67 43 69 75 70 55 71 74 72 56 73 59 74 73 75 92 76
REMARK SMILES IDX 57 77 58 78 72 80 93 81 60 82 44 83 45 84 53 85 46 86 47 87
REMARK SMILES IDX 51 88 54 89 48 90 49 91 52 92 50 93 76 94 77 95 85 96 78 97
REMARK SMILES IDX 79 98 83 99 86 100 80 101 81 102 84 103 82 104 61 105 62 106
REMARK SMILES IDX 70 107 63 108 64 109 68 110 71 111 65 112 66 113 69 114
REMARK SMILES IDX 67 115
REMARK H PARENT 12 11 15 13 1 29 1 30 28 43 32 49 91 68 59 79
REMARK Flexibility Score: inf
ROOT
ATOM      1  C   UNL     1      -2.517   0.824   5.609  1.00  0.00     0.000 C 
ENDROOT
BRANCH   1   2
ATOM      2  C   UNL     1      -1.565  -0.338   5.454  1.00  0.00     0.000 C 
BRANCH   2   3
ATOM      3  C   UNL     1      -0.684  -0.574   6.674  1.00  0.00     0.000 C 
BRANCH   3   4
ATOM      4  C   UNL     1      -1.387  -0.895   7.998  1.00  0.00     0.000 C 
BRANCH   4   5
ATOM      5  C   UNL     1      -2.368  -2.073   8.001  1.00  0.00     0.002 C 
BRANCH   5   6
ATOM      6  C   UNL     1      -1.912  -3.359   7.312  1.00  0.00     0.021 C 
BRANCH   6   7
ATOM      7  C   UNL     1      -0.491  -3.820   7.596  1.00  0.00     0.117 C 
BRANCH   7   8
ATOM      8  N   UNL     1      -0.256  -4.456   8.865  1.00  0.00    -0.338 N 
ATOM      9  N   UNL     1       1.626  -5.820   8.319  1.00  0.00    -0.291 N 
ATOM     10  C   UNL     1       0.696  -5.360   9.189  1.00  0.00     0.320 C 
ATOM     11  H   UNL     1       2.014  -6.686   8.581  1.00  0.00     0.173 HD
ATOM     12  O   UNL     1       0.636  -5.875  10.310  1.00  0.00    -0.248 OA
ATOM     13  H   UNL     1      -0.868  -4.200   9.592  1.00  0.00     0.165 HD
BRANCH   9  14
ATOM     14  C   UNL     1       2.139  -5.321   7.140  1.00  0.00     0.157 A 
ATOM     15  N   UNL     1       2.406  -4.082   5.440  1.00  0.00    -0.231 N 
ATOM     16  N   UNL     1       2.142  -4.039   6.763  1.00  0.00    -0.149 NA
ATOM     17  C   UNL     1       3.014  -5.277   5.086  1.00  0.00     0.076 A 
ATOM     18  C   UNL     1       2.798  -6.113   6.166  1.00  0.00     0.078 A 
BRANCH  15  19
ATOM     19  C   UNL     1       1.991  -3.026   4.582  1.00  0.00     0.065 A 
ATOM     20  C   UNL     1       1.182  -0.964   2.890  1.00  0.00     0.082 A 
ATOM     21  C   UNL     1       1.010  -2.289   2.486  1.00  0.00     0.024 A 
ATOM     22  C   UNL     1       1.750  -0.663   4.134  1.00  0.00     0.024 A 
ATOM     23  C   UNL     1       1.427  -3.321   3.328  1.00  0.00     0.030 A 
ATOM     24  C   UNL     1       2.132  -1.698   4.994  1.00  0.00     0.030 A 
BRANCH  20  25
ATOM     25  S   UNL     1       0.634   0.342   1.831  1.00  0.00     0.238 S 
ATOM     26  O   UNL     1       1.279   1.578   2.237  1.00  0.00    -0.207 OA
ATOM     27  O   UNL     1      -0.786   0.229   1.655  1.00  0.00    -0.207 OA
BRANCH  25  28
ATOM     28  N   UNL     1       1.335  -0.052   0.356  1.00  0.00    -0.225 NA
ATOM     29  H   UNL     1       1.079   0.649  -0.340  1.00  0.00     0.137 HD
ATOM     30  H   UNL     1       1.002  -0.967   0.054  1.00  0.00     0.137 HD
ENDBRANCH  25  28
ENDBRANCH  20  25
ENDBRANCH  15  19
BRANCH  17  31
ATOM     31  C   UNL     1       3.708  -5.464   3.817  1.00  0.00     0.000 A 
ATOM     32  C   UNL     1       4.651  -4.505   3.408  1.00  0.00     0.010 A 
ATOM     33  C   UNL     1       3.378  -6.510   2.953  1.00  0.00     0.010 A 
ATOM     34  C   UNL     1       5.212  -4.556   2.135  1.00  0.00     0.001 A 
ATOM     35  C   UNL     1       3.948  -6.563   1.677  1.00  0.00     0.001 A 
ATOM     36  C   UNL     1       4.853  -5.582   1.267  1.00  0.00     0.000 A 
ENDBRANCH  17  31
ENDBRANCH   9  14
ENDBRANCH   7   8
ENDBRANCH   6   7
ENDBRANCH   5   6
ENDBRANCH   4   5
ENDBRANCH   3   4
ENDBRANCH   2   3
ENDBRANCH   1   2
BRANCH   1  37
ATOM     37  C   UNL     1      -1.821   2.187   5.689  1.00  0.00     0.001 C 
BRANCH  37  38
ATOM     38  C   UNL     1      -2.088   3.085   4.488  1.00  0.00     0.010 C 
BRANCH  38  39
ATOM     39  C   UNL     1      -3.564   3.364   4.192  1.00  0.00     0.100 C 
BRANCH  39  40
ATOM     40  C   UNL     1      -4.220   4.322   5.168  1.00  0.00     0.219 C 
ATOM     41  O   UNL     1      -4.188   5.538   4.963  1.00  0.00    -0.275 OA
ATOM     42  N   UNL     1      -4.866   3.889   6.289  1.00  0.00    -0.356 N 
ATOM     43  H   UNL     1      -5.200   4.613   6.865  1.00  0.00     0.163 HD
BRANCH  42  44
ATOM     44  C   UNL     1      -5.154   2.548   6.790  1.00  0.00     0.117 C 
BRANCH  44  45
ATOM     45  C   UNL     1      -4.361   2.184   8.061  1.00  0.00     0.042 C 
BRANCH  45  46
ATOM     46  C   UNL     1      -4.956   2.707   9.344  1.00  0.00     0.118 C 
BRANCH  46  47
ATOM     47  N   UNL     1      -6.047   1.874   9.865  1.00  0.00    -0.352 N 
ATOM     48  C   UNL     1      -6.793   2.096  11.016  1.00  0.00     0.251 C 
ATOM     49  H   UNL     1      -6.274   1.071   9.343  1.00  0.00     0.163 HD
ATOM     50  O   UNL     1      -7.390   1.190  11.581  1.00  0.00    -0.269 OA
BRANCH  48  51
ATOM     51  C   UNL     1      -6.838   3.471  11.538  1.00  0.00     0.039 A 
ATOM     52  C   UNL     1      -6.751   3.789  12.895  1.00  0.00     0.014 A 
ATOM     53  C   UNL     1      -6.838   4.466  10.575  1.00  0.00     0.014 A 
ATOM     54  C   UNL     1      -6.577   5.128  13.246  1.00  0.00     0.010 A 
ATOM     55  C   UNL     1      -6.318   5.677  10.902  1.00  0.00     0.010 A 
ATOM     56  C   UNL     1      -6.340   6.064  12.229  1.00  0.00    -0.014 A 
BRANCH  56  57
ATOM     57  C   UNL     1      -6.075   7.471  12.473  1.00  0.00     0.031 A 
ATOM     58  C   UNL     1      -4.954   7.746  13.399  1.00  0.00     0.074 A 
ATOM     59  C   UNL     1      -6.651   8.439  11.724  1.00  0.00     0.049 A 
ATOM     60  N   UNL     1      -5.034   8.259  14.579  1.00  0.00    -0.248 NA
ATOM     61  C   UNL     1      -3.607   7.277  13.041  1.00  0.00     0.031 C 
ATOM     62  C   UNL     1      -7.547   8.305  10.564  1.00  0.00     0.029 A 
ATOM     63  N   UNL     1      -6.457   9.781  11.779  1.00  0.00    -0.354 N 
ATOM     64  C   UNL     1      -3.728   8.366  15.043  1.00  0.00     0.074 A 
ATOM     65  C   UNL     1      -2.921   7.577  14.148  1.00  0.00     0.031 C 
ATOM     66  C   UNL     1      -7.609   9.474   9.893  1.00  0.00     0.029 A 
ATOM     67  C   UNL     1      -6.918  10.482  10.671  1.00  0.00     0.049 A 
ATOM     68  H   UNL     1      -6.024  10.224  12.545  1.00  0.00     0.167 HD
ATOM     69  C   UNL     1      -3.402   9.297  15.982  1.00  0.00     0.037 A 
ATOM     70  C   UNL     1      -6.720  11.797  10.410  1.00  0.00     0.037 A 
ATOM     71  C   UNL     1      -4.590   9.838  16.601  1.00  0.00     0.049 A 
ATOM     72  C   UNL     1      -6.376  12.442  11.705  1.00  0.00     0.074 A 
ATOM     73  C   UNL     1      -5.641   9.288  17.312  1.00  0.00     0.029 A 
ATOM     74  N   UNL     1      -5.035  11.067  16.174  1.00  0.00    -0.354 N 
ATOM     75  N   UNL     1      -7.223  12.567  12.691  1.00  0.00    -0.248 NA
ATOM     76  C   UNL     1      -4.970  12.485  12.084  1.00  0.00     0.031 C 
ATOM     77  C   UNL     1      -6.800   9.974  16.843  1.00  0.00     0.029 A 
ATOM     78  C   UNL     1      -6.384  10.959  15.945  1.00  0.00     0.049 A 
ATOM     79  H   UNL     1      -4.487  11.876  16.055  1.00  0.00     0.167 HD
ATOM     80  C   UNL     1      -6.489  12.261  13.829  1.00  0.00     0.074 A 
ATOM     81  C   UNL     1      -5.091  12.302  13.402  1.00  0.00     0.031 C 
ATOM     82  C   UNL     1      -7.084  11.704  14.925  1.00  0.00     0.037 A 
BRANCH  69  83
ATOM     83  C   UNL     1      -2.068   9.993  16.087  1.00  0.00     0.064 A 
ATOM     84  C   UNL     1      -1.834  10.847  17.185  1.00  0.00     0.173 A 
ATOM     85  C   UNL     1      -1.143  10.101  15.028  1.00  0.00     0.173 A 
ATOM     86  F   UNL     1      -2.652  10.832  18.249  1.00  0.00    -0.203 F 
ATOM     87  C   UNL     1      -0.817  11.803  17.174  1.00  0.00     0.198 A 
ATOM     88  C   UNL     1      -0.094  11.019  15.044  1.00  0.00     0.198 A 
ATOM     89  F   UNL     1      -1.275   9.413  13.888  1.00  0.00    -0.203 F 
ATOM     90  F   UNL     1      -0.723  12.685  18.179  1.00  0.00    -0.200 F 
ATOM     91  C   UNL     1       0.046  11.895  16.099  1.00  0.00     0.200 A 
ATOM     92  F   UNL     1       0.724  11.101  13.986  1.00  0.00    -0.200 F 
ATOM     93  F   UNL     1       0.979  12.855  16.053  1.00  0.00    -0.200 F 
ENDBRANCH  69  83
BRANCH  70  94
ATOM     94  C   UNL     1      -6.548  12.460   9.095  1.00  0.00     0.064 A 
ATOM     95  C   UNL     1      -6.624  13.856   8.969  1.00  0.00     0.173 A 
ATOM     96  C   UNL     1      -6.043  11.761   7.978  1.00  0.00     0.173 A 
ATOM     97  F   UNL     1      -7.054  14.602   9.997  1.00  0.00    -0.203 F 
ATOM     98  C   UNL     1      -6.196  14.515   7.811  1.00  0.00     0.198 A 
ATOM     99  C   UNL     1      -5.624  12.419   6.820  1.00  0.00     0.198 A 
ATOM    100  F   UNL     1      -5.860  10.434   8.021  1.00  0.00    -0.203 F 
ATOM    101  F   UNL     1      -6.227  15.854   7.753  1.00  0.00    -0.200 F 
ATOM    102  C   UNL     1      -5.687  13.797   6.742  1.00  0.00     0.200 A 
ATOM    103  F   UNL     1      -5.102  11.713   5.807  1.00  0.00    -0.200 F 
ATOM    104  F   UNL     1      -5.220  14.431   5.657  1.00  0.00    -0.200 F 
ENDBRANCH  70  94
BRANCH  82 105
ATOM    105  C   UNL     1      -8.589  11.645  14.963  1.00  0.00     0.064 A 
ATOM    106  C   UNL     1      -9.374  10.924  14.046  1.00  0.00     0.173 A 
ATOM    107  C   UNL     1      -9.248  12.205  16.065  1.00  0.00     0.173 A 
ATOM    108  F   UNL     1      -8.816  10.268  13.024  1.00  0.00    -0.203 F 
ATOM    109  C   UNL     1     -10.754  10.807  14.203  1.00  0.00     0.198 A 
ATOM    110  C   UNL     1     -10.621  12.056  16.241  1.00  0.00     0.198 A 
ATOM    111  F   UNL     1      -8.546  12.855  17.007  1.00  0.00    -0.203 F 
ATOM    112  F   UNL     1     -11.477  10.118  13.306  1.00  0.00    -0.200 F 
ATOM    113  C   UNL     1     -11.376  11.367  15.305  1.00  0.00     0.200 A 
ATOM    114  F   UNL     1     -11.210  12.555  17.336  1.00  0.00    -0.200 F 
ATOM    115  F   UNL     1     -12.696  11.218  15.481  1.00  0.00    -0.200 F 
ENDBRANCH  82 105
ENDBRANCH  56  57
ENDBRANCH  48  51
ENDBRANCH  46  47
ENDBRANCH  45  46
ENDBRANCH  44  45
ENDBRANCH  42  44
ENDBRANCH  39  40
ENDBRANCH  38  39
ENDBRANCH  37  38
ENDBRANCH   1  37
TORSDOF 25
