REMARK SMILES CC/C(=C/C(=O)[C@H](Cc1ccc(Cl)cc1Cl)C(=O)NCCCNC(=O)c1ccc(-c2c3nc(c(-c4c(F)c(F)c(F)c(F)c4F)c4ccc([nH]4)c(-c4c(F)c(F)c(F)c(F)c4F)c4nc(c(-c5c(F)c(F)c(F)c(F)c5F)c5ccc2[nH]5)C=C4)C=C3)cc1)N(C)C
REMARK SMILES IDX 20 1 19 2 17 3 18 4 7 6 5 7 6 8 4 9 3 10 2 11 1 12 89 13
REMARK SMILES IDX 90 14 91 15 8 16 9 17 10 18 15 19 11 20 14 21 16 22 12 23
REMARK SMILES IDX 13 24 21 25 22 26 23 27 24 28 25 30 26 31 27 32 88 33 28 34
REMARK SMILES IDX 87 35 29 36 30 37 31 38 81 39 32 40 86 41 80 42 82 43 33 44
REMARK SMILES IDX 85 45 79 46 78 47 34 49 66 50 46 51 65 52 47 53 50 54 64 55
REMARK SMILES IDX 83 56 48 57 49 58 63 60 84 61 51 62 35 63 36 64 44 65 37 66
REMARK SMILES IDX 38 67 42 68 45 69 39 70 40 71 43 72 41 73 67 74 68 75 76 76
REMARK SMILES IDX 69 77 70 78 74 79 77 80 71 81 72 82 75 83 73 84 52 85 53 86
REMARK SMILES IDX 61 87 54 88 55 89 59 90 62 91 56 92 57 93 60 94 58 95
REMARK H PARENT 19 5 23 29 82 48 50 59
REMARK Flexibility Score: inf
ROOT
ATOM      1  C   UNL     1       3.178  -0.967   0.883  1.00  0.00     0.117 C 
ENDROOT
BRANCH   1   2
ATOM      2  N   UNL     1       3.506  -1.200   2.280  1.00  0.00    -0.355 N 
ATOM      3  C   UNL     1       3.164  -2.155   3.191  1.00  0.00     0.231 C 
ATOM      4  O   UNL     1       3.879  -2.160   4.204  1.00  0.00    -0.274 OA
ATOM      5  H   UNL     1       4.109  -0.516   2.650  1.00  0.00     0.163 HD
BRANCH   3   6
ATOM      6  C   UNL     1       1.935  -3.073   3.130  1.00  0.00     0.154 C 
BRANCH   6   7
ATOM      7  C   UNL     1       2.183  -4.578   3.284  1.00  0.00     0.170 C 
ATOM      8  O   UNL     1       3.264  -5.045   3.645  1.00  0.00    -0.294 OA
BRANCH   7   9
ATOM      9  C   UNL     1       1.117  -5.556   2.891  1.00  0.00     0.069 C 
ATOM     10  C   UNL     1      -0.215  -5.489   3.101  1.00  0.00     0.016 C 
BRANCH  10  11
ATOM     11  C   UNL     1      -1.062  -6.247   2.074  1.00  0.00     0.050 C 
ATOM     12  C   UNL     1      -2.114  -7.193   2.626  1.00  0.00     0.010 C 
ENDBRANCH  10  11
BRANCH  10  13
ATOM     13  N   UNL     1      -0.866  -4.689   4.055  1.00  0.00    -0.381 N 
ATOM     14  C   UNL     1      -2.206  -4.119   3.877  1.00  0.00     0.143 C 
ATOM     15  C   UNL     1      -0.323  -4.461   5.402  1.00  0.00     0.143 C 
ENDBRANCH  10  13
ENDBRANCH   7   9
ENDBRANCH   6   7
BRANCH   6  16
ATOM     16  C   UNL     1       0.772  -2.614   2.254  1.00  0.00     0.059 C 
BRANCH  16  17
ATOM     17  C   UNL     1       0.438  -2.985   0.818  1.00  0.00    -0.028 A 
ATOM     18  C   UNL     1      -0.792  -2.434   0.377  1.00  0.00     0.007 A 
ATOM     19  C   UNL     1       1.138  -3.792  -0.095  1.00  0.00     0.045 A 
ATOM     20  C   UNL     1      -1.308  -2.682  -0.893  1.00  0.00     0.021 A 
ATOM     21  C   UNL     1       0.614  -4.045  -1.373  1.00  0.00     0.041 A 
ATOM     22  Cl  UNL     1       2.681  -4.504   0.202  1.00  0.00    -0.084 Cl
ATOM     23  C   UNL     1      -0.602  -3.495  -1.764  1.00  0.00     0.042 A 
ATOM     24  Cl  UNL     1      -1.231  -3.818  -3.330  1.00  0.00    -0.084 Cl
ENDBRANCH  16  17
ENDBRANCH   6  16
ENDBRANCH   3   6
ENDBRANCH   1   2
BRANCH   1  25
ATOM     25  C   UNL     1       2.038   0.019   0.631  1.00  0.00     0.042 C 
BRANCH  25  26
ATOM     26  C   UNL     1       2.461   1.476   0.643  1.00  0.00     0.118 C 
BRANCH  26  27
ATOM     27  N   UNL     1       2.991   1.885  -0.644  1.00  0.00    -0.352 N 
ATOM     28  C   UNL     1       2.369   2.402  -1.754  1.00  0.00     0.251 C 
ATOM     29  H   UNL     1       3.964   1.772  -0.738  1.00  0.00     0.163 HD
ATOM     30  O   UNL     1       2.971   2.369  -2.825  1.00  0.00    -0.269 OA
BRANCH  28  31
ATOM     31  C   UNL     1       1.007   3.000  -1.711  1.00  0.00     0.039 A 
ATOM     32  C   UNL     1       0.232   2.968  -2.879  1.00  0.00     0.014 A 
ATOM     33  C   UNL     1       0.529   3.709  -0.608  1.00  0.00     0.014 A 
ATOM     34  C   UNL     1      -0.998   3.635  -2.938  1.00  0.00     0.010 A 
ATOM     35  C   UNL     1      -0.742   4.289  -0.631  1.00  0.00     0.010 A 
ATOM     36  C   UNL     1      -1.500   4.300  -1.810  1.00  0.00    -0.014 A 
BRANCH  36  37
ATOM     37  C   UNL     1      -2.761   5.089  -1.865  1.00  0.00     0.031 A 
ATOM     38  C   UNL     1      -2.725   6.579  -1.624  1.00  0.00     0.074 A 
ATOM     39  C   UNL     1      -3.940   4.476  -2.079  1.00  0.00     0.049 A 
ATOM     40  N   UNL     1      -3.715   7.431  -1.523  1.00  0.00    -0.248 NA
ATOM     41  C   UNL     1      -1.397   7.185  -1.435  1.00  0.00     0.031 C 
ATOM     42  C   UNL     1      -4.120   3.039  -2.290  1.00  0.00     0.029 A 
ATOM     43  N   UNL     1      -5.215   4.983  -2.143  1.00  0.00    -0.354 N 
ATOM     44  C   UNL     1      -3.132   8.656  -1.222  1.00  0.00     0.074 A 
ATOM     45  C   UNL     1      -1.708   8.431  -1.110  1.00  0.00     0.031 C 
ATOM     46  C   UNL     1      -5.425   2.783  -2.477  1.00  0.00     0.029 A 
ATOM     47  C   UNL     1      -6.177   4.030  -2.365  1.00  0.00     0.049 A 
ATOM     48  H   UNL     1      -5.419   5.941  -2.038  1.00  0.00     0.167 HD
ATOM     49  C   UNL     1      -3.725   9.866  -1.076  1.00  0.00     0.037 A 
ATOM     50  C   UNL     1      -7.515   4.146  -2.463  1.00  0.00     0.037 A 
ATOM     51  C   UNL     1      -5.134  10.101  -1.251  1.00  0.00     0.049 A 
ATOM     52  C   UNL     1      -8.148   5.506  -2.338  1.00  0.00     0.074 A 
ATOM     53  C   UNL     1      -5.822  11.301  -1.203  1.00  0.00     0.029 A 
ATOM     54  N   UNL     1      -6.069   9.113  -1.520  1.00  0.00    -0.354 N 
ATOM     55  N   UNL     1      -7.579   6.664  -2.105  1.00  0.00    -0.248 NA
ATOM     56  C   UNL     1      -9.607   5.577  -2.500  1.00  0.00     0.031 C 
ATOM     57  C   UNL     1      -7.180  11.034  -1.409  1.00  0.00     0.029 A 
ATOM     58  C   UNL     1      -7.331   9.674  -1.626  1.00  0.00     0.049 A 
ATOM     59  H   UNL     1      -5.866   8.155  -1.620  1.00  0.00     0.167 HD
ATOM     60  C   UNL     1      -8.603   7.601  -2.114  1.00  0.00     0.074 A 
ATOM     61  C   UNL     1      -9.828   6.879  -2.391  1.00  0.00     0.031 C 
ATOM     62  C   UNL     1      -8.536   8.940  -1.911  1.00  0.00     0.037 A 
BRANCH  49  63
ATOM     63  C   UNL     1      -2.850  11.033  -0.716  1.00  0.00     0.064 A 
ATOM     64  C   UNL     1      -1.934  11.578  -1.628  1.00  0.00     0.173 A 
ATOM     65  C   UNL     1      -2.951  11.633   0.548  1.00  0.00     0.173 A 
ATOM     66  F   UNL     1      -1.790  11.035  -2.847  1.00  0.00    -0.203 F 
ATOM     67  C   UNL     1      -1.128  12.659  -1.277  1.00  0.00     0.198 A 
ATOM     68  C   UNL     1      -2.165  12.732   0.886  1.00  0.00     0.198 A 
ATOM     69  F   UNL     1      -3.815  11.156   1.457  1.00  0.00    -0.203 F 
ATOM     70  F   UNL     1      -0.223  13.128  -2.147  1.00  0.00    -0.200 F 
ATOM     71  C   UNL     1      -1.249  13.238  -0.023  1.00  0.00     0.200 A 
ATOM     72  F   UNL     1      -2.291  13.299   2.094  1.00  0.00    -0.200 F 
ATOM     73  F   UNL     1      -0.475  14.280   0.312  1.00  0.00    -0.200 F 
ENDBRANCH  49  63
BRANCH  50  74
ATOM     74  C   UNL     1      -8.344   2.940  -2.720  1.00  0.00     0.064 A 
ATOM     75  C   UNL     1      -8.962   2.745  -3.962  1.00  0.00     0.173 A 
ATOM     76  C   UNL     1      -8.525   1.956  -1.738  1.00  0.00     0.173 A 
ATOM     77  F   UNL     1      -8.835   3.669  -4.926  1.00  0.00    -0.203 F 
ATOM     78  C   UNL     1      -9.742   1.617  -4.209  1.00  0.00     0.198 A 
ATOM     79  C   UNL     1      -9.284   0.816  -1.994  1.00  0.00     0.198 A 
ATOM     80  F   UNL     1      -7.949   2.093  -0.535  1.00  0.00    -0.203 F 
ATOM     81  F   UNL     1     -10.352   1.472  -5.393  1.00  0.00    -0.200 F 
ATOM     82  C   UNL     1      -9.897   0.650  -3.227  1.00  0.00     0.200 A 
ATOM     83  F   UNL     1      -9.418  -0.123  -1.047  1.00  0.00    -0.200 F 
ATOM     84  F   UNL     1     -10.639  -0.439  -3.466  1.00  0.00    -0.200 F 
ENDBRANCH  50  74
BRANCH  62  85
ATOM     85  C   UNL     1      -9.816   9.714  -2.008  1.00  0.00     0.064 A 
ATOM     86  C   UNL     1     -10.789   9.653  -1.000  1.00  0.00     0.173 A 
ATOM     87  C   UNL     1     -10.051  10.563  -3.101  1.00  0.00     0.173 A 
ATOM     88  F   UNL     1     -10.615   8.845   0.056  1.00  0.00    -0.203 F 
ATOM     89  C   UNL     1     -11.962  10.397  -1.094  1.00  0.00     0.198 A 
ATOM     90  C   UNL     1     -11.213  11.325  -3.178  1.00  0.00     0.198 A 
ATOM     91  F   UNL     1      -9.147  10.661  -4.087  1.00  0.00    -0.203 F 
ATOM     92  F   UNL     1     -12.897  10.292  -0.139  1.00  0.00    -0.200 F 
ATOM     93  C   UNL     1     -12.170  11.237  -2.178  1.00  0.00     0.200 A 
ATOM     94  F   UNL     1     -11.408  12.144  -4.220  1.00  0.00    -0.200 F 
ATOM     95  F   UNL     1     -13.297  11.957  -2.262  1.00  0.00    -0.200 F 
ENDBRANCH  62  85
ENDBRANCH  36  37
ENDBRANCH  28  31
ENDBRANCH  26  27
ENDBRANCH  25  26
ENDBRANCH   1  25
TORSDOF 16
