REMARK SMILES COC(=O)[C@@H]1CN(C(=O)N(CC(=O)NCCCNC(=O)c2ccc(-c3c4nc(c(-c5c(F)c(F)c(F)c(F)c5F)c5ccc([nH]5)c(-c5c(F)c(F)c(F)c(F)c5F)c5nc(c(-c6c(F)c(F)c(F)c(F)c6F)c6ccc3[nH]6)C=C5)C=C4)cc2)C(C)(C)C)C[C@H]1C
REMARK SMILES IDX 12 1 13 2 14 3 11 5 10 6 8 7 9 8 7 9 5 10 6 11 89 12 88 13
REMARK SMILES IDX 90 14 3 15 4 16 2 17 1 18 84 19 85 20 86 21 87 22 15 23
REMARK SMILES IDX 16 24 17 25 18 26 19 27 20 29 21 30 22 31 83 32 23 33 82 34
REMARK SMILES IDX 24 35 25 36 26 37 76 38 27 39 81 40 75 41 77 42 28 43 80 44
REMARK SMILES IDX 74 45 73 46 29 48 61 49 41 50 60 51 42 52 45 53 59 54 78 55
REMARK SMILES IDX 43 56 44 57 58 59 79 60 46 61 30 62 31 63 39 64 32 65 33 66
REMARK SMILES IDX 37 67 40 68 34 69 35 70 38 71 36 72 62 73 63 74 71 75 64 76
REMARK SMILES IDX 65 77 69 78 72 79 66 80 67 81 70 82 68 83 47 84 48 85 56 86
REMARK SMILES IDX 49 87 50 88 54 89 57 90 51 91 52 92 55 93 53 94
REMARK H PARENT 14 4 18 28 77 47 45 58
REMARK Flexibility Score: inf
ROOT
ATOM      1  C   UNL     1       5.871  -0.787   1.231  1.00  0.00     0.239 C 
ATOM      2  O   UNL     1       6.221  -1.436   0.236  1.00  0.00    -0.273 OA
ATOM      3  N   UNL     1       6.256   0.519   1.245  1.00  0.00    -0.354 N 
ATOM      4  H   UNL     1       7.009   0.723   0.643  1.00  0.00     0.163 HD
ENDROOT
BRANCH   1   5
ATOM      5  C   UNL     1       4.937  -1.446   2.267  1.00  0.00     0.221 C 
BRANCH   5   6
ATOM      6  N   UNL     1       5.110  -1.106   3.681  1.00  0.00    -0.311 N 
BRANCH   6   7
ATOM      7  C   UNL     1       4.280  -0.269   4.428  1.00  0.00     0.320 C 
ATOM      8  O   UNL     1       4.518  -0.085   5.627  1.00  0.00    -0.248 OA
BRANCH   7   9
ATOM      9  N   UNL     1       3.205   0.410   3.889  1.00  0.00    -0.323 N 
ATOM     10  C   UNL     1       1.938   1.842   2.453  1.00  0.00     0.123 C 
ATOM     11  C   UNL     1       2.570   0.460   2.580  1.00  0.00     0.137 C 
ATOM     12  C   UNL     1       1.976   2.443   3.872  1.00  0.00     0.021 C 
ATOM     13  C   UNL     1       2.433   1.288   4.764  1.00  0.00     0.125 C 
ATOM     14  C   UNL     1       2.960   3.615   3.952  1.00  0.00     0.010 C 
BRANCH  10  15
ATOM     15  C   UNL     1       0.549   1.768   1.848  1.00  0.00     0.310 C 
ATOM     16  O   UNL     1      -0.489   1.924   2.466  1.00  0.00    -0.252 OA
BRANCH  15  17
ATOM     17  O   UNL     1       0.578   1.656   0.490  1.00  0.00    -0.469 OA
ATOM     18  C   UNL     1       0.850   0.349  -0.020  1.00  0.00     0.282 C 
ENDBRANCH  15  17
ENDBRANCH  10  15
ENDBRANCH   7   9
ENDBRANCH   6   7
BRANCH   6  19
ATOM     19  C   UNL     1       6.267  -1.809   4.404  1.00  0.00     0.037 C 
ATOM     20  C   UNL     1       7.297  -0.801   4.959  1.00  0.00     0.034 C 
ATOM     21  C   UNL     1       5.734  -2.700   5.551  1.00  0.00     0.034 C 
ATOM     22  C   UNL     1       7.108  -2.767   3.506  1.00  0.00     0.034 C 
ENDBRANCH   6  19
ENDBRANCH   5   6
ENDBRANCH   1   5
BRANCH   3  23
ATOM     23  C   UNL     1       5.762   1.661   1.983  1.00  0.00     0.117 C 
BRANCH  23  24
ATOM     24  C   UNL     1       6.755   2.298   2.935  1.00  0.00     0.042 C 
BRANCH  24  25
ATOM     25  C   UNL     1       7.964   2.900   2.248  1.00  0.00     0.118 C 
BRANCH  25  26
ATOM     26  N   UNL     1       7.621   4.095   1.488  1.00  0.00    -0.352 N 
ATOM     27  C   UNL     1       7.948   5.410   1.711  1.00  0.00     0.251 C 
ATOM     28  H   UNL     1       7.067   3.934   0.690  1.00  0.00     0.163 HD
ATOM     29  O   UNL     1       7.360   6.291   1.091  1.00  0.00    -0.269 OA
BRANCH  27  30
ATOM     30  C   UNL     1       8.992   5.774   2.696  1.00  0.00     0.039 A 
ATOM     31  C   UNL     1       8.822   6.926   3.470  1.00  0.00     0.014 A 
ATOM     32  C   UNL     1      10.154   5.012   2.836  1.00  0.00     0.014 A 
ATOM     33  C   UNL     1       9.786   7.276   4.419  1.00  0.00     0.010 A 
ATOM     34  C   UNL     1      11.062   5.303   3.848  1.00  0.00     0.010 A 
ATOM     35  C   UNL     1      10.899   6.448   4.639  1.00  0.00    -0.014 A 
BRANCH  35  36
ATOM     36  C   UNL     1      11.919   6.774   5.668  1.00  0.00     0.031 A 
ATOM     37  C   UNL     1      13.345   7.032   5.259  1.00  0.00     0.074 A 
ATOM     38  C   UNL     1      11.580   6.772   6.971  1.00  0.00     0.049 A 
ATOM     39  N   UNL     1      14.396   7.250   6.008  1.00  0.00    -0.248 NA
ATOM     40  C   UNL     1      13.634   7.009   3.816  1.00  0.00     0.031 C 
ATOM     41  C   UNL     1      10.245   6.486   7.499  1.00  0.00     0.029 A 
ATOM     42  N   UNL     1      12.337   7.006   8.092  1.00  0.00    -0.354 N 
ATOM     43  C   UNL     1      15.467   7.369   5.132  1.00  0.00     0.074 A 
ATOM     44  C   UNL     1      14.952   7.141   3.800  1.00  0.00     0.031 C 
ATOM     45  C   UNL     1      10.270   6.586   8.837  1.00  0.00     0.029 A 
ATOM     46  C   UNL     1      11.629   6.904   9.265  1.00  0.00     0.049 A 
ATOM     47  H   UNL     1      13.295   7.228   8.059  1.00  0.00     0.167 HD
ATOM     48  C   UNL     1      16.759   7.667   5.409  1.00  0.00     0.037 A 
ATOM     49  C   UNL     1      12.034   7.044  10.542  1.00  0.00     0.037 A 
ATOM     50  C   UNL     1      17.261   7.927   6.732  1.00  0.00     0.049 A 
ATOM     51  C   UNL     1      13.473   7.382  10.822  1.00  0.00     0.074 A 
ATOM     52  C   UNL     1      18.538   8.300   7.112  1.00  0.00     0.029 A 
ATOM     53  N   UNL     1      16.507   7.841   7.893  1.00  0.00    -0.354 N 
ATOM     54  N   UNL     1      14.462   7.559   9.980  1.00  0.00    -0.248 NA
ATOM     55  C   UNL     1      13.850   7.548  12.233  1.00  0.00     0.031 C 
ATOM     56  C   UNL     1      18.569   8.396   8.507  1.00  0.00     0.029 A 
ATOM     57  C   UNL     1      17.297   8.135   8.993  1.00  0.00     0.049 A 
ATOM     58  H   UNL     1      15.552   7.606   7.930  1.00  0.00     0.167 HD
ATOM     59  C   UNL     1      15.568   7.886  10.753  1.00  0.00     0.074 A 
ATOM     60  C   UNL     1      15.124   7.898  12.132  1.00  0.00     0.031 C 
ATOM     61  C   UNL     1      16.837   8.153  10.357  1.00  0.00     0.037 A 
BRANCH  48  62
ATOM     62  C   UNL     1      17.719   7.737   4.256  1.00  0.00     0.064 A 
ATOM     63  C   UNL     1      17.651   8.764   3.301  1.00  0.00     0.173 A 
ATOM     64  C   UNL     1      18.742   6.785   4.122  1.00  0.00     0.173 A 
ATOM     65  F   UNL     1      16.686   9.692   3.375  1.00  0.00    -0.203 F 
ATOM     66  C   UNL     1      18.552   8.817   2.240  1.00  0.00     0.198 A 
ATOM     67  C   UNL     1      19.660   6.861   3.078  1.00  0.00     0.198 A 
ATOM     68  F   UNL     1      18.857   5.786   5.009  1.00  0.00    -0.203 F 
ATOM     69  F   UNL     1      18.433   9.777   1.312  1.00  0.00    -0.200 F 
ATOM     70  C   UNL     1      19.559   7.871   2.134  1.00  0.00     0.200 A 
ATOM     71  F   UNL     1      20.642   5.954   2.984  1.00  0.00    -0.200 F 
ATOM     72  F   UNL     1      20.429   7.929   1.116  1.00  0.00    -0.200 F 
ENDBRANCH  48  62
BRANCH  49  73
ATOM     73  C   UNL     1      11.056   6.893  11.652  1.00  0.00     0.064 A 
ATOM     74  C   UNL     1      10.663   8.000  12.418  1.00  0.00     0.173 A 
ATOM     75  C   UNL     1      10.501   5.646  11.974  1.00  0.00     0.173 A 
ATOM     76  F   UNL     1      11.182   9.209  12.161  1.00  0.00    -0.203 F 
ATOM     77  C   UNL     1       9.770   7.861  13.478  1.00  0.00     0.198 A 
ATOM     78  C   UNL     1       9.585   5.514  13.015  1.00  0.00     0.198 A 
ATOM     79  F   UNL     1      10.841   4.557  11.269  1.00  0.00    -0.203 F 
ATOM     80  F   UNL     1       9.449   8.927  14.224  1.00  0.00    -0.200 F 
ATOM     81  C   UNL     1       9.227   6.619  13.772  1.00  0.00     0.200 A 
ATOM     82  F   UNL     1       9.053   4.315  13.289  1.00  0.00    -0.200 F 
ATOM     83  F   UNL     1       8.367   6.487  14.790  1.00  0.00    -0.200 F 
ENDBRANCH  49  73
BRANCH  61  84
ATOM     84  C   UNL     1      17.827   8.521  11.424  1.00  0.00     0.064 A 
ATOM     85  C   UNL     1      18.316   7.574  12.335  1.00  0.00     0.173 A 
ATOM     86  C   UNL     1      18.320   9.832  11.510  1.00  0.00     0.173 A 
ATOM     87  F   UNL     1      17.865   6.310  12.304  1.00  0.00    -0.203 F 
ATOM     88  C   UNL     1      19.241   7.932  13.312  1.00  0.00     0.198 A 
ATOM     89  C   UNL     1      19.269  10.179  12.467  1.00  0.00     0.198 A 
ATOM     90  F   UNL     1      17.890  10.774  10.656  1.00  0.00    -0.203 F 
ATOM     91  F   UNL     1      19.657   7.023  14.204  1.00  0.00    -0.200 F 
ATOM     92  C   UNL     1      19.722   9.232  13.372  1.00  0.00     0.200 A 
ATOM     93  F   UNL     1      19.743  11.432  12.514  1.00  0.00    -0.200 F 
ATOM     94  F   UNL     1      20.618   9.573  14.309  1.00  0.00    -0.200 F 
ENDBRANCH  61  84
ENDBRANCH  35  36
ENDBRANCH  27  30
ENDBRANCH  25  26
ENDBRANCH  24  25
ENDBRANCH  23  24
ENDBRANCH   3  23
TORSDOF 16
