REMARK SMILES C[NH+](C)Cc1noc(CCCCC(=O)NCCCNC(=O)c2ccc(-c3c4nc(c(-c5c(F)c(F)c(F)c(F)c5F)c5ccc([nH]5)c(-c5c(F)c(F)c(F)c(F)c5F)c5nc(c(-c6c(F)c(F)c(F)c(F)c6F)c6ccc3[nH]6)C=C5)C=C4)cc2)n1
REMARK SMILES IDX 13 1 14 2 15 3 12 5 11 6 10 7 9 8 8 9 5 10 6 11 85 12 7 13
REMARK SMILES IDX 4 14 2 15 1 16 3 17 16 19 17 20 18 21 19 22 20 23 21 25
REMARK SMILES IDX 22 26 23 27 84 28 24 29 83 30 25 31 26 32 27 33 77 34 28 35
REMARK SMILES IDX 82 36 76 37 78 38 29 39 81 40 75 41 74 42 30 44 62 45 42 46
REMARK SMILES IDX 61 47 43 48 46 49 60 50 79 51 44 52 45 53 59 55 80 56 47 57
REMARK SMILES IDX 31 58 32 59 40 60 33 61 34 62 38 63 41 64 35 65 36 66 39 67
REMARK SMILES IDX 37 68 63 69 64 70 72 71 65 72 66 73 70 74 73 75 67 76 68 77
REMARK SMILES IDX 71 78 69 79 48 80 49 81 57 82 50 83 51 84 55 85 58 86 52 87
REMARK SMILES IDX 53 88 56 89 54 90
REMARK H PARENT 15 4 2 18 19 24 78 43 46 54
REMARK Flexibility Score: inf
ROOT
ATOM      1  C   UNL     1      -0.945  -8.565  -1.021  1.00  0.00     0.219 C 
ATOM      2  O   UNL     1      -1.908  -9.152  -1.517  1.00  0.00    -0.275 OA
ATOM      3  N   UNL     1       0.007  -9.314  -0.398  1.00  0.00    -0.356 N 
ATOM      4  H   UNL     1      -0.117 -10.288  -0.475  1.00  0.00     0.163 HD
ENDROOT
BRANCH   1   5
ATOM      5  C   UNL     1      -0.816  -7.056  -1.117  1.00  0.00     0.100 C 
BRANCH   5   6
ATOM      6  C   UNL     1      -1.696  -6.290  -0.126  1.00  0.00     0.010 C 
BRANCH   6   7
ATOM      7  C   UNL     1      -1.158  -6.096   1.298  1.00  0.00     0.010 C 
BRANCH   7   8
ATOM      8  C   UNL     1       0.253  -5.520   1.434  1.00  0.00     0.100 C 
BRANCH   8   9
ATOM      9  C   UNL     1       0.300  -4.053   1.282  1.00  0.00     0.226 A 
ATOM     10  C   UNL     1       0.570  -1.983   1.400  1.00  0.00     0.226 A 
ATOM     11  N   UNL     1       0.025  -2.167   0.187  1.00  0.00    -0.056 NA
ATOM     12  N   UNL     1       0.762  -3.147   2.110  1.00  0.00    -0.191 NA
ATOM     13  O   UNL     1      -0.145  -3.540   0.105  1.00  0.00    -0.339 OA
BRANCH  10  14
ATOM     14  C   UNL     1       0.993  -0.658   1.968  1.00  0.00     0.344 C 
BRANCH  14  15
ATOM     15  N   UNL     1       0.533   0.567   1.284  1.00  0.00    -0.333 N 
ATOM     16  C   UNL     1       1.087   0.721  -0.057  1.00  0.00     0.332 C 
ATOM     17  C   UNL     1      -0.919   0.715   1.298  1.00  0.00     0.332 C 
ATOM     18  H   UNL     1       0.908   1.338   1.837  1.00  0.00     0.348 HD
ENDBRANCH  14  15
ENDBRANCH  10  14
ENDBRANCH   8   9
ENDBRANCH   7   8
ENDBRANCH   6   7
ENDBRANCH   5   6
ENDBRANCH   1   5
BRANCH   3  19
ATOM     19  C   UNL     1       1.173  -8.905   0.361  1.00  0.00     0.117 C 
BRANCH  19  20
ATOM     20  C   UNL     1       0.885  -8.936   1.857  1.00  0.00     0.042 C 
BRANCH  20  21
ATOM     21  C   UNL     1       1.146 -10.285   2.502  1.00  0.00     0.118 C 
BRANCH  21  22
ATOM     22  N   UNL     1       2.564 -10.535   2.690  1.00  0.00    -0.352 N 
ATOM     23  C   UNL     1       3.269 -10.813   3.835  1.00  0.00     0.251 C 
ATOM     24  H   UNL     1       3.105 -10.500   1.868  1.00  0.00     0.163 HD
ATOM     25  O   UNL     1       4.496 -10.797   3.799  1.00  0.00    -0.269 OA
BRANCH  23  26
ATOM     26  C   UNL     1       2.575 -11.111   5.112  1.00  0.00     0.039 A 
ATOM     27  C   UNL     1       3.171 -10.697   6.308  1.00  0.00     0.014 A 
ATOM     28  C   UNL     1       1.378 -11.829   5.154  1.00  0.00     0.014 A 
ATOM     29  C   UNL     1       2.552 -10.970   7.530  1.00  0.00     0.010 A 
ATOM     30  C   UNL     1       0.708 -12.006   6.362  1.00  0.00     0.010 A 
ATOM     31  C   UNL     1       1.301 -11.606   7.567  1.00  0.00    -0.014 A 
BRANCH  31  32
ATOM     32  C   UNL     1       0.629 -11.911   8.857  1.00  0.00     0.031 A 
ATOM     33  C   UNL     1       0.353 -13.341   9.242  1.00  0.00     0.074 A 
ATOM     34  C   UNL     1       0.229 -10.906   9.660  1.00  0.00     0.049 A 
ATOM     35  N   UNL     1      -0.265 -13.813  10.296  1.00  0.00    -0.248 NA
ATOM     36  C   UNL     1       0.804 -14.380   8.302  1.00  0.00     0.031 C 
ATOM     37  C   UNL     1       0.389  -9.480   9.373  1.00  0.00     0.029 A 
ATOM     38  N   UNL     1      -0.399 -10.931  10.880  1.00  0.00    -0.354 N 
ATOM     39  C   UNL     1      -0.288 -15.193  10.135  1.00  0.00     0.074 A 
ATOM     40  C   UNL     1       0.313 -15.479   8.852  1.00  0.00     0.031 C 
ATOM     41  C   UNL     1      -0.101  -8.767  10.400  1.00  0.00     0.029 A 
ATOM     42  C   UNL     1      -0.642  -9.683  11.399  1.00  0.00     0.049 A 
ATOM     43  H   UNL     1      -0.652 -11.764  11.339  1.00  0.00     0.167 HD
ATOM     44  C   UNL     1      -0.738 -16.139  10.993  1.00  0.00     0.037 A 
ATOM     45  C   UNL     1      -1.236  -9.320  12.552  1.00  0.00     0.037 A 
ATOM     46  C   UNL     1      -1.309 -15.852  12.282  1.00  0.00     0.049 A 
ATOM     47  C   UNL     1      -1.719 -10.391  13.494  1.00  0.00     0.074 A 
ATOM     48  C   UNL     1      -1.754 -16.737  13.247  1.00  0.00     0.029 A 
ATOM     49  N   UNL     1      -1.510 -14.575  12.786  1.00  0.00    -0.354 N 
ATOM     50  N   UNL     1      -1.677 -11.694  13.358  1.00  0.00    -0.248 NA
ATOM     51  C   UNL     1      -2.319  -9.939  14.756  1.00  0.00     0.031 C 
ATOM     52  C   UNL     1      -2.263 -15.996  14.319  1.00  0.00     0.029 A 
ATOM     53  C   UNL     1      -2.085 -14.649  14.045  1.00  0.00     0.049 A 
ATOM     54  H   UNL     1      -1.278 -13.740  12.319  1.00  0.00     0.167 HD
ATOM     55  C   UNL     1      -2.216 -12.218  14.525  1.00  0.00     0.074 A 
ATOM     56  C   UNL     1      -2.560 -11.090  15.367  1.00  0.00     0.031 C 
ATOM     57  C   UNL     1      -2.411 -13.515  14.871  1.00  0.00     0.037 A 
BRANCH  44  58
ATOM     58  C   UNL     1      -0.618 -17.576  10.566  1.00  0.00     0.064 A 
ATOM     59  C   UNL     1       0.631 -18.205  10.446  1.00  0.00     0.173 A 
ATOM     60  C   UNL     1      -1.763 -18.341  10.299  1.00  0.00     0.173 A 
ATOM     61  F   UNL     1       1.760 -17.517  10.677  1.00  0.00    -0.203 F 
ATOM     62  C   UNL     1       0.731 -19.534  10.040  1.00  0.00     0.198 A 
ATOM     63  C   UNL     1      -1.661 -19.679   9.927  1.00  0.00     0.198 A 
ATOM     64  F   UNL     1      -2.983 -17.792  10.403  1.00  0.00    -0.203 F 
ATOM     65  F   UNL     1       1.937 -20.094   9.877  1.00  0.00    -0.200 F 
ATOM     66  C   UNL     1      -0.415 -20.272   9.789  1.00  0.00     0.200 A 
ATOM     67  F   UNL     1      -2.771 -20.395   9.697  1.00  0.00    -0.200 F 
ATOM     68  F   UNL     1      -0.319 -21.552   9.404  1.00  0.00    -0.200 F 
ENDBRANCH  44  58
BRANCH  45  69
ATOM     69  C   UNL     1      -1.381  -7.880  12.894  1.00  0.00     0.064 A 
ATOM     70  C   UNL     1      -0.654  -7.312  13.949  1.00  0.00     0.173 A 
ATOM     71  C   UNL     1      -2.251  -7.045  12.179  1.00  0.00     0.173 A 
ATOM     72  F   UNL     1       0.178  -8.073  14.675  1.00  0.00    -0.203 F 
ATOM     73  C   UNL     1      -0.811  -5.971  14.293  1.00  0.00     0.198 A 
ATOM     74  C   UNL     1      -2.385  -5.696  12.504  1.00  0.00     0.198 A 
ATOM     75  F   UNL     1      -2.964  -7.536  11.155  1.00  0.00    -0.203 F 
ATOM     76  F   UNL     1      -0.142  -5.467  15.339  1.00  0.00    -0.200 F 
ATOM     77  C   UNL     1      -1.672  -5.163  13.567  1.00  0.00     0.200 A 
ATOM     78  F   UNL     1      -3.205  -4.915  11.788  1.00  0.00    -0.200 F 
ATOM     79  F   UNL     1      -1.821  -3.872  13.896  1.00  0.00    -0.200 F 
ENDBRANCH  45  69
BRANCH  57  80
ATOM     80  C   UNL     1      -2.984 -13.783  16.232  1.00  0.00     0.064 A 
ATOM     81  C   UNL     1      -4.320 -13.491  16.542  1.00  0.00     0.173 A 
ATOM     82  C   UNL     1      -2.191 -14.369  17.231  1.00  0.00     0.173 A 
ATOM     83  F   UNL     1      -5.116 -12.918  15.627  1.00  0.00    -0.203 F 
ATOM     84  C   UNL     1      -4.831 -13.743  17.813  1.00  0.00     0.198 A 
ATOM     85  C   UNL     1      -2.714 -14.651  18.489  1.00  0.00     0.198 A 
ATOM     86  F   UNL     1      -0.908 -14.677  16.983  1.00  0.00    -0.203 F 
ATOM     87  F   UNL     1      -6.094 -13.403  18.104  1.00  0.00    -0.200 F 
ATOM     88  C   UNL     1      -4.030 -14.329  18.782  1.00  0.00     0.200 A 
ATOM     89  F   UNL     1      -1.944 -15.232  19.419  1.00  0.00    -0.200 F 
ATOM     90  F   UNL     1      -4.526 -14.576  20.002  1.00  0.00    -0.200 F 
ENDBRANCH  57  80
ENDBRANCH  31  32
ENDBRANCH  23  26
ENDBRANCH  21  22
ENDBRANCH  20  21
ENDBRANCH  19  20
ENDBRANCH   3  19
TORSDOF 16
