REMARK SMILES CC(C)[NH2+][C@@]1(C(=O)NCCCNC(=O)c2ccc(-c3c4nc(c(-c5c(F)c(F)c(F)c(F)c5F)c5ccc([nH]5)c(-c5c(F)c(F)c(F)c(F)c5F)c5nc(c(-c6c(F)c(F)c(F)c(F)c6F)c6ccc3[nH]6)C=C5)C=C4)cc2)CCC[C@@H]([NH+]2CCS(=O)CC2)C1
REMARK SMILES IDX 10 1 9 2 8 3 6 4 7 5 5 7 78 8 89 9 79 10 81 11 80 12 4 13
REMARK SMILES IDX 2 16 1 17 3 18 82 19 83 20 88 21 84 23 87 24 85 25 86 26
REMARK SMILES IDX 11 27 12 28 13 29 14 31 15 32 16 33 77 34 17 35 76 36 18 37
REMARK SMILES IDX 19 38 20 39 70 40 21 41 75 42 69 43 71 44 22 45 74 46 68 47
REMARK SMILES IDX 67 48 23 50 55 51 35 52 54 53 36 54 39 55 53 56 72 57 37 58
REMARK SMILES IDX 38 59 52 61 73 62 40 63 24 64 25 65 33 66 26 67 27 68 31 69
REMARK SMILES IDX 34 70 28 71 29 72 32 73 30 74 56 75 57 76 65 77 58 78 59 79
REMARK SMILES IDX 63 80 66 81 60 82 61 83 64 84 62 85 41 86 42 87 50 88 43 89
REMARK SMILES IDX 44 90 48 91 51 92 45 93 46 94 49 95 47 96
REMARK H PARENT 8 6 4 14 4 15 82 22 12 30 71 49 39 60
REMARK Flexibility Score: inf
ROOT
ATOM      1  C   UNL     1      -2.437  -2.638  -6.427  1.00  0.00     0.042 C 
ENDROOT
BRANCH   1   2
ATOM      2  C   UNL     1      -1.201  -3.003  -5.607  1.00  0.00     0.118 C 
BRANCH   2   3
ATOM      3  N   UNL     1      -0.606  -1.841  -4.989  1.00  0.00    -0.351 N 
ATOM      4  C   UNL     1      -0.647  -1.294  -3.749  1.00  0.00     0.281 C 
ATOM      5  O   UNL     1      -0.270  -0.111  -3.753  1.00  0.00    -0.268 OA
ATOM      6  H   UNL     1      -0.041  -1.328  -5.611  1.00  0.00     0.163 HD
BRANCH   4   7
ATOM      7  C   UNL     1      -1.186  -1.990  -2.416  1.00  0.00     0.181 C 
ATOM      8  C   UNL     1      -0.845  -3.478  -2.183  1.00  0.00     0.079 C 
ATOM      9  C   UNL     1      -2.711  -1.705  -2.317  1.00  0.00     0.144 C 
ATOM     10  C   UNL     1      -1.873  -4.557  -2.528  1.00  0.00     0.013 C 
ATOM     11  C   UNL     1      -3.611  -2.728  -3.017  1.00  0.00     0.190 C 
ATOM     12  C   UNL     1      -3.332  -4.133  -2.462  1.00  0.00     0.065 C 
BRANCH   7  13
ATOM     13  N   UNL     1      -0.634  -1.214  -1.239  1.00  0.00    -0.331 N 
ATOM     14  H   UNL     1      -1.101  -0.306  -1.245  1.00  0.00     0.347 HD
ATOM     15  H   UNL     1      -0.810  -1.841  -0.454  1.00  0.00     0.347 HD
BRANCH  13  16
ATOM     16  C   UNL     1       0.805  -0.942  -1.119  1.00  0.00     0.176 C 
ATOM     17  C   UNL     1       0.964   0.059   0.036  1.00  0.00     0.075 C 
ATOM     18  C   UNL     1       1.676  -2.164  -0.830  1.00  0.00     0.075 C 
ENDBRANCH  13  16
ENDBRANCH   7  13
BRANCH  11  19
ATOM     19  N   UNL     1      -5.050  -2.412  -3.086  1.00  0.00    -0.331 N 
ATOM     20  C   UNL     1      -5.952  -2.843  -2.017  1.00  0.00     0.276 C 
ATOM     21  C   UNL     1      -5.427  -1.093  -3.619  1.00  0.00     0.276 C 
ATOM     22  H   UNL     1      -5.232  -3.096  -3.820  1.00  0.00     0.348 HD
ATOM     23  C   UNL     1      -5.997  -1.915  -0.812  1.00  0.00     0.166 C 
ATOM     24  C   UNL     1      -5.549   0.052  -2.610  1.00  0.00     0.166 C 
ATOM     25  S   UNL     1      -6.695  -0.298  -1.249  1.00  0.00     0.032 S 
ATOM     26  O   UNL     1      -8.064  -0.512  -1.823  1.00  0.00    -0.259 OA
ENDBRANCH  11  19
ENDBRANCH   4   7
ENDBRANCH   2   3
ENDBRANCH   1   2
BRANCH   1  27
ATOM     27  C   UNL     1      -2.117  -2.178  -7.839  1.00  0.00     0.118 C 
BRANCH  27  28
ATOM     28  N   UNL     1      -1.674  -3.278  -8.684  1.00  0.00    -0.352 N 
ATOM     29  C   UNL     1      -2.327  -3.975  -9.668  1.00  0.00     0.251 C 
ATOM     30  H   UNL     1      -0.748  -3.571  -8.522  1.00  0.00     0.163 HD
ATOM     31  O   UNL     1      -1.838  -5.035 -10.071  1.00  0.00    -0.269 OA
BRANCH  29  32
ATOM     32  C   UNL     1      -3.601  -3.496 -10.250  1.00  0.00     0.039 A 
ATOM     33  C   UNL     1      -4.553  -4.435 -10.663  1.00  0.00     0.014 A 
ATOM     34  C   UNL     1      -3.843  -2.138 -10.462  1.00  0.00     0.014 A 
ATOM     35  C   UNL     1      -5.757  -4.011 -11.234  1.00  0.00     0.010 A 
ATOM     36  C   UNL     1      -5.083  -1.711 -10.931  1.00  0.00     0.010 A 
ATOM     37  C   UNL     1      -6.046  -2.642 -11.344  1.00  0.00    -0.014 A 
BRANCH  37  38
ATOM     38  C   UNL     1      -7.325  -2.157 -11.926  1.00  0.00     0.031 A 
ATOM     39  C   UNL     1      -7.309  -1.296 -13.163  1.00  0.00     0.074 A 
ATOM     40  C   UNL     1      -8.490  -2.423 -11.302  1.00  0.00     0.049 A 
ATOM     41  N   UNL     1      -8.299  -0.679 -13.758  1.00  0.00    -0.248 NA
ATOM     42  C   UNL     1      -5.999  -1.067 -13.795  1.00  0.00     0.031 C 
ATOM     43  C   UNL     1      -8.632  -3.193 -10.066  1.00  0.00     0.029 A 
ATOM     44  N   UNL     1      -9.776  -2.058 -11.614  1.00  0.00    -0.354 N 
ATOM     45  C   UNL     1      -7.727   0.035 -14.803  1.00  0.00     0.074 A 
ATOM     46  C   UNL     1      -6.300  -0.185 -14.737  1.00  0.00     0.031 C 
ATOM     47  C   UNL     1      -9.931  -3.257  -9.733  1.00  0.00     0.029 A 
ATOM     48  C   UNL     1     -10.710  -2.502 -10.709  1.00  0.00     0.049 A 
ATOM     49  H   UNL     1     -10.008  -1.528 -12.410  1.00  0.00     0.167 HD
ATOM     50  C   UNL     1      -8.339   0.786 -15.749  1.00  0.00     0.037 A 
ATOM     51  C   UNL     1     -12.042  -2.310 -10.666  1.00  0.00     0.037 A 
ATOM     52  C   UNL     1      -9.765   0.950 -15.849  1.00  0.00     0.049 A 
ATOM     53  C   UNL     1     -12.701  -1.505 -11.754  1.00  0.00     0.074 A 
ATOM     54  C   UNL     1     -10.491   1.611 -16.824  1.00  0.00     0.029 A 
ATOM     55  N   UNL     1     -10.682   0.439 -14.942  1.00  0.00    -0.354 N 
ATOM     56  N   UNL     1     -12.156  -0.901 -12.781  1.00  0.00    -0.248 NA
ATOM     57  C   UNL     1     -14.162  -1.361 -11.680  1.00  0.00     0.031 C 
ATOM     58  C   UNL     1     -11.845   1.535 -16.486  1.00  0.00     0.029 A 
ATOM     59  C   UNL     1     -11.966   0.787 -15.325  1.00  0.00     0.049 A 
ATOM     60  H   UNL     1     -10.453  -0.092 -14.145  1.00  0.00     0.167 HD
ATOM     61  C   UNL     1     -13.204  -0.328 -13.488  1.00  0.00     0.074 A 
ATOM     62  C   UNL     1     -14.421  -0.673 -12.783  1.00  0.00     0.031 C 
ATOM     63  C   UNL     1     -13.164   0.421 -14.617  1.00  0.00     0.037 A 
BRANCH  50  64
ATOM     64  C   UNL     1      -7.478   1.478 -16.765  1.00  0.00     0.064 A 
ATOM     65  C   UNL     1      -6.804   0.765 -17.769  1.00  0.00     0.173 A 
ATOM     66  C   UNL     1      -7.375   2.878 -16.774  1.00  0.00     0.173 A 
ATOM     67  F   UNL     1      -6.862  -0.575 -17.799  1.00  0.00    -0.203 F 
ATOM     68  C   UNL     1      -6.042   1.426 -18.729  1.00  0.00     0.198 A 
ATOM     69  C   UNL     1      -6.635   3.537 -17.752  1.00  0.00     0.198 A 
ATOM     70  F   UNL     1      -8.004   3.608 -15.841  1.00  0.00    -0.203 F 
ATOM     71  F   UNL     1      -5.375   0.721 -19.653  1.00  0.00    -0.200 F 
ATOM     72  C   UNL     1      -5.966   2.811 -18.726  1.00  0.00     0.200 A 
ATOM     73  F   UNL     1      -6.573   4.876 -17.756  1.00  0.00    -0.200 F 
ATOM     74  F   UNL     1      -5.243   3.445 -19.659  1.00  0.00    -0.200 F 
ENDBRANCH  50  64
BRANCH  51  75
ATOM     75  C   UNL     1     -12.848  -2.902  -9.564  1.00  0.00     0.064 A 
ATOM     76  C   UNL     1     -13.750  -3.946  -9.812  1.00  0.00     0.173 A 
ATOM     77  C   UNL     1     -12.747  -2.426  -8.249  1.00  0.00     0.173 A 
ATOM     78  F   UNL     1     -13.898  -4.421 -11.058  1.00  0.00    -0.203 F 
ATOM     79  C   UNL     1     -14.541  -4.472  -8.793  1.00  0.00     0.198 A 
ATOM     80  C   UNL     1     -13.517  -2.974  -7.224  1.00  0.00     0.198 A 
ATOM     81  F   UNL     1     -11.895  -1.432  -7.958  1.00  0.00    -0.203 F 
ATOM     82  F   UNL     1     -15.434  -5.432  -9.069  1.00  0.00    -0.200 F 
ATOM     83  C   UNL     1     -14.420  -3.989  -7.499  1.00  0.00     0.200 A 
ATOM     84  F   UNL     1     -13.388  -2.513  -5.973  1.00  0.00    -0.200 F 
ATOM     85  F   UNL     1     -15.182  -4.495  -6.519  1.00  0.00    -0.200 F 
ENDBRANCH  51  75
BRANCH  63  86
ATOM     86  C   UNL     1     -14.474   0.889 -15.178  1.00  0.00     0.064 A 
ATOM     87  C   UNL     1     -15.216   1.905 -14.559  1.00  0.00     0.173 A 
ATOM     88  C   UNL     1     -14.967   0.347 -16.374  1.00  0.00     0.173 A 
ATOM     89  F   UNL     1     -14.792   2.444 -13.406  1.00  0.00    -0.203 F 
ATOM     90  C   UNL     1     -16.417   2.346 -15.106  1.00  0.00     0.198 A 
ATOM     91  C   UNL     1     -16.153   0.811 -16.934  1.00  0.00     0.198 A 
ATOM     92  F   UNL     1     -14.289  -0.622 -17.008  1.00  0.00    -0.203 F 
ATOM     93  F   UNL     1     -17.133   3.287 -14.476  1.00  0.00    -0.200 F 
ATOM     94  C   UNL     1     -16.881   1.804 -16.297  1.00  0.00     0.200 A 
ATOM     95  F   UNL     1     -16.592   0.297 -18.091  1.00  0.00    -0.200 F 
ATOM     96  F   UNL     1     -18.033   2.237 -16.827  1.00  0.00    -0.200 F 
ENDBRANCH  63  86
ENDBRANCH  37  38
ENDBRANCH  29  32
ENDBRANCH  27  28
ENDBRANCH   1  27
TORSDOF 13
