REMARK SMILES C[C@H](CNS(=O)(=O)CCC(=O)NCCCNC(=O)c1ccc(-c2c3nc(c(-c4c(F)c(F)c(F)c(F)c4F)c4ccc([nH]4)c(-c4c(F)c(F)c(F)c(F)c4F)c4nc(c(-c5c(F)c(F)c(F)c(F)c5F)c5ccc2[nH]5)C=C4)C=C3)cc1)c1ccccc1
REMARK SMILES IDX 10 1 11 2 12 3 9 5 8 6 5 7 6 8 7 9 4 10 3 12 2 13 1 14 82 15
REMARK SMILES IDX 83 16 87 17 84 18 86 19 85 20 13 21 14 22 15 23 16 24 17 25
REMARK SMILES IDX 18 27 19 28 20 29 81 30 21 31 80 32 22 33 23 34 24 35 74 36
REMARK SMILES IDX 25 37 79 38 73 39 75 40 26 41 78 42 72 43 71 44 27 46 59 47
REMARK SMILES IDX 39 48 58 49 40 50 43 51 57 52 76 53 41 54 42 55 56 57 77 58
REMARK SMILES IDX 44 59 28 60 29 61 37 62 30 63 31 64 35 65 38 66 32 67 33 68
REMARK SMILES IDX 36 69 34 70 60 71 61 72 69 73 62 74 63 75 67 76 70 77 64 78
REMARK SMILES IDX 65 79 68 80 66 81 45 82 46 83 54 84 47 85 48 86 52 87 55 88
REMARK SMILES IDX 49 89 50 90 53 91 51 92
REMARK H PARENT 12 4 4 11 16 26 75 45 43 56
REMARK Flexibility Score: inf
ROOT
ATOM      1  C   UNL     1       3.695  -0.702   1.344  1.00  0.00     0.221 C 
ATOM      2  O   UNL     1       4.152  -1.129   0.282  1.00  0.00    -0.275 OA
ATOM      3  N   UNL     1       2.722  -1.438   1.958  1.00  0.00    -0.356 N 
ATOM      4  H   UNL     1       2.360  -2.167   1.404  1.00  0.00     0.163 HD
ENDROOT
BRANCH   1   5
ATOM      5  C   UNL     1       4.127   0.646   1.860  1.00  0.00     0.117 C 
BRANCH   5   6
ATOM      6  C   UNL     1       3.618   1.766   0.960  1.00  0.00     0.164 C 
BRANCH   6   7
ATOM      7  S   UNL     1       1.852   2.012   1.070  1.00  0.00     0.212 S 
ATOM      8  O   UNL     1       1.490   3.132   0.237  1.00  0.00    -0.212 OA
ATOM      9  O   UNL     1       1.511   1.994   2.478  1.00  0.00    -0.212 OA
BRANCH   7  10
ATOM     10  N   UNL     1       1.202   0.623   0.372  1.00  0.00    -0.215 NA
ATOM     11  H   UNL     1       1.651  -0.178   0.816  1.00  0.00     0.141 HD
BRANCH  10  12
ATOM     12  C   UNL     1       1.343   0.453  -1.092  1.00  0.00     0.106 C 
BRANCH  12  13
ATOM     13  C   UNL     1       0.620  -0.810  -1.636  1.00  0.00     0.031 C 
ATOM     14  C   UNL     1       1.296  -2.101  -1.151  1.00  0.00     0.014 C 
BRANCH  13  15
ATOM     15  C   UNL     1      -0.905  -0.840  -1.541  1.00  0.00    -0.044 A 
ATOM     16  C   UNL     1      -1.660   0.235  -1.046  1.00  0.00     0.004 A 
ATOM     17  C   UNL     1      -1.606  -1.918  -2.114  1.00  0.00     0.004 A 
ATOM     18  C   UNL     1      -3.053   0.258  -1.170  1.00  0.00     0.000 A 
ATOM     19  C   UNL     1      -2.994  -1.889  -2.252  1.00  0.00     0.000 A 
ATOM     20  C   UNL     1      -3.716  -0.788  -1.799  1.00  0.00     0.000 A 
ENDBRANCH  13  15
ENDBRANCH  12  13
ENDBRANCH  10  12
ENDBRANCH   7  10
ENDBRANCH   6   7
ENDBRANCH   5   6
ENDBRANCH   1   5
BRANCH   3  21
ATOM     21  C   UNL     1       2.119  -1.344   3.287  1.00  0.00     0.117 C 
BRANCH  21  22
ATOM     22  C   UNL     1       0.620  -1.006   3.333  1.00  0.00     0.042 C 
BRANCH  22  23
ATOM     23  C   UNL     1      -0.355  -1.892   2.556  1.00  0.00     0.118 C 
BRANCH  23  24
ATOM     24  N   UNL     1      -0.616  -3.155   3.220  1.00  0.00    -0.352 N 
ATOM     25  C   UNL     1      -1.836  -3.728   3.499  1.00  0.00     0.251 C 
ATOM     26  H   UNL     1       0.177  -3.664   3.505  1.00  0.00     0.163 HD
ATOM     27  O   UNL     1      -1.908  -4.688   4.258  1.00  0.00    -0.269 OA
BRANCH  25  28
ATOM     28  C   UNL     1      -3.066  -3.206   2.861  1.00  0.00     0.039 A 
ATOM     29  C   UNL     1      -4.153  -2.799   3.639  1.00  0.00     0.014 A 
ATOM     30  C   UNL     1      -3.173  -3.196   1.475  1.00  0.00     0.014 A 
ATOM     31  C   UNL     1      -5.326  -2.326   3.022  1.00  0.00     0.010 A 
ATOM     32  C   UNL     1      -4.338  -2.707   0.876  1.00  0.00     0.010 A 
ATOM     33  C   UNL     1      -5.428  -2.235   1.622  1.00  0.00    -0.014 A 
BRANCH  33  34
ATOM     34  C   UNL     1      -6.616  -1.619   0.931  1.00  0.00     0.031 A 
ATOM     35  C   UNL     1      -7.368  -2.340  -0.172  1.00  0.00     0.074 A 
ATOM     36  C   UNL     1      -6.979  -0.346   1.210  1.00  0.00     0.049 A 
ATOM     37  N   UNL     1      -8.369  -1.917  -0.913  1.00  0.00    -0.248 NA
ATOM     38  C   UNL     1      -6.908  -3.691  -0.526  1.00  0.00     0.031 C 
ATOM     39  C   UNL     1      -6.295   0.545   2.148  1.00  0.00     0.029 A 
ATOM     40  N   UNL     1      -8.011   0.428   0.723  1.00  0.00    -0.354 N 
ATOM     41  C   UNL     1      -8.638  -2.937  -1.820  1.00  0.00     0.074 A 
ATOM     42  C   UNL     1      -7.638  -3.959  -1.599  1.00  0.00     0.031 C 
ATOM     43  C   UNL     1      -6.953   1.714   2.211  1.00  0.00     0.029 A 
ATOM     44  C   UNL     1      -8.085   1.681   1.290  1.00  0.00     0.049 A 
ATOM     45  H   UNL     1      -8.639   0.114   0.033  1.00  0.00     0.167 HD
ATOM     46  C   UNL     1      -9.649  -3.049  -2.721  1.00  0.00     0.037 A 
ATOM     47  C   UNL     1      -8.961   2.689   1.102  1.00  0.00     0.037 A 
ATOM     48  C   UNL     1     -10.687  -2.069  -2.921  1.00  0.00     0.049 A 
ATOM     49  C   UNL     1     -10.094   2.530   0.118  1.00  0.00     0.074 A 
ATOM     50  C   UNL     1     -11.795  -2.142  -3.750  1.00  0.00     0.029 A 
ATOM     51  N   UNL     1     -10.754  -0.842  -2.280  1.00  0.00    -0.354 N 
ATOM     52  N   UNL     1     -10.396   1.509  -0.643  1.00  0.00    -0.248 NA
ATOM     53  C   UNL     1     -11.017   3.669  -0.021  1.00  0.00     0.031 C 
ATOM     54  C   UNL     1     -12.510  -0.946  -3.642  1.00  0.00     0.029 A 
ATOM     55  C   UNL     1     -11.880  -0.150  -2.702  1.00  0.00     0.049 A 
ATOM     56  H   UNL     1     -10.100  -0.511  -1.624  1.00  0.00     0.167 HD
ATOM     57  C   UNL     1     -11.564   1.862  -1.309  1.00  0.00     0.074 A 
ATOM     58  C   UNL     1     -11.927   3.185  -0.853  1.00  0.00     0.031 C 
ATOM     59  C   UNL     1     -12.269   1.150  -2.221  1.00  0.00     0.037 A 
BRANCH  46  60
ATOM     60  C   UNL     1      -9.731  -4.316  -3.533  1.00  0.00     0.064 A 
ATOM     61  C   UNL     1     -10.033  -5.547  -2.930  1.00  0.00     0.173 A 
ATOM     62  C   UNL     1      -9.591  -4.292  -4.930  1.00  0.00     0.173 A 
ATOM     63  F   UNL     1     -10.184  -5.628  -1.599  1.00  0.00    -0.203 F 
ATOM     64  C   UNL     1     -10.154  -6.710  -3.687  1.00  0.00     0.198 A 
ATOM     65  C   UNL     1      -9.751  -5.450  -5.688  1.00  0.00     0.198 A 
ATOM     66  F   UNL     1      -9.324  -3.141  -5.565  1.00  0.00    -0.203 F 
ATOM     67  F   UNL     1     -10.391  -7.880  -3.078  1.00  0.00    -0.200 F 
ATOM     68  C   UNL     1     -10.023  -6.659  -5.065  1.00  0.00     0.200 A 
ATOM     69  F   UNL     1      -9.650  -5.396  -7.024  1.00  0.00    -0.200 F 
ATOM     70  F   UNL     1     -10.156  -7.776  -5.794  1.00  0.00    -0.200 F 
ENDBRANCH  46  60
BRANCH  47  71
ATOM     71  C   UNL     1      -8.850   3.946   1.897  1.00  0.00     0.064 A 
ATOM     72  C   UNL     1      -9.841   4.290   2.829  1.00  0.00     0.173 A 
ATOM     73  C   UNL     1      -7.799   4.853   1.701  1.00  0.00     0.173 A 
ATOM     74  F   UNL     1     -10.880   3.467   3.035  1.00  0.00    -0.203 F 
ATOM     75  C   UNL     1      -9.812   5.513   3.497  1.00  0.00     0.198 A 
ATOM     76  C   UNL     1      -7.751   6.059   2.400  1.00  0.00     0.198 A 
ATOM     77  F   UNL     1      -6.822   4.572   0.827  1.00  0.00    -0.203 F 
ATOM     78  F   UNL     1     -10.816   5.848   4.319  1.00  0.00    -0.200 F 
ATOM     79  C   UNL     1      -8.765   6.395   3.284  1.00  0.00     0.200 A 
ATOM     80  F   UNL     1      -6.730   6.904   2.202  1.00  0.00    -0.200 F 
ATOM     81  F   UNL     1      -8.743   7.576   3.917  1.00  0.00    -0.200 F 
ENDBRANCH  47  71
BRANCH  59  82
ATOM     82  C   UNL     1     -13.549   1.743  -2.741  1.00  0.00     0.064 A 
ATOM     83  C   UNL     1     -13.563   2.861  -3.588  1.00  0.00     0.173 A 
ATOM     84  C   UNL     1     -14.782   1.153  -2.418  1.00  0.00     0.173 A 
ATOM     85  F   UNL     1     -12.416   3.472  -3.919  1.00  0.00    -0.203 F 
ATOM     86  C   UNL     1     -14.763   3.383  -4.069  1.00  0.00     0.198 A 
ATOM     87  C   UNL     1     -15.977   1.656  -2.928  1.00  0.00     0.198 A 
ATOM     88  F   UNL     1     -14.829   0.077  -1.618  1.00  0.00    -0.203 F 
ATOM     89  F   UNL     1     -14.754   4.483  -4.834  1.00  0.00    -0.200 F 
ATOM     90  C   UNL     1     -15.967   2.775  -3.746  1.00  0.00     0.200 A 
ATOM     91  F   UNL     1     -17.137   1.056  -2.628  1.00  0.00    -0.200 F 
ATOM     92  F   UNL     1     -17.118   3.272  -4.218  1.00  0.00    -0.200 F 
ENDBRANCH  59  82
ENDBRANCH  33  34
ENDBRANCH  25  28
ENDBRANCH  23  24
ENDBRANCH  22  23
ENDBRANCH  21  22
ENDBRANCH   3  21
TORSDOF 16
