REMARK SMILES O=C1C[C@@H](C(=O)Nc2cccc(C(=O)NCCCNC(=O)c3ccc(-c4c5nc(c(-c6c(F)c(F)c(F)c(F)c6F)c6ccc([nH]6)c(-c6c(F)c(F)c(F)c(F)c6F)c6nc(c(-c7c(F)c(F)c(F)c(F)c7F)c7ccc4[nH]7)C=C6)C=C5)cc3)c2)[C@H](c2ccccc2)O1
REMARK SMILES IDX 16 1 15 2 13 3 14 4 12 6 8 7 9 8 85 9 10 10 11 11 7 12 5 13
REMARK SMILES IDX 6 14 4 16 1 17 2 18 3 19 93 20 86 21 87 22 88 23 92 24 89 25
REMARK SMILES IDX 91 26 90 27 17 28 18 29 19 30 20 31 21 33 22 34 23 35 84 36
REMARK SMILES IDX 24 37 83 38 25 39 26 40 27 41 77 42 28 43 82 44 76 45 78 46
REMARK SMILES IDX 29 47 81 48 75 49 74 50 30 52 62 53 42 54 61 55 43 56 46 57
REMARK SMILES IDX 60 58 79 59 44 60 45 61 59 63 80 64 47 65 31 66 32 67 40 68
REMARK SMILES IDX 33 69 34 70 38 71 41 72 35 73 36 74 39 75 37 76 63 77 64 78
REMARK SMILES IDX 72 79 65 80 66 81 70 82 73 83 67 84 68 85 71 86 69 87 48 88
REMARK SMILES IDX 49 89 57 90 50 91 51 92 55 93 58 94 52 95 53 96 56 97 54 98
REMARK H PARENT 15 5 7 15 19 32 78 51 46 62
REMARK Flexibility Score: inf
ROOT
ATOM      1  C   UNL     1       3.434   2.879  -2.177  1.00  0.00     0.118 C 
ENDROOT
BRANCH   1   2
ATOM      2  N   UNL     1       4.830   2.673  -2.497  1.00  0.00    -0.352 N 
ATOM      3  C   UNL     1       5.828   1.945  -1.903  1.00  0.00     0.251 C 
ATOM      4  O   UNL     1       6.915   1.927  -2.482  1.00  0.00    -0.269 OA
ATOM      5  H   UNL     1       5.122   3.154  -3.304  1.00  0.00     0.163 HD
BRANCH   3   6
ATOM      6  C   UNL     1       5.662   1.134  -0.658  1.00  0.00     0.041 A 
ATOM      7  C   UNL     1       4.466   0.364   1.321  1.00  0.00     0.041 A 
ATOM      8  C   UNL     1       5.445  -0.599   1.555  1.00  0.00     0.026 A 
ATOM      9  C   UNL     1       4.638   1.289   0.282  1.00  0.00     0.040 A 
ATOM     10  C   UNL     1       6.512  -0.728   0.669  1.00  0.00     0.003 A 
ATOM     11  C   UNL     1       6.602   0.113  -0.443  1.00  0.00     0.014 A 
BRANCH   7  12
ATOM     12  N   UNL     1       3.331   0.364   2.147  1.00  0.00    -0.326 N 
ATOM     13  C   UNL     1       2.007   0.545   1.826  1.00  0.00     0.232 C 
ATOM     14  O   UNL     1       1.195   0.673   2.743  1.00  0.00    -0.274 OA
ATOM     15  H   UNL     1       3.511   0.210   3.103  1.00  0.00     0.169 HD
BRANCH  13  16
ATOM     16  C   UNL     1       1.550   0.442   0.375  1.00  0.00     0.135 C 
ATOM     17  O   UNL     1      -1.962   0.055   0.251  1.00  0.00    -0.252 OA
ATOM     18  C   UNL     1      -0.743  -0.046   0.226  1.00  0.00     0.307 C 
ATOM     19  C   UNL     1       0.209   1.101   0.138  1.00  0.00     0.140 C 
ATOM     20  O   UNL     1      -0.080  -1.234   0.195  1.00  0.00    -0.457 OA
ATOM     21  C   UNL     1       1.320  -1.012  -0.022  1.00  0.00     0.220 C 
BRANCH  21  22
ATOM     22  C   UNL     1       1.705  -1.313  -1.469  1.00  0.00    -0.007 A 
ATOM     23  C   UNL     1       0.772  -1.722  -2.433  1.00  0.00     0.007 A 
ATOM     24  C   UNL     1       3.047  -1.207  -1.869  1.00  0.00     0.007 A 
ATOM     25  C   UNL     1       1.165  -1.972  -3.754  1.00  0.00     0.000 A 
ATOM     26  C   UNL     1       3.439  -1.429  -3.191  1.00  0.00     0.000 A 
ATOM     27  C   UNL     1       2.494  -1.811  -4.136  1.00  0.00     0.000 A 
ENDBRANCH  21  22
ENDBRANCH  13  16
ENDBRANCH   7  12
ENDBRANCH   3   6
ENDBRANCH   1   2
BRANCH   1  28
ATOM     28  C   UNL     1       3.228   4.162  -1.377  1.00  0.00     0.042 C 
BRANCH  28  29
ATOM     29  C   UNL     1       3.081   5.376  -2.283  1.00  0.00     0.118 C 
BRANCH  29  30
ATOM     30  N   UNL     1       1.827   5.337  -3.027  1.00  0.00    -0.352 N 
ATOM     31  C   UNL     1       0.802   6.246  -3.078  1.00  0.00     0.251 C 
ATOM     32  H   UNL     1       1.696   4.533  -3.579  1.00  0.00     0.163 HD
ATOM     33  O   UNL     1      -0.272   5.923  -3.575  1.00  0.00    -0.269 OA
BRANCH  31  34
ATOM     34  C   UNL     1       0.983   7.603  -2.527  1.00  0.00     0.039 A 
ATOM     35  C   UNL     1      -0.079   8.207  -1.850  1.00  0.00     0.014 A 
ATOM     36  C   UNL     1       2.188   8.290  -2.700  1.00  0.00     0.014 A 
ATOM     37  C   UNL     1       0.088   9.476  -1.296  1.00  0.00     0.010 A 
ATOM     38  C   UNL     1       2.385   9.509  -2.066  1.00  0.00     0.010 A 
ATOM     39  C   UNL     1       1.333  10.121  -1.369  1.00  0.00    -0.014 A 
BRANCH  39  40
ATOM     40  C   UNL     1       1.556  11.441  -0.732  1.00  0.00     0.031 A 
ATOM     41  C   UNL     1       1.926  12.630  -1.575  1.00  0.00     0.074 A 
ATOM     42  C   UNL     1       1.493  11.549   0.609  1.00  0.00     0.049 A 
ATOM     43  N   UNL     1       2.236  13.846  -1.202  1.00  0.00    -0.248 NA
ATOM     44  C   UNL     1       1.988  12.416  -3.030  1.00  0.00     0.031 C 
ATOM     45  C   UNL     1       1.193  10.453   1.532  1.00  0.00     0.029 A 
ATOM     46  N   UNL     1       1.688  12.631   1.430  1.00  0.00    -0.354 N 
ATOM     47  C   UNL     1       2.542  14.532  -2.370  1.00  0.00     0.074 A 
ATOM     48  C   UNL     1       2.444  13.584  -3.458  1.00  0.00     0.031 C 
ATOM     49  C   UNL     1       1.195  10.924   2.789  1.00  0.00     0.029 A 
ATOM     50  C   UNL     1       1.542  12.341   2.765  1.00  0.00     0.049 A 
ATOM     51  H   UNL     1       1.910  13.529   1.095  1.00  0.00     0.167 HD
ATOM     52  C   UNL     1       2.849  15.842  -2.524  1.00  0.00     0.037 A 
ATOM     53  C   UNL     1       1.683  13.129   3.847  1.00  0.00     0.037 A 
ATOM     54  C   UNL     1       2.922  16.782  -1.437  1.00  0.00     0.049 A 
ATOM     55  C   UNL     1       2.041  14.578   3.649  1.00  0.00     0.074 A 
ATOM     56  C   UNL     1       3.168  18.142  -1.487  1.00  0.00     0.029 A 
ATOM     57  N   UNL     1       2.755  16.455  -0.098  1.00  0.00    -0.354 N 
ATOM     58  N   UNL     1       2.256  15.234   2.534  1.00  0.00    -0.248 NA
ATOM     59  C   UNL     1       2.167  15.398   4.861  1.00  0.00     0.031 C 
ATOM     60  C   UNL     1       3.209  18.627  -0.177  1.00  0.00     0.029 A 
ATOM     61  C   UNL     1       2.921  17.583   0.688  1.00  0.00     0.049 A 
ATOM     62  H   UNL     1       2.549  15.554   0.242  1.00  0.00     0.167 HD
ATOM     63  C   UNL     1       2.511  16.547   2.907  1.00  0.00     0.074 A 
ATOM     64  C   UNL     1       2.407  16.597   4.350  1.00  0.00     0.031 C 
ATOM     65  C   UNL     1       2.806  17.615   2.125  1.00  0.00     0.037 A 
BRANCH  52  66
ATOM     66  C   UNL     1       3.128  16.334  -3.916  1.00  0.00     0.064 A 
ATOM     67  C   UNL     1       2.122  16.399  -4.893  1.00  0.00     0.173 A 
ATOM     68  C   UNL     1       4.411  16.778  -4.270  1.00  0.00     0.173 A 
ATOM     69  F   UNL     1       0.880  15.976  -4.613  1.00  0.00    -0.203 F 
ATOM     70  C   UNL     1       2.398  16.857  -6.179  1.00  0.00     0.198 A 
ATOM     71  C   UNL     1       4.675  17.270  -5.546  1.00  0.00     0.198 A 
ATOM     72  F   UNL     1       5.411  16.743  -3.376  1.00  0.00    -0.203 F 
ATOM     73  F   UNL     1       1.433  16.856  -7.109  1.00  0.00    -0.200 F 
ATOM     74  C   UNL     1       3.671  17.300  -6.502  1.00  0.00     0.200 A 
ATOM     75  F   UNL     1       5.903  17.711  -5.852  1.00  0.00    -0.200 F 
ATOM     76  F   UNL     1       3.933  17.749  -7.737  1.00  0.00    -0.200 F 
ENDBRANCH  52  66
BRANCH  53  77
ATOM     77  C   UNL     1       1.467  12.572   5.208  1.00  0.00     0.064 A 
ATOM     78  C   UNL     1       0.378  12.982   5.990  1.00  0.00     0.173 A 
ATOM     79  C   UNL     1       2.343  11.625   5.758  1.00  0.00     0.173 A 
ATOM     80  F   UNL     1      -0.479  13.898   5.515  1.00  0.00    -0.203 F 
ATOM     81  C   UNL     1       0.189  12.488   7.279  1.00  0.00     0.198 A 
ATOM     82  C   UNL     1       2.135  11.106   7.035  1.00  0.00     0.198 A 
ATOM     83  F   UNL     1       3.397  11.192   5.050  1.00  0.00    -0.203 F 
ATOM     84  F   UNL     1      -0.830  12.937   8.023  1.00  0.00    -0.200 F 
ATOM     85  C   UNL     1       1.064  11.546   7.798  1.00  0.00     0.200 A 
ATOM     86  F   UNL     1       2.973  10.184   7.525  1.00  0.00    -0.200 F 
ATOM     87  F   UNL     1       0.881  11.069   9.037  1.00  0.00    -0.200 F 
ENDBRANCH  53  77
BRANCH  65  88
ATOM     88  C   UNL     1       2.994  18.938   2.810  1.00  0.00     0.064 A 
ATOM     89  C   UNL     1       4.110  19.202   3.617  1.00  0.00     0.173 A 
ATOM     90  C   UNL     1       2.062  19.971   2.621  1.00  0.00     0.173 A 
ATOM     91  F   UNL     1       5.023  18.244   3.841  1.00  0.00    -0.203 F 
ATOM     92  C   UNL     1       4.271  20.439   4.234  1.00  0.00     0.198 A 
ATOM     93  C   UNL     1       2.245  21.218   3.210  1.00  0.00     0.198 A 
ATOM     94  F   UNL     1       0.981  19.775   1.852  1.00  0.00    -0.203 F 
ATOM     95  F   UNL     1       5.316  20.650   5.046  1.00  0.00    -0.200 F 
ATOM     96  C   UNL     1       3.343  21.449   4.024  1.00  0.00     0.200 A 
ATOM     97  F   UNL     1       1.357  22.198   2.990  1.00  0.00    -0.200 F 
ATOM     98  F   UNL     1       3.505  22.642   4.611  1.00  0.00    -0.200 F 
ENDBRANCH  65  88
ENDBRANCH  39  40
ENDBRANCH  31  34
ENDBRANCH  29  30
ENDBRANCH  28  29
ENDBRANCH   1  28
TORSDOF 13
