REMARK SMILES Cc1cc(Nc2ccc(C(=O)NCCCNC(=O)c3ccc(-c4c5nc(c(-c6c(F)c(F)c(F)c(F)c6F)c6ccc([nH]6)c(-c6c(F)c(F)c(F)c(F)c6F)c6nc(c(-c7c(F)c(F)c(F)c(F)c7F)c7ccc4[nH]7)C=C6)C=C5)cc3)cc2)nc(-n2nc(C)cc2C)n1
REMARK SMILES IDX 13 1 12 2 10 3 11 4 9 6 6 7 7 8 83 9 8 10 82 11 5 12 4 14
REMARK SMILES IDX 1 15 2 16 3 17 93 18 85 19 84 20 86 21 87 22 91 23 88 24
REMARK SMILES IDX 90 25 92 26 89 27 14 28 15 29 16 30 17 31 18 33 19 34 20 35
REMARK SMILES IDX 81 36 21 37 80 38 22 39 23 40 24 41 74 42 25 43 79 44 73 45
REMARK SMILES IDX 75 46 26 47 78 48 72 49 71 50 27 52 59 53 39 54 58 55 40 56
REMARK SMILES IDX 43 57 57 58 76 59 41 60 42 61 56 63 77 64 44 65 28 66 29 67
REMARK SMILES IDX 37 68 30 69 31 70 35 71 38 72 32 73 33 74 36 75 34 76 60 77
REMARK SMILES IDX 61 78 69 79 62 80 63 81 67 82 70 83 64 84 65 85 68 86 66 87
REMARK SMILES IDX 45 88 46 89 54 90 47 91 48 92 52 93 55 94 49 95 50 96 53 97
REMARK SMILES IDX 51 98
REMARK H PARENT 12 5 5 13 16 32 75 51 43 62
REMARK Flexibility Score: inf
ROOT
ATOM      1  C   UNL     1       7.767  -0.339   1.844  1.00  0.00     0.118 C 
ENDROOT
BRANCH   1   2
ATOM      2  N   UNL     1       8.200  -1.470   1.042  1.00  0.00    -0.352 N 
ATOM      3  C   UNL     1       7.508  -2.389   0.295  1.00  0.00     0.251 C 
ATOM      4  O   UNL     1       8.163  -3.210  -0.348  1.00  0.00    -0.269 OA
ATOM      5  H   UNL     1       9.176  -1.601   1.032  1.00  0.00     0.163 HD
BRANCH   3   6
ATOM      6  C   UNL     1       6.024  -2.408   0.190  1.00  0.00     0.039 A 
ATOM      7  C   UNL     1       3.226  -2.432  -0.214  1.00  0.00     0.040 A 
ATOM      8  C   UNL     1       4.090  -2.869  -1.220  1.00  0.00     0.027 A 
ATOM      9  C   UNL     1       3.777  -2.024   1.007  1.00  0.00     0.027 A 
ATOM     10  C   UNL     1       5.475  -2.850  -1.023  1.00  0.00     0.016 A 
ATOM     11  C   UNL     1       5.159  -2.047   1.223  1.00  0.00     0.016 A 
BRANCH   7  12
ATOM     12  N   UNL     1       1.850  -2.305  -0.468  1.00  0.00    -0.340 N 
ATOM     13  H   UNL     1       1.381  -3.096  -0.819  1.00  0.00     0.168 HD
BRANCH  12  14
ATOM     14  C   UNL     1       1.087  -1.140  -0.264  1.00  0.00     0.136 A 
ATOM     15  C   UNL     1      -2.471  -0.104   0.292  1.00  0.00     0.067 C 
ATOM     16  C   UNL     1      -0.976  -0.099   0.194  1.00  0.00     0.045 A 
ATOM     17  C   UNL     1      -0.280  -1.252  -0.109  1.00  0.00     0.070 A 
ATOM     18  N   UNL     1      -0.364   1.091   0.344  1.00  0.00    -0.216 NA
ATOM     19  C   UNL     1       0.966   1.131   0.102  1.00  0.00     0.252 A 
ATOM     20  N   UNL     1       1.707   0.048  -0.196  1.00  0.00    -0.194 NA
BRANCH  19  21
ATOM     21  N   UNL     1       1.613   2.416   0.113  1.00  0.00    -0.203 N 
ATOM     22  N   UNL     1       2.682   2.687  -0.697  1.00  0.00    -0.170 NA
ATOM     23  C   UNL     1       1.249   3.540   0.846  1.00  0.00     0.045 A 
ATOM     24  C   UNL     1       2.837   4.012  -0.626  1.00  0.00     0.060 A 
ATOM     25  C   UNL     1       1.998   4.585   0.350  1.00  0.00     0.049 A 
ATOM     26  C   UNL     1       0.276   3.507   1.965  1.00  0.00     0.067 C 
ATOM     27  C   UNL     1       3.808   4.703  -1.509  1.00  0.00     0.069 C 
ENDBRANCH  19  21
ENDBRANCH  12  14
ENDBRANCH   7  12
ENDBRANCH   3   6
ENDBRANCH   1   2
BRANCH   1  28
ATOM     28  C   UNL     1       7.831  -0.662   3.338  1.00  0.00     0.042 C 
BRANCH  28  29
ATOM     29  C   UNL     1       9.253  -0.736   3.893  1.00  0.00     0.118 C 
BRANCH  29  30
ATOM     30  N   UNL     1       9.886   0.571   3.959  1.00  0.00    -0.352 N 
ATOM     31  C   UNL     1      10.562   1.185   4.982  1.00  0.00     0.251 C 
ATOM     32  H   UNL     1       9.818   1.103   3.134  1.00  0.00     0.163 HD
ATOM     33  O   UNL     1      10.857   2.372   4.873  1.00  0.00    -0.269 OA
BRANCH  31  34
ATOM     34  C   UNL     1      10.936   0.456   6.218  1.00  0.00     0.039 A 
ATOM     35  C   UNL     1      10.894   1.155   7.430  1.00  0.00     0.014 A 
ATOM     36  C   UNL     1      11.404  -0.862   6.198  1.00  0.00     0.014 A 
ATOM     37  C   UNL     1      11.291   0.533   8.615  1.00  0.00     0.010 A 
ATOM     38  C   UNL     1      11.747  -1.503   7.392  1.00  0.00     0.010 A 
ATOM     39  C   UNL     1      11.707  -0.808   8.610  1.00  0.00    -0.014 A 
BRANCH  39  40
ATOM     40  C   UNL     1      12.107  -1.472   9.877  1.00  0.00     0.031 A 
ATOM     41  C   UNL     1      13.537  -1.869  10.117  1.00  0.00     0.074 A 
ATOM     42  C   UNL     1      11.173  -1.732  10.811  1.00  0.00     0.049 A 
ATOM     43  N   UNL     1      14.075  -2.429  11.173  1.00  0.00    -0.248 NA
ATOM     44  C   UNL     1      14.486  -1.626   9.020  1.00  0.00     0.031 C 
ATOM     45  C   UNL     1       9.745  -1.445  10.676  1.00  0.00     0.029 A 
ATOM     46  N   UNL     1      11.285  -2.291  12.059  1.00  0.00    -0.354 N 
ATOM     47  C   UNL     1      15.417  -2.612  10.865  1.00  0.00     0.074 A 
ATOM     48  C   UNL     1      15.604  -2.148   9.507  1.00  0.00     0.031 C 
ATOM     49  C   UNL     1       9.117  -1.803  11.808  1.00  0.00     0.029 A 
ATOM     50  C   UNL     1      10.094  -2.361  12.738  1.00  0.00     0.049 A 
ATOM     51  H   UNL     1      12.138  -2.612  12.432  1.00  0.00     0.167 HD
ATOM     52  C   UNL     1      16.407  -3.103  11.649  1.00  0.00     0.037 A 
ATOM     53  C   UNL     1       9.822  -2.814  13.977  1.00  0.00     0.037 A 
ATOM     54  C   UNL     1      16.226  -3.542  13.009  1.00  0.00     0.049 A 
ATOM     55  C   UNL     1      10.944  -3.318  14.840  1.00  0.00     0.074 A 
ATOM     56  C   UNL     1      17.177  -4.003  13.903  1.00  0.00     0.029 A 
ATOM     57  N   UNL     1      15.008  -3.571  13.672  1.00  0.00    -0.354 N 
ATOM     58  N   UNL     1      12.221  -3.419  14.562  1.00  0.00    -0.248 NA
ATOM     59  C   UNL     1      10.588  -3.757  16.196  1.00  0.00     0.031 C 
ATOM     60  C   UNL     1      16.530  -4.343  15.097  1.00  0.00     0.029 A 
ATOM     61  C   UNL     1      15.182  -4.055  14.960  1.00  0.00     0.049 A 
ATOM     62  H   UNL     1      14.148  -3.290  13.286  1.00  0.00     0.167 HD
ATOM     63  C   UNL     1      12.824  -3.909  15.712  1.00  0.00     0.074 A 
ATOM     64  C   UNL     1      11.775  -4.068  16.698  1.00  0.00     0.031 C 
ATOM     65  C   UNL     1      14.128  -4.205  15.930  1.00  0.00     0.037 A 
BRANCH  52  66
ATOM     66  C   UNL     1      17.783  -3.186  11.056  1.00  0.00     0.064 A 
ATOM     67  C   UNL     1      18.548  -2.035  10.815  1.00  0.00     0.173 A 
ATOM     68  C   UNL     1      18.359  -4.431  10.759  1.00  0.00     0.173 A 
ATOM     69  F   UNL     1      18.040  -0.821  11.072  1.00  0.00    -0.203 F 
ATOM     70  C   UNL     1      19.828  -2.126  10.273  1.00  0.00     0.198 A 
ATOM     71  C   UNL     1      19.649  -4.519  10.243  1.00  0.00     0.198 A 
ATOM     72  F   UNL     1      17.673  -5.563  10.977  1.00  0.00    -0.203 F 
ATOM     73  F   UNL     1      20.523  -1.010  10.011  1.00  0.00    -0.200 F 
ATOM     74  C   UNL     1      20.380  -3.367   9.994  1.00  0.00     0.200 A 
ATOM     75  F   UNL     1      20.186  -5.720   9.984  1.00  0.00    -0.200 F 
ATOM     76  F   UNL     1      21.614  -3.452   9.478  1.00  0.00    -0.200 F 
ENDBRANCH  52  66
BRANCH  53  77
ATOM     77  C   UNL     1       8.430  -2.761  14.491  1.00  0.00     0.064 A 
ATOM     78  C   UNL     1       8.066  -1.840  15.483  1.00  0.00     0.173 A 
ATOM     79  C   UNL     1       7.439  -3.623  14.002  1.00  0.00     0.173 A 
ATOM     80  F   UNL     1       8.986  -1.009  15.994  1.00  0.00    -0.203 F 
ATOM     81  C   UNL     1       6.765  -1.794  15.978  1.00  0.00     0.198 A 
ATOM     82  C   UNL     1       6.132  -3.559  14.481  1.00  0.00     0.198 A 
ATOM     83  F   UNL     1       7.737  -4.518  13.050  1.00  0.00    -0.203 F 
ATOM     84  F   UNL     1       6.452  -0.930  16.954  1.00  0.00    -0.200 F 
ATOM     85  C   UNL     1       5.798  -2.650  15.473  1.00  0.00     0.200 A 
ATOM     86  F   UNL     1       5.197  -4.379  13.982  1.00  0.00    -0.200 F 
ATOM     87  F   UNL     1       4.545  -2.602  15.947  1.00  0.00    -0.200 F 
ENDBRANCH  53  77
BRANCH  65  88
ATOM     88  C   UNL     1      14.494  -4.705  17.296  1.00  0.00     0.064 A 
ATOM     89  C   UNL     1      14.148  -5.996  17.722  1.00  0.00     0.173 A 
ATOM     90  C   UNL     1      15.212  -3.889  18.184  1.00  0.00     0.173 A 
ATOM     91  F   UNL     1      13.448  -6.807  16.915  1.00  0.00    -0.203 F 
ATOM     92  C   UNL     1      14.481  -6.441  18.998  1.00  0.00     0.198 A 
ATOM     93  C   UNL     1      15.566  -4.347  19.450  1.00  0.00     0.198 A 
ATOM     94  F   UNL     1      15.571  -2.648  17.822  1.00  0.00    -0.203 F 
ATOM     95  F   UNL     1      14.095  -7.659  19.403  1.00  0.00    -0.200 F 
ATOM     96  C   UNL     1      15.193  -5.619  19.859  1.00  0.00     0.200 A 
ATOM     97  F   UNL     1      16.262  -3.555  20.277  1.00  0.00    -0.200 F 
ATOM     98  F   UNL     1      15.510  -6.048  21.088  1.00  0.00    -0.200 F 
ENDBRANCH  65  88
ENDBRANCH  39  40
ENDBRANCH  31  34
ENDBRANCH  29  30
ENDBRANCH  28  29
ENDBRANCH   1  28
TORSDOF 13
