REMARK SMILES O=C(NCCCNC(=O)c1cccc([C@@H]2CCC[N@@H+](Cc3cccc(OCCO)c3)C2)c1)c1ccc(-c2c3nc(c(-c4c(F)c(F)c(F)c(F)c4F)c4ccc([nH]4)c(-c4c(F)c(F)c(F)c(F)c4F)c4nc(c(-c5c(F)c(F)c(F)c(F)c5F)c5ccc2[nH]5)C=C4)C=C3)cc1
REMARK SMILES IDX 10 1 11 2 12 3 13 4 14 5 32 6 8 7 7 8 9 10 6 11 5 12 4 13
REMARK SMILES IDX 3 14 1 15 2 16 33 18 34 19 95 20 35 21 94 22 36 23 37 24
REMARK SMILES IDX 38 25 88 26 39 27 93 28 87 29 89 30 40 31 92 32 86 33 85 34
REMARK SMILES IDX 41 36 73 37 53 38 72 39 54 40 57 41 71 42 90 43 55 44 56 45
REMARK SMILES IDX 70 47 91 48 58 49 42 50 43 51 51 52 44 53 45 54 49 55 52 56
REMARK SMILES IDX 46 57 47 58 50 59 48 60 74 61 75 62 83 63 76 64 77 65 81 66
REMARK SMILES IDX 84 67 78 68 79 69 82 70 80 71 59 72 60 73 68 74 61 75 62 76
REMARK SMILES IDX 66 77 69 78 63 79 64 80 67 81 65 82 15 83 16 84 31 85 17 86
REMARK SMILES IDX 19 87 18 88 20 90 21 91 22 92 30 93 23 94 25 95 24 96 26 97
REMARK SMILES IDX 27 98 28 99 29 100
REMARK H PARENT 7 9 3 17 89 35 57 46 19 89 29 101
REMARK Flexibility Score: inf
ROOT
ATOM      1  C   UNL     1       6.667  -1.748  -5.589  1.00  0.00     0.040 A 
ATOM      2  C   UNL     1       7.958  -2.034  -6.026  1.00  0.00     0.014 A 
ATOM      3  C   UNL     1       8.206  -3.237  -6.694  1.00  0.00     0.001 A 
ATOM      4  C   UNL     1       7.159  -4.130  -6.959  1.00  0.00     0.004 A 
ATOM      5  C   UNL     1       5.851  -3.829  -6.561  1.00  0.00    -0.039 A 
ATOM      6  C   UNL     1       5.639  -2.644  -5.867  1.00  0.00     0.018 A 
ENDROOT
BRANCH   1   7
ATOM      7  C   UNL     1       6.329  -0.434  -5.005  1.00  0.00     0.251 C 
ATOM      8  N   UNL     1       5.268  -0.308  -4.143  1.00  0.00    -0.352 N 
ATOM      9  H   UNL     1       4.885   0.596  -4.085  1.00  0.00     0.163 HD
ATOM     10  O   UNL     1       6.952   0.569  -5.345  1.00  0.00    -0.269 OA
BRANCH   8  11
ATOM     11  C   UNL     1       4.620  -1.308  -3.297  1.00  0.00     0.118 C 
BRANCH  11  12
ATOM     12  C   UNL     1       4.987  -1.105  -1.841  1.00  0.00     0.042 C 
BRANCH  12  13
ATOM     13  C   UNL     1       4.545   0.249  -1.319  1.00  0.00     0.118 C 
BRANCH  13  14
ATOM     14  N   UNL     1       3.101   0.330  -1.131  1.00  0.00    -0.352 N 
ATOM     15  O   UNL     1       1.135   0.125  -0.042  1.00  0.00    -0.269 OA
ATOM     16  C   UNL     1       2.356   0.244   0.020  1.00  0.00     0.251 C 
ATOM     17  H   UNL     1       2.581   0.467  -1.956  1.00  0.00     0.163 HD
BRANCH  16  18
ATOM     18  C   UNL     1       3.031   0.264   1.334  1.00  0.00     0.039 A 
ATOM     19  C   UNL     1       4.104   1.125   1.560  1.00  0.00     0.014 A 
ATOM     20  C   UNL     1       2.591  -0.584   2.353  1.00  0.00     0.014 A 
ATOM     21  C   UNL     1       4.866   0.990   2.708  1.00  0.00     0.010 A 
ATOM     22  C   UNL     1       3.273  -0.611   3.574  1.00  0.00     0.010 A 
ATOM     23  C   UNL     1       4.438   0.152   3.747  1.00  0.00    -0.014 A 
BRANCH  23  24
ATOM     24  C   UNL     1       5.183   0.177   5.029  1.00  0.00     0.031 A 
ATOM     25  C   UNL     1       5.851  -1.051   5.574  1.00  0.00     0.074 A 
ATOM     26  C   UNL     1       5.281   1.353   5.681  1.00  0.00     0.049 A 
ATOM     27  N   UNL     1       6.546  -1.188   6.676  1.00  0.00    -0.248 NA
ATOM     28  C   UNL     1       5.716  -2.291   4.794  1.00  0.00     0.031 C 
ATOM     29  C   UNL     1       4.660   2.609   5.247  1.00  0.00     0.029 A 
ATOM     30  N   UNL     1       5.952   1.698   6.825  1.00  0.00    -0.354 N 
ATOM     31  C   UNL     1       6.906  -2.527   6.736  1.00  0.00     0.074 A 
ATOM     32  C   UNL     1       6.338  -3.169   5.570  1.00  0.00     0.031 C 
ATOM     33  C   UNL     1       5.030   3.595   6.073  1.00  0.00     0.029 A 
ATOM     34  C   UNL     1       5.839   3.029   7.144  1.00  0.00     0.049 A 
ATOM     35  H   UNL     1       6.465   1.054   7.365  1.00  0.00     0.167 HD
ATOM     36  C   UNL     1       7.648  -3.156   7.680  1.00  0.00     0.037 A 
ATOM     37  C   UNL     1       6.311   3.718   8.197  1.00  0.00     0.037 A 
ATOM     38  C   UNL     1       8.228  -2.498   8.824  1.00  0.00     0.049 A 
ATOM     39  C   UNL     1       7.114   2.990   9.232  1.00  0.00     0.074 A 
ATOM     40  C   UNL     1       9.029  -3.038   9.816  1.00  0.00     0.029 A 
ATOM     41  N   UNL     1       8.064  -1.155   9.133  1.00  0.00    -0.354 N 
ATOM     42  N   UNL     1       7.469   1.728   9.264  1.00  0.00    -0.248 NA
ATOM     43  C   UNL     1       7.577   3.777  10.380  1.00  0.00     0.031 C 
ATOM     44  C   UNL     1       9.307  -2.035  10.750  1.00  0.00     0.029 A 
ATOM     45  C   UNL     1       8.727  -0.855  10.313  1.00  0.00     0.049 A 
ATOM     46  H   UNL     1       7.553  -0.509   8.593  1.00  0.00     0.167 HD
ATOM     47  C   UNL     1       8.206   1.571  10.427  1.00  0.00     0.074 A 
ATOM     48  C   UNL     1       8.269   2.873  11.060  1.00  0.00     0.031 C 
ATOM     49  C   UNL     1       8.775   0.448  10.929  1.00  0.00     0.037 A 
BRANCH  36  50
ATOM     50  C   UNL     1       7.859  -4.636   7.535  1.00  0.00     0.064 A 
ATOM     51  C   UNL     1       8.693  -5.173   6.543  1.00  0.00     0.173 A 
ATOM     52  C   UNL     1       7.259  -5.528   8.438  1.00  0.00     0.173 A 
ATOM     53  F   UNL     1       9.283  -4.368   5.647  1.00  0.00    -0.203 F 
ATOM     54  C   UNL     1       8.900  -6.548   6.448  1.00  0.00     0.198 A 
ATOM     55  C   UNL     1       7.491  -6.899   8.358  1.00  0.00     0.198 A 
ATOM     56  F   UNL     1       6.458  -5.068   9.411  1.00  0.00    -0.203 F 
ATOM     57  F   UNL     1       9.669  -7.042   5.467  1.00  0.00    -0.200 F 
ATOM     58  C   UNL     1       8.307  -7.408   7.359  1.00  0.00     0.200 A 
ATOM     59  F   UNL     1       6.927  -7.726   9.248  1.00  0.00    -0.200 F 
ATOM     60  F   UNL     1       8.516  -8.729   7.272  1.00  0.00    -0.200 F 
ENDBRANCH  36  50
BRANCH  37  61
ATOM     61  C   UNL     1       6.011   5.167   8.320  1.00  0.00     0.064 A 
ATOM     62  C   UNL     1       7.022   6.128   8.192  1.00  0.00     0.173 A 
ATOM     63  C   UNL     1       4.701   5.621   8.538  1.00  0.00     0.173 A 
ATOM     64  F   UNL     1       8.292   5.742   7.998  1.00  0.00    -0.203 F 
ATOM     65  C   UNL     1       6.736   7.488   8.290  1.00  0.00     0.198 A 
ATOM     66  C   UNL     1       4.412   6.981   8.603  1.00  0.00     0.198 A 
ATOM     67  F   UNL     1       3.696   4.741   8.658  1.00  0.00    -0.203 F 
ATOM     68  F   UNL     1       7.727   8.386   8.202  1.00  0.00    -0.200 F 
ATOM     69  C   UNL     1       5.431   7.914   8.486  1.00  0.00     0.200 A 
ATOM     70  F   UNL     1       3.146   7.387   8.771  1.00  0.00    -0.200 F 
ATOM     71  F   UNL     1       5.155   9.222   8.568  1.00  0.00    -0.200 F 
ENDBRANCH  37  61
BRANCH  49  72
ATOM     72  C   UNL     1       9.536   0.590  12.214  1.00  0.00     0.064 A 
ATOM     73  C   UNL     1       8.881   0.803  13.435  1.00  0.00     0.173 A 
ATOM     74  C   UNL     1      10.935   0.489  12.225  1.00  0.00     0.173 A 
ATOM     75  F   UNL     1       7.545   0.926  13.473  1.00  0.00    -0.203 F 
ATOM     76  C   UNL     1       9.602   0.939  14.618  1.00  0.00     0.198 A 
ATOM     77  C   UNL     1      11.650   0.593  13.414  1.00  0.00     0.198 A 
ATOM     78  F   UNL     1      11.607   0.281  11.083  1.00  0.00    -0.203 F 
ATOM     79  F   UNL     1       8.960   1.195  15.766  1.00  0.00    -0.200 F 
ATOM     80  C   UNL     1      10.984   0.827  14.607  1.00  0.00     0.200 A 
ATOM     81  F   UNL     1      12.985   0.473  13.403  1.00  0.00    -0.200 F 
ATOM     82  F   UNL     1      11.676   0.953  15.748  1.00  0.00    -0.200 F 
ENDBRANCH  49  72
ENDBRANCH  23  24
ENDBRANCH  16  18
ENDBRANCH  13  14
ENDBRANCH  12  13
ENDBRANCH  11  12
ENDBRANCH   8  11
ENDBRANCH   1   7
BRANCH   5  83
ATOM     83  C   UNL     1       4.661  -4.677  -6.968  1.00  0.00     0.074 C 
ATOM     84  C   UNL     1       3.776  -3.928  -7.983  1.00  0.00     0.020 C 
ATOM     85  C   UNL     1       3.833  -5.233  -5.782  1.00  0.00     0.270 C 
ATOM     86  C   UNL     1       2.748  -3.000  -7.341  1.00  0.00     0.062 C 
ATOM     87  N   UNL     1       2.762  -4.382  -5.226  1.00  0.00    -0.331 N 
ATOM     88  C   UNL     1       1.952  -3.709  -6.252  1.00  0.00     0.262 C 
ATOM     89  H   UNL     1       3.243  -3.641  -4.715  1.00  0.00     0.348 HD
BRANCH  87  90
ATOM     90  C   UNL     1       1.903  -5.126  -4.254  1.00  0.00     0.299 C 
BRANCH  90  91
ATOM     91  C   UNL     1       0.806  -5.987  -4.873  1.00  0.00     0.010 A 
ATOM     92  C   UNL     1      -0.512  -5.514  -4.949  1.00  0.00     0.010 A 
ATOM     93  C   UNL     1       1.127  -7.190  -5.525  1.00  0.00     0.056 A 
ATOM     94  C   UNL     1      -1.456  -6.182  -5.730  1.00  0.00     0.004 A 
ATOM     95  C   UNL     1       0.218  -7.811  -6.380  1.00  0.00     0.119 A 
ATOM     96  C   UNL     1      -1.081  -7.309  -6.463  1.00  0.00     0.046 A 
BRANCH  95  97
ATOM     97  O   UNL     1       0.492  -8.853  -7.224  1.00  0.00    -0.491 OA
BRANCH  97  98
ATOM     98  C   UNL     1       1.854  -9.248  -7.435  1.00  0.00     0.257 C 
BRANCH  98  99
ATOM     99  C   UNL     1       2.517  -8.476  -8.579  1.00  0.00     0.197 C 
BRANCH  99 100
ATOM    100  O   UNL     1       2.612  -7.083  -8.318  1.00  0.00    -0.393 OA
ATOM    101  H   UNL     1       1.721  -6.713  -8.213  1.00  0.00     0.210 HD
ENDBRANCH  99 100
ENDBRANCH  98  99
ENDBRANCH  97  98
ENDBRANCH  95  97
ENDBRANCH  90  91
ENDBRANCH  87  90
ENDBRANCH   5  83
TORSDOF 17
