REMARK SMILES O=C(NCCCNC(=O)c1cccc(Oc2ncc([N+](=O)[O-])cc2Br)c1)c1ccc(-c2c3nc(c(-c4c(F)c(F)c(F)c(F)c4F)c4ccc([nH]4)c(-c4c(F)c(F)c(F)c(F)c4F)c4nc(c(-c5c(F)c(F)c(F)c(F)c5F)c5ccc2[nH]5)C=C4)C=C3)cc1
REMARK SMILES IDX 5 1 4 2 3 3 1 4 2 5 27 7 28 8 89 9 29 10 88 11 30 12 31 13
REMARK SMILES IDX 32 14 82 15 33 16 87 17 81 18 83 19 34 20 86 21 80 22 79 23
REMARK SMILES IDX 35 25 67 26 47 27 66 28 48 29 51 30 65 31 84 32 49 33 50 34
REMARK SMILES IDX 64 36 85 37 52 38 36 39 37 40 45 41 38 42 39 43 43 44 46 45
REMARK SMILES IDX 40 46 41 47 44 48 42 49 68 50 69 51 77 52 70 53 71 54 75 55
REMARK SMILES IDX 78 56 72 57 73 58 76 59 74 60 53 61 54 62 62 63 55 64 56 65
REMARK SMILES IDX 60 66 63 67 57 68 58 69 61 70 59 71 6 72 7 73 8 74 9 76
REMARK SMILES IDX 10 77 11 78 26 79 12 80 14 81 13 82 15 83 16 84 17 85 24 86
REMARK SMILES IDX 18 87 23 88 25 89 19 90 20 91 21 92 22 93
REMARK H PARENT 3 6 83 24 51 35 7 75
REMARK Flexibility Score: inf
ROOT
ATOM      1  C   UNL     1       4.999  -2.262   0.829  1.00  0.00     0.042 C 
ENDROOT
BRANCH   1   2
ATOM      2  C   UNL     1       4.582  -1.291  -0.262  1.00  0.00     0.118 C 
BRANCH   2   3
ATOM      3  N   UNL     1       3.139  -1.095  -0.329  1.00  0.00    -0.352 N 
ATOM      4  O   UNL     1       1.157  -0.082   0.022  1.00  0.00    -0.269 OA
ATOM      5  C   UNL     1       2.381   0.009  -0.020  1.00  0.00     0.251 C 
ATOM      6  H   UNL     1       2.628  -1.875  -0.646  1.00  0.00     0.163 HD
BRANCH   5   7
ATOM      7  C   UNL     1       3.037   1.296   0.293  1.00  0.00     0.039 A 
ATOM      8  C   UNL     1       4.135   1.731  -0.449  1.00  0.00     0.014 A 
ATOM      9  C   UNL     1       2.550   2.078   1.343  1.00  0.00     0.014 A 
ATOM     10  C   UNL     1       4.867   2.828  -0.018  1.00  0.00     0.010 A 
ATOM     11  C   UNL     1       3.215   3.256   1.697  1.00  0.00     0.010 A 
ATOM     12  C   UNL     1       4.405   3.617   1.047  1.00  0.00    -0.014 A 
BRANCH  12  13
ATOM     13  C   UNL     1       5.158   4.843   1.413  1.00  0.00     0.031 A 
ATOM     14  C   UNL     1       5.781   5.001   2.771  1.00  0.00     0.074 A 
ATOM     15  C   UNL     1       5.306   5.808   0.485  1.00  0.00     0.049 A 
ATOM     16  N   UNL     1       6.487   5.998   3.244  1.00  0.00    -0.248 NA
ATOM     17  C   UNL     1       5.578   3.905   3.729  1.00  0.00     0.031 C 
ATOM     18  C   UNL     1       4.743   5.766  -0.867  1.00  0.00     0.029 A 
ATOM     19  N   UNL     1       5.989   6.995   0.522  1.00  0.00    -0.354 N 
ATOM     20  C   UNL     1       6.790   5.662   4.557  1.00  0.00     0.074 A 
ATOM     21  C   UNL     1       6.167   4.382   4.817  1.00  0.00     0.031 C 
ATOM     22  C   UNL     1       5.152   6.844  -1.548  1.00  0.00     0.029 A 
ATOM     23  C   UNL     1       5.939   7.691  -0.661  1.00  0.00     0.049 A 
ATOM     24  H   UNL     1       6.469   7.318   1.319  1.00  0.00     0.167 HD
ATOM     25  C   UNL     1       7.526   6.358   5.459  1.00  0.00     0.037 A 
ATOM     26  C   UNL     1       6.454   8.888  -0.992  1.00  0.00     0.037 A 
ATOM     27  C   UNL     1       8.152   7.628   5.185  1.00  0.00     0.049 A 
ATOM     28  C   UNL     1       7.233   9.653   0.036  1.00  0.00     0.074 A 
ATOM     29  C   UNL     1       8.950   8.395   6.016  1.00  0.00     0.029 A 
ATOM     30  N   UNL     1       8.042   8.324   3.988  1.00  0.00    -0.354 N 
ATOM     31  N   UNL     1       7.542   9.311   1.263  1.00  0.00    -0.248 NA
ATOM     32  C   UNL     1       7.732  10.973  -0.366  1.00  0.00     0.031 C 
ATOM     33  C   UNL     1       9.273   9.580   5.344  1.00  0.00     0.029 A 
ATOM     34  C   UNL     1       8.731   9.524   4.070  1.00  0.00     0.049 A 
ATOM     35  H   UNL     1       7.546   8.010   3.197  1.00  0.00     0.167 HD
ATOM     36  C   UNL     1       8.290  10.361   1.774  1.00  0.00     0.074 A 
ATOM     37  C   UNL     1       8.401  11.345   0.717  1.00  0.00     0.031 C 
ATOM     38  C   UNL     1       8.835  10.495   3.009  1.00  0.00     0.037 A 
BRANCH  25  39
ATOM     39  C   UNL     1       7.667   5.777   6.838  1.00  0.00     0.064 A 
ATOM     40  C   UNL     1       8.412   4.613   7.083  1.00  0.00     0.173 A 
ATOM     41  C   UNL     1       7.061   6.406   7.937  1.00  0.00     0.173 A 
ATOM     42  F   UNL     1       9.004   3.964   6.069  1.00  0.00    -0.203 F 
ATOM     43  C   UNL     1       8.512   4.081   8.367  1.00  0.00     0.198 A 
ATOM     44  C   UNL     1       7.191   5.891   9.225  1.00  0.00     0.198 A 
ATOM     45  F   UNL     1       6.344   7.527   7.765  1.00  0.00    -0.203 F 
ATOM     46  F   UNL     1       9.179   2.936   8.566  1.00  0.00    -0.200 F 
ATOM     47  C   UNL     1       7.907   4.723   9.437  1.00  0.00     0.200 A 
ATOM     48  F   UNL     1       6.617   6.521  10.259  1.00  0.00    -0.200 F 
ATOM     49  F   UNL     1       8.005   4.210  10.672  1.00  0.00    -0.200 F 
ENDBRANCH  25  39
BRANCH  26  50
ATOM     50  C   UNL     1       6.247   9.420  -2.363  1.00  0.00     0.064 A 
ATOM     51  C   UNL     1       7.316   9.527  -3.262  1.00  0.00     0.173 A 
ATOM     52  C   UNL     1       4.973   9.798  -2.814  1.00  0.00     0.173 A 
ATOM     53  F   UNL     1       8.555   9.193  -2.872  1.00  0.00    -0.203 F 
ATOM     54  C   UNL     1       7.120  10.000  -4.558  1.00  0.00     0.198 A 
ATOM     55  C   UNL     1       4.773  10.241  -4.118  1.00  0.00     0.198 A 
ATOM     56  F   UNL     1       3.915   9.705  -1.993  1.00  0.00    -0.203 F 
ATOM     57  F   UNL     1       8.164  10.124  -5.387  1.00  0.00    -0.200 F 
ATOM     58  C   UNL     1       5.848  10.347  -4.987  1.00  0.00     0.200 A 
ATOM     59  F   UNL     1       3.539  10.555  -4.535  1.00  0.00    -0.200 F 
ATOM     60  F   UNL     1       5.658  10.788  -6.239  1.00  0.00    -0.200 F 
ENDBRANCH  26  50
BRANCH  38  61
ATOM     61  C   UNL     1       9.637  11.738   3.267  1.00  0.00     0.064 A 
ATOM     62  C   UNL     1       9.031  12.998   3.387  1.00  0.00     0.173 A 
ATOM     63  C   UNL     1      11.030  11.662   3.419  1.00  0.00     0.173 A 
ATOM     64  F   UNL     1       7.705  13.127   3.232  1.00  0.00    -0.203 F 
ATOM     65  C   UNL     1       9.795  14.139   3.619  1.00  0.00     0.198 A 
ATOM     66  C   UNL     1      11.786  12.800   3.684  1.00  0.00     0.198 A 
ATOM     67  F   UNL     1      11.658  10.480   3.317  1.00  0.00    -0.203 F 
ATOM     68  F   UNL     1       9.201  15.339   3.674  1.00  0.00    -0.200 F 
ATOM     69  C   UNL     1      11.169  14.038   3.775  1.00  0.00     0.200 A 
ATOM     70  F   UNL     1      13.112  12.698   3.848  1.00  0.00    -0.200 F 
ATOM     71  F   UNL     1      11.901  15.137   4.003  1.00  0.00    -0.200 F 
ENDBRANCH  38  61
ENDBRANCH  12  13
ENDBRANCH   5   7
ENDBRANCH   2   3
ENDBRANCH   1   2
BRANCH   1  72
ATOM     72  C   UNL     1       4.569  -3.694   0.568  1.00  0.00     0.118 C 
BRANCH  72  73
ATOM     73  N   UNL     1       5.162  -4.229  -0.652  1.00  0.00    -0.352 N 
ATOM     74  C   UNL     1       6.015  -5.291  -0.825  1.00  0.00     0.251 C 
ATOM     75  H   UNL     1       4.912  -3.757  -1.479  1.00  0.00     0.163 HD
ATOM     76  O   UNL     1       6.600  -5.434  -1.894  1.00  0.00    -0.269 OA
BRANCH  74  77
ATOM     77  C   UNL     1       6.206  -6.277   0.260  1.00  0.00     0.043 A 
ATOM     78  C   UNL     1       7.463  -6.835   0.484  1.00  0.00     0.014 A 
ATOM     79  C   UNL     1       5.106  -6.708   1.005  1.00  0.00     0.061 A 
ATOM     80  C   UNL     1       7.623  -7.778   1.501  1.00  0.00     0.005 A 
ATOM     81  C   UNL     1       5.260  -7.630   2.040  1.00  0.00     0.130 A 
ATOM     82  C   UNL     1       6.527  -8.164   2.283  1.00  0.00     0.047 A 
BRANCH  81  83
ATOM     83  O   UNL     1       4.227  -8.100   2.828  1.00  0.00    -0.438 OA
BRANCH  83  84
ATOM     84  C   UNL     1       3.036  -7.401   2.782  1.00  0.00     0.234 A 
ATOM     85  N   UNL     1       2.884  -6.439   3.730  1.00  0.00    -0.214 NA
ATOM     86  C   UNL     1       2.073  -7.676   1.807  1.00  0.00     0.087 A 
ATOM     87  C   UNL     1       1.743  -5.705   3.690  1.00  0.00     0.200 A 
ATOM     88  C   UNL     1       0.933  -6.874   1.753  1.00  0.00     0.108 A 
ATOM     89  Br  UNL     1       2.282  -9.047   0.518  1.00  0.00    -0.045 Br
ATOM     90  C   UNL     1       0.770  -5.875   2.716  1.00  0.00     0.288 A 
BRANCH  90  91
ATOM     91  N   UNL     1      -0.398  -5.008   2.699  1.00  0.00     0.064 N 
ATOM     92  O   UNL     1      -0.608  -4.308   3.697  1.00  0.00    -0.258 OA
ATOM     93  O   UNL     1      -1.102  -5.022   1.680  1.00  0.00    -0.258 OA
ENDBRANCH  90  91
ENDBRANCH  83  84
ENDBRANCH  81  83
ENDBRANCH  74  77
ENDBRANCH  72  73
ENDBRANCH   1  72
TORSDOF 13
