REMARK SMILES O=C(CC[NH+]1CCC([N@H+]2CCC[C@H](C(=O)NCc3cccnc3)C2)CC1)NCCCNC(=O)c1ccc(-c2c3nc(c(-c4c(F)c(F)c(F)c(F)c4F)c4ccc([nH]4)c(-c4c(F)c(F)c(F)c(F)c4F)c4nc(c(-c5c(F)c(F)c(F)c(F)c5F)c5ccc2[nH]5)C=C4)C=C3)cc1
REMARK SMILES IDX 1 1 2 2 27 3 3 5 4 6 5 7 6 8 26 9 7 11 25 12 8 13 9 14 10 15
REMARK SMILES IDX 24 16 11 18 13 19 12 20 14 21 15 22 16 23 17 25 18 26 19 27
REMARK SMILES IDX 23 28 20 29 22 30 21 31 28 32 29 33 30 34 31 35 32 36 33 38
REMARK SMILES IDX 34 39 35 40 96 41 36 42 95 43 37 44 38 45 39 46 89 47 40 48
REMARK SMILES IDX 94 49 88 50 90 51 41 52 93 53 87 54 86 55 42 57 74 58 54 59
REMARK SMILES IDX 73 60 55 61 58 62 72 63 91 64 56 65 57 66 71 68 92 69 59 70
REMARK SMILES IDX 43 71 44 72 52 73 45 74 46 75 50 76 53 77 47 78 48 79 51 80
REMARK SMILES IDX 49 81 75 82 76 83 84 84 77 85 78 86 82 87 85 88 79 89 80 90
REMARK SMILES IDX 83 91 81 92 60 93 61 94 69 95 62 96 63 97 67 98 70 99 64 100
REMARK SMILES IDX 65 101 68 102 66 103
REMARK H PARENT 27 4 5 10 9 17 16 24 31 37 90 56 58 67
REMARK Flexibility Score: inf
ROOT
ATOM      1  O   UNL     1       0.617  -0.201  -0.067  1.00  0.00    -0.275 OA
ATOM      2  C   UNL     1       1.818   0.054  -0.000  1.00  0.00     0.225 C 
ATOM      3  N   UNL     1       2.527  -0.003   1.176  1.00  0.00    -0.356 N 
ATOM      4  H   UNL     1       3.501   0.140   1.148  1.00  0.00     0.163 HD
ENDROOT
BRANCH   2   5
ATOM      5  C   UNL     1       2.626   0.343  -1.257  1.00  0.00     0.161 C 
BRANCH   5   6
ATOM      6  C   UNL     1       3.744   1.385  -1.133  1.00  0.00     0.272 C 
BRANCH   6   7
ATOM      7  N   UNL     1       4.806   1.050  -0.168  1.00  0.00    -0.334 N 
ATOM      8  C   UNL     1       5.560  -0.163  -0.517  1.00  0.00     0.268 C 
ATOM      9  C   UNL     1       5.754   2.169  -0.023  1.00  0.00     0.268 C 
ATOM     10  H   UNL     1       4.324   0.871   0.712  1.00  0.00     0.348 HD
ATOM     11  C   UNL     1       6.386  -0.568   0.699  1.00  0.00     0.126 C 
ATOM     12  C   UNL     1       6.645   1.927   1.194  1.00  0.00     0.126 C 
ATOM     13  C   UNL     1       7.335   0.548   1.160  1.00  0.00     0.195 C 
BRANCH  13  14
ATOM     14  N   UNL     1       8.000   0.294   2.458  1.00  0.00    -0.331 N 
ATOM     15  C   UNL     1       7.093  -0.074   3.555  1.00  0.00     0.262 C 
ATOM     16  C   UNL     1       9.124  -0.642   2.355  1.00  0.00     0.275 C 
ATOM     17  H   UNL     1       8.381   1.206   2.712  1.00  0.00     0.348 HD
ATOM     18  C   UNL     1       7.813  -0.061   4.898  1.00  0.00     0.062 C 
ATOM     19  C   UNL     1       9.903  -0.828   3.662  1.00  0.00     0.133 C 
ATOM     20  C   UNL     1       9.028  -0.970   4.906  1.00  0.00     0.025 C 
BRANCH  19  21
ATOM     21  C   UNL     1      11.123   0.073   3.863  1.00  0.00     0.229 C 
ATOM     22  O   UNL     1      12.243  -0.454   3.916  1.00  0.00    -0.275 OA
ATOM     23  N   UNL     1      11.095   1.413   4.044  1.00  0.00    -0.352 N 
ATOM     24  H   UNL     1      11.950   1.783   4.361  1.00  0.00     0.163 HD
BRANCH  23  25
ATOM     25  C   UNL     1      10.065   2.415   3.868  1.00  0.00     0.153 C 
BRANCH  25  26
ATOM     26  C   UNL     1       9.759   3.214   5.105  1.00  0.00    -0.010 A 
ATOM     27  C   UNL     1       9.758   2.666   6.392  1.00  0.00     0.009 A 
ATOM     28  C   UNL     1       9.313   4.529   4.983  1.00  0.00     0.116 A 
ATOM     29  C   UNL     1       9.316   3.426   7.473  1.00  0.00     0.020 A 
ATOM     30  N   UNL     1       8.896   5.297   6.015  1.00  0.00    -0.264 NA
ATOM     31  C   UNL     1       8.900   4.724   7.236  1.00  0.00     0.111 A 
ENDBRANCH  25  26
ENDBRANCH  23  25
ENDBRANCH  19  21
ENDBRANCH  13  14
ENDBRANCH   6   7
ENDBRANCH   5   6
ENDBRANCH   2   5
BRANCH   3  32
ATOM     32  C   UNL     1       1.900  -0.264   2.455  1.00  0.00     0.117 C 
BRANCH  32  33
ATOM     33  C   UNL     1       2.096  -1.694   2.958  1.00  0.00     0.042 C 
BRANCH  33  34
ATOM     34  C   UNL     1       3.510  -2.043   3.421  1.00  0.00     0.118 C 
BRANCH  34  35
ATOM     35  N   UNL     1       3.978  -1.206   4.516  1.00  0.00    -0.352 N 
ATOM     36  C   UNL     1       4.646  -1.511   5.673  1.00  0.00     0.251 C 
ATOM     37  H   UNL     1       3.779  -0.249   4.405  1.00  0.00     0.163 HD
ATOM     38  O   UNL     1       4.773  -0.630   6.520  1.00  0.00    -0.269 OA
BRANCH  36  39
ATOM     39  C   UNL     1       5.212  -2.857   5.939  1.00  0.00     0.039 A 
ATOM     40  C   UNL     1       5.258  -3.286   7.271  1.00  0.00     0.014 A 
ATOM     41  C   UNL     1       5.733  -3.683   4.938  1.00  0.00     0.014 A 
ATOM     42  C   UNL     1       5.722  -4.564   7.586  1.00  0.00     0.010 A 
ATOM     43  C   UNL     1       6.143  -4.984   5.244  1.00  0.00     0.010 A 
ATOM     44  C   UNL     1       6.110  -5.447   6.567  1.00  0.00    -0.014 A 
BRANCH  44  45
ATOM     45  C   UNL     1       6.363  -6.879   6.875  1.00  0.00     0.031 A 
ATOM     46  C   UNL     1       7.723  -7.492   6.717  1.00  0.00     0.074 A 
ATOM     47  C   UNL     1       5.320  -7.646   7.253  1.00  0.00     0.049 A 
ATOM     48  N   UNL     1       8.102  -8.726   6.941  1.00  0.00    -0.248 NA
ATOM     49  C   UNL     1       8.794  -6.614   6.227  1.00  0.00     0.031 C 
ATOM     50  C   UNL     1       3.938  -7.179   7.384  1.00  0.00     0.029 A 
ATOM     51  N   UNL     1       5.255  -8.973   7.594  1.00  0.00    -0.354 N 
ATOM     52  C   UNL     1       9.451  -8.775   6.619  1.00  0.00     0.074 A 
ATOM     53  C   UNL     1       9.815  -7.457   6.140  1.00  0.00     0.031 C 
ATOM     54  C   UNL     1       3.168  -8.195   7.803  1.00  0.00     0.029 A 
ATOM     55  C   UNL     1       3.991  -9.391   7.936  1.00  0.00     0.049 A 
ATOM     56  H   UNL     1       6.038  -9.570   7.593  1.00  0.00     0.167 HD
ATOM     57  C   UNL     1      10.309  -9.818   6.732  1.00  0.00     0.037 A 
ATOM     58  C   UNL     1       3.543 -10.603   8.313  1.00  0.00     0.037 A 
ATOM     59  C   UNL     1       9.943 -11.127   7.215  1.00  0.00     0.049 A 
ATOM     60  C   UNL     1       4.517 -11.741   8.428  1.00  0.00     0.074 A 
ATOM     61  C   UNL     1      10.754 -12.231   7.417  1.00  0.00     0.029 A 
ATOM     62  N   UNL     1       8.656 -11.511   7.565  1.00  0.00    -0.354 N 
ATOM     63  N   UNL     1       5.807 -11.753   8.198  1.00  0.00    -0.248 NA
ATOM     64  C   UNL     1       3.973 -13.034   8.866  1.00  0.00     0.031 C 
ATOM     65  C   UNL     1       9.951 -13.296   7.842  1.00  0.00     0.029 A 
ATOM     66  C   UNL     1       8.648 -12.842   7.958  1.00  0.00     0.049 A 
ATOM     67  H   UNL     1       7.865 -10.926   7.538  1.00  0.00     0.167 HD
ATOM     68  C   UNL     1       6.234 -13.041   8.488  1.00  0.00     0.074 A 
ATOM     69  C   UNL     1       5.068 -13.778   8.929  1.00  0.00     0.031 C 
ATOM     70  C   UNL     1       7.481 -13.565   8.396  1.00  0.00     0.037 A 
BRANCH  57  71
ATOM     71  C   UNL     1      11.738  -9.591   6.326  1.00  0.00     0.064 A 
ATOM     72  C   UNL     1      12.597  -8.782   7.084  1.00  0.00     0.173 A 
ATOM     73  C   UNL     1      12.269 -10.231   5.195  1.00  0.00     0.173 A 
ATOM     74  F   UNL     1      12.138  -8.143   8.171  1.00  0.00    -0.203 F 
ATOM     75  C   UNL     1      13.927  -8.600   6.711  1.00  0.00     0.198 A 
ATOM     76  C   UNL     1      13.607 -10.070   4.842  1.00  0.00     0.198 A 
ATOM     77  F   UNL     1      11.495 -11.024   4.439  1.00  0.00    -0.203 F 
ATOM     78  F   UNL     1      14.716  -7.788   7.428  1.00  0.00    -0.200 F 
ATOM     79  C   UNL     1      14.432  -9.250   5.596  1.00  0.00     0.200 A 
ATOM     80  F   UNL     1      14.098 -10.711   3.772  1.00  0.00    -0.200 F 
ATOM     81  F   UNL     1      15.714  -9.082   5.244  1.00  0.00    -0.200 F 
ENDBRANCH  57  71
BRANCH  58  82
ATOM     82  C   UNL     1       2.106 -10.792   8.638  1.00  0.00     0.064 A 
ATOM     83  C   UNL     1       1.691 -11.027   9.956  1.00  0.00     0.173 A 
ATOM     84  C   UNL     1       1.120 -10.740   7.642  1.00  0.00     0.173 A 
ATOM     85  F   UNL     1       2.599 -11.104  10.940  1.00  0.00    -0.203 F 
ATOM     86  C   UNL     1       0.347 -11.226  10.263  1.00  0.00     0.198 A 
ATOM     87  C   UNL     1      -0.227 -10.909   7.955  1.00  0.00     0.198 A 
ATOM     88  F   UNL     1       1.464 -10.510   6.367  1.00  0.00    -0.203 F 
ATOM     89  F   UNL     1      -0.017 -11.496  11.524  1.00  0.00    -0.200 F 
ATOM     90  C   UNL     1      -0.612 -11.161   9.263  1.00  0.00     0.200 A 
ATOM     91  F   UNL     1      -1.152 -10.830   6.988  1.00  0.00    -0.200 F 
ATOM     92  F   UNL     1      -1.905 -11.348   9.559  1.00  0.00    -0.200 F 
ENDBRANCH  58  82
BRANCH  70  93
ATOM     93  C   UNL     1       7.651 -14.999   8.811  1.00  0.00     0.064 A 
ATOM     94  C   UNL     1       7.136 -16.055   8.045  1.00  0.00     0.173 A 
ATOM     95  C   UNL     1       8.352 -15.319   9.983  1.00  0.00     0.173 A 
ATOM     96  F   UNL     1       6.443 -15.801   6.924  1.00  0.00    -0.203 F 
ATOM     97  C   UNL     1       7.288 -17.377   8.455  1.00  0.00     0.198 A 
ATOM     98  C   UNL     1       8.530 -16.644  10.374  1.00  0.00     0.198 A 
ATOM     99  F   UNL     1       8.870 -14.348  10.750  1.00  0.00    -0.203 F 
ATOM    100  F   UNL     1       6.738 -18.366   7.737  1.00  0.00    -0.200 F 
ATOM    101  C   UNL     1       7.989 -17.671   9.615  1.00  0.00     0.200 A 
ATOM    102  F   UNL     1       9.218 -16.926  11.488  1.00  0.00    -0.200 F 
ATOM    103  F   UNL     1       8.135 -18.944  10.007  1.00  0.00    -0.200 F 
ENDBRANCH  70  93
ENDBRANCH  44  45
ENDBRANCH  36  39
ENDBRANCH  34  35
ENDBRANCH  33  34
ENDBRANCH  32  33
ENDBRANCH   3  32
TORSDOF 16
