REMARK SMILES O=C(NCCCNC(=O)c1cc(=O)[nH]c2c(Br)cccc12)c1ccc(-c2c3nc(c(-c4c(F)c(F)c(F)c(F)c4F)c4ccc([nH]4)c(-c4c(F)c(F)c(F)c(F)c4F)c4nc(c(-c5c(F)c(F)c(F)c(F)c5F)c5ccc2[nH]5)C=C4)C=C3)cc1
REMARK SMILES IDX 4 1 3 2 1 3 2 4 22 6 23 7 84 8 24 9 83 10 25 11 26 12 27 13
REMARK SMILES IDX 77 14 28 15 82 16 76 17 78 18 29 19 81 20 75 21 74 22 30 24
REMARK SMILES IDX 62 25 42 26 61 27 43 28 46 29 60 30 79 31 44 32 45 33 59 35
REMARK SMILES IDX 80 36 47 37 31 38 32 39 40 40 33 41 34 42 38 43 41 44 35 45
REMARK SMILES IDX 36 46 39 47 37 48 63 49 64 50 72 51 65 52 66 53 70 54 73 55
REMARK SMILES IDX 67 56 68 57 71 58 69 59 48 60 49 61 57 62 50 63 51 64 55 65
REMARK SMILES IDX 58 66 52 67 53 68 56 69 54 70 5 71 6 72 7 73 8 74 9 76 10 77
REMARK SMILES IDX 11 78 21 79 12 80 15 81 20 82 13 83 14 84 16 85 19 86 17 88
REMARK SMILES IDX 18 89
REMARK H PARENT 3 5 78 23 46 34 7 75 14 87
REMARK Flexibility Score: inf
ROOT
ATOM      1  C   UNL     1       4.644  -0.316  -1.388  1.00  0.00     0.118 C 
ENDROOT
BRANCH   1   2
ATOM      2  N   UNL     1       3.208  -0.158  -1.210  1.00  0.00    -0.352 N 
ATOM      3  O   UNL     1       1.231  -0.083  -0.155  1.00  0.00    -0.269 OA
ATOM      4  C   UNL     1       2.454  -0.003  -0.076  1.00  0.00     0.251 C 
ATOM      5  H   UNL     1       2.690  -0.162  -2.048  1.00  0.00     0.163 HD
BRANCH   4   6
ATOM      6  C   UNL     1       3.085   0.258   1.237  1.00  0.00     0.039 A 
ATOM      7  C   UNL     1       2.482  -0.265   2.385  1.00  0.00     0.014 A 
ATOM      8  C   UNL     1       4.211   1.075   1.360  1.00  0.00     0.014 A 
ATOM      9  C   UNL     1       3.013   0.023   3.644  1.00  0.00     0.010 A 
ATOM     10  C   UNL     1       4.806   1.266   2.602  1.00  0.00     0.010 A 
ATOM     11  C   UNL     1       4.184   0.788   3.762  1.00  0.00    -0.014 A 
BRANCH  11  12
ATOM     12  C   UNL     1       4.704   1.192   5.093  1.00  0.00     0.031 A 
ATOM     13  C   UNL     1       4.747   2.652   5.462  1.00  0.00     0.074 A 
ATOM     14  C   UNL     1       5.145   0.263   5.961  1.00  0.00     0.049 A 
ATOM     15  N   UNL     1       5.182   3.217   6.560  1.00  0.00    -0.248 NA
ATOM     16  C   UNL     1       4.266   3.610   4.452  1.00  0.00     0.031 C 
ATOM     17  C   UNL     1       5.186  -1.176   5.707  1.00  0.00     0.029 A 
ATOM     18  N   UNL     1       5.638   0.392   7.236  1.00  0.00    -0.354 N 
ATOM     19  C   UNL     1       5.041   4.585   6.361  1.00  0.00     0.074 A 
ATOM     20  C   UNL     1       4.554   4.773   5.014  1.00  0.00     0.031 C 
ATOM     21  C   UNL     1       5.637  -1.802   6.805  1.00  0.00     0.029 A 
ATOM     22  C   UNL     1       5.955  -0.806   7.826  1.00  0.00     0.049 A 
ATOM     23  H   UNL     1       5.753   1.261   7.684  1.00  0.00     0.167 HD
ATOM     24  C   UNL     1       5.260   5.593   7.236  1.00  0.00     0.037 A 
ATOM     25  C   UNL     1       6.444  -1.071   9.053  1.00  0.00     0.037 A 
ATOM     26  C   UNL     1       5.696   5.399   8.591  1.00  0.00     0.049 A 
ATOM     27  C   UNL     1       6.698   0.066  10.006  1.00  0.00     0.074 A 
ATOM     28  C   UNL     1       5.873   6.348   9.581  1.00  0.00     0.029 A 
ATOM     29  N   UNL     1       6.023   4.170   9.145  1.00  0.00    -0.354 N 
ATOM     30  N   UNL     1       6.492   1.349   9.832  1.00  0.00    -0.248 NA
ATOM     31  C   UNL     1       7.252  -0.278  11.323  1.00  0.00     0.031 C 
ATOM     32  C   UNL     1       6.366   5.702  10.717  1.00  0.00     0.029 A 
ATOM     33  C   UNL     1       6.441   4.342  10.454  1.00  0.00     0.049 A 
ATOM     34  H   UNL     1       5.966   3.305   8.678  1.00  0.00     0.167 HD
ATOM     35  C   UNL     1       6.875   1.964  11.016  1.00  0.00     0.074 A 
ATOM     36  C   UNL     1       7.310   0.911  11.911  1.00  0.00     0.031 C 
ATOM     37  C   UNL     1       6.872   3.282  11.331  1.00  0.00     0.037 A 
BRANCH  24  38
ATOM     38  C   UNL     1       5.016   6.998   6.762  1.00  0.00     0.064 A 
ATOM     39  C   UNL     1       3.724   7.468   6.481  1.00  0.00     0.173 A 
ATOM     40  C   UNL     1       6.083   7.899   6.631  1.00  0.00     0.173 A 
ATOM     41  F   UNL     1       2.669   6.644   6.578  1.00  0.00    -0.203 F 
ATOM     42  C   UNL     1       3.513   8.778   6.060  1.00  0.00     0.198 A 
ATOM     43  C   UNL     1       5.864   9.218   6.244  1.00  0.00     0.198 A 
ATOM     44  F   UNL     1       7.339   7.504   6.892  1.00  0.00    -0.203 F 
ATOM     45  F   UNL     1       2.276   9.188   5.748  1.00  0.00    -0.200 F 
ATOM     46  C   UNL     1       4.581   9.655   5.951  1.00  0.00     0.200 A 
ATOM     47  F   UNL     1       6.897  10.069   6.155  1.00  0.00    -0.200 F 
ATOM     48  F   UNL     1       4.375  10.919   5.559  1.00  0.00    -0.200 F 
ENDBRANCH  24  38
BRANCH  25  49
ATOM     49  C   UNL     1       6.686  -2.483   9.451  1.00  0.00     0.064 A 
ATOM     50  C   UNL     1       5.868  -3.113  10.399  1.00  0.00     0.173 A 
ATOM     51  C   UNL     1       7.700  -3.247   8.854  1.00  0.00     0.173 A 
ATOM     52  F   UNL     1       4.897  -2.419  11.012  1.00  0.00    -0.203 F 
ATOM     53  C   UNL     1       6.054  -4.453  10.733  1.00  0.00     0.198 A 
ATOM     54  C   UNL     1       7.867  -4.594   9.169  1.00  0.00     0.198 A 
ATOM     55  F   UNL     1       8.507  -2.692   7.938  1.00  0.00    -0.203 F 
ATOM     56  F   UNL     1       5.272  -5.025  11.659  1.00  0.00    -0.200 F 
ATOM     57  C   UNL     1       7.046  -5.195  10.110  1.00  0.00     0.200 A 
ATOM     58  F   UNL     1       8.816  -5.311   8.551  1.00  0.00    -0.200 F 
ATOM     59  F   UNL     1       7.209  -6.490  10.415  1.00  0.00    -0.200 F 
ENDBRANCH  25  49
BRANCH  37  60
ATOM     60  C   UNL     1       7.356   3.683  12.693  1.00  0.00     0.064 A 
ATOM     61  C   UNL     1       8.720   3.657  13.016  1.00  0.00     0.173 A 
ATOM     62  C   UNL     1       6.466   4.216  13.639  1.00  0.00     0.173 A 
ATOM     63  F   UNL     1       9.609   3.149  12.149  1.00  0.00    -0.203 F 
ATOM     64  C   UNL     1       9.176   4.151  14.235  1.00  0.00     0.198 A 
ATOM     65  C   UNL     1       6.928   4.736  14.844  1.00  0.00     0.198 A 
ATOM     66  F   UNL     1       5.152   4.273  13.373  1.00  0.00    -0.203 F 
ATOM     67  F   UNL     1      10.482   4.100  14.530  1.00  0.00    -0.200 F 
ATOM     68  C   UNL     1       8.282   4.703  15.141  1.00  0.00     0.200 A 
ATOM     69  F   UNL     1       6.066   5.288  15.709  1.00  0.00    -0.200 F 
ATOM     70  F   UNL     1       8.727   5.207  16.300  1.00  0.00    -0.200 F 
ENDBRANCH  37  60
ENDBRANCH  11  12
ENDBRANCH   4   6
ENDBRANCH   1   2
BRANCH   1  71
ATOM     71  C   UNL     1       5.022  -1.687  -1.929  1.00  0.00     0.042 C 
BRANCH  71  72
ATOM     72  C   UNL     1       4.420  -2.004  -3.289  1.00  0.00     0.118 C 
BRANCH  72  73
ATOM     73  N   UNL     1       4.849  -1.069  -4.320  1.00  0.00    -0.352 N 
ATOM     74  C   UNL     1       5.672  -1.256  -5.392  1.00  0.00     0.252 C 
ATOM     75  H   UNL     1       4.489  -0.158  -4.228  1.00  0.00     0.163 HD
ATOM     76  O   UNL     1       5.995  -0.292  -6.082  1.00  0.00    -0.269 OA
BRANCH  74  77
ATOM     77  C   UNL     1       6.182  -2.620  -5.682  1.00  0.00     0.054 A 
ATOM     78  C   UNL     1       5.255  -3.567  -5.902  1.00  0.00     0.086 A 
ATOM     79  C   UNL     1       7.614  -2.939  -5.828  1.00  0.00     0.012 A 
ATOM     80  C   UNL     1       5.636  -4.972  -6.119  1.00  0.00     0.249 A 
ATOM     81  C   UNL     1       7.977  -4.270  -6.096  1.00  0.00     0.063 A 
ATOM     82  C   UNL     1       8.626  -1.974  -5.718  1.00  0.00     0.011 A 
ATOM     83  O   UNL     1       4.776  -5.845  -6.191  1.00  0.00    -0.270 OA
ATOM     84  N   UNL     1       6.968  -5.241  -6.206  1.00  0.00    -0.321 N 
ATOM     85  C   UNL     1       9.325  -4.621  -6.252  1.00  0.00     0.042 A 
ATOM     86  C   UNL     1       9.968  -2.326  -5.882  1.00  0.00     0.002 A 
ATOM     87  H   UNL     1       7.240  -6.175  -6.357  1.00  0.00     0.170 HD
ATOM     88  Br  UNL     1       9.848  -6.409  -6.620  1.00  0.00    -0.049 Br
ATOM     89  C   UNL     1      10.319  -3.648  -6.150  1.00  0.00     0.018 A 
ENDBRANCH  74  77
ENDBRANCH  72  73
ENDBRANCH  71  72
ENDBRANCH   1  71
TORSDOF 10
