REMARK SMILES Cc1ccccc1OCC(=O)c1nc(C)c(C(=O)NCCCNC(=O)c2ccc(-c3c4nc(c(-c5c(F)c(F)c(F)c(F)c5F)c5ccc([nH]5)c(-c5c(F)c(F)c(F)c(F)c5F)c5nc(c(-c6c(F)c(F)c(F)c(F)c6F)c6ccc3[nH]6)C=C5)C=C4)cc2)s1
REMARK SMILES IDX 20 1 19 2 17 3 18 4 16 6 12 7 13 8 89 9 14 10 15 11 10 12
REMARK SMILES IDX 11 13 9 14 8 15 7 16 1 17 2 18 3 19 4 20 6 21 5 22 21 23
REMARK SMILES IDX 22 24 23 25 24 26 25 28 26 29 27 30 88 31 28 32 87 33 29 34
REMARK SMILES IDX 30 35 31 36 81 37 32 38 86 39 80 40 82 41 33 42 85 43 79 44
REMARK SMILES IDX 78 45 34 47 66 48 46 49 65 50 47 51 50 52 64 53 83 54 48 55
REMARK SMILES IDX 49 56 63 58 84 59 51 60 35 61 36 62 44 63 37 64 38 65 42 66
REMARK SMILES IDX 45 67 39 68 40 69 43 70 41 71 67 72 68 73 76 74 69 75 70 76
REMARK SMILES IDX 74 77 77 78 71 79 72 80 75 81 73 82 52 83 53 84 61 85 54 86
REMARK SMILES IDX 55 87 59 88 62 89 56 90 57 91 60 92 58 93
REMARK H PARENT 19 5 23 27 82 46 50 57
REMARK Flexibility Score: inf
ROOT
ATOM      1  C   UNL     1       2.050   2.609   7.751  1.00  0.00     0.118 C 
ENDROOT
BRANCH   1   2
ATOM      2  N   UNL     1       1.045   3.108   6.840  1.00  0.00    -0.351 N 
ATOM      3  C   UNL     1       0.923   3.193   5.476  1.00  0.00     0.263 C 
ATOM      4  O   UNL     1      -0.169   3.685   5.152  1.00  0.00    -0.268 OA
ATOM      5  H   UNL     1       0.261   3.474   7.310  1.00  0.00     0.163 HD
BRANCH   3   6
ATOM      6  C   UNL     1       1.912   2.780   4.476  1.00  0.00     0.115 A 
ATOM      7  C   UNL     1       2.816   2.369   2.202  1.00  0.00     0.164 A 
ATOM      8  N   UNL     1       3.697   2.071   3.122  1.00  0.00    -0.237 NA
ATOM      9  S   UNL     1       1.347   2.946   2.815  1.00  0.00    -0.105 S 
ATOM     10  C   UNL     1       3.223   2.309   4.405  1.00  0.00     0.062 A 
ATOM     11  C   UNL     1       4.273   2.049   5.414  1.00  0.00     0.068 C 
BRANCH   7  12
ATOM     12  C   UNL     1       3.155   2.229   0.790  1.00  0.00     0.228 C 
ATOM     13  O   UNL     1       4.280   1.867   0.415  1.00  0.00    -0.288 OA
BRANCH  12  14
ATOM     14  C   UNL     1       2.144   2.612  -0.288  1.00  0.00     0.313 C 
BRANCH  14  15
ATOM     15  O   UNL     1       0.781   2.306  -0.170  1.00  0.00    -0.485 OA
BRANCH  15  16
ATOM     16  C   UNL     1       0.270   1.045  -0.172  1.00  0.00     0.122 A 
ATOM     17  C   UNL     1       2.350  -0.468  -0.528  1.00  0.00     0.048 C 
ATOM     18  C   UNL     1       0.887  -0.206  -0.312  1.00  0.00    -0.009 A 
ATOM     19  C   UNL     1       0.079  -1.363  -0.204  1.00  0.00     0.007 A 
ATOM     20  C   UNL     1      -1.299  -1.290  -0.007  1.00  0.00     0.001 A 
ATOM     21  C   UNL     1      -1.125   1.098   0.017  1.00  0.00     0.047 A 
ATOM     22  C   UNL     1      -1.907  -0.051   0.094  1.00  0.00     0.004 A 
ENDBRANCH  15  16
ENDBRANCH  14  15
ENDBRANCH  12  14
ENDBRANCH   7  12
ENDBRANCH   3   6
ENDBRANCH   1   2
BRANCH   1  23
ATOM     23  C   UNL     1       3.217   3.579   7.892  1.00  0.00     0.042 C 
BRANCH  23  24
ATOM     24  C   UNL     1       3.280   4.315   9.219  1.00  0.00     0.118 C 
BRANCH  24  25
ATOM     25  N   UNL     1       4.378   3.844  10.069  1.00  0.00    -0.352 N 
ATOM     26  C   UNL     1       4.780   4.309  11.309  1.00  0.00     0.251 C 
ATOM     27  H   UNL     1       4.902   3.093   9.707  1.00  0.00     0.163 HD
ATOM     28  O   UNL     1       5.713   3.802  11.905  1.00  0.00    -0.269 OA
BRANCH  26  29
ATOM     29  C   UNL     1       3.945   5.347  11.946  1.00  0.00     0.039 A 
ATOM     30  C   UNL     1       3.269   4.984  13.114  1.00  0.00     0.014 A 
ATOM     31  C   UNL     1       3.573   6.466  11.209  1.00  0.00     0.014 A 
ATOM     32  C   UNL     1       2.049   5.586  13.389  1.00  0.00     0.010 A 
ATOM     33  C   UNL     1       2.312   6.985  11.419  1.00  0.00     0.010 A 
ATOM     34  C   UNL     1       1.521   6.486  12.462  1.00  0.00    -0.014 A 
BRANCH  34  35
ATOM     35  C   UNL     1       0.103   6.829  12.430  1.00  0.00     0.031 A 
ATOM     36  C   UNL     1      -0.346   8.178  12.826  1.00  0.00     0.074 A 
ATOM     37  C   UNL     1      -0.793   5.920  11.983  1.00  0.00     0.049 A 
ATOM     38  N   UNL     1      -1.529   8.451  13.266  1.00  0.00    -0.248 NA
ATOM     39  C   UNL     1       0.538   9.335  12.799  1.00  0.00     0.031 C 
ATOM     40  C   UNL     1      -2.191   6.157  11.632  1.00  0.00     0.029 A 
ATOM     41  N   UNL     1      -0.653   4.520  11.934  1.00  0.00    -0.354 N 
ATOM     42  C   UNL     1      -1.646   9.820  13.340  1.00  0.00     0.074 A 
ATOM     43  C   UNL     1      -0.315  10.322  13.087  1.00  0.00     0.031 C 
ATOM     44  C   UNL     1      -2.855   4.991  11.685  1.00  0.00     0.029 A 
ATOM     45  C   UNL     1      -1.937   3.998  12.214  1.00  0.00     0.049 A 
ATOM     46  H   UNL     1       0.168   4.010  11.745  1.00  0.00     0.167 HD
ATOM     47  C   UNL     1      -2.882  10.382  13.483  1.00  0.00     0.037 A 
ATOM     48  C   UNL     1      -2.177   3.220  13.309  1.00  0.00     0.037 A 
ATOM     49  C   UNL     1      -3.916   9.359  13.622  1.00  0.00     0.049 A 
ATOM     50  C   UNL     1      -3.228   3.773  14.241  1.00  0.00     0.074 A 
ATOM     51  C   UNL     1      -4.777   8.776  12.706  1.00  0.00     0.029 A 
ATOM     52  N   UNL     1      -3.957   8.566  14.763  1.00  0.00    -0.354 N 
ATOM     53  N   UNL     1      -3.607   5.020  14.245  1.00  0.00    -0.248 NA
ATOM     54  C   UNL     1      -3.877   2.983  15.285  1.00  0.00     0.031 C 
ATOM     55  C   UNL     1      -5.301   7.596  13.285  1.00  0.00     0.029 A 
ATOM     56  C   UNL     1      -4.773   7.469  14.557  1.00  0.00     0.049 A 
ATOM     57  H   UNL     1      -3.474   8.759  15.600  1.00  0.00     0.167 HD
ATOM     58  C   UNL     1      -4.471   5.223  15.287  1.00  0.00     0.074 A 
ATOM     59  C   UNL     1      -4.634   3.915  15.890  1.00  0.00     0.031 C 
ATOM     60  C   UNL     1      -4.955   6.463  15.589  1.00  0.00     0.037 A 
BRANCH  47  61
ATOM     61  C   UNL     1      -3.181  11.835  13.181  1.00  0.00     0.064 A 
ATOM     62  C   UNL     1      -4.433  12.223  12.654  1.00  0.00     0.173 A 
ATOM     63  C   UNL     1      -2.256  12.885  13.319  1.00  0.00     0.173 A 
ATOM     64  F   UNL     1      -5.461  11.368  12.585  1.00  0.00    -0.203 F 
ATOM     65  C   UNL     1      -4.681  13.512  12.172  1.00  0.00     0.198 A 
ATOM     66  C   UNL     1      -2.479  14.158  12.783  1.00  0.00     0.198 A 
ATOM     67  F   UNL     1      -1.131  12.729  14.029  1.00  0.00    -0.203 F 
ATOM     68  F   UNL     1      -5.886  13.814  11.670  1.00  0.00    -0.200 F 
ATOM     69  C   UNL     1      -3.687  14.467  12.193  1.00  0.00     0.200 A 
ATOM     70  F   UNL     1      -1.510  15.084  12.843  1.00  0.00    -0.200 F 
ATOM     71  F   UNL     1      -3.902  15.685  11.679  1.00  0.00    -0.200 F 
ENDBRANCH  47  61
BRANCH  48  72
ATOM     72  C   UNL     1      -0.996   2.440  13.759  1.00  0.00     0.064 A 
ATOM     73  C   UNL     1      -0.467   1.460  12.899  1.00  0.00     0.173 A 
ATOM     74  C   UNL     1      -0.192   2.876  14.819  1.00  0.00     0.173 A 
ATOM     75  F   UNL     1      -1.196   1.012  11.864  1.00  0.00    -0.203 F 
ATOM     76  C   UNL     1       0.847   1.018  13.027  1.00  0.00     0.198 A 
ATOM     77  C   UNL     1       1.121   2.422  14.951  1.00  0.00     0.198 A 
ATOM     78  F   UNL     1      -0.631   3.824  15.658  1.00  0.00    -0.203 F 
ATOM     79  F   UNL     1       1.357   0.168  12.125  1.00  0.00    -0.200 F 
ATOM     80  C   UNL     1       1.649   1.520  14.038  1.00  0.00     0.200 A 
ATOM     81  F   UNL     1       1.909   2.935  15.906  1.00  0.00    -0.200 F 
ATOM     82  F   UNL     1       2.941   1.172  14.105  1.00  0.00    -0.200 F 
ENDBRANCH  48  72
BRANCH  60  83
ATOM     83  C   UNL     1      -5.712   6.813  16.840  1.00  0.00     0.064 A 
ATOM     84  C   UNL     1      -5.462   6.218  18.087  1.00  0.00     0.173 A 
ATOM     85  C   UNL     1      -6.632   7.886  16.840  1.00  0.00     0.173 A 
ATOM     86  F   UNL     1      -4.528   5.267  18.228  1.00  0.00    -0.203 F 
ATOM     87  C   UNL     1      -6.131   6.625  19.244  1.00  0.00     0.198 A 
ATOM     88  C   UNL     1      -7.260   8.323  18.006  1.00  0.00     0.198 A 
ATOM     89  F   UNL     1      -6.927   8.550  15.713  1.00  0.00    -0.203 F 
ATOM     90  F   UNL     1      -5.887   6.002  20.405  1.00  0.00    -0.200 F 
ATOM     91  C   UNL     1      -7.021   7.683  19.205  1.00  0.00     0.200 A 
ATOM     92  F   UNL     1      -8.082   9.381  17.962  1.00  0.00    -0.200 F 
ATOM     93  F   UNL     1      -7.630   8.096  20.324  1.00  0.00    -0.200 F 
ENDBRANCH  60  83
ENDBRANCH  34  35
ENDBRANCH  26  29
ENDBRANCH  24  25
ENDBRANCH  23  24
ENDBRANCH   1  23
TORSDOF 14
