REMARK SMILES CC(C)[C@@H](NC(N)=O)C(=O)N[C@H](C(=O)NCCCNC(=O)c1ccc(-c2c3nc(c(-c4c(F)c(F)c(F)c(F)c4F)c4ccc([nH]4)c(-c4c(F)c(F)c(F)c(F)c4F)c4nc(c(-c5c(F)c(F)c(F)c(F)c5F)c5ccc2[nH]5)C=C4)C=C3)cc1)[C@@H](C)O
REMARK SMILES IDX 16 1 15 2 13 3 14 4 12 6 11 7 9 8 10 9 4 11 2 12 1 13 3 14
REMARK SMILES IDX 5 15 6 16 7 18 8 19 85 22 86 23 87 24 17 26 18 27 19 28
REMARK SMILES IDX 20 29 21 31 22 32 23 33 84 34 24 35 83 36 25 37 26 38 27 39
REMARK SMILES IDX 77 40 28 41 82 42 76 43 78 44 29 45 81 46 75 47 74 48 30 50
REMARK SMILES IDX 62 51 42 52 61 53 43 54 46 55 60 56 79 57 44 58 45 59 59 61
REMARK SMILES IDX 80 62 47 63 31 64 32 65 40 66 33 67 34 68 38 69 41 70 35 71
REMARK SMILES IDX 36 72 39 73 37 74 63 75 64 76 72 77 65 78 66 79 70 80 73 81
REMARK SMILES IDX 67 82 68 83 71 84 69 85 48 86 49 87 57 88 50 89 51 90 55 91
REMARK SMILES IDX 58 92 52 93 53 94 56 95 54 96
REMARK H PARENT 15 5 11 10 5 17 7 20 7 21 87 25 19 30 78 49 46 60
REMARK Flexibility Score: inf
ROOT
ATOM      1  C   UNL     1      -1.277  -2.632   0.090  1.00  0.00     0.117 C 
ENDROOT
BRANCH   1   2
ATOM      2  N   UNL     1      -1.654  -3.648  -0.871  1.00  0.00    -0.354 N 
ATOM      3  C   UNL     1      -1.395  -3.721  -2.222  1.00  0.00     0.245 C 
ATOM      4  O   UNL     1      -1.886  -4.694  -2.804  1.00  0.00    -0.273 OA
ATOM      5  H   UNL     1      -2.172  -4.399  -0.503  1.00  0.00     0.163 HD
BRANCH   3   6
ATOM      6  C   UNL     1      -0.527  -2.669  -2.973  1.00  0.00     0.200 C 
BRANCH   6   7
ATOM      7  N   UNL     1       0.740  -3.179  -3.550  1.00  0.00    -0.340 N 
ATOM      8  C   UNL     1       2.027  -3.231  -3.101  1.00  0.00     0.243 C 
ATOM      9  O   UNL     1       2.912  -3.172  -3.961  1.00  0.00    -0.273 OA
ATOM     10  H   UNL     1       0.629  -3.563  -4.449  1.00  0.00     0.164 HD
BRANCH   8  11
ATOM     11  C   UNL     1       2.385  -3.196  -1.595  1.00  0.00     0.175 C 
BRANCH  11  12
ATOM     12  C   UNL     1       2.450  -1.721  -1.108  1.00  0.00     0.015 C 
ATOM     13  C   UNL     1       2.329  -1.523   0.405  1.00  0.00     0.010 C 
ATOM     14  C   UNL     1       3.780  -1.088  -1.554  1.00  0.00     0.010 C 
ENDBRANCH  11  12
BRANCH  11  15
ATOM     15  N   UNL     1       1.443  -4.081  -0.925  1.00  0.00    -0.326 N 
ATOM     16  C   UNL     1       1.452  -5.411  -1.275  1.00  0.00     0.312 C 
ATOM     17  H   UNL     1       0.820  -3.738  -0.244  1.00  0.00     0.166 HD
ATOM     18  N   UNL     1       0.380  -6.085  -0.794  1.00  0.00    -0.352 N 
ATOM     19  O   UNL     1       2.272  -5.956  -1.992  1.00  0.00    -0.249 OA
ATOM     20  H   UNL     1      -0.272  -5.626  -0.215  1.00  0.00     0.161 HD
ATOM     21  H   UNL     1       0.252  -7.034  -1.022  1.00  0.00     0.161 HD
ENDBRANCH  11  15
ENDBRANCH   8  11
ENDBRANCH   6   7
BRANCH   6  22
ATOM     22  C   UNL     1      -1.357  -2.159  -4.199  1.00  0.00     0.143 C 
ATOM     23  C   UNL     1      -2.495  -1.220  -3.841  1.00  0.00     0.041 C 
BRANCH  22  24
ATOM     24  O   UNL     1      -0.517  -1.453  -5.133  1.00  0.00    -0.391 OA
ATOM     25  H   UNL     1      -0.164  -0.655  -4.711  1.00  0.00     0.211 HD
ENDBRANCH  22  24
ENDBRANCH   6  22
ENDBRANCH   3   6
ENDBRANCH   1   2
BRANCH   1  26
ATOM     26  C   UNL     1      -1.020  -3.063   1.559  1.00  0.00     0.042 C 
BRANCH  26  27
ATOM     27  C   UNL     1      -0.966  -4.542   1.953  1.00  0.00     0.118 C 
BRANCH  27  28
ATOM     28  N   UNL     1       0.368  -5.122   1.924  1.00  0.00    -0.352 N 
ATOM     29  C   UNL     1       1.437  -5.201   2.783  1.00  0.00     0.251 C 
ATOM     30  H   UNL     1       0.551  -5.576   1.070  1.00  0.00     0.163 HD
ATOM     31  O   UNL     1       2.372  -5.909   2.401  1.00  0.00    -0.269 OA
BRANCH  29  32
ATOM     32  C   UNL     1       1.578  -4.508   4.101  1.00  0.00     0.039 A 
ATOM     33  C   UNL     1       2.806  -4.678   4.777  1.00  0.00     0.014 A 
ATOM     34  C   UNL     1       0.611  -3.717   4.716  1.00  0.00     0.014 A 
ATOM     35  C   UNL     1       3.053  -4.089   6.027  1.00  0.00     0.010 A 
ATOM     36  C   UNL     1       0.865  -3.102   5.954  1.00  0.00     0.010 A 
ATOM     37  C   UNL     1       2.082  -3.286   6.629  1.00  0.00    -0.014 A 
BRANCH  37  38
ATOM     38  C   UNL     1       2.294  -2.652   7.961  1.00  0.00     0.031 A 
ATOM     39  C   UNL     1       1.431  -3.050   9.130  1.00  0.00     0.074 A 
ATOM     40  C   UNL     1       3.201  -1.667   8.119  1.00  0.00     0.049 A 
ATOM     41  N   UNL     1       1.323  -2.499  10.314  1.00  0.00    -0.248 NA
ATOM     42  C   UNL     1       0.549  -4.208   8.925  1.00  0.00     0.031 C 
ATOM     43  C   UNL     1       4.098  -1.166   7.079  1.00  0.00     0.029 A 
ATOM     44  N   UNL     1       3.500  -0.895   9.217  1.00  0.00    -0.354 N 
ATOM     45  C   UNL     1       0.332  -3.213  10.977  1.00  0.00     0.074 A 
ATOM     46  C   UNL     1      -0.146  -4.222  10.054  1.00  0.00     0.031 C 
ATOM     47  C   UNL     1       4.851  -0.176   7.588  1.00  0.00     0.029 A 
ATOM     48  C   UNL     1       4.463   0.055   8.978  1.00  0.00     0.049 A 
ATOM     49  H   UNL     1       3.065  -1.013  10.092  1.00  0.00     0.167 HD
ATOM     50  C   UNL     1      -0.130  -3.053  12.241  1.00  0.00     0.037 A 
ATOM     51  C   UNL     1       4.965   1.014   9.780  1.00  0.00     0.037 A 
ATOM     52  C   UNL     1       0.385  -2.094  13.185  1.00  0.00     0.049 A 
ATOM     53  C   UNL     1       4.456   1.153  11.190  1.00  0.00     0.074 A 
ATOM     54  C   UNL     1       0.017  -1.901  14.507  1.00  0.00     0.029 A 
ATOM     55  N   UNL     1       1.391  -1.180  12.914  1.00  0.00    -0.354 N 
ATOM     56  N   UNL     1       3.529   0.465  11.807  1.00  0.00    -0.248 NA
ATOM     57  C   UNL     1       5.069   2.206  12.015  1.00  0.00     0.031 C 
ATOM     58  C   UNL     1       0.785  -0.853  15.028  1.00  0.00     0.029 A 
ATOM     59  C   UNL     1       1.654  -0.418  14.042  1.00  0.00     0.049 A 
ATOM     60  H   UNL     1       1.850  -1.086  12.049  1.00  0.00     0.167 HD
ATOM     61  C   UNL     1       3.464   0.980  13.095  1.00  0.00     0.074 A 
ATOM     62  C   UNL     1       4.455   2.032  13.177  1.00  0.00     0.031 C 
ATOM     63  C   UNL     1       2.652   0.616  14.117  1.00  0.00     0.037 A 
BRANCH  50  64
ATOM     64  C   UNL     1      -1.257  -3.939  12.686  1.00  0.00     0.064 A 
ATOM     65  C   UNL     1      -1.063  -5.304  12.942  1.00  0.00     0.173 A 
ATOM     66  C   UNL     1      -2.538  -3.407  12.898  1.00  0.00     0.173 A 
ATOM     67  F   UNL     1       0.140  -5.863  12.744  1.00  0.00    -0.203 F 
ATOM     68  C   UNL     1      -2.117  -6.111  13.364  1.00  0.00     0.198 A 
ATOM     69  C   UNL     1      -3.583  -4.210  13.348  1.00  0.00     0.198 A 
ATOM     70  F   UNL     1      -2.775  -2.105  12.676  1.00  0.00    -0.203 F 
ATOM     71  F   UNL     1      -1.920  -7.423  13.553  1.00  0.00    -0.200 F 
ATOM     72  C   UNL     1      -3.374  -5.562  13.572  1.00  0.00     0.200 A 
ATOM     73  F   UNL     1      -4.794  -3.676  13.560  1.00  0.00    -0.200 F 
ATOM     74  F   UNL     1      -4.386  -6.339  13.982  1.00  0.00    -0.200 F 
ENDBRANCH  50  64
BRANCH  51  75
ATOM     75  C   UNL     1       6.032   1.919   9.277  1.00  0.00     0.064 A 
ATOM     76  C   UNL     1       7.346   1.804   9.750  1.00  0.00     0.173 A 
ATOM     77  C   UNL     1       5.760   2.921   8.336  1.00  0.00     0.173 A 
ATOM     78  F   UNL     1       7.646   0.878  10.672  1.00  0.00    -0.203 F 
ATOM     79  C   UNL     1       8.346   2.670   9.313  1.00  0.00     0.198 A 
ATOM     80  C   UNL     1       6.766   3.771   7.881  1.00  0.00     0.198 A 
ATOM     81  F   UNL     1       4.517   3.072   7.854  1.00  0.00    -0.203 F 
ATOM     82  F   UNL     1       9.584   2.568   9.816  1.00  0.00    -0.200 F 
ATOM     83  C   UNL     1       8.056   3.650   8.376  1.00  0.00     0.200 A 
ATOM     84  F   UNL     1       6.485   4.711   6.969  1.00  0.00    -0.200 F 
ATOM     85  F   UNL     1       9.018   4.483   7.956  1.00  0.00    -0.200 F 
ENDBRANCH  51  75
BRANCH  63  86
ATOM     86  C   UNL     1       2.826   1.332  15.424  1.00  0.00     0.064 A 
ATOM     87  C   UNL     1       2.379   2.649  15.604  1.00  0.00     0.173 A 
ATOM     88  C   UNL     1       3.416   0.681  16.518  1.00  0.00     0.173 A 
ATOM     89  F   UNL     1       1.823   3.318  14.584  1.00  0.00    -0.203 F 
ATOM     90  C   UNL     1       2.536   3.296  16.828  1.00  0.00     0.198 A 
ATOM     91  C   UNL     1       3.550   1.323  17.746  1.00  0.00     0.198 A 
ATOM     92  F   UNL     1       3.855  -0.581  16.397  1.00  0.00    -0.203 F 
ATOM     93  F   UNL     1       2.139   4.569  16.966  1.00  0.00    -0.200 F 
ATOM     94  C   UNL     1       3.116   2.631  17.898  1.00  0.00     0.200 A 
ATOM     95  F   UNL     1       4.101   0.676  18.782  1.00  0.00    -0.200 F 
ATOM     96  F   UNL     1       3.263   3.255  19.076  1.00  0.00    -0.200 F 
ENDBRANCH  63  86
ENDBRANCH  37  38
ENDBRANCH  29  32
ENDBRANCH  27  28
ENDBRANCH  26  27
ENDBRANCH   1  26
TORSDOF 16
