REMARK SMILES O=C(NCCCNC(=O)[C@]1(NC(=O)C2CCN(C(=O)C3CC3)CC2)CCCc2ccccc21)c1ccc(-c2c3nc(c(-c4c(F)c(F)c(F)c(F)c4F)c4ccc([nH]4)c(-c4c(F)c(F)c(F)c(F)c4F)c4nc(c(-c5c(F)c(F)c(F)c(F)c5F)c5ccc2[nH]5)C=C4)C=C3)cc1
REMARK SMILES IDX 5 1 4 2 3 3 1 4 2 5 34 7 35 8 96 9 36 10 95 11 37 12 38 13
REMARK SMILES IDX 39 14 89 15 40 16 94 17 88 18 90 19 41 20 93 21 87 22 86 23
REMARK SMILES IDX 42 25 74 26 54 27 73 28 55 29 58 30 72 31 91 32 56 33 57 34
REMARK SMILES IDX 71 36 92 37 59 38 43 39 44 40 52 41 45 42 46 43 50 44 53 45
REMARK SMILES IDX 47 46 48 47 51 48 49 49 75 50 76 51 84 52 77 53 78 54 82 55
REMARK SMILES IDX 85 56 79 57 80 58 83 59 81 60 60 61 61 62 69 63 62 64 63 65
REMARK SMILES IDX 67 66 70 67 64 68 65 69 68 70 66 71 6 72 7 73 8 74 9 76
REMARK SMILES IDX 10 77 25 78 33 79 26 80 28 81 32 82 27 83 29 84 31 85 30 86
REMARK SMILES IDX 11 87 12 88 13 90 14 91 15 92 24 93 16 94 23 95 17 96 18 97
REMARK SMILES IDX 19 98 20 99 21 100 22 101
REMARK H PARENT 3 6 90 24 58 35 7 75 11 89
REMARK Flexibility Score: inf
ROOT
ATOM      1  C   UNL     1       4.575   2.938  -0.247  1.00  0.00     0.042 C 
ENDROOT
BRANCH   1   2
ATOM      2  C   UNL     1       3.364   1.442   0.658  1.00  0.00     0.118 C 
BRANCH   2   3
ATOM      3  N   UNL     1       2.057   0.690   0.397  1.00  0.00    -0.352 N 
ATOM      4  O   UNL     1       0.718  -1.102   0.747  1.00  0.00    -0.269 OA
ATOM      5  C   UNL     1       1.824  -0.694   0.392  1.00  0.00     0.251 C 
ATOM      6  H   UNL     1       1.272   1.253   0.205  1.00  0.00     0.163 HD
BRANCH   5   7
ATOM      7  C   UNL     1       2.776  -1.683  -0.203  1.00  0.00     0.039 A 
ATOM      8  C   UNL     1       4.048  -1.977   0.289  1.00  0.00     0.014 A 
ATOM      9  C   UNL     1       2.333  -2.366  -1.345  1.00  0.00     0.014 A 
ATOM     10  C   UNL     1       4.938  -2.758  -0.476  1.00  0.00     0.010 A 
ATOM     11  C   UNL     1       3.202  -3.164  -2.098  1.00  0.00     0.010 A 
ATOM     12  C   UNL     1       4.527  -3.348  -1.688  1.00  0.00    -0.014 A 
BRANCH  12  13
ATOM     13  C   UNL     1       5.331  -4.425  -2.327  1.00  0.00     0.031 A 
ATOM     14  C   UNL     1       6.026  -4.290  -3.656  1.00  0.00     0.074 A 
ATOM     15  C   UNL     1       5.292  -5.616  -1.698  1.00  0.00     0.049 A 
ATOM     16  N   UNL     1       6.683  -5.207  -4.330  1.00  0.00    -0.248 NA
ATOM     17  C   UNL     1       5.985  -2.981  -4.322  1.00  0.00     0.031 C 
ATOM     18  C   UNL     1       4.579  -5.864  -0.441  1.00  0.00     0.029 A 
ATOM     19  N   UNL     1       5.809  -6.839  -2.032  1.00  0.00    -0.354 N 
ATOM     20  C   UNL     1       7.132  -4.593  -5.495  1.00  0.00     0.074 A 
ATOM     21  C   UNL     1       6.662  -3.222  -5.443  1.00  0.00     0.031 C 
ATOM     22  C   UNL     1       4.689  -7.156  -0.117  1.00  0.00     0.029 A 
ATOM     23  C   UNL     1       5.435  -7.836  -1.165  1.00  0.00     0.049 A 
ATOM     24  H   UNL     1       6.389  -6.988  -2.814  1.00  0.00     0.167 HD
ATOM     25  C   UNL     1       7.861  -5.137  -6.504  1.00  0.00     0.037 A 
ATOM     26  C   UNL     1       5.630  -9.163  -1.220  1.00  0.00     0.037 A 
ATOM     27  C   UNL     1       8.300  -6.516  -6.542  1.00  0.00     0.049 A 
ATOM     28  C   UNL     1       6.417  -9.729  -2.361  1.00  0.00     0.074 A 
ATOM     29  C   UNL     1       9.124  -7.136  -7.468  1.00  0.00     0.029 A 
ATOM     30  N   UNL     1       7.924  -7.495  -5.633  1.00  0.00    -0.354 N 
ATOM     31  N   UNL     1       6.948  -9.109  -3.385  1.00  0.00    -0.248 NA
ATOM     32  C   UNL     1       6.643 -11.179  -2.348  1.00  0.00     0.031 C 
ATOM     33  C   UNL     1       9.184  -8.500  -7.164  1.00  0.00     0.029 A 
ATOM     34  C   UNL     1       8.456  -8.722  -6.007  1.00  0.00     0.049 A 
ATOM     35  H   UNL     1       7.362  -7.342  -4.839  1.00  0.00     0.167 HD
ATOM     36  C   UNL     1       7.585 -10.087  -4.131  1.00  0.00     0.074 A 
ATOM     37  C   UNL     1       7.403 -11.337  -3.421  1.00  0.00     0.031 C 
ATOM     38  C   UNL     1       8.254  -9.962  -5.302  1.00  0.00     0.037 A 
BRANCH  25  39
ATOM     39  C   UNL     1       8.251  -4.274  -7.678  1.00  0.00     0.064 A 
ATOM     40  C   UNL     1       9.247  -3.293  -7.570  1.00  0.00     0.173 A 
ATOM     41  C   UNL     1       7.743  -4.547  -8.960  1.00  0.00     0.173 A 
ATOM     42  F   UNL     1       9.782  -3.001  -6.375  1.00  0.00    -0.203 F 
ATOM     43  C   UNL     1       9.716  -2.615  -8.697  1.00  0.00     0.198 A 
ATOM     44  C   UNL     1       8.231  -3.885 -10.087  1.00  0.00     0.198 A 
ATOM     45  F   UNL     1       6.808  -5.494  -9.130  1.00  0.00    -0.203 F 
ATOM     46  F   UNL     1      10.667  -1.680  -8.568  1.00  0.00    -0.200 F 
ATOM     47  C   UNL     1       9.216  -2.920  -9.954  1.00  0.00     0.200 A 
ATOM     48  F   UNL     1       7.766  -4.202 -11.304  1.00  0.00    -0.200 F 
ATOM     49  F   UNL     1       9.693  -2.292 -11.039  1.00  0.00    -0.200 F 
ENDBRANCH  25  39
BRANCH  26  50
ATOM     50  C   UNL     1       5.057 -10.033  -0.163  1.00  0.00     0.064 A 
ATOM     51  C   UNL     1       5.886 -10.709   0.740  1.00  0.00     0.173 A 
ATOM     52  C   UNL     1       3.669 -10.192  -0.024  1.00  0.00     0.173 A 
ATOM     53  F   UNL     1       7.219 -10.590   0.643  1.00  0.00    -0.203 F 
ATOM     54  C   UNL     1       5.352 -11.542   1.719  1.00  0.00     0.198 A 
ATOM     55  C   UNL     1       3.135 -10.994   0.980  1.00  0.00     0.198 A 
ATOM     56  F   UNL     1       2.831  -9.548  -0.851  1.00  0.00    -0.203 F 
ATOM     57  F   UNL     1       6.170 -12.224   2.532  1.00  0.00    -0.200 F 
ATOM     58  C   UNL     1       3.977 -11.680   1.841  1.00  0.00     0.200 A 
ATOM     59  F   UNL     1       1.806 -11.102   1.113  1.00  0.00    -0.200 F 
ATOM     60  F   UNL     1       3.464 -12.479   2.786  1.00  0.00    -0.200 F 
ENDBRANCH  26  50
BRANCH  38  61
ATOM     61  C   UNL     1       8.844 -11.217  -5.877  1.00  0.00     0.064 A 
ATOM     62  C   UNL     1       8.032 -12.236  -6.398  1.00  0.00     0.173 A 
ATOM     63  C   UNL     1      10.233 -11.405  -5.908  1.00  0.00     0.173 A 
ATOM     64  F   UNL     1       6.696 -12.116  -6.370  1.00  0.00    -0.203 F 
ATOM     65  C   UNL     1       8.588 -13.411  -6.896  1.00  0.00     0.198 A 
ATOM     66  C   UNL     1      10.788 -12.565  -6.440  1.00  0.00     0.198 A 
ATOM     67  F   UNL     1      11.055 -10.461  -5.423  1.00  0.00    -0.203 F 
ATOM     68  F   UNL     1       7.790 -14.398  -7.327  1.00  0.00    -0.200 F 
ATOM     69  C   UNL     1       9.965 -13.571  -6.923  1.00  0.00     0.200 A 
ATOM     70  F   UNL     1      12.119 -12.713  -6.478  1.00  0.00    -0.200 F 
ATOM     71  F   UNL     1      10.500 -14.702  -7.405  1.00  0.00    -0.200 F 
ENDBRANCH  38  61
ENDBRANCH  12  13
ENDBRANCH   5   7
ENDBRANCH   2   3
ENDBRANCH   1   2
BRANCH   1  72
ATOM     72  C   UNL     1       6.305   3.518   0.240  1.00  0.00     0.117 C 
BRANCH  72  73
ATOM     73  N   UNL     1       6.797   3.639   1.746  1.00  0.00    -0.354 N 
ATOM     74  C   UNL     1       6.531   4.493   2.826  1.00  0.00     0.250 C 
ATOM     75  H   UNL     1       7.451   2.941   1.979  1.00  0.00     0.163 HD
ATOM     76  O   UNL     1       6.707   4.075   3.969  1.00  0.00    -0.272 OA
BRANCH  74  77
ATOM     77  C   UNL     1       6.314   5.952   2.464  1.00  0.00     0.145 C 
ATOM     78  C   UNL     1       7.750   6.402   2.053  1.00  0.00     0.044 C 
ATOM     79  C   UNL     1       5.725   7.040   3.405  1.00  0.00    -0.010 A 
ATOM     80  C   UNL     1       8.587   6.621   3.320  1.00  0.00     0.008 C 
ATOM     81  C   UNL     1       6.573   7.968   4.057  1.00  0.00    -0.042 A 
ATOM     82  C   UNL     1       4.344   7.359   3.415  1.00  0.00     0.007 A 
ATOM     83  C   UNL     1       8.075   7.833   4.076  1.00  0.00     0.036 C 
ATOM     84  C   UNL     1       6.050   9.155   4.620  1.00  0.00     0.004 A 
ATOM     85  C   UNL     1       3.845   8.567   3.919  1.00  0.00     0.000 A 
ATOM     86  C   UNL     1       4.701   9.470   4.519  1.00  0.00     0.000 A 
BRANCH  77  87
ATOM     87  N   UNL     1       5.451   5.802   1.321  1.00  0.00    -0.338 N 
ATOM     88  C   UNL     1       4.314   5.065   1.337  1.00  0.00     0.224 C 
ATOM     89  H   UNL     1       5.700   6.257   0.484  1.00  0.00     0.164 HD
ATOM     90  O   UNL     1       3.382   5.761   0.902  1.00  0.00    -0.275 OA
BRANCH  88  91
ATOM     91  C   UNL     1       4.093   3.375   1.705  1.00  0.00     0.082 C 
ATOM     92  C   UNL     1       5.247   1.757   1.290  1.00  0.00     0.035 C 
ATOM     93  C   UNL     1       2.457   3.406   0.692  1.00  0.00     0.035 C 
ATOM     94  C   UNL     1       5.083   0.966  -0.554  1.00  0.00     0.120 C 
ATOM     95  C   UNL     1       2.495   2.780  -1.049  1.00  0.00     0.120 C 
ATOM     96  N   UNL     1       3.507   1.393  -1.472  1.00  0.00    -0.342 N 
ATOM     97  C   UNL     1       3.061   0.586  -2.528  1.00  0.00     0.225 C 
ATOM     98  O   UNL     1       3.875  -0.076  -3.171  1.00  0.00    -0.275 OA
BRANCH  97  99
ATOM     99  C   UNL     1       1.580   0.347  -2.839  1.00  0.00     0.079 C 
ATOM    100  C   UNL     1       0.314   0.718  -2.083  1.00  0.00     0.014 C 
ATOM    101  C   UNL     1       0.604   1.335  -3.422  1.00  0.00     0.014 C 
ENDBRANCH  97  99
ENDBRANCH  88  91
ENDBRANCH  77  87
ENDBRANCH  74  77
ENDBRANCH  72  73
ENDBRANCH   1  72
TORSDOF 13
