REMARK SMILES [NH3+][C@H]1C=C[C@@H](C(=O)N2CCC(CC(=O)NCCCNC(=O)c3ccc(-c4c5nc(c(-c6c(F)c(F)c(F)c(F)c6F)c6ccc([nH]6)c(-c6c(F)c(F)c(F)c(F)c6F)c6nc(c(-c7c(F)c(F)c(F)c(F)c7F)c7ccc4[nH]7)C=C6)C=C5)cc3)CC2)C1
REMARK SMILES IDX 16 1 15 2 13 3 14 4 12 6 11 7 6 8 7 9 8 10 9 11 86 12 10 13
REMARK SMILES IDX 85 14 5 15 2 16 3 17 87 18 4 19 1 20 17 24 18 25 19 26 20 27
REMARK SMILES IDX 21 29 22 30 23 31 84 32 24 33 83 34 25 35 26 36 27 37 77 38
REMARK SMILES IDX 28 39 82 40 76 41 78 42 29 43 81 44 75 45 74 46 30 48 62 49
REMARK SMILES IDX 42 50 61 51 43 52 46 53 60 54 79 55 44 56 45 57 59 59 80 60
REMARK SMILES IDX 47 61 31 62 32 63 40 64 33 65 34 66 38 67 41 68 35 69 36 70
REMARK SMILES IDX 39 71 37 72 63 73 64 74 72 75 65 76 66 77 70 78 73 79 67 80
REMARK SMILES IDX 68 81 71 82 69 83 48 84 49 85 57 86 50 87 51 88 55 89 58 90
REMARK SMILES IDX 52 91 53 92 56 93 54 94
REMARK H PARENT 15 5 1 21 1 22 1 23 19 28 78 47 46 58
REMARK Flexibility Score: inf
ROOT
ATOM      1  C   UNL     1      -2.651   6.336  -6.253  1.00  0.00     0.117 C 
ENDROOT
BRANCH   1   2
ATOM      2  N   UNL     1      -1.968   5.508  -7.240  1.00  0.00    -0.356 N 
ATOM      3  C   UNL     1      -1.791   4.159  -7.312  1.00  0.00     0.220 C 
ATOM      4  O   UNL     1      -1.134   3.709  -8.253  1.00  0.00    -0.275 OA
ATOM      5  H   UNL     1      -1.564   6.012  -7.983  1.00  0.00     0.163 HD
BRANCH   3   6
ATOM      6  C   UNL     1      -2.363   3.236  -6.254  1.00  0.00     0.103 C 
BRANCH   6   7
ATOM      7  C   UNL     1      -1.316   2.773  -5.224  1.00  0.00     0.002 C 
ATOM      8  C   UNL     1      -1.259   3.196  -1.376  1.00  0.00     0.229 C 
ATOM      9  O   UNL     1      -2.134   4.038  -1.589  1.00  0.00    -0.274 OA
ATOM     10  N   UNL     1      -0.526   2.623  -2.410  1.00  0.00    -0.342 N 
ATOM     11  C   UNL     1       0.170   3.537  -3.297  1.00  0.00     0.120 C 
ATOM     12  C   UNL     1      -1.035   1.429  -3.068  1.00  0.00     0.120 C 
ATOM     13  C   UNL     1      -0.710   3.959  -4.466  1.00  0.00     0.026 C 
ATOM     14  C   UNL     1      -1.959   1.779  -4.237  1.00  0.00     0.026 C 
BRANCH   8  15
ATOM     15  C   UNL     1      -0.786   2.887   0.051  1.00  0.00     0.107 C 
ATOM     16  C   UNL     1       0.694   1.056   0.798  1.00  0.00     0.205 C 
ATOM     17  C   UNL     1       1.429   2.343   0.642  1.00  0.00     0.033 C 
ATOM     18  C   UNL     1      -0.761   1.409   0.452  1.00  0.00     0.087 C 
ATOM     19  C   UNL     1       0.629   3.341   0.256  1.00  0.00    -0.012 C 
BRANCH  16  20
ATOM     20  N   UNL     1       1.229   0.037  -0.089  1.00  0.00    -0.352 N 
ATOM     21  H   UNL     1       2.193  -0.169   0.172  1.00  0.00     0.345 HD
ATOM     22  H   UNL     1       1.202   0.376  -1.051  1.00  0.00     0.345 HD
ATOM     23  H   UNL     1       0.667  -0.810  -0.011  1.00  0.00     0.345 HD
ENDBRANCH  16  20
ENDBRANCH   8  15
ENDBRANCH   6   7
ENDBRANCH   3   6
ENDBRANCH   1   2
BRANCH   1  24
ATOM     24  C   UNL     1      -1.684   7.174  -5.414  1.00  0.00     0.042 C 
BRANCH  24  25
ATOM     25  C   UNL     1      -0.929   8.240  -6.199  1.00  0.00     0.118 C 
BRANCH  25  26
ATOM     26  N   UNL     1      -1.642   9.505  -6.213  1.00  0.00    -0.352 N 
ATOM     27  C   UNL     1      -1.346  10.693  -5.589  1.00  0.00     0.251 C 
ATOM     28  H   UNL     1      -2.465   9.513  -6.753  1.00  0.00     0.163 HD
ATOM     29  O   UNL     1      -2.208  11.566  -5.527  1.00  0.00    -0.269 OA
BRANCH  27  30
ATOM     30  C   UNL     1      -0.012  10.948  -4.987  1.00  0.00     0.039 A 
ATOM     31  C   UNL     1       0.055  11.696  -3.805  1.00  0.00     0.014 A 
ATOM     32  C   UNL     1       1.173  10.548  -5.611  1.00  0.00     0.014 A 
ATOM     33  C   UNL     1       1.295  12.017  -3.241  1.00  0.00     0.010 A 
ATOM     34  C   UNL     1       2.408  10.808  -5.011  1.00  0.00     0.010 A 
ATOM     35  C   UNL     1       2.485  11.565  -3.832  1.00  0.00    -0.014 A 
BRANCH  35  36
ATOM     36  C   UNL     1       3.813  11.918  -3.259  1.00  0.00     0.031 A 
ATOM     37  C   UNL     1       4.765  12.789  -4.038  1.00  0.00     0.074 A 
ATOM     38  C   UNL     1       4.188  11.426  -2.062  1.00  0.00     0.049 A 
ATOM     39  N   UNL     1       5.991  13.149  -3.745  1.00  0.00    -0.248 NA
ATOM     40  C   UNL     1       4.285  13.306  -5.330  1.00  0.00     0.031 C 
ATOM     41  C   UNL     1       3.381  10.544  -1.219  1.00  0.00     0.029 A 
ATOM     42  N   UNL     1       5.353  11.591  -1.351  1.00  0.00    -0.354 N 
ATOM     43  C   UNL     1       6.435  13.902  -4.825  1.00  0.00     0.074 A 
ATOM     44  C   UNL     1       5.362  13.924  -5.795  1.00  0.00     0.031 C 
ATOM     45  C   UNL     1       4.067  10.256  -0.100  1.00  0.00     0.029 A 
ATOM     46  C   UNL     1       5.373  10.907  -0.159  1.00  0.00     0.049 A 
ATOM     47  H   UNL     1       6.102  12.146  -1.665  1.00  0.00     0.167 HD
ATOM     48  C   UNL     1       7.622  14.535  -4.986  1.00  0.00     0.037 A 
ATOM     49  C   UNL     1       6.339  10.809   0.776  1.00  0.00     0.037 A 
ATOM     50  C   UNL     1       8.668  14.568  -3.999  1.00  0.00     0.049 A 
ATOM     51  C   UNL     1       7.636  11.548   0.582  1.00  0.00     0.074 A 
ATOM     52  C   UNL     1       9.870  15.254  -4.040  1.00  0.00     0.029 A 
ATOM     53  N   UNL     1       8.634  13.893  -2.790  1.00  0.00    -0.354 N 
ATOM     54  N   UNL     1       8.014  12.311  -0.414  1.00  0.00    -0.248 NA
ATOM     55  C   UNL     1       8.640  11.416   1.649  1.00  0.00     0.031 C 
ATOM     56  C   UNL     1      10.579  14.966  -2.870  1.00  0.00     0.029 A 
ATOM     57  C   UNL     1       9.802  14.132  -2.084  1.00  0.00     0.049 A 
ATOM     58  H   UNL     1       7.891  13.327  -2.479  1.00  0.00     0.167 HD
ATOM     59  C   UNL     1       9.280  12.774  -0.080  1.00  0.00     0.074 A 
ATOM     60  C   UNL     1       9.604  12.216   1.215  1.00  0.00     0.031 C 
ATOM     61  C   UNL     1      10.101  13.588  -0.786  1.00  0.00     0.037 A 
BRANCH  48  62
ATOM     62  C   UNL     1       7.860  15.262  -6.277  1.00  0.00     0.064 A 
ATOM     63  C   UNL     1       7.223  16.477  -6.565  1.00  0.00     0.173 A 
ATOM     64  C   UNL     1       8.793  14.771  -7.204  1.00  0.00     0.173 A 
ATOM     65  F   UNL     1       6.317  16.982  -5.714  1.00  0.00    -0.203 F 
ATOM     66  C   UNL     1       7.500  17.168  -7.742  1.00  0.00     0.198 A 
ATOM     67  C   UNL     1       9.085  15.478  -8.367  1.00  0.00     0.198 A 
ATOM     68  F   UNL     1       9.435  13.617  -6.971  1.00  0.00    -0.203 F 
ATOM     69  F   UNL     1       6.857  18.313  -8.011  1.00  0.00    -0.200 F 
ATOM     70  C   UNL     1       8.436  16.673  -8.637  1.00  0.00     0.200 A 
ATOM     71  F   UNL     1      10.000  15.004  -9.225  1.00  0.00    -0.200 F 
ATOM     72  F   UNL     1       8.712  17.348  -9.762  1.00  0.00    -0.200 F 
ENDBRANCH  48  62
BRANCH  49  73
ATOM     73  C   UNL     1       6.116   9.992   1.997  1.00  0.00     0.064 A 
ATOM     74  C   UNL     1       5.974  10.600   3.253  1.00  0.00     0.173 A 
ATOM     75  C   UNL     1       6.074   8.592   1.941  1.00  0.00     0.173 A 
ATOM     76  F   UNL     1       6.033  11.935   3.360  1.00  0.00    -0.203 F 
ATOM     77  C   UNL     1       5.827   9.837   4.409  1.00  0.00     0.198 A 
ATOM     78  C   UNL     1       5.898   7.831   3.094  1.00  0.00     0.198 A 
ATOM     79  F   UNL     1       6.202   7.963   0.763  1.00  0.00    -0.203 F 
ATOM     80  F   UNL     1       5.749  10.442   5.602  1.00  0.00    -0.200 F 
ATOM     81  C   UNL     1       5.785   8.453   4.329  1.00  0.00     0.200 A 
ATOM     82  F   UNL     1       5.848   6.494   3.012  1.00  0.00    -0.200 F 
ATOM     83  F   UNL     1       5.648   7.720   5.441  1.00  0.00    -0.200 F 
ENDBRANCH  49  73
BRANCH  61  84
ATOM     84  C   UNL     1      11.410  13.962  -0.157  1.00  0.00     0.064 A 
ATOM     85  C   UNL     1      12.469  13.047  -0.065  1.00  0.00     0.173 A 
ATOM     86  C   UNL     1      11.620  15.264   0.323  1.00  0.00     0.173 A 
ATOM     87  F   UNL     1      12.311  11.787  -0.496  1.00  0.00    -0.203 F 
ATOM     88  C   UNL     1      13.684  13.417   0.504  1.00  0.00     0.198 A 
ATOM     89  C   UNL     1      12.845  15.637   0.868  1.00  0.00     0.198 A 
ATOM     90  F   UNL     1      10.639  16.177   0.252  1.00  0.00    -0.203 F 
ATOM     91  F   UNL     1      14.669  12.515   0.620  1.00  0.00    -0.200 F 
ATOM     92  C   UNL     1      13.873  14.712   0.964  1.00  0.00     0.200 A 
ATOM     93  F   UNL     1      13.030  16.891   1.302  1.00  0.00    -0.200 F 
ATOM     94  F   UNL     1      15.046  15.067   1.506  1.00  0.00    -0.200 F 
ENDBRANCH  61  84
ENDBRANCH  35  36
ENDBRANCH  27  30
ENDBRANCH  25  26
ENDBRANCH  24  25
ENDBRANCH   1  24
TORSDOF 13
