REMARK SMILES CCC[C@@H](C)C[C@H](C(=O)NCCCNC(=O)c1ccc(-c2c3nc(c(-c4c(F)c(F)c(F)c(F)c4F)c4ccc([nH]4)c(-c4c(F)c(F)c(F)c(F)c4F)c4nc(c(-c5c(F)c(F)c(F)c(F)c5F)c5ccc2[nH]5)C=C4)C=C3)cc1)c1ccccc1C
REMARK SMILES IDX 11 1 10 2 8 3 9 4 7 6 6 7 4 8 5 9 3 10 2 11 1 12 80 13 81 14
REMARK SMILES IDX 85 15 82 16 84 17 86 18 83 19 12 20 13 21 14 22 15 23 16 25
REMARK SMILES IDX 17 26 18 27 79 28 19 29 78 30 20 31 21 32 22 33 72 34 23 35
REMARK SMILES IDX 77 36 71 37 73 38 24 39 76 40 70 41 69 42 25 44 57 45 37 46
REMARK SMILES IDX 56 47 38 48 41 49 55 50 74 51 39 52 40 53 54 55 75 56 42 57
REMARK SMILES IDX 26 58 27 59 35 60 28 61 29 62 33 63 36 64 30 65 31 66 34 67
REMARK SMILES IDX 32 68 58 69 59 70 67 71 60 72 61 73 65 74 68 75 62 76 63 77
REMARK SMILES IDX 66 78 64 79 43 80 44 81 52 82 45 83 46 84 50 85 53 86 47 87
REMARK SMILES IDX 48 88 51 89 49 90
REMARK H PARENT 10 5 14 24 73 43 41 54
REMARK Flexibility Score: inf
ROOT
ATOM      1  C   UNL     1       0.962  -3.990   1.034  1.00  0.00     0.117 C 
ENDROOT
BRANCH   1   2
ATOM      2  N   UNL     1       0.403  -3.320   2.197  1.00  0.00    -0.356 N 
ATOM      3  C   UNL     1       0.999  -2.790   3.306  1.00  0.00     0.227 C 
ATOM      4  O   UNL     1       0.262  -2.286   4.158  1.00  0.00    -0.274 OA
ATOM      5  H   UNL     1      -0.578  -3.234   2.183  1.00  0.00     0.163 HD
BRANCH   3   6
ATOM      6  C   UNL     1       2.529  -2.783   3.446  1.00  0.00     0.109 C 
BRANCH   6   7
ATOM      7  C   UNL     1       2.964  -1.304   3.338  1.00  0.00     0.021 C 
BRANCH   7   8
ATOM      8  C   UNL     1       4.467  -1.093   3.041  1.00  0.00    -0.013 C 
ATOM      9  C   UNL     1       4.844   0.359   3.364  1.00  0.00     0.007 C 
BRANCH   8  10
ATOM     10  C   UNL     1       4.798  -1.428   1.569  1.00  0.00     0.003 C 
BRANCH  10  11
ATOM     11  C   UNL     1       6.284  -1.371   1.200  1.00  0.00    -0.003 C 
ATOM     12  C   UNL     1       7.137  -2.351   1.990  1.00  0.00     0.004 C 
ENDBRANCH  10  11
ENDBRANCH   8  10
ENDBRANCH   7   8
ENDBRANCH   6   7
BRANCH   6  13
ATOM     13  C   UNL     1       2.959  -3.686   4.609  1.00  0.00    -0.033 A 
ATOM     14  C   UNL     1       2.892  -5.075   4.326  1.00  0.00     0.005 A 
ATOM     15  C   UNL     1       3.341  -3.311   5.914  1.00  0.00    -0.047 A 
ATOM     16  C   UNL     1       3.139  -6.055   5.285  1.00  0.00     0.000 A 
ATOM     17  C   UNL     1       3.587  -4.320   6.875  1.00  0.00     0.004 A 
ATOM     18  C   UNL     1       3.465  -1.898   6.407  1.00  0.00     0.044 C 
ATOM     19  C   UNL     1       3.482  -5.675   6.569  1.00  0.00     0.000 A 
ENDBRANCH   6  13
ENDBRANCH   3   6
ENDBRANCH   1   2
BRANCH   1  20
ATOM     20  C   UNL     1       0.645  -5.482   1.023  1.00  0.00     0.042 C 
BRANCH  20  21
ATOM     21  C   UNL     1      -0.840  -5.805   0.906  1.00  0.00     0.118 C 
BRANCH  21  22
ATOM     22  N   UNL     1      -1.410  -5.376  -0.362  1.00  0.00    -0.352 N 
ATOM     23  C   UNL     1      -2.022  -6.102  -1.354  1.00  0.00     0.251 C 
ATOM     24  H   UNL     1      -1.347  -4.409  -0.538  1.00  0.00     0.163 HD
ATOM     25  O   UNL     1      -2.267  -5.568  -2.431  1.00  0.00    -0.269 OA
BRANCH  23  26
ATOM     26  C   UNL     1      -2.367  -7.527  -1.147  1.00  0.00     0.039 A 
ATOM     27  C   UNL     1      -2.172  -8.422  -2.203  1.00  0.00     0.014 A 
ATOM     28  C   UNL     1      -2.906  -7.981   0.059  1.00  0.00     0.014 A 
ATOM     29  C   UNL     1      -2.453  -9.778  -2.026  1.00  0.00     0.010 A 
ATOM     30  C   UNL     1      -3.105  -9.344   0.262  1.00  0.00     0.010 A 
ATOM     31  C   UNL     1      -2.885 -10.258  -0.779  1.00  0.00    -0.014 A 
BRANCH  31  32
ATOM     32  C   UNL     1      -3.097 -11.710  -0.547  1.00  0.00     0.031 A 
ATOM     33  C   UNL     1      -4.460 -12.236  -0.192  1.00  0.00     0.074 A 
ATOM     34  C   UNL     1      -2.043 -12.549  -0.587  1.00  0.00     0.049 A 
ATOM     35  N   UNL     1      -4.826 -13.458   0.104  1.00  0.00    -0.248 NA
ATOM     36  C   UNL     1      -5.553 -11.253  -0.133  1.00  0.00     0.031 C 
ATOM     37  C   UNL     1      -0.661 -12.154  -0.861  1.00  0.00     0.029 A 
ATOM     38  N   UNL     1      -1.966 -13.904  -0.383  1.00  0.00    -0.354 N 
ATOM     39  C   UNL     1      -6.180 -13.386   0.401  1.00  0.00     0.074 A 
ATOM     40  C   UNL     1      -6.561 -11.994   0.302  1.00  0.00     0.031 C 
ATOM     41  C   UNL     1       0.123 -13.242  -0.825  1.00  0.00     0.029 A 
ATOM     42  C   UNL     1      -0.692 -14.405  -0.485  1.00  0.00     0.049 A 
ATOM     43  H   UNL     1      -2.751 -14.464  -0.182  1.00  0.00     0.167 HD
ATOM     44  C   UNL     1      -7.033 -14.394   0.709  1.00  0.00     0.037 A 
ATOM     45  C   UNL     1      -0.227 -15.657  -0.313  1.00  0.00     0.037 A 
ATOM     46  C   UNL     1      -6.653 -15.781   0.784  1.00  0.00     0.049 A 
ATOM     47  C   UNL     1      -1.194 -16.760   0.022  1.00  0.00     0.074 A 
ATOM     48  C   UNL     1      -7.458 -16.884   1.007  1.00  0.00     0.029 A 
ATOM     49  N   UNL     1      -5.356 -16.254   0.649  1.00  0.00    -0.354 N 
ATOM     50  N   UNL     1      -2.490 -16.694   0.213  1.00  0.00    -0.248 NA
ATOM     51  C   UNL     1      -0.636 -18.112   0.156  1.00  0.00     0.031 C 
ATOM     52  C   UNL     1      -6.640 -18.017   1.068  1.00  0.00     0.029 A 
ATOM     53  C   UNL     1      -5.333 -17.630   0.819  1.00  0.00     0.049 A 
ATOM     54  H   UNL     1      -4.567 -15.695   0.460  1.00  0.00     0.167 HD
ATOM     55  C   UNL     1      -2.905 -17.994   0.466  1.00  0.00     0.074 A 
ATOM     56  C   UNL     1      -1.726 -18.831   0.385  1.00  0.00     0.031 C 
ATOM     57  C   UNL     1      -4.152 -18.452   0.740  1.00  0.00     0.037 A 
BRANCH  44  58
ATOM     58  C   UNL     1      -8.463 -14.031   0.999  1.00  0.00     0.064 A 
ATOM     59  C   UNL     1      -9.322 -13.548  -0.001  1.00  0.00     0.173 A 
ATOM     60  C   UNL     1      -8.991 -14.200   2.288  1.00  0.00     0.173 A 
ATOM     61  F   UNL     1      -8.868 -13.359  -1.249  1.00  0.00    -0.203 F 
ATOM     62  C   UNL     1     -10.642 -13.212   0.289  1.00  0.00     0.198 A 
ATOM     63  C   UNL     1     -10.321 -13.896   2.566  1.00  0.00     0.198 A 
ATOM     64  F   UNL     1      -8.217 -14.667   3.280  1.00  0.00    -0.203 F 
ATOM     65  F   UNL     1     -11.426 -12.697  -0.669  1.00  0.00    -0.200 F 
ATOM     66  C   UNL     1     -11.143 -13.393   1.569  1.00  0.00     0.200 A 
ATOM     67  F   UNL     1     -10.807 -14.088   3.800  1.00  0.00    -0.200 F 
ATOM     68  F   UNL     1     -12.415 -13.075   1.844  1.00  0.00    -0.200 F 
ENDBRANCH  44  58
BRANCH  45  69
ATOM     69  C   UNL     1       1.226 -15.932  -0.467  1.00  0.00     0.064 A 
ATOM     70  C   UNL     1       1.710 -16.679  -1.550  1.00  0.00     0.173 A 
ATOM     71  C   UNL     1       2.160 -15.441   0.457  1.00  0.00     0.173 A 
ATOM     72  F   UNL     1       0.854 -17.185  -2.450  1.00  0.00    -0.203 F 
ATOM     73  C   UNL     1       3.071 -16.940  -1.693  1.00  0.00     0.198 A 
ATOM     74  C   UNL     1       3.524 -15.676   0.295  1.00  0.00     0.198 A 
ATOM     75  F   UNL     1       1.750 -14.714   1.506  1.00  0.00    -0.203 F 
ATOM     76  F   UNL     1       3.502 -17.693  -2.714  1.00  0.00    -0.200 F 
ATOM     77  C   UNL     1       3.978 -16.432  -0.775  1.00  0.00     0.200 A 
ATOM     78  F   UNL     1       4.398 -15.168   1.175  1.00  0.00    -0.200 F 
ATOM     79  F   UNL     1       5.287 -16.674  -0.919  1.00  0.00    -0.200 F 
ENDBRANCH  45  69
BRANCH  57  80
ATOM     80  C   UNL     1      -4.312 -19.931   0.948  1.00  0.00     0.064 A 
ATOM     81  C   UNL     1      -3.812 -20.575   2.090  1.00  0.00     0.173 A 
ATOM     82  C   UNL     1      -5.009 -20.709   0.010  1.00  0.00     0.173 A 
ATOM     83  F   UNL     1      -3.125 -19.882   3.010  1.00  0.00    -0.203 F 
ATOM     84  C   UNL     1      -3.979 -21.946   2.270  1.00  0.00     0.198 A 
ATOM     85  C   UNL     1      -5.204 -22.072   0.210  1.00  0.00     0.198 A 
ATOM     86  F   UNL     1      -5.514 -20.142  -1.097  1.00  0.00    -0.203 F 
ATOM     87  F   UNL     1      -3.447 -22.549   3.342  1.00  0.00    -0.200 F 
ATOM     88  C   UNL     1      -4.682 -22.691   1.335  1.00  0.00     0.200 A 
ATOM     89  F   UNL     1      -5.897 -22.787  -0.687  1.00  0.00    -0.200 F 
ATOM     90  F   UNL     1      -4.849 -24.009   1.514  1.00  0.00    -0.200 F 
ENDBRANCH  57  80
ENDBRANCH  31  32
ENDBRANCH  23  26
ENDBRANCH  21  22
ENDBRANCH  20  21
ENDBRANCH   1  20
TORSDOF 15
