REMARK SMILES Cn1cc(/C=C/C(=O)Nc2ccc(C(=O)NCCCNC(=O)c3ccc(-c4c5nc(c(-c6c(F)c(F)c(F)c(F)c6F)c6ccc([nH]6)c(-c6c(F)c(F)c(F)c(F)c6F)c6nc(c(-c7c(F)c(F)c(F)c(F)c7F)c7ccc4[nH]7)C=C6)C=C5)cc3)c(O)c2)cn1
REMARK SMILES IDX 17 1 16 2 14 3 15 4 13 6 10 7 11 8 88 9 12 10 86 11 9 12
REMARK SMILES IDX 7 13 8 14 6 16 5 17 4 18 1 19 2 20 3 21 90 22 89 23 87 24
REMARK SMILES IDX 18 26 19 27 20 28 21 29 22 31 23 32 24 33 85 34 25 35 84 36
REMARK SMILES IDX 26 37 27 38 28 39 78 40 29 41 83 42 77 43 79 44 30 45 82 46
REMARK SMILES IDX 76 47 75 48 31 50 63 51 43 52 62 53 44 54 47 55 61 56 80 57
REMARK SMILES IDX 45 58 46 59 60 61 81 62 48 63 32 64 33 65 41 66 34 67 35 68
REMARK SMILES IDX 39 69 42 70 36 71 37 72 40 73 38 74 64 75 65 76 73 77 66 78
REMARK SMILES IDX 67 79 71 80 74 81 68 82 69 83 72 84 70 85 49 86 50 87 58 88
REMARK SMILES IDX 51 89 52 90 56 91 59 92 53 93 54 94 57 95 55 96
REMARK H PARENT 16 5 9 15 87 25 20 30 79 49 47 60
REMARK Flexibility Score: inf
ROOT
ATOM      1  C   UNL     1       0.888  -7.146   2.132  1.00  0.00     0.118 C 
ENDROOT
BRANCH   1   2
ATOM      2  N   UNL     1       0.097  -6.832   0.952  1.00  0.00    -0.352 N 
ATOM      3  C   UNL     1       0.422  -6.174  -0.211  1.00  0.00     0.255 C 
ATOM      4  O   UNL     1      -0.456  -6.060  -1.065  1.00  0.00    -0.269 OA
ATOM      5  H   UNL     1      -0.835  -7.146   0.994  1.00  0.00     0.163 HD
BRANCH   3   6
ATOM      6  C   UNL     1       1.739  -5.518  -0.432  1.00  0.00     0.081 A 
ATOM      7  C   UNL     1       3.979  -3.821  -0.504  1.00  0.00     0.045 A 
ATOM      8  C   UNL     1       2.838  -3.505  -1.237  1.00  0.00     0.027 A 
ATOM      9  C   UNL     1       4.078  -5.096   0.056  1.00  0.00     0.073 A 
ATOM     10  C   UNL     1       1.710  -4.324  -1.165  1.00  0.00     0.020 A 
ATOM     11  C   UNL     1       2.975  -5.954   0.047  1.00  0.00     0.130 A 
BRANCH   7  12
ATOM     12  N   UNL     1       5.031  -2.919  -0.275  1.00  0.00    -0.322 N 
ATOM     13  C   UNL     1       5.072  -1.550  -0.273  1.00  0.00     0.248 C 
ATOM     14  O   UNL     1       6.157  -0.973  -0.206  1.00  0.00    -0.270 OA
ATOM     15  H   UNL     1       5.896  -3.348  -0.081  1.00  0.00     0.170 HD
BRANCH  13  16
ATOM     16  C   UNL     1       3.837  -0.728  -0.325  1.00  0.00     0.072 C 
ATOM     17  C   UNL     1       2.738  -0.988   0.403  1.00  0.00     0.017 C 
BRANCH  17  18
ATOM     18  C   UNL     1       1.503  -0.298   0.268  1.00  0.00     0.013 A 
ATOM     19  C   UNL     1      -2.071  -0.028  -0.051  1.00  0.00     0.173 C 
ATOM     20  N   UNL     1      -0.639   0.103   0.064  1.00  0.00    -0.275 N 
ATOM     21  C   UNL     1       0.263  -0.896   0.297  1.00  0.00     0.116 A 
ATOM     22  N   UNL     1      -0.069   1.313  -0.084  1.00  0.00    -0.181 NA
ATOM     23  C   UNL     1       1.239   1.065   0.035  1.00  0.00     0.143 A 
ENDBRANCH  17  18
ENDBRANCH  13  16
ENDBRANCH   7  12
BRANCH  11  24
ATOM     24  O   UNL     1       3.210  -7.218   0.510  1.00  0.00    -0.507 OA
ATOM     25  H   UNL     1       2.515  -7.846   0.532  1.00  0.00     0.293 HD
ENDBRANCH  11  24
ENDBRANCH   3   6
ENDBRANCH   1   2
BRANCH   1  26
ATOM     26  C   UNL     1       0.117  -7.151   3.441  1.00  0.00     0.042 C 
BRANCH  26  27
ATOM     27  C   UNL     1      -1.082  -8.085   3.501  1.00  0.00     0.118 C 
BRANCH  27  28
ATOM     28  N   UNL     1      -0.753  -9.495   3.336  1.00  0.00    -0.352 N 
ATOM     29  C   UNL     1      -0.773 -10.548   4.219  1.00  0.00     0.251 C 
ATOM     30  H   UNL     1      -0.464  -9.737   2.426  1.00  0.00     0.163 HD
ATOM     31  O   UNL     1      -0.338 -11.641   3.857  1.00  0.00    -0.269 OA
BRANCH  29  32
ATOM     32  C   UNL     1      -1.266 -10.387   5.606  1.00  0.00     0.039 A 
ATOM     33  C   UNL     1      -0.618 -11.072   6.640  1.00  0.00     0.014 A 
ATOM     34  C   UNL     1      -2.365  -9.583   5.905  1.00  0.00     0.014 A 
ATOM     35  C   UNL     1      -1.016 -10.877   7.966  1.00  0.00     0.010 A 
ATOM     36  C   UNL     1      -2.673  -9.285   7.229  1.00  0.00     0.010 A 
ATOM     37  C   UNL     1      -2.013  -9.939   8.278  1.00  0.00    -0.014 A 
BRANCH  37  38
ATOM     38  C   UNL     1      -2.396  -9.646   9.686  1.00  0.00     0.031 A 
ATOM     39  C   UNL     1      -3.816  -9.855  10.147  1.00  0.00     0.074 A 
ATOM     40  C   UNL     1      -1.483  -9.133  10.535  1.00  0.00     0.049 A 
ATOM     41  N   UNL     1      -4.355  -9.604  11.314  1.00  0.00    -0.248 NA
ATOM     42  C   UNL     1      -4.767 -10.381   9.154  1.00  0.00     0.031 C 
ATOM     43  C   UNL     1      -0.093  -8.821  10.198  1.00  0.00     0.029 A 
ATOM     44  N   UNL     1      -1.588  -8.777  11.857  1.00  0.00    -0.354 N 
ATOM     45  C   UNL     1      -5.701  -9.923  11.185  1.00  0.00     0.074 A 
ATOM     46  C   UNL     1      -5.914 -10.315   9.811  1.00  0.00     0.031 C 
ATOM     47  C   UNL     1       0.534  -8.359  11.291  1.00  0.00     0.029 A 
ATOM     48  C   UNL     1      -0.417  -8.298  12.395  1.00  0.00     0.049 A 
ATOM     49  H   UNL     1      -2.424  -8.856  12.372  1.00  0.00     0.167 HD
ATOM     50  C   UNL     1      -6.667  -9.924  12.135  1.00  0.00     0.037 A 
ATOM     51  C   UNL     1      -0.143  -7.858  13.638  1.00  0.00     0.037 A 
ATOM     52  C   UNL     1      -6.445  -9.565  13.510  1.00  0.00     0.049 A 
ATOM     53  C   UNL     1      -1.233  -7.872  14.676  1.00  0.00     0.074 A 
ATOM     54  C   UNL     1      -7.340  -9.596  14.565  1.00  0.00     0.029 A 
ATOM     55  N   UNL     1      -5.240  -9.106  14.021  1.00  0.00    -0.354 N 
ATOM     56  N   UNL     1      -2.482  -8.254  14.562  1.00  0.00    -0.248 NA
ATOM     57  C   UNL     1      -0.871  -7.403  16.021  1.00  0.00     0.031 C 
ATOM     58  C   UNL     1      -6.692  -9.101  15.702  1.00  0.00     0.029 A 
ATOM     59  C   UNL     1      -5.375  -8.825  15.371  1.00  0.00     0.049 A 
ATOM     60  H   UNL     1      -4.411  -8.997  13.501  1.00  0.00     0.167 HD
ATOM     61  C   UNL     1      -3.046  -8.101  15.822  1.00  0.00     0.074 A 
ATOM     62  C   UNL     1      -1.996  -7.611  16.690  1.00  0.00     0.031 C 
ATOM     63  C   UNL     1      -4.318  -8.344  16.224  1.00  0.00     0.037 A 
BRANCH  50  64
ATOM     64  C   UNL     1      -8.053 -10.334  11.719  1.00  0.00     0.064 A 
ATOM     65  C   UNL     1      -8.349 -11.652  11.333  1.00  0.00     0.173 A 
ATOM     66  C   UNL     1      -9.106  -9.407  11.737  1.00  0.00     0.173 A 
ATOM     67  F   UNL     1      -7.378 -12.576  11.286  1.00  0.00    -0.203 F 
ATOM     68  C   UNL     1      -9.637 -12.015  10.948  1.00  0.00     0.198 A 
ATOM     69  C   UNL     1     -10.400  -9.784  11.386  1.00  0.00     0.198 A 
ATOM     70  F   UNL     1      -8.883  -8.136  12.101  1.00  0.00    -0.203 F 
ATOM     71  F   UNL     1      -9.881 -13.264  10.527  1.00  0.00    -0.200 F 
ATOM     72  C   UNL     1     -10.663 -11.084  10.983  1.00  0.00     0.200 A 
ATOM     73  F   UNL     1     -11.394  -8.885  11.435  1.00  0.00    -0.200 F 
ATOM     74  F   UNL     1     -11.904 -11.437  10.620  1.00  0.00    -0.200 F 
ENDBRANCH  50  64
BRANCH  51  75
ATOM     75  C   UNL     1       1.229  -7.395  13.980  1.00  0.00     0.064 A 
ATOM     76  C   UNL     1       2.033  -8.118  14.873  1.00  0.00     0.173 A 
ATOM     77  C   UNL     1       1.762  -6.218  13.433  1.00  0.00     0.173 A 
ATOM     78  F   UNL     1       1.564  -9.239  15.439  1.00  0.00    -0.203 F 
ATOM     79  C   UNL     1       3.304  -7.668  15.227  1.00  0.00     0.198 A 
ATOM     80  C   UNL     1       3.046  -5.787  13.761  1.00  0.00     0.198 A 
ATOM     81  F   UNL     1       1.038  -5.492  12.568  1.00  0.00    -0.203 F 
ATOM     82  F   UNL     1       4.028  -8.351  16.124  1.00  0.00    -0.200 F 
ATOM     83  C   UNL     1       3.812  -6.506  14.665  1.00  0.00     0.200 A 
ATOM     84  F   UNL     1       3.539  -4.673  13.203  1.00  0.00    -0.200 F 
ATOM     85  F   UNL     1       5.035  -6.076  15.002  1.00  0.00    -0.200 F 
ENDBRANCH  51  75
BRANCH  63  86
ATOM     86  C   UNL     1      -4.635  -8.123  17.675  1.00  0.00     0.064 A 
ATOM     87  C   UNL     1      -4.677  -6.838  18.237  1.00  0.00     0.173 A 
ATOM     88  C   UNL     1      -4.932  -9.213  18.509  1.00  0.00     0.173 A 
ATOM     89  F   UNL     1      -4.388  -5.764  17.487  1.00  0.00    -0.203 F 
ATOM     90  C   UNL     1      -4.969  -6.656  19.586  1.00  0.00     0.198 A 
ATOM     91  C   UNL     1      -5.260  -9.024  19.848  1.00  0.00     0.198 A 
ATOM     92  F   UNL     1      -4.916 -10.462  18.021  1.00  0.00    -0.203 F 
ATOM     93  F   UNL     1      -4.944  -5.424  20.114  1.00  0.00    -0.200 F 
ATOM     94  C   UNL     1      -5.268  -7.747  20.388  1.00  0.00     0.200 A 
ATOM     95  F   UNL     1      -5.566 -10.078  20.616  1.00  0.00    -0.200 F 
ATOM     96  F   UNL     1      -5.555  -7.569  21.685  1.00  0.00    -0.200 F 
ENDBRANCH  63  86
ENDBRANCH  37  38
ENDBRANCH  29  32
ENDBRANCH  27  28
ENDBRANCH  26  27
ENDBRANCH   1  26
TORSDOF 14
