REMARK SMILES CC[C@@H](C(=O)NCCCNC(=O)c1ccc(-c2c3nc(c(-c4c(F)c(F)c(F)c(F)c4F)c4ccc([nH]4)c(-c4c(F)c(F)c(F)c(F)c4F)c4nc(c(-c5c(F)c(F)c(F)c(F)c5F)c5ccc2[nH]5)C=C4)C=C3)cc1)N1C(=O)/C(=C\c2ccc(C(=O)OC)cc2)SC1=S
REMARK SMILES IDX 7 1 6 2 4 3 5 4 3 6 2 7 1 8 76 9 77 10 92 11 78 12 79 13
REMARK SMILES IDX 91 14 93 15 80 16 81 17 82 18 90 19 83 20 89 21 84 22 85 23
REMARK SMILES IDX 86 24 87 25 88 26 8 27 9 28 10 29 11 30 12 32 13 33 14 34
REMARK SMILES IDX 75 35 15 36 74 37 16 38 17 39 18 40 68 41 19 42 73 43 67 44
REMARK SMILES IDX 69 45 20 46 72 47 66 48 65 49 21 51 53 52 33 53 52 54 34 55
REMARK SMILES IDX 37 56 51 57 70 58 35 59 36 60 50 62 71 63 38 64 22 65 23 66
REMARK SMILES IDX 31 67 24 68 25 69 29 70 32 71 26 72 27 73 30 74 28 75 54 76
REMARK SMILES IDX 55 77 63 78 56 79 57 80 61 81 64 82 58 83 59 84 62 85 60 86
REMARK SMILES IDX 39 87 40 88 48 89 41 90 42 91 46 92 49 93 43 94 44 95 47 96
REMARK SMILES IDX 45 97
REMARK H PARENT 6 5 10 31 69 50 37 61
REMARK Flexibility Score: inf
ROOT
ATOM      1  C   UNL     1       1.833   2.263  -0.209  1.00  0.00     0.117 C 
ENDROOT
BRANCH   1   2
ATOM      2  N   UNL     1       0.636   2.546   0.574  1.00  0.00    -0.354 N 
ATOM      3  C   UNL     1       0.014   1.827   1.555  1.00  0.00     0.243 C 
ATOM      4  O   UNL     1      -1.142   2.145   1.847  1.00  0.00    -0.273 OA
ATOM      5  H   UNL     1       0.202   3.402   0.358  1.00  0.00     0.163 HD
BRANCH   3   6
ATOM      6  C   UNL     1       0.733   0.659   2.258  1.00  0.00     0.181 C 
BRANCH   6   7
ATOM      7  C   UNL     1       0.157  -0.651   1.629  1.00  0.00     0.032 C 
ATOM      8  C   UNL     1       0.407  -0.873   0.153  1.00  0.00     0.006 C 
ENDBRANCH   6   7
BRANCH   6   9
ATOM      9  N   UNL     1       0.445   0.658   3.729  1.00  0.00    -0.280 N 
ATOM     10  C   UNL     1       0.752  -0.490   4.430  1.00  0.00     0.266 C 
ATOM     11  C   UNL     1       0.343   1.732   4.583  1.00  0.00     0.149 C 
ATOM     12  O   UNL     1       1.568  -1.323   4.062  1.00  0.00    -0.268 OA
ATOM     13  C   UNL     1       0.121  -0.475   5.775  1.00  0.00     0.081 C 
ATOM     14  S   UNL     1      -0.244   1.161   6.161  1.00  0.00    -0.054 SA
ATOM     15  S   UNL     1       0.750   3.331   4.337  1.00  0.00    -0.052 S 
ATOM     16  C   UNL     1      -0.155  -1.534   6.553  1.00  0.00     0.029 C 
BRANCH  16  17
ATOM     17  C   UNL     1       0.141  -2.929   6.195  1.00  0.00    -0.024 A 
ATOM     18  C   UNL     1      -0.895  -3.853   6.013  1.00  0.00     0.009 A 
ATOM     19  C   UNL     1       1.462  -3.347   5.992  1.00  0.00     0.009 A 
ATOM     20  C   UNL     1      -0.614  -5.148   5.556  1.00  0.00     0.016 A 
ATOM     21  C   UNL     1       1.743  -4.626   5.505  1.00  0.00     0.016 A 
ATOM     22  C   UNL     1       0.703  -5.529   5.266  1.00  0.00     0.060 A 
BRANCH  22  23
ATOM     23  C   UNL     1       0.953  -6.879   4.689  1.00  0.00     0.337 C 
ATOM     24  O   UNL     1       0.096  -7.745   4.596  1.00  0.00    -0.246 OA
BRANCH  23  25
ATOM     25  O   UNL     1       2.236  -6.979   4.260  1.00  0.00    -0.465 OA
ATOM     26  C   UNL     1       2.560  -8.228   3.649  1.00  0.00     0.282 C 
ENDBRANCH  23  25
ENDBRANCH  22  23
ENDBRANCH  16  17
ENDBRANCH   6   9
ENDBRANCH   3   6
ENDBRANCH   1   2
BRANCH   1  27
ATOM     27  C   UNL     1       1.469   1.854  -1.638  1.00  0.00     0.042 C 
BRANCH  27  28
ATOM     28  C   UNL     1       0.845   2.970  -2.464  1.00  0.00     0.118 C 
BRANCH  28  29
ATOM     29  N   UNL     1       1.848   3.760  -3.155  1.00  0.00    -0.352 N 
ATOM     30  C   UNL     1       2.101   3.860  -4.502  1.00  0.00     0.251 C 
ATOM     31  H   UNL     1       2.430   4.303  -2.575  1.00  0.00     0.163 HD
ATOM     32  O   UNL     1       3.139   4.392  -4.886  1.00  0.00    -0.269 OA
BRANCH  30  33
ATOM     33  C   UNL     1       1.145   3.314  -5.495  1.00  0.00     0.039 A 
ATOM     34  C   UNL     1       1.645   2.657  -6.624  1.00  0.00     0.014 A 
ATOM     35  C   UNL     1      -0.235   3.479  -5.346  1.00  0.00     0.014 A 
ATOM     36  C   UNL     1       0.764   2.124  -7.571  1.00  0.00     0.010 A 
ATOM     37  C   UNL     1      -1.112   2.872  -6.243  1.00  0.00     0.010 A 
ATOM     38  C   UNL     1      -0.624   2.201  -7.375  1.00  0.00    -0.014 A 
BRANCH  38  39
ATOM     39  C   UNL     1      -1.583   1.625  -8.355  1.00  0.00     0.031 A 
ATOM     40  C   UNL     1      -2.548   2.526  -9.079  1.00  0.00     0.074 A 
ATOM     41  C   UNL     1      -1.633   0.293  -8.551  1.00  0.00     0.049 A 
ATOM     42  N   UNL     1      -3.529   2.215  -9.890  1.00  0.00    -0.248 NA
ATOM     43  C   UNL     1      -2.408   3.971  -8.839  1.00  0.00     0.031 C 
ATOM     44  C   UNL     1      -0.774  -0.692  -7.893  1.00  0.00     0.029 A 
ATOM     45  N   UNL     1      -2.452  -0.465  -9.353  1.00  0.00    -0.354 N 
ATOM     46  C   UNL     1      -4.128   3.419 -10.239  1.00  0.00     0.074 A 
ATOM     47  C   UNL     1      -3.440   4.461  -9.509  1.00  0.00     0.031 C 
ATOM     48  C   UNL     1      -1.097  -1.920  -8.331  1.00  0.00     0.029 A 
ATOM     49  C   UNL     1      -2.216  -1.815  -9.263  1.00  0.00     0.049 A 
ATOM     50  H   UNL     1      -3.143  -0.076  -9.937  1.00  0.00     0.167 HD
ATOM     51  C   UNL     1      -5.143   3.639 -11.109  1.00  0.00     0.037 A 
ATOM     52  C   UNL     1      -2.842  -2.853  -9.853  1.00  0.00     0.037 A 
ATOM     53  C   UNL     1      -5.810   2.604 -11.853  1.00  0.00     0.049 A 
ATOM     54  C   UNL     1      -3.990  -2.583 -10.790  1.00  0.00     0.074 A 
ATOM     55  C   UNL     1      -6.819   2.729 -12.791  1.00  0.00     0.029 A 
ATOM     56  N   UNL     1      -5.535   1.249 -11.739  1.00  0.00    -0.354 N 
ATOM     57  N   UNL     1      -4.512  -1.437 -11.153  1.00  0.00    -0.248 NA
ATOM     58  C   UNL     1      -4.635  -3.754 -11.402  1.00  0.00     0.031 C 
ATOM     59  C   UNL     1      -7.190   1.447 -13.208  1.00  0.00     0.029 A 
ATOM     60  C   UNL     1      -6.371   0.526 -12.575  1.00  0.00     0.049 A 
ATOM     61  H   UNL     1      -4.848   0.859 -11.153  1.00  0.00     0.167 HD
ATOM     62  C   UNL     1      -5.516  -1.744 -12.061  1.00  0.00     0.074 A 
ATOM     63  C   UNL     1      -5.527  -3.185 -12.201  1.00  0.00     0.031 C 
ATOM     64  C   UNL     1      -6.355  -0.907 -12.720  1.00  0.00     0.037 A 
BRANCH  51  65
ATOM     65  C   UNL     1      -5.593   5.059 -11.307  1.00  0.00     0.064 A 
ATOM     66  C   UNL     1      -4.780   6.007 -11.950  1.00  0.00     0.173 A 
ATOM     67  C   UNL     1      -6.866   5.470 -10.883  1.00  0.00     0.173 A 
ATOM     68  F   UNL     1      -3.550   5.670 -12.366  1.00  0.00    -0.203 F 
ATOM     69  C   UNL     1      -5.212   7.319 -12.129  1.00  0.00     0.198 A 
ATOM     70  C   UNL     1      -7.308   6.774 -11.095  1.00  0.00     0.198 A 
ATOM     71  F   UNL     1      -7.688   4.604 -10.271  1.00  0.00    -0.203 F 
ATOM     72  F   UNL     1      -4.396   8.219 -12.696  1.00  0.00    -0.200 F 
ATOM     73  C   UNL     1      -6.477   7.699 -11.709  1.00  0.00     0.200 A 
ATOM     74  F   UNL     1      -8.537   7.135 -10.703  1.00  0.00    -0.200 F 
ATOM     75  F   UNL     1      -6.894   8.960 -11.890  1.00  0.00    -0.200 F 
ENDBRANCH  51  65
BRANCH  52  76
ATOM     76  C   UNL     1      -2.391  -4.246  -9.588  1.00  0.00     0.064 A 
ATOM     77  C   UNL     1      -1.796  -5.014 -10.599  1.00  0.00     0.173 A 
ATOM     78  C   UNL     1      -2.561  -4.844  -8.331  1.00  0.00     0.173 A 
ATOM     79  F   UNL     1      -1.631  -4.494 -11.825  1.00  0.00    -0.203 F 
ATOM     80  C   UNL     1      -1.412  -6.334 -10.371  1.00  0.00     0.198 A 
ATOM     81  C   UNL     1      -2.147  -6.154  -8.095  1.00  0.00     0.198 A 
ATOM     82  F   UNL     1      -3.120  -4.153  -7.328  1.00  0.00    -0.203 F 
ATOM     83  F   UNL     1      -0.895  -7.061 -11.371  1.00  0.00    -0.200 F 
ATOM     84  C   UNL     1      -1.583  -6.901  -9.118  1.00  0.00     0.200 A 
ATOM     85  F   UNL     1      -2.300  -6.693  -6.878  1.00  0.00    -0.200 F 
ATOM     86  F   UNL     1      -1.212  -8.170  -8.898  1.00  0.00    -0.200 F 
ENDBRANCH  52  76
BRANCH  64  87
ATOM     87  C   UNL     1      -7.319  -1.517 -13.697  1.00  0.00     0.064 A 
ATOM     88  C   UNL     1      -8.426  -2.267 -13.274  1.00  0.00     0.173 A 
ATOM     89  C   UNL     1      -7.162  -1.298 -15.075  1.00  0.00     0.173 A 
ATOM     90  F   UNL     1      -8.614  -2.517 -11.970  1.00  0.00    -0.203 F 
ATOM     91  C   UNL     1      -9.329  -2.791 -14.196  1.00  0.00     0.198 A 
ATOM     92  C   UNL     1      -8.083  -1.796 -15.991  1.00  0.00     0.198 A 
ATOM     93  F   UNL     1      -6.123  -0.582 -15.531  1.00  0.00    -0.203 F 
ATOM     94  F   UNL     1     -10.355  -3.542 -13.773  1.00  0.00    -0.200 F 
ATOM     95  C   UNL     1      -9.162  -2.547 -15.552  1.00  0.00     0.200 A 
ATOM     96  F   UNL     1      -7.929  -1.545 -17.298  1.00  0.00    -0.200 F 
ATOM     97  F   UNL     1     -10.040  -3.042 -16.436  1.00  0.00    -0.200 F 
ENDBRANCH  64  87
ENDBRANCH  38  39
ENDBRANCH  30  33
ENDBRANCH  28  29
ENDBRANCH  27  28
ENDBRANCH   1  27
TORSDOF 15
