REMARK SMILES O=C(NCCCNC(=O)c1ccnc(Oc2cccc(C(F)(F)F)c2)c1)c1ccc(-c2c3nc(c(-c4c(F)c(F)c(F)c(F)c4F)c4ccc([nH]4)c(-c4c(F)c(F)c(F)c(F)c4F)c4nc(c(-c5c(F)c(F)c(F)c(F)c5F)c5ccc2[nH]5)C=C4)C=C3)cc1
REMARK SMILES IDX 5 1 4 2 3 3 1 4 2 5 27 7 28 8 89 9 29 10 88 11 30 12 31 13
REMARK SMILES IDX 32 14 82 15 33 16 87 17 81 18 83 19 34 20 86 21 80 22 79 23
REMARK SMILES IDX 35 25 67 26 47 27 66 28 48 29 51 30 65 31 84 32 49 33 50 34
REMARK SMILES IDX 64 36 85 37 52 38 36 39 37 40 45 41 38 42 39 43 43 44 46 45
REMARK SMILES IDX 40 46 41 47 44 48 42 49 68 50 69 51 77 52 70 53 71 54 75 55
REMARK SMILES IDX 78 56 72 57 73 58 76 59 74 60 53 61 54 62 62 63 55 64 56 65
REMARK SMILES IDX 60 66 63 67 57 68 58 69 61 70 59 71 6 72 7 73 8 74 9 76
REMARK SMILES IDX 10 77 11 78 26 79 12 80 14 81 13 82 15 83 16 84 17 85 25 86
REMARK SMILES IDX 18 87 20 88 19 89 21 90 22 91 23 92 24 93
REMARK H PARENT 3 6 83 24 51 35 7 75
REMARK Flexibility Score: inf
ROOT
ATOM      1  C   UNL     1       4.824  -2.503  -0.778  1.00  0.00     0.042 C 
ENDROOT
BRANCH   1   2
ATOM      2  C   UNL     1       4.503  -1.052  -1.112  1.00  0.00     0.118 C 
BRANCH   2   3
ATOM      3  N   UNL     1       3.082  -0.742  -1.011  1.00  0.00    -0.352 N 
ATOM      4  O   UNL     1       1.152  -0.008  -0.121  1.00  0.00    -0.269 OA
ATOM      5  C   UNL     1       2.380   0.010  -0.099  1.00  0.00     0.251 C 
ATOM      6  H   UNL     1       2.528  -1.141  -1.720  1.00  0.00     0.163 HD
BRANCH   5   7
ATOM      7  C   UNL     1       3.080   0.814   0.927  1.00  0.00     0.039 A 
ATOM      8  C   UNL     1       4.244   1.516   0.624  1.00  0.00     0.014 A 
ATOM      9  C   UNL     1       2.547   0.887   2.219  1.00  0.00     0.014 A 
ATOM     10  C   UNL     1       4.981   2.109   1.643  1.00  0.00     0.010 A 
ATOM     11  C   UNL     1       3.230   1.585   3.221  1.00  0.00     0.010 A 
ATOM     12  C   UNL     1       4.483   2.157   2.955  1.00  0.00    -0.014 A 
BRANCH  12  13
ATOM     13  C   UNL     1       5.288   2.829   4.009  1.00  0.00     0.031 A 
ATOM     14  C   UNL     1       5.813   2.065   5.195  1.00  0.00     0.074 A 
ATOM     15  C   UNL     1       5.600   4.132   3.859  1.00  0.00     0.049 A 
ATOM     16  N   UNL     1       6.586   2.480   6.169  1.00  0.00    -0.248 NA
ATOM     17  C   UNL     1       5.412   0.655   5.314  1.00  0.00     0.031 C 
ATOM     18  C   UNL     1       5.139   4.985   2.761  1.00  0.00     0.029 A 
ATOM     19  N   UNL     1       6.399   4.959   4.607  1.00  0.00    -0.354 N 
ATOM     20  C   UNL     1       6.741   1.396   7.024  1.00  0.00     0.074 A 
ATOM     21  C   UNL     1       5.960   0.311   6.471  1.00  0.00     0.031 C 
ATOM     22  C   UNL     1       5.715   6.191   2.869  1.00  0.00     0.029 A 
ATOM     23  C   UNL     1       6.533   6.218   4.076  1.00  0.00     0.049 A 
ATOM     24  H   UNL     1       6.834   4.677   5.444  1.00  0.00     0.167 HD
ATOM     25  C   UNL     1       7.475   1.312   8.160  1.00  0.00     0.037 A 
ATOM     26  C   UNL     1       7.233   7.281   4.512  1.00  0.00     0.037 A 
ATOM     27  C   UNL     1       8.277   2.385   8.691  1.00  0.00     0.049 A 
ATOM     28  C   UNL     1       8.037   7.158   5.775  1.00  0.00     0.074 A 
ATOM     29  C   UNL     1       9.092   2.382   9.811  1.00  0.00     0.029 A 
ATOM     30  N   UNL     1       8.364   3.655   8.140  1.00  0.00    -0.354 N 
ATOM     31  N   UNL     1       8.206   6.115   6.550  1.00  0.00    -0.248 NA
ATOM     32  C   UNL     1       8.747   8.363   6.223  1.00  0.00     0.031 C 
ATOM     33  C   UNL     1       9.633   3.663   9.963  1.00  0.00     0.029 A 
ATOM     34  C   UNL     1       9.200   4.450   8.909  1.00  0.00     0.049 A 
ATOM     35  H   UNL     1       7.900   3.949   7.323  1.00  0.00     0.167 HD
ATOM     36  C   UNL     1       9.059   6.528   7.563  1.00  0.00     0.074 A 
ATOM     37  C   UNL     1       9.388   7.912   7.292  1.00  0.00     0.031 C 
ATOM     38  C   UNL     1       9.525   5.824   8.623  1.00  0.00     0.037 A 
BRANCH  25  39
ATOM     39  C   UNL     1       7.434   0.019   8.924  1.00  0.00     0.064 A 
ATOM     40  C   UNL     1       8.056  -1.145   8.447  1.00  0.00     0.173 A 
ATOM     41  C   UNL     1       6.802  -0.043  10.176  1.00  0.00     0.173 A 
ATOM     42  F   UNL     1       8.665  -1.144   7.252  1.00  0.00    -0.203 F 
ATOM     43  C   UNL     1       8.023  -2.328   9.182  1.00  0.00     0.198 A 
ATOM     44  C   UNL     1       6.796  -1.220  10.921  1.00  0.00     0.198 A 
ATOM     45  F   UNL     1       6.198   1.042  10.684  1.00  0.00    -0.203 F 
ATOM     46  F   UNL     1       8.584  -3.439   8.686  1.00  0.00    -0.200 F 
ATOM     47  C   UNL     1       7.400  -2.363  10.421  1.00  0.00     0.200 A 
ATOM     48  F   UNL     1       6.205  -1.247  12.124  1.00  0.00    -0.200 F 
ATOM     49  F   UNL     1       7.377  -3.500  11.130  1.00  0.00    -0.200 F 
ENDBRANCH  25  39
BRANCH  26  50
ATOM     50  C   UNL     1       7.212   8.549   3.738  1.00  0.00     0.064 A 
ATOM     51  C   UNL     1       8.359   9.008   3.076  1.00  0.00     0.173 A 
ATOM     52  C   UNL     1       6.046   9.322   3.638  1.00  0.00     0.173 A 
ATOM     53  F   UNL     1       9.503   8.314   3.158  1.00  0.00    -0.203 F 
ATOM     54  C   UNL     1       8.344  10.202   2.357  1.00  0.00     0.198 A 
ATOM     55  C   UNL     1       6.024  10.498   2.893  1.00  0.00     0.198 A 
ATOM     56  F   UNL     1       4.921   8.922   4.248  1.00  0.00    -0.203 F 
ATOM     57  F   UNL     1       9.466  10.641   1.770  1.00  0.00    -0.200 F 
ATOM     58  C   UNL     1       7.176  10.942   2.260  1.00  0.00     0.200 A 
ATOM     59  F   UNL     1       4.888  11.201   2.787  1.00  0.00    -0.200 F 
ATOM     60  F   UNL     1       7.160  12.086   1.563  1.00  0.00    -0.200 F 
ENDBRANCH  26  50
BRANCH  38  61
ATOM     61  C   UNL     1      10.476   6.530   9.545  1.00  0.00     0.064 A 
ATOM     62  C   UNL     1      10.048   7.551  10.407  1.00  0.00     0.173 A 
ATOM     63  C   UNL     1      11.832   6.170   9.575  1.00  0.00     0.173 A 
ATOM     64  F   UNL     1       8.765   7.943  10.403  1.00  0.00    -0.203 F 
ATOM     65  C   UNL     1      10.949   8.207  11.241  1.00  0.00     0.198 A 
ATOM     66  C   UNL     1      12.724   6.807  10.433  1.00  0.00     0.198 A 
ATOM     67  F   UNL     1      12.291   5.196   8.775  1.00  0.00    -0.203 F 
ATOM     68  F   UNL     1      10.529   9.218  12.014  1.00  0.00    -0.200 F 
ATOM     69  C   UNL     1      12.284   7.831  11.258  1.00  0.00     0.200 A 
ATOM     70  F   UNL     1      14.011   6.434  10.457  1.00  0.00    -0.200 F 
ATOM     71  F   UNL     1      13.149   8.464  12.061  1.00  0.00    -0.200 F 
ENDBRANCH  38  61
ENDBRANCH  12  13
ENDBRANCH   5   7
ENDBRANCH   2   3
ENDBRANCH   1   2
BRANCH   1  72
ATOM     72  C   UNL     1       4.220  -3.512  -1.746  1.00  0.00     0.118 C 
BRANCH  72  73
ATOM     73  N   UNL     1       4.734  -3.361  -3.101  1.00  0.00    -0.352 N 
ATOM     74  C   UNL     1       5.604  -4.146  -3.813  1.00  0.00     0.251 C 
ATOM     75  H   UNL     1       4.403  -2.568  -3.583  1.00  0.00     0.163 HD
ATOM     76  O   UNL     1       6.068  -3.740  -4.875  1.00  0.00    -0.269 OA
BRANCH  74  77
ATOM     77  C   UNL     1       6.017  -5.464  -3.297  1.00  0.00     0.046 A 
ATOM     78  C   UNL     1       5.080  -6.391  -2.854  1.00  0.00     0.034 A 
ATOM     79  C   UNL     1       7.376  -5.777  -3.295  1.00  0.00     0.082 A 
ATOM     80  C   UNL     1       5.559  -7.567  -2.321  1.00  0.00     0.116 A 
ATOM     81  C   UNL     1       7.768  -6.978  -2.727  1.00  0.00     0.219 A 
ATOM     82  N   UNL     1       6.872  -7.864  -2.231  1.00  0.00    -0.222 NA
BRANCH  81  83
ATOM     83  O   UNL     1       9.069  -7.411  -2.599  1.00  0.00    -0.439 OA
BRANCH  83  84
ATOM     84  C   UNL     1      10.099  -6.613  -3.026  1.00  0.00     0.130 A 
ATOM     85  C   UNL     1      10.912  -7.105  -4.045  1.00  0.00     0.047 A 
ATOM     86  C   UNL     1      10.395  -5.394  -2.410  1.00  0.00     0.060 A 
ATOM     87  C   UNL     1      11.995  -6.351  -4.494  1.00  0.00     0.004 A 
ATOM     88  C   UNL     1      11.460  -4.610  -2.879  1.00  0.00     0.059 A 
ATOM     89  C   UNL     1      12.260  -5.105  -3.923  1.00  0.00     0.013 A 
BRANCH  88  90
ATOM     90  C   UNL     1      11.747  -3.253  -2.287  1.00  0.00     0.416 C 
ATOM     91  F   UNL     1      12.959  -3.195  -1.672  1.00  0.00    -0.166 F 
ATOM     92  F   UNL     1      11.756  -2.268  -3.229  1.00  0.00    -0.166 F 
ATOM     93  F   UNL     1      10.833  -2.863  -1.355  1.00  0.00    -0.166 F 
ENDBRANCH  88  90
ENDBRANCH  83  84
ENDBRANCH  81  83
ENDBRANCH  74  77
ENDBRANCH  72  73
ENDBRANCH   1  72
TORSDOF 13
