REMARK SMILES O=C(NCCCNC(=O)[C@H]1C[C@](O)(c2ccc(Cl)cc2)[C@@H](c2ccc(Cl)cc2)O1)c1ccc(-c2c3nc(c(-c4c(F)c(F)c(F)c(F)c4F)c4ccc([nH]4)c(-c4c(F)c(F)c(F)c(F)c4F)c4nc(c(-c5c(F)c(F)c(F)c(F)c5F)c5ccc2[nH]5)C=C4)C=C3)cc1
REMARK SMILES IDX 4 1 3 2 1 3 2 4 30 6 31 7 92 8 32 9 91 10 33 11 34 12 35 13
REMARK SMILES IDX 85 14 36 15 90 16 84 17 86 18 37 19 89 20 83 21 82 22 38 24
REMARK SMILES IDX 70 25 50 26 69 27 51 28 54 29 68 30 87 31 52 32 53 33 67 35
REMARK SMILES IDX 88 36 55 37 39 38 40 39 48 40 41 41 42 42 46 43 49 44 43 45
REMARK SMILES IDX 44 46 47 47 45 48 71 49 72 50 80 51 73 52 74 53 78 54 81 55
REMARK SMILES IDX 75 56 76 57 79 58 77 59 56 60 57 61 65 62 58 63 59 64 63 65
REMARK SMILES IDX 66 66 60 67 61 68 64 69 62 70 5 71 6 72 7 73 8 74 9 76 10 77
REMARK SMILES IDX 11 78 29 79 12 80 21 81 14 82 15 83 20 84 16 85 19 86 17 87
REMARK SMILES IDX 18 88 13 89 22 91 23 92 28 93 24 94 27 95 25 96 26 97
REMARK H PARENT 3 5 86 23 54 34 7 75 13 90
REMARK Flexibility Score: inf
ROOT
ATOM      1  C   UNL     1       8.470  -2.655   5.754  1.00  0.00     0.118 C 
ENDROOT
BRANCH   1   2
ATOM      2  N   UNL     1       8.914  -1.295   6.017  1.00  0.00    -0.352 N 
ATOM      3  O   UNL     1       9.339   0.551   7.223  1.00  0.00    -0.269 OA
ATOM      4  C   UNL     1       9.205  -0.674   7.207  1.00  0.00     0.251 C 
ATOM      5  H   UNL     1       9.023  -0.732   5.217  1.00  0.00     0.163 HD
BRANCH   4   6
ATOM      6  C   UNL     1       9.367  -1.429   8.475  1.00  0.00     0.039 A 
ATOM      7  C   UNL     1      10.101  -2.615   8.537  1.00  0.00     0.014 A 
ATOM      8  C   UNL     1       8.879  -0.868   9.663  1.00  0.00     0.014 A 
ATOM      9  C   UNL     1      10.279  -3.265   9.763  1.00  0.00     0.010 A 
ATOM     10  C   UNL     1       9.093  -1.503  10.896  1.00  0.00     0.010 A 
ATOM     11  C   UNL     1       9.784  -2.722  10.960  1.00  0.00    -0.014 A 
BRANCH  11  12
ATOM     12  C   UNL     1      10.042  -3.405  12.264  1.00  0.00     0.031 A 
ATOM     13  C   UNL     1       8.912  -3.936  13.108  1.00  0.00     0.074 A 
ATOM     14  C   UNL     1      11.308  -3.557  12.702  1.00  0.00     0.049 A 
ATOM     15  N   UNL     1       8.955  -4.516  14.284  1.00  0.00    -0.248 NA
ATOM     16  C   UNL     1       7.553  -3.791  12.566  1.00  0.00     0.031 C 
ATOM     17  C   UNL     1      12.505  -3.091  12.001  1.00  0.00     0.029 A 
ATOM     18  N   UNL     1      11.802  -4.152  13.840  1.00  0.00    -0.354 N 
ATOM     19  C   UNL     1       7.637  -4.781  14.632  1.00  0.00     0.074 A 
ATOM     20  C   UNL     1       6.812  -4.282  13.551  1.00  0.00     0.031 C 
ATOM     21  C   UNL     1      13.592  -3.448  12.701  1.00  0.00     0.029 A 
ATOM     22  C   UNL     1      13.173  -4.115  13.930  1.00  0.00     0.049 A 
ATOM     23  H   UNL     1      11.228  -4.564  14.525  1.00  0.00     0.167 HD
ATOM     24  C   UNL     1       7.157  -5.390  15.745  1.00  0.00     0.037 A 
ATOM     25  C   UNL     1      14.005  -4.549  14.897  1.00  0.00     0.037 A 
ATOM     26  C   UNL     1       7.968  -5.918  16.814  1.00  0.00     0.049 A 
ATOM     27  C   UNL     1      13.444  -5.200  16.130  1.00  0.00     0.074 A 
ATOM     28  C   UNL     1       7.560  -6.591  17.955  1.00  0.00     0.029 A 
ATOM     29  N   UNL     1       9.350  -5.836  16.876  1.00  0.00    -0.354 N 
ATOM     30  N   UNL     1      12.197  -5.459  16.434  1.00  0.00    -0.248 NA
ATOM     31  C   UNL     1      14.410  -5.611  17.160  1.00  0.00     0.031 C 
ATOM     32  C   UNL     1       8.691  -6.878  18.727  1.00  0.00     0.029 A 
ATOM     33  C   UNL     1       9.808  -6.425  18.046  1.00  0.00     0.049 A 
ATOM     34  H   UNL     1       9.923  -5.422  16.191  1.00  0.00     0.167 HD
ATOM     35  C   UNL     1      12.228  -6.074  17.678  1.00  0.00     0.074 A 
ATOM     36  C   UNL     1      13.620  -6.168  18.066  1.00  0.00     0.031 C 
ATOM     37  C   UNL     1      11.192  -6.515  18.431  1.00  0.00     0.037 A 
BRANCH  24  38
ATOM     38  C   UNL     1       5.667  -5.516  15.883  1.00  0.00     0.064 A 
ATOM     39  C   UNL     1       4.931  -6.434  15.121  1.00  0.00     0.173 A 
ATOM     40  C   UNL     1       4.977  -4.755  16.841  1.00  0.00     0.173 A 
ATOM     41  F   UNL     1       5.542  -7.179  14.187  1.00  0.00    -0.203 F 
ATOM     42  C   UNL     1       3.556  -6.573  15.298  1.00  0.00     0.198 A 
ATOM     43  C   UNL     1       3.608  -4.915  17.033  1.00  0.00     0.198 A 
ATOM     44  F   UNL     1       5.636  -3.870  17.603  1.00  0.00    -0.203 F 
ATOM     45  F   UNL     1       2.867  -7.432  14.534  1.00  0.00    -0.200 F 
ATOM     46  C   UNL     1       2.897  -5.819  16.259  1.00  0.00     0.200 A 
ATOM     47  F   UNL     1       2.975  -4.195  17.970  1.00  0.00    -0.200 F 
ATOM     48  F   UNL     1       1.577  -5.962  16.434  1.00  0.00    -0.200 F 
ENDBRANCH  24  38
BRANCH  25  49
ATOM     49  C   UNL     1      15.471  -4.369  14.740  1.00  0.00     0.064 A 
ATOM     50  C   UNL     1      16.312  -5.469  14.525  1.00  0.00     0.173 A 
ATOM     51  C   UNL     1      16.059  -3.097  14.800  1.00  0.00     0.173 A 
ATOM     52  F   UNL     1      15.799  -6.708  14.489  1.00  0.00    -0.203 F 
ATOM     53  C   UNL     1      17.689  -5.304  14.387  1.00  0.00     0.198 A 
ATOM     54  C   UNL     1      17.431  -2.931  14.633  1.00  0.00     0.198 A 
ATOM     55  F   UNL     1      15.295  -2.014  15.007  1.00  0.00    -0.203 F 
ATOM     56  F   UNL     1      18.476  -6.376  14.223  1.00  0.00    -0.200 F 
ATOM     57  C   UNL     1      18.246  -4.035  14.433  1.00  0.00     0.200 A 
ATOM     58  F   UNL     1      17.964  -1.702  14.667  1.00  0.00    -0.200 F 
ATOM     59  F   UNL     1      19.569  -3.876  14.292  1.00  0.00    -0.200 F 
ENDBRANCH  25  49
BRANCH  37  60
ATOM     60  C   UNL     1      11.523  -7.161  19.745  1.00  0.00     0.064 A 
ATOM     61  C   UNL     1      11.959  -6.406  20.844  1.00  0.00     0.173 A 
ATOM     62  C   UNL     1      11.378  -8.546  19.916  1.00  0.00     0.173 A 
ATOM     63  F   UNL     1      12.130  -5.080  20.727  1.00  0.00    -0.203 F 
ATOM     64  C   UNL     1      12.261  -7.017  22.058  1.00  0.00     0.198 A 
ATOM     65  C   UNL     1      11.656  -9.150  21.139  1.00  0.00     0.198 A 
ATOM     66  F   UNL     1      10.960  -9.312  18.897  1.00  0.00    -0.203 F 
ATOM     67  F   UNL     1      12.719  -6.282  23.081  1.00  0.00    -0.200 F 
ATOM     68  C   UNL     1      12.104  -8.387  22.206  1.00  0.00     0.200 A 
ATOM     69  F   UNL     1      11.495 -10.473  21.283  1.00  0.00    -0.200 F 
ATOM     70  F   UNL     1      12.393  -8.974  23.376  1.00  0.00    -0.200 F 
ENDBRANCH  37  60
ENDBRANCH  11  12
ENDBRANCH   4   6
ENDBRANCH   1   2
BRANCH   1  71
ATOM     71  C   UNL     1       7.055  -2.699   5.174  1.00  0.00     0.042 C 
BRANCH  71  72
ATOM     72  C   UNL     1       6.959  -2.596   3.650  1.00  0.00     0.117 C 
BRANCH  72  73
ATOM     73  N   UNL     1       7.726  -3.600   2.932  1.00  0.00    -0.354 N 
ATOM     74  C   UNL     1       7.364  -4.831   2.466  1.00  0.00     0.249 C 
ATOM     75  H   UNL     1       8.662  -3.352   2.753  1.00  0.00     0.163 HD
ATOM     76  O   UNL     1       8.222  -5.464   1.844  1.00  0.00    -0.272 OA
BRANCH  74  77
ATOM     77  C   UNL     1       5.933  -5.388   2.684  1.00  0.00     0.211 C 
ATOM     78  C   UNL     1       5.851  -6.895   2.390  1.00  0.00     0.085 C 
ATOM     79  O   UNL     1       5.441  -5.174   4.005  1.00  0.00    -0.357 OA
ATOM     80  C   UNL     1       5.362  -7.554   3.680  1.00  0.00     0.123 C 
ATOM     81  C   UNL     1       5.471  -6.415   4.732  1.00  0.00     0.186 C 
BRANCH  80  82
ATOM     82  C   UNL     1       3.953  -8.143   3.483  1.00  0.00    -0.013 A 
ATOM     83  C   UNL     1       3.823  -9.446   2.949  1.00  0.00     0.008 A 
ATOM     84  C   UNL     1       2.771  -7.469   3.831  1.00  0.00     0.008 A 
ATOM     85  C   UNL     1       2.581 -10.077   2.844  1.00  0.00     0.021 A 
ATOM     86  C   UNL     1       1.525  -8.104   3.736  1.00  0.00     0.021 A 
ATOM     87  C   UNL     1       1.437  -9.409   3.258  1.00  0.00     0.041 A 
ATOM     88  Cl  UNL     1      -0.089 -10.198   3.185  1.00  0.00    -0.084 Cl
ENDBRANCH  80  82
BRANCH  80  89
ATOM     89  O   UNL     1       6.174  -8.684   4.029  1.00  0.00    -0.382 OA
ATOM     90  H   UNL     1       7.089  -8.393   4.171  1.00  0.00     0.212 HD
ENDBRANCH  80  89
BRANCH  81  91
ATOM     91  C   UNL     1       6.665  -6.392   5.681  1.00  0.00    -0.016 A 
ATOM     92  C   UNL     1       7.996  -6.526   5.254  1.00  0.00     0.008 A 
ATOM     93  C   UNL     1       6.428  -6.211   7.057  1.00  0.00     0.008 A 
ATOM     94  C   UNL     1       9.044  -6.570   6.175  1.00  0.00     0.021 A 
ATOM     95  C   UNL     1       7.476  -6.245   7.979  1.00  0.00     0.021 A 
ATOM     96  C   UNL     1       8.775  -6.459   7.535  1.00  0.00     0.041 A 
ATOM     97  Cl  UNL     1      10.055  -6.633   8.666  1.00  0.00    -0.084 Cl
ENDBRANCH  81  91
ENDBRANCH  74  77
ENDBRANCH  72  73
ENDBRANCH  71  72
ENDBRANCH   1  71
TORSDOF 13
