REMARK SMILES C[C@H]1C[C@]([NH2+]C2CCCCCC2)(C(=O)NCCCNC(=O)c2ccc(-c3c4nc(c(-c5c(F)c(F)c(F)c(F)c5F)c5ccc([nH]5)c(-c5c(F)c(F)c(F)c(F)c5F)c5nc(c(-c6c(F)c(F)c(F)c(F)c6F)c6ccc3[nH]6)C=C5)C=C4)cc2)CS1
REMARK SMILES IDX 13 1 14 2 15 3 4 5 1 6 2 7 3 8 86 9 85 10 5 11 6 14 7 15
REMARK SMILES IDX 8 16 12 18 11 19 10 20 9 21 16 23 17 24 18 25 19 26 20 27
REMARK SMILES IDX 21 29 22 30 23 31 84 32 24 33 83 34 25 35 26 36 27 37 77 38
REMARK SMILES IDX 28 39 82 40 76 41 78 42 29 43 81 44 75 45 74 46 30 48 62 49
REMARK SMILES IDX 42 50 61 51 43 52 46 53 60 54 79 55 44 56 45 57 59 59 80 60
REMARK SMILES IDX 47 61 31 62 32 63 40 64 33 65 34 66 38 67 41 68 35 69 36 70
REMARK SMILES IDX 39 71 37 72 63 73 64 74 72 75 65 76 66 77 70 78 73 79 67 80
REMARK SMILES IDX 68 81 71 82 69 83 48 84 49 85 57 86 50 87 51 88 55 89 58 90
REMARK SMILES IDX 52 91 53 92 56 93 54 94
REMARK H PARENT 15 4 5 12 5 13 19 28 78 47 46 58
REMARK Flexibility Score: 80.00
ROOT
ATOM      1  C   UNL     1       1.926   4.484   0.385  1.00  0.00     0.282 C 
ATOM      2  O   UNL     1       1.964   5.675   0.047  1.00  0.00    -0.268 OA
ATOM      3  N   UNL     1       3.064   4.002   0.965  1.00  0.00    -0.351 N 
ATOM      4  H   UNL     1       3.717   4.696   1.211  1.00  0.00     0.163 HD
ENDROOT
BRANCH   1   5
ATOM      5  C   UNL     1       0.629   3.603   0.135  1.00  0.00     0.185 C 
ATOM      6  C   UNL     1      -0.679   0.494  -1.099  1.00  0.00     0.019 C 
ATOM      7  C   UNL     1       0.450   1.087  -0.269  1.00  0.00     0.050 C 
ATOM      8  C   UNL     1       0.986   2.420  -0.787  1.00  0.00     0.094 C 
ATOM      9  S   UNL     1      -0.070   1.302   1.452  1.00  0.00    -0.151 SA
ATOM     10  C   UNL     1       0.171   3.101   1.519  1.00  0.00     0.148 C 
BRANCH   5  11
ATOM     11  N   UNL     1      -0.382   4.549  -0.447  1.00  0.00    -0.330 N 
ATOM     12  H   UNL     1       0.133   5.198  -1.042  1.00  0.00     0.347 HD
ATOM     13  H   UNL     1      -0.845   4.929   0.379  1.00  0.00     0.347 HD
BRANCH  11  14
ATOM     14  C   UNL     1      -1.500   4.039  -1.249  1.00  0.00     0.183 C 
BRANCH  14  15
ATOM     15  C   UNL     1      -2.643   3.483  -0.390  1.00  0.00     0.065 C 
BRANCH  15  16
ATOM     16  C   UNL     1      -3.628   4.521   0.132  1.00  0.00     0.006 CG0
ATOM     17  G   UNL     1      -4.813   4.676  -0.818  1.00  0.00     0.000 G0
ENDBRANCH  15  16
ENDBRANCH  14  15
BRANCH  14  18
ATOM     18  C   UNL     1      -1.962   5.159  -2.209  1.00  0.00     0.065 C 
BRANCH  18  19
ATOM     19  C   UNL     1      -3.282   4.851  -2.921  1.00  0.00     0.006 C 
BRANCH  19  20
ATOM     20  C   UNL     1      -4.509   5.352  -2.155  1.00  0.00     0.000 C 
BRANCH  20  21
ATOM     21  C   UNL     1      -4.813   4.676  -0.818  1.00  0.00     0.000 CG0
ATOM     22  G   UNL     1      -3.628   4.521   0.132  1.00  0.00     0.000 G0
ENDBRANCH  20  21
ENDBRANCH  19  20
ENDBRANCH  18  19
ENDBRANCH  14  18
ENDBRANCH  11  14
ENDBRANCH   5  11
ENDBRANCH   1   5
BRANCH   3  23
ATOM     23  C   UNL     1       3.486   2.648   1.286  1.00  0.00     0.118 C 
BRANCH  23  24
ATOM     24  C   UNL     1       4.437   2.101   0.225  1.00  0.00     0.042 C 
BRANCH  24  25
ATOM     25  C   UNL     1       5.870   2.564   0.425  1.00  0.00     0.118 C 
BRANCH  25  26
ATOM     26  N   UNL     1       6.509   1.867   1.530  1.00  0.00    -0.352 N 
ATOM     27  C   UNL     1       7.622   1.063   1.527  1.00  0.00     0.251 C 
ATOM     28  H   UNL     1       6.082   1.991   2.408  1.00  0.00     0.163 HD
ATOM     29  O   UNL     1       7.878   0.375   2.509  1.00  0.00    -0.269 OA
BRANCH  27  30
ATOM     30  C   UNL     1       8.505   1.013   0.341  1.00  0.00     0.039 A 
ATOM     31  C   UNL     1       9.049  -0.215  -0.045  1.00  0.00     0.014 A 
ATOM     32  C   UNL     1       8.825   2.173  -0.370  1.00  0.00     0.014 A 
ATOM     33  C   UNL     1       9.874  -0.286  -1.169  1.00  0.00     0.010 A 
ATOM     34  C   UNL     1       9.575   2.088  -1.539  1.00  0.00     0.010 A 
ATOM     35  C   UNL     1      10.121   0.860  -1.940  1.00  0.00    -0.014 A 
BRANCH  35  36
ATOM     36  C   UNL     1      10.981   0.811  -3.148  1.00  0.00     0.031 A 
ATOM     37  C   UNL     1      12.271   1.585  -3.177  1.00  0.00     0.074 A 
ATOM     38  C   UNL     1      10.575   0.125  -4.233  1.00  0.00     0.049 A 
ATOM     39  N   UNL     1      13.114   1.757  -4.164  1.00  0.00    -0.248 NA
ATOM     40  C   UNL     1      12.650   2.283  -1.937  1.00  0.00     0.031 C 
ATOM     41  C   UNL     1       9.329  -0.638  -4.335  1.00  0.00     0.029 A 
ATOM     42  N   UNL     1      11.163  -0.035  -5.462  1.00  0.00    -0.354 N 
ATOM     43  C   UNL     1      14.109   2.588  -3.668  1.00  0.00     0.074 A 
ATOM     44  C   UNL     1      13.739   2.936  -2.314  1.00  0.00     0.031 C 
ATOM     45  C   UNL     1       9.258  -1.202  -5.551  1.00  0.00     0.029 A 
ATOM     46  C   UNL     1      10.430  -0.809  -6.328  1.00  0.00     0.049 A 
ATOM     47  H   UNL     1      12.029   0.368  -5.701  1.00  0.00     0.167 HD
ATOM     48  C   UNL     1      15.245   3.002  -4.278  1.00  0.00     0.037 A 
ATOM     49  C   UNL     1      10.675  -1.153  -7.606  1.00  0.00     0.037 A 
ATOM     50  C   UNL     1      15.622   2.633  -5.616  1.00  0.00     0.049 A 
ATOM     51  C   UNL     1      11.935  -0.662  -8.266  1.00  0.00     0.074 A 
ATOM     52  C   UNL     1      16.765   2.974  -6.317  1.00  0.00     0.029 A 
ATOM     53  N   UNL     1      14.861   1.831  -6.455  1.00  0.00    -0.354 N 
ATOM     54  N   UNL     1      12.891   0.088  -7.773  1.00  0.00    -0.248 NA
ATOM     55  C   UNL     1      12.153  -1.070  -9.661  1.00  0.00     0.031 C 
ATOM     56  C   UNL     1      16.680   2.406  -7.593  1.00  0.00     0.029 A 
ATOM     57  C   UNL     1      15.506   1.674  -7.670  1.00  0.00     0.049 A 
ATOM     58  H   UNL     1      13.992   1.433  -6.220  1.00  0.00     0.167 HD
ATOM     59  C   UNL     1      13.839   0.210  -8.780  1.00  0.00     0.074 A 
ATOM     60  C   UNL     1      13.347  -0.551  -9.910  1.00  0.00     0.031 C 
ATOM     61  C   UNL     1      15.011   0.890  -8.772  1.00  0.00     0.037 A 
BRANCH  48  62
ATOM     62  C   UNL     1      16.169   3.890  -3.496  1.00  0.00     0.064 A 
ATOM     63  C   UNL     1      16.905   3.402  -2.405  1.00  0.00     0.173 A 
ATOM     64  C   UNL     1      16.352   5.232  -3.861  1.00  0.00     0.173 A 
ATOM     65  F   UNL     1      16.757   2.130  -2.006  1.00  0.00    -0.203 F 
ATOM     66  C   UNL     1      17.769   4.231  -1.694  1.00  0.00     0.198 A 
ATOM     67  C   UNL     1      17.239   6.050  -3.166  1.00  0.00     0.198 A 
ATOM     68  F   UNL     1      15.677   5.750  -4.899  1.00  0.00    -0.203 F 
ATOM     69  F   UNL     1      18.424   3.754  -0.626  1.00  0.00    -0.200 F 
ATOM     70  C   UNL     1      17.941   5.551  -2.079  1.00  0.00     0.200 A 
ATOM     71  F   UNL     1      17.415   7.323  -3.547  1.00  0.00    -0.200 F 
ATOM     72  F   UNL     1      18.779   6.345  -1.399  1.00  0.00    -0.200 F 
ENDBRANCH  48  62
BRANCH  49  73
ATOM     73  C   UNL     1       9.724  -2.027  -8.341  1.00  0.00     0.064 A 
ATOM     74  C   UNL     1      10.083  -3.334  -8.700  1.00  0.00     0.173 A 
ATOM     75  C   UNL     1       8.451  -1.575  -8.717  1.00  0.00     0.173 A 
ATOM     76  F   UNL     1      11.297  -3.806  -8.381  1.00  0.00    -0.203 F 
ATOM     77  C   UNL     1       9.216  -4.145  -9.430  1.00  0.00     0.198 A 
ATOM     78  C   UNL     1       7.574  -2.397  -9.421  1.00  0.00     0.198 A 
ATOM     79  F   UNL     1       8.056  -0.335  -8.393  1.00  0.00    -0.203 F 
ATOM     80  F   UNL     1       9.606  -5.371  -9.805  1.00  0.00    -0.200 F 
ATOM     81  C   UNL     1       7.961  -3.677  -9.787  1.00  0.00     0.200 A 
ATOM     82  F   UNL     1       6.355  -1.946  -9.751  1.00  0.00    -0.200 F 
ATOM     83  F   UNL     1       7.128  -4.457 -10.490  1.00  0.00    -0.200 F 
ENDBRANCH  49  73
BRANCH  61  84
ATOM     84  C   UNL     1      15.869   0.797  -9.998  1.00  0.00     0.064 A 
ATOM     85  C   UNL     1      15.529   1.454 -11.189  1.00  0.00     0.173 A 
ATOM     86  C   UNL     1      17.072   0.075  -9.964  1.00  0.00     0.173 A 
ATOM     87  F   UNL     1      14.381   2.144 -11.275  1.00  0.00    -0.203 F 
ATOM     88  C   UNL     1      16.350   1.372 -12.310  1.00  0.00     0.198 A 
ATOM     89  C   UNL     1      17.905   0.019 -11.077  1.00  0.00     0.198 A 
ATOM     90  F   UNL     1      17.445  -0.565  -8.846  1.00  0.00    -0.203 F 
ATOM     91  F   UNL     1      15.983   1.969 -13.452  1.00  0.00    -0.200 F 
ATOM     92  C   UNL     1      17.541   0.662 -12.251  1.00  0.00     0.200 A 
ATOM     93  F   UNL     1      19.061  -0.655 -11.014  1.00  0.00    -0.200 F 
ATOM     94  F   UNL     1      18.334   0.591 -13.329  1.00  0.00    -0.200 F 
ENDBRANCH  61  84
ENDBRANCH  35  36
ENDBRANCH  27  30
ENDBRANCH  25  26
ENDBRANCH  24  25
ENDBRANCH  23  24
ENDBRANCH   3  23
TORSDOF 12
