REMARK SMILES CC[NH2+][C@]1(C(=O)NCCCNC(=O)c2ccc(-c3c4nc(c(-c5c(F)c(F)c(F)c(F)c5F)c5ccc([nH]5)c(-c5c(F)c(F)c(F)c(F)c5F)c5nc(c(-c6c(F)c(F)c(F)c(F)c6F)c6ccc3[nH]6)C=C5)C=C4)cc2)CCC[C@H]1CC[N@H+]1CCC[C@@H](CC)C1
REMARK SMILES IDX 8 1 7 2 5 3 6 4 4 6 77 7 80 8 78 9 79 10 3 11 2 14 1 15
REMARK SMILES IDX 81 16 82 17 83 18 84 19 90 20 85 22 87 23 86 24 88 25 89 26
REMARK SMILES IDX 9 27 10 28 11 29 12 30 13 32 14 33 15 34 76 35 16 36 75 37
REMARK SMILES IDX 17 38 18 39 19 40 69 41 20 42 74 43 68 44 70 45 21 46 73 47
REMARK SMILES IDX 67 48 66 49 22 51 54 52 34 53 53 54 35 55 38 56 52 57 71 58
REMARK SMILES IDX 36 59 37 60 51 62 72 63 39 64 23 65 24 66 32 67 25 68 26 69
REMARK SMILES IDX 30 70 33 71 27 72 28 73 31 74 29 75 55 76 56 77 64 78 57 79
REMARK SMILES IDX 58 80 62 81 65 82 59 83 60 84 63 85 61 86 40 87 41 88 49 89
REMARK SMILES IDX 42 90 43 91 47 92 50 93 44 94 45 95 48 96 46 97
REMARK H PARENT 7 5 3 12 3 13 83 21 11 31 70 50 38 61
REMARK Flexibility Score: inf
ROOT
ATOM      1  C   UNL     1       3.748   1.601   2.787  1.00  0.00     0.118 C 
ENDROOT
BRANCH   1   2
ATOM      2  N   UNL     1       2.536   1.376   2.019  1.00  0.00    -0.351 N 
ATOM      3  C   UNL     1       1.228   1.248   2.380  1.00  0.00     0.281 C 
ATOM      4  O   UNL     1       0.438   1.547   1.469  1.00  0.00    -0.268 OA
ATOM      5  H   UNL     1       2.688   1.302   1.049  1.00  0.00     0.163 HD
BRANCH   3   6
ATOM      6  C   UNL     1       0.673   0.762   3.769  1.00  0.00     0.178 C 
ATOM      7  C   UNL     1      -0.488   1.741   4.125  1.00  0.00     0.079 C 
ATOM      8  C   UNL     1      -0.119  -0.599   3.762  1.00  0.00     0.066 C 
ATOM      9  C   UNL     1      -1.332   1.034   5.175  1.00  0.00     0.008 C 
ATOM     10  C   UNL     1      -1.096  -0.457   4.961  1.00  0.00     0.011 C 
BRANCH   6  11
ATOM     11  N   UNL     1       1.675   0.881   4.873  1.00  0.00    -0.334 N 
ATOM     12  H   UNL     1       2.398   1.532   4.569  1.00  0.00     0.347 HD
ATOM     13  H   UNL     1       1.149   1.192   5.690  1.00  0.00     0.347 HD
BRANCH  11  14
ATOM     14  C   UNL     1       2.333  -0.359   5.279  1.00  0.00     0.257 C 
ATOM     15  C   UNL     1       3.544  -0.049   6.149  1.00  0.00     0.071 C 
ENDBRANCH  11  14
ENDBRANCH   6  11
BRANCH   8  16
ATOM     16  C   UNL     1      -0.935  -0.999   2.503  1.00  0.00     0.072 C 
BRANCH  16  17
ATOM     17  C   UNL     1      -0.134  -1.476   1.280  1.00  0.00     0.262 C 
BRANCH  17  18
ATOM     18  N   UNL     1       0.896  -2.479   1.611  1.00  0.00    -0.335 N 
ATOM     19  C   UNL     1       0.363  -3.844   1.477  1.00  0.00     0.262 C 
ATOM     20  C   UNL     1       2.065  -2.298   0.738  1.00  0.00     0.265 C 
ATOM     21  H   UNL     1       1.179  -2.345   2.582  1.00  0.00     0.348 HD
ATOM     22  C   UNL     1       1.414  -4.888   1.859  1.00  0.00     0.062 C 
ATOM     23  C   UNL     1       3.185  -3.296   1.070  1.00  0.00     0.044 C 
ATOM     24  C   UNL     1       2.677  -4.737   1.018  1.00  0.00     0.015 C 
BRANCH  23  25
ATOM     25  C   UNL     1       4.416  -3.082   0.179  1.00  0.00     0.006 C 
ATOM     26  C   UNL     1       4.234  -3.315  -1.313  1.00  0.00     0.004 C 
ENDBRANCH  23  25
ENDBRANCH  17  18
ENDBRANCH  16  17
ENDBRANCH   8  16
ENDBRANCH   3   6
ENDBRANCH   1   2
BRANCH   1  27
ATOM     27  C   UNL     1       4.661   0.381   2.863  1.00  0.00     0.042 C 
BRANCH  27  28
ATOM     28  C   UNL     1       5.514   0.119   1.629  1.00  0.00     0.118 C 
BRANCH  28  29
ATOM     29  N   UNL     1       6.679   0.977   1.515  1.00  0.00    -0.352 N 
ATOM     30  C   UNL     1       7.986   0.644   1.232  1.00  0.00     0.251 C 
ATOM     31  H   UNL     1       6.511   1.936   1.661  1.00  0.00     0.163 HD
ATOM     32  O   UNL     1       8.853   1.511   1.302  1.00  0.00    -0.269 OA
BRANCH  30  33
ATOM     33  C   UNL     1       8.380  -0.747   0.875  1.00  0.00     0.039 A 
ATOM     34  C   UNL     1       9.572  -1.256   1.399  1.00  0.00     0.014 A 
ATOM     35  C   UNL     1       7.639  -1.537  -0.004  1.00  0.00     0.014 A 
ATOM     36  C   UNL     1       9.989  -2.555   1.081  1.00  0.00     0.010 A 
ATOM     37  C   UNL     1       8.015  -2.864  -0.257  1.00  0.00     0.010 A 
ATOM     38  C   UNL     1       9.201  -3.392   0.271  1.00  0.00    -0.014 A 
BRANCH  38  39
ATOM     39  C   UNL     1       9.630  -4.798  -0.007  1.00  0.00     0.031 A 
ATOM     40  C   UNL     1       9.918  -5.274  -1.410  1.00  0.00     0.074 A 
ATOM     41  C   UNL     1       9.765  -5.670   1.014  1.00  0.00     0.049 A 
ATOM     42  N   UNL     1      10.408  -6.425  -1.810  1.00  0.00    -0.248 NA
ATOM     43  C   UNL     1       9.594  -4.356  -2.511  1.00  0.00     0.031 C 
ATOM     44  C   UNL     1       9.438  -5.388   2.412  1.00  0.00     0.029 A 
ATOM     45  N   UNL     1      10.228  -6.965   1.039  1.00  0.00    -0.354 N 
ATOM     46  C   UNL     1      10.450  -6.364  -3.197  1.00  0.00     0.074 A 
ATOM     47  C   UNL     1       9.871  -5.094  -3.576  1.00  0.00     0.031 C 
ATOM     48  C   UNL     1       9.762  -6.452   3.164  1.00  0.00     0.029 A 
ATOM     49  C   UNL     1      10.294  -7.504   2.303  1.00  0.00     0.049 A 
ATOM     50  H   UNL     1      10.487  -7.460   0.229  1.00  0.00     0.167 HD
ATOM     51  C   UNL     1      10.954  -7.264  -4.078  1.00  0.00     0.037 A 
ATOM     52  C   UNL     1      10.748  -8.700   2.728  1.00  0.00     0.037 A 
ATOM     53  C   UNL     1      11.548  -8.525  -3.710  1.00  0.00     0.049 A 
ATOM     54  C   UNL     1      11.326  -9.674   1.735  1.00  0.00     0.074 A 
ATOM     55  C   UNL     1      12.148  -9.468  -4.529  1.00  0.00     0.029 A 
ATOM     56  N   UNL     1      11.608  -9.025  -2.419  1.00  0.00    -0.354 N 
ATOM     57  N   UNL     1      11.464  -9.552   0.438  1.00  0.00    -0.248 NA
ATOM     58  C   UNL     1      11.830 -10.946   2.273  1.00  0.00     0.031 C 
ATOM     59  C   UNL     1      12.520 -10.563  -3.741  1.00  0.00     0.029 A 
ATOM     60  C   UNL     1      12.213 -10.274  -2.422  1.00  0.00     0.049 A 
ATOM     61  H   UNL     1      11.271  -8.563  -1.617  1.00  0.00     0.167 HD
ATOM     62  C   UNL     1      12.100 -10.711   0.011  1.00  0.00     0.074 A 
ATOM     63  C   UNL     1      12.336 -11.517   1.189  1.00  0.00     0.031 C 
ATOM     64  C   UNL     1      12.457 -11.072  -1.247  1.00  0.00     0.037 A 
BRANCH  51  65
ATOM     65  C   UNL     1      10.903  -6.914  -5.541  1.00  0.00     0.064 A 
ATOM     66  C   UNL     1      11.687  -5.880  -6.077  1.00  0.00     0.173 A 
ATOM     67  C   UNL     1      10.105  -7.655  -6.426  1.00  0.00     0.173 A 
ATOM     68  F   UNL     1      12.465  -5.137  -5.275  1.00  0.00    -0.203 F 
ATOM     69  C   UNL     1      11.649  -5.580  -7.436  1.00  0.00     0.198 A 
ATOM     70  C   UNL     1      10.096  -7.374  -7.791  1.00  0.00     0.198 A 
ATOM     71  F   UNL     1       9.345  -8.662  -5.972  1.00  0.00    -0.203 F 
ATOM     72  F   UNL     1      12.367  -4.555  -7.915  1.00  0.00    -0.200 F 
ATOM     73  C   UNL     1      10.860  -6.332  -8.293  1.00  0.00     0.200 A 
ATOM     74  F   UNL     1       9.347  -8.114  -8.621  1.00  0.00    -0.200 F 
ATOM     75  F   UNL     1      10.832  -6.049  -9.603  1.00  0.00    -0.200 F 
ENDBRANCH  51  65
BRANCH  52  76
ATOM     76  C   UNL     1      10.723  -9.029   4.179  1.00  0.00     0.064 A 
ATOM     77  C   UNL     1      11.911  -9.144   4.915  1.00  0.00     0.173 A 
ATOM     78  C   UNL     1       9.514  -9.248   4.855  1.00  0.00     0.173 A 
ATOM     79  F   UNL     1      13.095  -8.966   4.309  1.00  0.00    -0.203 F 
ATOM     80  C   UNL     1      11.893  -9.490   6.265  1.00  0.00     0.198 A 
ATOM     81  C   UNL     1       9.495  -9.561   6.213  1.00  0.00     0.198 A 
ATOM     82  F   UNL     1       8.349  -9.146   4.199  1.00  0.00    -0.203 F 
ATOM     83  F   UNL     1      13.045  -9.646   6.930  1.00  0.00    -0.200 F 
ATOM     84  C   UNL     1      10.684  -9.692   6.914  1.00  0.00     0.200 A 
ATOM     85  F   UNL     1       8.325  -9.740   6.840  1.00  0.00    -0.200 F 
ATOM     86  F   UNL     1      10.666 -10.021   8.213  1.00  0.00    -0.200 F 
ENDBRANCH  52  76
BRANCH  64  87
ATOM     87  C   UNL     1      13.186 -12.376  -1.415  1.00  0.00     0.064 A 
ATOM     88  C   UNL     1      12.556 -13.613  -1.209  1.00  0.00     0.173 A 
ATOM     89  C   UNL     1      14.534 -12.387  -1.810  1.00  0.00     0.173 A 
ATOM     90  F   UNL     1      11.273 -13.660  -0.819  1.00  0.00    -0.203 F 
ATOM     91  C   UNL     1      13.257 -14.808  -1.355  1.00  0.00     0.198 A 
ATOM     92  C   UNL     1      15.221 -13.585  -1.989  1.00  0.00     0.198 A 
ATOM     93  F   UNL     1      15.184 -11.235  -2.029  1.00  0.00    -0.203 F 
ATOM     94  F   UNL     1      12.650 -15.974  -1.094  1.00  0.00    -0.200 F 
ATOM     95  C   UNL     1      14.586 -14.793  -1.750  1.00  0.00     0.200 A 
ATOM     96  F   UNL     1      16.500 -13.568  -2.387  1.00  0.00    -0.200 F 
ATOM     97  F   UNL     1      15.257 -15.944  -1.893  1.00  0.00    -0.200 F 
ENDBRANCH  64  87
ENDBRANCH  38  39
ENDBRANCH  30  33
ENDBRANCH  28  29
ENDBRANCH  27  28
ENDBRANCH   1  27
TORSDOF 16
