REMARK SMILES O=C(NCCCNC(=O)c1ccc(-c2c3nc(c(-c4c(F)c(F)c(F)c(F)c4F)c4ccc([nH]4)c(-c4c(F)c(F)c(F)c(F)c4F)c4nc(c(-c5c(F)c(F)c(F)c(F)c5F)c5ccc2[nH]5)C=C4)C=C3)cc1)c1ccc(-c2ccsc2)cc1
REMARK SMILES IDX 5 1 4 2 3 3 1 4 2 5 73 7 74 8 83 9 75 10 82 11 76 12 77 13
REMARK SMILES IDX 78 14 81 15 79 16 80 17 6 18 7 19 8 20 9 22 10 23 11 24
REMARK SMILES IDX 72 25 12 26 71 27 13 28 14 29 15 30 65 31 16 32 70 33 64 34
REMARK SMILES IDX 66 35 17 36 69 37 63 38 62 39 18 41 50 42 30 43 49 44 31 45
REMARK SMILES IDX 34 46 48 47 67 48 32 49 33 50 47 52 68 53 35 54 19 55 20 56
REMARK SMILES IDX 28 57 21 58 22 59 26 60 29 61 23 62 24 63 27 64 25 65 51 66
REMARK SMILES IDX 52 67 60 68 53 69 54 70 58 71 61 72 55 73 56 74 59 75 57 76
REMARK SMILES IDX 36 77 37 78 45 79 38 80 39 81 43 82 46 83 40 84 41 85 44 86
REMARK SMILES IDX 42 87
REMARK H PARENT 3 6 7 21 66 40 34 51
REMARK Flexibility Score: inf
ROOT
ATOM      1  C   UNL     1       5.074  -0.017   2.110  1.00  0.00     0.042 C 
ENDROOT
BRANCH   1   2
ATOM      2  C   UNL     1       4.634  -0.746   0.847  1.00  0.00     0.118 C 
BRANCH   2   3
ATOM      3  N   UNL     1       3.189  -0.737   0.676  1.00  0.00    -0.352 N 
ATOM      4  O   UNL     1       1.199   0.006  -0.070  1.00  0.00    -0.269 OA
ATOM      5  C   UNL     1       2.419  -0.037  -0.215  1.00  0.00     0.251 C 
ATOM      6  H   UNL     1       2.690  -1.321   1.293  1.00  0.00     0.163 HD
BRANCH   5   7
ATOM      7  C   UNL     1       3.048   0.681  -1.341  1.00  0.00     0.039 A 
ATOM      8  C   UNL     1       3.963   0.038  -2.182  1.00  0.00     0.014 A 
ATOM      9  C   UNL     1       2.682   2.008  -1.585  1.00  0.00     0.014 A 
ATOM     10  C   UNL     1       4.574   0.748  -3.216  1.00  0.00     0.009 A 
ATOM     11  C   UNL     1       3.284   2.712  -2.631  1.00  0.00     0.009 A 
ATOM     12  C   UNL     1       4.240   2.089  -3.445  1.00  0.00    -0.018 A 
BRANCH  12  13
ATOM     13  C   UNL     1       4.884   2.834  -4.517  1.00  0.00    -0.008 A 
ATOM     14  C   UNL     1       5.513   4.116  -4.423  1.00  0.00     0.020 A 
ATOM     15  C   UNL     1       4.943   2.342  -5.807  1.00  0.00     0.073 A 
ATOM     16  C   UNL     1       6.030   4.538  -5.629  1.00  0.00     0.065 A 
ATOM     17  S   UNL     1       5.753   3.404  -6.878  1.00  0.00    -0.152 S 
ENDBRANCH  12  13
ENDBRANCH   5   7
ENDBRANCH   2   3
ENDBRANCH   1   2
BRANCH   1  18
ATOM     18  C   UNL     1       4.562  -0.631   3.406  1.00  0.00     0.118 C 
BRANCH  18  19
ATOM     19  N   UNL     1       4.996  -2.008   3.592  1.00  0.00    -0.352 N 
ATOM     20  C   UNL     1       5.719  -2.597   4.597  1.00  0.00     0.251 C 
ATOM     21  H   UNL     1       4.724  -2.622   2.872  1.00  0.00     0.163 HD
ATOM     22  O   UNL     1       6.111  -3.753   4.450  1.00  0.00    -0.269 OA
BRANCH  20  23
ATOM     23  C   UNL     1       6.048  -1.870   5.844  1.00  0.00     0.039 A 
ATOM     24  C   UNL     1       7.278  -2.128   6.459  1.00  0.00     0.014 A 
ATOM     25  C   UNL     1       5.147  -0.991   6.450  1.00  0.00     0.014 A 
ATOM     26  C   UNL     1       7.615  -1.480   7.649  1.00  0.00     0.010 A 
ATOM     27  C   UNL     1       5.522  -0.274   7.584  1.00  0.00     0.010 A 
ATOM     28  C   UNL     1       6.750  -0.528   8.210  1.00  0.00    -0.014 A 
BRANCH  28  29
ATOM     29  C   UNL     1       7.106   0.176   9.470  1.00  0.00     0.031 A 
ATOM     30  C   UNL     1       6.271  -0.011  10.708  1.00  0.00     0.074 A 
ATOM     31  C   UNL     1       8.160   1.014   9.491  1.00  0.00     0.049 A 
ATOM     32  N   UNL     1       6.417   0.522  11.896  1.00  0.00    -0.248 NA
ATOM     33  C   UNL     1       5.098  -0.891  10.590  1.00  0.00     0.031 C 
ATOM     34  C   UNL     1       9.011   1.331   8.343  1.00  0.00     0.029 A 
ATOM     35  N   UNL     1       8.694   1.756  10.515  1.00  0.00    -0.354 N 
ATOM     36  C   UNL     1       5.350   0.057  12.654  1.00  0.00     0.074 A 
ATOM     37  C   UNL     1       4.531  -0.752  11.779  1.00  0.00     0.031 C 
ATOM     38  C   UNL     1       9.978   2.176   8.733  1.00  0.00     0.029 A 
ATOM     39  C   UNL     1       9.799   2.484  10.148  1.00  0.00     0.049 A 
ATOM     40  H   UNL     1       8.320   1.764  11.426  1.00  0.00     0.167 HD
ATOM     41  C   UNL     1       5.090   0.262  13.968  1.00  0.00     0.037 A 
ATOM     42  C   UNL     1      10.582   3.304  10.874  1.00  0.00     0.037 A 
ATOM     43  C   UNL     1       5.923   1.042  14.845  1.00  0.00     0.049 A 
ATOM     44  C   UNL     1      10.292   3.490  12.339  1.00  0.00     0.074 A 
ATOM     45  C   UNL     1       5.785   1.257  16.205  1.00  0.00     0.029 A 
ATOM     46  N   UNL     1       7.054   1.739  14.444  1.00  0.00    -0.354 N 
ATOM     47  N   UNL     1       9.326   2.980  13.064  1.00  0.00    -0.248 NA
ATOM     48  C   UNL     1      11.213   4.354  13.089  1.00  0.00     0.031 C 
ATOM     49  C   UNL     1       6.805   2.121  16.619  1.00  0.00     0.029 A 
ATOM     50  C   UNL     1       7.613   2.399  15.528  1.00  0.00     0.049 A 
ATOM     51  H   UNL     1       7.408   1.761  13.526  1.00  0.00     0.167 HD
ATOM     52  C   UNL     1       9.539   3.435  14.358  1.00  0.00     0.074 A 
ATOM     53  C   UNL     1      10.738   4.247  14.321  1.00  0.00     0.031 C 
ATOM     54  C   UNL     1       8.808   3.202  15.476  1.00  0.00     0.037 A 
BRANCH  41  55
ATOM     55  C   UNL     1       3.852  -0.373  14.537  1.00  0.00     0.064 A 
ATOM     56  C   UNL     1       3.737  -1.764  14.686  1.00  0.00     0.173 A 
ATOM     57  C   UNL     1       2.776   0.421  14.961  1.00  0.00     0.173 A 
ATOM     58  F   UNL     1       4.732  -2.570  14.286  1.00  0.00    -0.203 F 
ATOM     59  C   UNL     1       2.579  -2.338  15.203  1.00  0.00     0.198 A 
ATOM     60  C   UNL     1       1.632  -0.155  15.509  1.00  0.00     0.198 A 
ATOM     61  F   UNL     1       2.833   1.756  14.848  1.00  0.00    -0.203 F 
ATOM     62  F   UNL     1       2.471  -3.671  15.281  1.00  0.00    -0.200 F 
ATOM     63  C   UNL     1       1.530  -1.533  15.620  1.00  0.00     0.200 A 
ATOM     64  F   UNL     1       0.624   0.625  15.925  1.00  0.00    -0.200 F 
ATOM     65  F   UNL     1       0.417  -2.086  16.122  1.00  0.00    -0.200 F 
ENDBRANCH  41  55
BRANCH  42  66
ATOM     66  C   UNL     1      11.743   3.975  10.234  1.00  0.00     0.064 A 
ATOM     67  C   UNL     1      13.057   3.602  10.553  1.00  0.00     0.173 A 
ATOM     68  C   UNL     1      11.566   4.999   9.293  1.00  0.00     0.173 A 
ATOM     69  F   UNL     1      13.278   2.641  11.462  1.00  0.00    -0.203 F 
ATOM     70  C   UNL     1      14.148   4.243   9.970  1.00  0.00     0.198 A 
ATOM     71  C   UNL     1      12.658   5.619   8.689  1.00  0.00     0.198 A 
ATOM     72  F   UNL     1      10.329   5.387   8.948  1.00  0.00    -0.203 F 
ATOM     73  F   UNL     1      15.393   3.898  10.328  1.00  0.00    -0.200 F 
ATOM     74  C   UNL     1      13.948   5.246   9.035  1.00  0.00     0.200 A 
ATOM     75  F   UNL     1      12.460   6.577   7.773  1.00  0.00    -0.200 F 
ATOM     76  F   UNL     1      14.998   5.858   8.471  1.00  0.00    -0.200 F 
ENDBRANCH  42  66
BRANCH  54  77
ATOM     77  C   UNL     1       9.309   3.802  16.759  1.00  0.00     0.064 A 
ATOM     78  C   UNL     1       9.266   5.185  16.994  1.00  0.00     0.173 A 
ATOM     79  C   UNL     1       9.825   2.980  17.772  1.00  0.00     0.173 A 
ATOM     80  F   UNL     1       8.795   6.016  16.052  1.00  0.00    -0.203 F 
ATOM     81  C   UNL     1       9.758   5.724  18.180  1.00  0.00     0.198 A 
ATOM     82  C   UNL     1      10.284   3.520  18.970  1.00  0.00     0.198 A 
ATOM     83  F   UNL     1       9.881   1.651  17.602  1.00  0.00    -0.203 F 
ATOM     84  F   UNL     1       9.764   7.053  18.357  1.00  0.00    -0.200 F 
ATOM     85  C   UNL     1      10.261   4.892  19.169  1.00  0.00     0.200 A 
ATOM     86  F   UNL     1      10.757   2.713  19.930  1.00  0.00    -0.200 F 
ATOM     87  F   UNL     1      10.734   5.414  20.309  1.00  0.00    -0.200 F 
ENDBRANCH  54  77
ENDBRANCH  28  29
ENDBRANCH  20  23
ENDBRANCH  18  19
ENDBRANCH   1  18
TORSDOF 11
