REMARK SMILES [NH3+][C@H](C(=O)NCCCNC(=O)c1ccc(-c2c3nc(c(-c4c(F)c(F)c(F)c(F)c4F)c4ccc([nH]4)c(-c4c(F)c(F)c(F)c(F)c4F)c4nc(c(-c5c(F)c(F)c(F)c(F)c5F)c5ccc2[nH]5)C=C4)C=C3)cc1)c1cc2[nH]ccc2cc1O
REMARK SMILES IDX 7 1 6 2 5 3 3 4 4 5 2 7 1 8 75 12 76 13 83 14 77 15 82 16
REMARK SMILES IDX 78 17 81 18 79 19 80 21 84 22 8 24 9 25 10 26 11 28 12 29
REMARK SMILES IDX 13 30 74 31 14 32 73 33 15 34 16 35 17 36 67 37 18 38 72 39
REMARK SMILES IDX 66 40 68 41 19 42 71 43 65 44 64 45 20 47 52 48 32 49 51 50
REMARK SMILES IDX 33 51 36 52 50 53 69 54 34 55 35 56 49 58 70 59 37 60 21 61
REMARK SMILES IDX 22 62 30 63 23 64 24 65 28 66 31 67 25 68 26 69 29 70 27 71
REMARK SMILES IDX 53 72 54 73 62 74 55 75 56 76 60 77 63 78 57 79 58 80 61 81
REMARK SMILES IDX 59 82 38 83 39 84 47 85 40 86 41 87 45 88 48 89 42 90 43 91
REMARK SMILES IDX 46 92 44 93
REMARK H PARENT 5 6 1 9 1 10 1 11 78 20 84 23 9 27 68 46 36 57
REMARK Flexibility Score: inf
ROOT
ATOM      1  C   UNL     1      -0.491   2.459   1.600  1.00  0.00     0.042 C 
ENDROOT
BRANCH   1   2
ATOM      2  C   UNL     1       0.887   2.179   1.000  1.00  0.00     0.118 C 
BRANCH   2   3
ATOM      3  N   UNL     1       1.239   0.770   1.058  1.00  0.00    -0.351 N 
ATOM      4  C   UNL     1       1.090  -0.188   0.091  1.00  0.00     0.283 C 
ATOM      5  O   UNL     1       1.305  -1.369   0.384  1.00  0.00    -0.268 OA
ATOM      6  H   UNL     1       1.637   0.463   1.905  1.00  0.00     0.163 HD
BRANCH   4   7
ATOM      7  C   UNL     1       0.626   0.208  -1.334  1.00  0.00     0.306 C 
BRANCH   7   8
ATOM      8  N   UNL     1       1.250  -0.674  -2.341  1.00  0.00    -0.343 N 
ATOM      9  H   UNL     1       0.936  -0.402  -3.273  1.00  0.00     0.345 HD
ATOM     10  H   UNL     1       0.980  -1.641  -2.161  1.00  0.00     0.345 HD
ATOM     11  H   UNL     1       2.265  -0.589  -2.286  1.00  0.00     0.345 HD
ENDBRANCH   7   8
BRANCH   7  12
ATOM     12  C   UNL     1      -0.889   0.201  -1.405  1.00  0.00     0.063 A 
ATOM     13  C   UNL     1      -1.546   1.447  -1.494  1.00  0.00     0.041 A 
ATOM     14  C   UNL     1      -1.666  -0.964  -1.314  1.00  0.00     0.126 A 
ATOM     15  C   UNL     1      -2.943   1.478  -1.442  1.00  0.00     0.046 A 
ATOM     16  C   UNL     1      -3.065  -0.925  -1.374  1.00  0.00     0.057 A 
ATOM     17  N   UNL     1      -3.805   2.550  -1.401  1.00  0.00    -0.361 N 
ATOM     18  C   UNL     1      -3.717   0.321  -1.411  1.00  0.00     0.003 A 
ATOM     19  C   UNL     1      -5.101   2.110  -1.385  1.00  0.00     0.083 A 
ATOM     20  H   UNL     1      -3.530   3.495  -1.385  1.00  0.00     0.166 HD
ATOM     21  C   UNL     1      -5.079   0.734  -1.416  1.00  0.00     0.028 A 
BRANCH  14  22
ATOM     22  O   UNL     1      -1.115  -2.207  -1.139  1.00  0.00    -0.507 OA
ATOM     23  H   UNL     1      -0.185  -2.305  -1.090  1.00  0.00     0.293 HD
ENDBRANCH  14  22
ENDBRANCH   7  12
ENDBRANCH   4   7
ENDBRANCH   2   3
ENDBRANCH   1   2
BRANCH   1  24
ATOM     24  C   UNL     1      -0.517   2.502   3.125  1.00  0.00     0.118 C 
BRANCH  24  25
ATOM     25  N   UNL     1       0.251   3.615   3.659  1.00  0.00    -0.352 N 
ATOM     26  C   UNL     1      -0.075   4.592   4.562  1.00  0.00     0.251 C 
ATOM     27  H   UNL     1       1.169   3.677   3.309  1.00  0.00     0.163 HD
ATOM     28  O   UNL     1       0.706   5.529   4.713  1.00  0.00    -0.269 OA
BRANCH  26  29
ATOM     29  C   UNL     1      -1.334   4.564   5.346  1.00  0.00     0.039 A 
ATOM     30  C   UNL     1      -1.911   5.791   5.693  1.00  0.00     0.014 A 
ATOM     31  C   UNL     1      -1.913   3.380   5.812  1.00  0.00     0.014 A 
ATOM     32  C   UNL     1      -3.072   5.830   6.468  1.00  0.00     0.010 A 
ATOM     33  C   UNL     1      -3.115   3.416   6.523  1.00  0.00     0.010 A 
ATOM     34  C   UNL     1      -3.701   4.641   6.869  1.00  0.00    -0.014 A 
BRANCH  34  35
ATOM     35  C   UNL     1      -4.971   4.691   7.641  1.00  0.00     0.031 A 
ATOM     36  C   UNL     1      -5.033   4.202   9.061  1.00  0.00     0.074 A 
ATOM     37  C   UNL     1      -6.080   5.173   7.048  1.00  0.00     0.049 A 
ATOM     38  N   UNL     1      -6.044   4.210   9.895  1.00  0.00    -0.248 NA
ATOM     39  C   UNL     1      -3.808   3.607   9.614  1.00  0.00     0.031 C 
ATOM     40  C   UNL     1      -6.164   5.624   5.658  1.00  0.00     0.029 A 
ATOM     41  N   UNL     1      -7.347   5.370   7.538  1.00  0.00    -0.354 N 
ATOM     42  C   UNL     1      -5.579   3.621  11.063  1.00  0.00     0.074 A 
ATOM     43  C   UNL     1      -4.212   3.216  10.815  1.00  0.00     0.031 C 
ATOM     44  C   UNL     1      -7.404   6.079   5.418  1.00  0.00     0.029 A 
ATOM     45  C   UNL     1      -8.210   5.925   6.625  1.00  0.00     0.049 A 
ATOM     46  H   UNL     1      -7.612   5.135   8.457  1.00  0.00     0.167 HD
ATOM     47  C   UNL     1      -6.225   3.454  12.244  1.00  0.00     0.037 A 
ATOM     48  C   UNL     1      -9.503   6.278   6.749  1.00  0.00     0.037 A 
ATOM     49  C   UNL     1      -7.580   3.872  12.495  1.00  0.00     0.049 A 
ATOM     50  C   UNL     1     -10.191   6.095   8.073  1.00  0.00     0.074 A 
ATOM     51  C   UNL     1      -8.303   3.800  13.674  1.00  0.00     0.029 A 
ATOM     52  N   UNL     1      -8.421   4.437  11.547  1.00  0.00    -0.354 N 
ATOM     53  N   UNL     1      -9.715   5.610   9.194  1.00  0.00    -0.248 NA
ATOM     54  C   UNL     1     -11.595   6.520   8.151  1.00  0.00     0.031 C 
ATOM     55  C   UNL     1      -9.595   4.279  13.428  1.00  0.00     0.029 A 
ATOM     56  C   UNL     1      -9.662   4.697  12.109  1.00  0.00     0.049 A 
ATOM     57  H   UNL     1      -8.174   4.625  10.613  1.00  0.00     0.167 HD
ATOM     58  C   UNL     1     -10.751   5.690  10.114  1.00  0.00     0.074 A 
ATOM     59  C   UNL     1     -11.873   6.295   9.427  1.00  0.00     0.031 C 
ATOM     60  C   UNL     1     -10.773   5.293  11.411  1.00  0.00     0.037 A 
BRANCH  47  61
ATOM     61  C   UNL     1      -5.469   2.795  13.362  1.00  0.00     0.064 A 
ATOM     62  C   UNL     1      -4.406   3.441  14.012  1.00  0.00     0.173 A 
ATOM     63  C   UNL     1      -5.836   1.520  13.819  1.00  0.00     0.173 A 
ATOM     64  F   UNL     1      -4.007   4.657  13.608  1.00  0.00    -0.203 F 
ATOM     65  C   UNL     1      -3.722   2.825  15.057  1.00  0.00     0.198 A 
ATOM     66  C   UNL     1      -5.169   0.919  14.884  1.00  0.00     0.198 A 
ATOM     67  F   UNL     1      -6.850   0.860  13.239  1.00  0.00    -0.203 F 
ATOM     68  F   UNL     1      -2.680   3.444  15.630  1.00  0.00    -0.200 F 
ATOM     69  C   UNL     1      -4.109   1.569  15.497  1.00  0.00     0.200 A 
ATOM     70  F   UNL     1      -5.553  -0.290  15.317  1.00  0.00    -0.200 F 
ATOM     71  F   UNL     1      -3.454   0.981  16.508  1.00  0.00    -0.200 F 
ENDBRANCH  47  61
BRANCH  48  72
ATOM     72  C   UNL     1     -10.220   6.877   5.594  1.00  0.00     0.064 A 
ATOM     73  C   UNL     1     -10.594   8.228   5.600  1.00  0.00     0.173 A 
ATOM     74  C   UNL     1     -10.543   6.115   4.462  1.00  0.00     0.173 A 
ATOM     75  F   UNL     1     -10.323   8.992   6.669  1.00  0.00    -0.203 F 
ATOM     76  C   UNL     1     -11.283   8.789   4.527  1.00  0.00     0.198 A 
ATOM     77  C   UNL     1     -11.206   6.684   3.377  1.00  0.00     0.198 A 
ATOM     78  F   UNL     1     -10.200   4.820   4.404  1.00  0.00    -0.203 F 
ATOM     79  F   UNL     1     -11.669  10.071   4.579  1.00  0.00    -0.200 F 
ATOM     80  C   UNL     1     -11.583   8.018   3.414  1.00  0.00     0.200 A 
ATOM     81  F   UNL     1     -11.480   5.941   2.297  1.00  0.00    -0.200 F 
ATOM     82  F   UNL     1     -12.241   8.560   2.380  1.00  0.00    -0.200 F 
ENDBRANCH  48  72
BRANCH  60  83
ATOM     83  C   UNL     1     -12.049   5.518  12.170  1.00  0.00     0.064 A 
ATOM     84  C   UNL     1     -13.206   4.771  11.900  1.00  0.00     0.173 A 
ATOM     85  C   UNL     1     -12.114   6.487  13.183  1.00  0.00     0.173 A 
ATOM     86  F   UNL     1     -13.200   3.844  10.931  1.00  0.00    -0.203 F 
ATOM     87  C   UNL     1     -14.390   5.011  12.591  1.00  0.00     0.198 A 
ATOM     88  C   UNL     1     -13.291   6.702  13.893  1.00  0.00     0.198 A 
ATOM     89  F   UNL     1     -11.035   7.224  13.485  1.00  0.00    -0.203 F 
ATOM     90  F   UNL     1     -15.498   4.327  12.275  1.00  0.00    -0.200 F 
ATOM     91  C   UNL     1     -14.431   5.972  13.590  1.00  0.00     0.200 A 
ATOM     92  F   UNL     1     -13.326   7.623  14.866  1.00  0.00    -0.200 F 
ATOM     93  F   UNL     1     -15.572   6.204  14.253  1.00  0.00    -0.200 F 
ENDBRANCH  60  83
ENDBRANCH  34  35
ENDBRANCH  26  29
ENDBRANCH  24  25
ENDBRANCH   1  24
TORSDOF 13
