REMARK SMILES CC(=O)Oc1ccccc1SCCCCCC(=O)NCCCNC(=O)c1ccc(-c2c3nc(c(-c4c(F)c(F)c(F)c(F)c4F)c4ccc([nH]4)c(-c4c(F)c(F)c(F)c(F)c4F)c4nc(c(-c5c(F)c(F)c(F)c(F)c5F)c5ccc2[nH]5)C=C4)C=C3)cc1
REMARK SMILES IDX 16 1 15 2 14 3 13 4 12 5 11 6 10 7 5 8 6 9 7 10 9 11 8 12
REMARK SMILES IDX 4 13 2 14 1 15 3 16 17 17 18 18 19 19 20 21 21 22 22 23
REMARK SMILES IDX 23 24 24 25 25 27 26 28 27 29 88 30 28 31 87 32 29 33 30 34
REMARK SMILES IDX 31 35 81 36 32 37 86 38 80 39 82 40 33 41 85 42 79 43 78 44
REMARK SMILES IDX 34 46 66 47 46 48 65 49 47 50 50 51 64 52 83 53 48 54 49 55
REMARK SMILES IDX 63 57 84 58 51 59 35 60 36 61 44 62 37 63 38 64 42 65 45 66
REMARK SMILES IDX 39 67 40 68 43 69 41 70 67 71 68 72 76 73 69 74 70 75 74 76
REMARK SMILES IDX 77 77 71 78 72 79 75 80 73 81 52 82 53 83 61 84 54 85 55 86
REMARK SMILES IDX 59 87 62 88 56 89 57 90 60 91 58 92
REMARK H PARENT 19 20 23 26 82 45 50 56
REMARK Flexibility Score: inf
ROOT
ATOM      1  C   UNL     1       2.915   0.833   0.519  1.00  0.00     0.100 C 
ENDROOT
BRANCH   1   2
ATOM      2  C   UNL     1       2.134   1.705   1.503  1.00  0.00     0.010 C 
BRANCH   2   3
ATOM      3  C   UNL     1       0.987   2.603   0.992  1.00  0.00     0.001 C 
BRANCH   3   4
ATOM      4  C   UNL     1       0.004   2.048  -0.041  1.00  0.00     0.011 C 
BRANCH   4   5
ATOM      5  C   UNL     1      -1.486   1.803   0.248  1.00  0.00     0.075 C 
BRANCH   5   6
ATOM      6  S   UNL     1      -2.545   2.689   1.435  1.00  0.00    -0.122 SA
BRANCH   6   7
ATOM      7  C   UNL     1      -1.668   2.813   2.978  1.00  0.00     0.050 A 
ATOM      8  C   UNL     1      -0.795   1.908   3.594  1.00  0.00     0.144 A 
ATOM      9  C   UNL     1       0.033   2.322   4.653  1.00  0.00     0.048 A 
ATOM     10  C   UNL     1      -0.041   3.623   5.147  1.00  0.00     0.004 A 
ATOM     11  C   UNL     1      -1.789   4.093   3.560  1.00  0.00     0.019 A 
ATOM     12  C   UNL     1      -0.975   4.503   4.619  1.00  0.00     0.001 A 
BRANCH   8  13
ATOM     13  O   UNL     1      -0.407   0.650   3.061  1.00  0.00    -0.426 OA
BRANCH  13  14
ATOM     14  C   UNL     1      -1.197  -0.380   2.565  1.00  0.00     0.308 C 
ATOM     15  C   UNL     1      -0.287  -1.365   1.882  1.00  0.00     0.139 C 
ATOM     16  O   UNL     1      -2.417  -0.473   2.647  1.00  0.00    -0.252 OA
ENDBRANCH  13  14
ENDBRANCH   8  13
ENDBRANCH   6   7
ENDBRANCH   5   6
ENDBRANCH   4   5
ENDBRANCH   3   4
ENDBRANCH   2   3
ENDBRANCH   1   2
BRANCH   1  17
ATOM     17  C   UNL     1       4.210   1.448   0.034  1.00  0.00     0.219 C 
ATOM     18  O   UNL     1       5.260   1.314   0.663  1.00  0.00    -0.275 OA
ATOM     19  N   UNL     1       4.233   2.148  -1.133  1.00  0.00    -0.356 N 
ATOM     20  H   UNL     1       5.126   2.371  -1.483  1.00  0.00     0.163 HD
BRANCH  19  21
ATOM     21  C   UNL     1       3.113   2.609  -1.927  1.00  0.00     0.117 C 
BRANCH  21  22
ATOM     22  C   UNL     1       2.725   4.015  -1.505  1.00  0.00     0.042 C 
BRANCH  22  23
ATOM     23  C   UNL     1       3.562   5.102  -2.135  1.00  0.00     0.118 C 
BRANCH  23  24
ATOM     24  N   UNL     1       3.181   5.354  -3.510  1.00  0.00    -0.352 N 
ATOM     25  C   UNL     1       2.583   6.452  -4.077  1.00  0.00     0.251 C 
ATOM     26  H   UNL     1       3.382   4.622  -4.137  1.00  0.00     0.163 HD
ATOM     27  O   UNL     1       2.142   6.365  -5.220  1.00  0.00    -0.269 OA
BRANCH  25  28
ATOM     28  C   UNL     1       2.449   7.729  -3.332  1.00  0.00     0.039 A 
ATOM     29  C   UNL     1       1.360   8.559  -3.613  1.00  0.00     0.014 A 
ATOM     30  C   UNL     1       3.404   8.147  -2.403  1.00  0.00     0.014 A 
ATOM     31  C   UNL     1       1.224   9.782  -2.950  1.00  0.00     0.010 A 
ATOM     32  C   UNL     1       3.192   9.290  -1.641  1.00  0.00     0.010 A 
ATOM     33  C   UNL     1       2.129  10.149  -1.943  1.00  0.00    -0.014 A 
BRANCH  33  34
ATOM     34  C   UNL     1       2.044  11.464  -1.257  1.00  0.00     0.031 A 
ATOM     35  C   UNL     1       3.197  12.431  -1.356  1.00  0.00     0.074 A 
ATOM     36  C   UNL     1       0.963  11.769  -0.514  1.00  0.00     0.049 A 
ATOM     37  N   UNL     1       3.357  13.596  -0.779  1.00  0.00    -0.248 NA
ATOM     38  C   UNL     1       4.345  12.018  -2.182  1.00  0.00     0.031 C 
ATOM     39  C   UNL     1      -0.190  10.895  -0.298  1.00  0.00     0.029 A 
ATOM     40  N   UNL     1       0.661  12.900   0.200  1.00  0.00    -0.354 N 
ATOM     41  C   UNL     1       4.624  14.030  -1.149  1.00  0.00     0.074 A 
ATOM     42  C   UNL     1       5.221  12.979  -1.938  1.00  0.00     0.031 C 
ATOM     43  C   UNL     1      -1.090  11.535   0.465  1.00  0.00     0.029 A 
ATOM     44  C   UNL     1      -0.561  12.847   0.825  1.00  0.00     0.049 A 
ATOM     45  H   UNL     1       1.263  13.677   0.260  1.00  0.00     0.167 HD
ATOM     46  C   UNL     1       5.224  15.215  -0.886  1.00  0.00     0.037 A 
ATOM     47  C   UNL     1      -1.181  13.756   1.601  1.00  0.00     0.037 A 
ATOM     48  C   UNL     1       4.603  16.279  -0.144  1.00  0.00     0.049 A 
ATOM     49  C   UNL     1      -0.503  15.075   1.861  1.00  0.00     0.074 A 
ATOM     50  C   UNL     1       5.091  17.545   0.122  1.00  0.00     0.029 A 
ATOM     51  N   UNL     1       3.349  16.198   0.444  1.00  0.00    -0.354 N 
ATOM     52  N   UNL     1       0.667  15.501   1.448  1.00  0.00    -0.248 NA
ATOM     53  C   UNL     1      -1.237  16.044   2.685  1.00  0.00     0.031 C 
ATOM     54  C   UNL     1       4.152  18.215   0.912  1.00  0.00     0.029 A 
ATOM     55  C   UNL     1       3.054  17.387   1.090  1.00  0.00     0.049 A 
ATOM     56  H   UNL     1       2.757  15.412   0.409  1.00  0.00     0.167 HD
ATOM     57  C   UNL     1       0.796  16.795   1.934  1.00  0.00     0.074 A 
ATOM     58  C   UNL     1      -0.422  17.090   2.660  1.00  0.00     0.031 C 
ATOM     59  C   UNL     1       1.828  17.662   1.793  1.00  0.00     0.037 A 
BRANCH  46  60
ATOM     60  C   UNL     1       6.614  15.427  -1.415  1.00  0.00     0.064 A 
ATOM     61  C   UNL     1       6.872  15.547  -2.790  1.00  0.00     0.173 A 
ATOM     62  C   UNL     1       7.701  15.539  -0.535  1.00  0.00     0.173 A 
ATOM     63  F   UNL     1       5.872  15.433  -3.677  1.00  0.00    -0.203 F 
ATOM     64  C   UNL     1       8.168  15.736  -3.264  1.00  0.00     0.198 A 
ATOM     65  C   UNL     1       8.991  15.764  -1.010  1.00  0.00     0.198 A 
ATOM     66  F   UNL     1       7.513  15.436   0.790  1.00  0.00    -0.203 F 
ATOM     67  F   UNL     1       8.395  15.789  -4.584  1.00  0.00    -0.200 F 
ATOM     68  C   UNL     1       9.225  15.853  -2.374  1.00  0.00     0.200 A 
ATOM     69  F   UNL     1      10.009  15.890  -0.148  1.00  0.00    -0.200 F 
ATOM     70  F   UNL     1      10.470  16.043  -2.832  1.00  0.00    -0.200 F 
ENDBRANCH  46  60
BRANCH  47  71
ATOM     71  C   UNL     1      -2.529  13.464   2.156  1.00  0.00     0.064 A 
ATOM     72  C   UNL     1      -3.659  14.159   1.703  1.00  0.00     0.173 A 
ATOM     73  C   UNL     1      -2.716  12.489   3.146  1.00  0.00     0.173 A 
ATOM     74  F   UNL     1      -3.529  15.114   0.770  1.00  0.00    -0.203 F 
ATOM     75  C   UNL     1      -4.922  13.907   2.237  1.00  0.00     0.198 A 
ATOM     76  C   UNL     1      -3.984  12.216   3.657  1.00  0.00     0.198 A 
ATOM     77  F   UNL     1      -1.669  11.790   3.608  1.00  0.00    -0.203 F 
ATOM     78  F   UNL     1      -5.977  14.620   1.820  1.00  0.00    -0.200 F 
ATOM     79  C   UNL     1      -5.084  12.932   3.209  1.00  0.00     0.200 A 
ATOM     80  F   UNL     1      -4.138  11.262   4.584  1.00  0.00    -0.200 F 
ATOM     81  F   UNL     1      -6.298  12.687   3.719  1.00  0.00    -0.200 F 
ENDBRANCH  47  71
BRANCH  59  82
ATOM     82  C   UNL     1       1.668  19.027   2.397  1.00  0.00     0.064 A 
ATOM     83  C   UNL     1       1.699  19.228   3.784  1.00  0.00     0.173 A 
ATOM     84  C   UNL     1       1.529  20.153   1.571  1.00  0.00     0.173 A 
ATOM     85  F   UNL     1       1.818  18.182   4.616  1.00  0.00    -0.203 F 
ATOM     86  C   UNL     1       1.569  20.505   4.324  1.00  0.00     0.198 A 
ATOM     87  C   UNL     1       1.433  21.431   2.113  1.00  0.00     0.198 A 
ATOM     88  F   UNL     1       1.503  20.014   0.237  1.00  0.00    -0.203 F 
ATOM     89  F   UNL     1       1.552  20.669   5.654  1.00  0.00    -0.200 F 
ATOM     90  C   UNL     1       1.445  21.605   3.488  1.00  0.00     0.200 A 
ATOM     91  F   UNL     1       1.329  22.494   1.303  1.00  0.00    -0.200 F 
ATOM     92  F   UNL     1       1.330  22.834   4.010  1.00  0.00    -0.200 F 
ENDBRANCH  59  82
ENDBRANCH  33  34
ENDBRANCH  25  28
ENDBRANCH  23  24
ENDBRANCH  22  23
ENDBRANCH  21  22
ENDBRANCH  19  21
ENDBRANCH   1  17
TORSDOF 18
