REMARK SMILES COc1ccc(OCCNc2c(Cl)cccc2C(=O)NCCCNC(=O)c2ccc(-c3c4nc(c(-c5c(F)c(F)c(F)c(F)c5F)c5ccc([nH]5)c(-c5c(F)c(F)c(F)c(F)c5F)c5nc(c(-c6c(F)c(F)c(F)c(F)c6F)c6ccc3[nH]6)C=C5)C=C4)cc2)cc1
REMARK SMILES IDX 18 1 19 2 20 3 17 5 11 6 12 7 13 8 14 9 16 10 15 11 10 12
REMARK SMILES IDX 9 14 8 15 7 16 6 17 3 18 4 19 91 20 5 21 90 22 2 23 1 24
REMARK SMILES IDX 21 25 22 26 23 27 24 28 25 29 26 31 27 32 28 33 89 34 29 35
REMARK SMILES IDX 88 36 30 37 31 38 32 39 82 40 33 41 87 42 81 43 83 44 34 45
REMARK SMILES IDX 86 46 80 47 79 48 35 50 67 51 47 52 66 53 48 54 51 55 65 56
REMARK SMILES IDX 84 57 49 58 50 59 64 61 85 62 52 63 36 64 37 65 45 66 38 67
REMARK SMILES IDX 39 68 43 69 46 70 40 71 41 72 44 73 42 74 68 75 69 76 77 77
REMARK SMILES IDX 70 78 71 79 75 80 78 81 72 82 73 83 76 84 74 85 53 86 54 87
REMARK SMILES IDX 62 88 55 89 56 90 60 91 63 92 57 93 58 94 61 95 59 96
REMARK H PARENT 20 4 10 13 24 30 83 49 51 60
REMARK Flexibility Score: inf
ROOT
ATOM      1  C   UNL     1       5.140   5.972   2.248  1.00  0.00     0.253 C 
ATOM      2  O   UNL     1       5.952   6.734   2.773  1.00  0.00    -0.269 OA
ATOM      3  N   UNL     1       3.814   6.314   2.291  1.00  0.00    -0.352 N 
ATOM      4  H   UNL     1       3.608   7.127   2.808  1.00  0.00     0.163 HD
ENDROOT
BRANCH   1   5
ATOM      5  C   UNL     1       5.625   4.682   1.704  1.00  0.00     0.064 A 
ATOM      6  C   UNL     1       5.414   4.194   0.401  1.00  0.00     0.066 A 
ATOM      7  C   UNL     1       5.971   2.922   0.102  1.00  0.00     0.065 A 
ATOM      8  Cl  UNL     1       5.733   2.188  -1.456  1.00  0.00    -0.082 Cl
ATOM      9  C   UNL     1       6.731   2.195   1.023  1.00  0.00     0.023 A 
ATOM     10  C   UNL     1       6.404   3.945   2.626  1.00  0.00     0.016 A 
ATOM     11  C   UNL     1       6.949   2.708   2.292  1.00  0.00     0.003 A 
BRANCH   6  12
ATOM     12  N   UNL     1       4.548   4.745  -0.527  1.00  0.00    -0.380 N 
ATOM     13  H   UNL     1       3.793   4.179  -0.804  1.00  0.00     0.160 HD
BRANCH  12  14
ATOM     14  C   UNL     1       4.620   6.061  -1.141  1.00  0.00     0.154 C 
BRANCH  14  15
ATOM     15  C   UNL     1       3.626   6.162  -2.328  1.00  0.00     0.250 C 
BRANCH  15  16
ATOM     16  O   UNL     1       2.248   5.991  -1.952  1.00  0.00    -0.492 OA
BRANCH  16  17
ATOM     17  C   UNL     1       1.688   4.741  -1.940  1.00  0.00     0.119 A 
ATOM     18  C   UNL     1       0.466   2.266  -1.457  1.00  0.00     0.119 A 
ATOM     19  C   UNL     1      -0.226   3.443  -1.190  1.00  0.00     0.050 A 
ATOM     20  C   UNL     1       1.719   2.318  -2.060  1.00  0.00     0.050 A 
ATOM     21  C   UNL     1       0.391   4.678  -1.418  1.00  0.00     0.050 A 
ATOM     22  C   UNL     1       2.317   3.555  -2.321  1.00  0.00     0.050 A 
BRANCH  18  23
ATOM     23  O   UNL     1      -0.147   1.077  -1.171  1.00  0.00    -0.497 OA
ATOM     24  C   UNL     1       0.577   0.340  -0.182  1.00  0.00     0.278 C 
ENDBRANCH  18  23
ENDBRANCH  16  17
ENDBRANCH  15  16
ENDBRANCH  14  15
ENDBRANCH  12  14
ENDBRANCH   6  12
ENDBRANCH   1   5
BRANCH   3  25
ATOM     25  C   UNL     1       2.671   5.661   1.691  1.00  0.00     0.118 C 
BRANCH  25  26
ATOM     26  C   UNL     1       1.335   6.092   2.264  1.00  0.00     0.042 C 
BRANCH  26  27
ATOM     27  C   UNL     1       1.089   7.597   2.273  1.00  0.00     0.118 C 
BRANCH  27  28
ATOM     28  N   UNL     1       1.203   8.258   0.977  1.00  0.00    -0.352 N 
ATOM     29  C   UNL     1       0.297   8.984   0.233  1.00  0.00     0.251 C 
ATOM     30  H   UNL     1       2.089   8.171   0.557  1.00  0.00     0.163 HD
ATOM     31  O   UNL     1       0.630   9.450  -0.849  1.00  0.00    -0.269 OA
BRANCH  29  32
ATOM     32  C   UNL     1      -1.100   9.145   0.698  1.00  0.00     0.039 A 
ATOM     33  C   UNL     1      -2.140   8.991  -0.224  1.00  0.00     0.014 A 
ATOM     34  C   UNL     1      -1.397   9.391   2.035  1.00  0.00     0.014 A 
ATOM     35  C   UNL     1      -3.464   8.941   0.224  1.00  0.00     0.010 A 
ATOM     36  C   UNL     1      -2.694   9.202   2.496  1.00  0.00     0.010 A 
ATOM     37  C   UNL     1      -3.745   8.962   1.599  1.00  0.00    -0.014 A 
BRANCH  37  38
ATOM     38  C   UNL     1      -5.112   8.714   2.135  1.00  0.00     0.031 A 
ATOM     39  C   UNL     1      -5.752   9.713   3.062  1.00  0.00     0.074 A 
ATOM     40  C   UNL     1      -5.727   7.539   1.892  1.00  0.00     0.049 A 
ATOM     41  N   UNL     1      -6.840   9.601   3.781  1.00  0.00    -0.248 NA
ATOM     42  C   UNL     1      -5.041  10.989   3.247  1.00  0.00     0.031 C 
ATOM     43  C   UNL     1      -5.190   6.448   1.076  1.00  0.00     0.029 A 
ATOM     44  N   UNL     1      -6.937   7.055   2.330  1.00  0.00    -0.354 N 
ATOM     45  C   UNL     1      -6.916  10.767   4.533  1.00  0.00     0.074 A 
ATOM     46  C   UNL     1      -5.735  11.545   4.228  1.00  0.00     0.031 C 
ATOM     47  C   UNL     1      -6.075   5.439   1.047  1.00  0.00     0.029 A 
ATOM     48  C   UNL     1      -7.220   5.788   1.879  1.00  0.00     0.049 A 
ATOM     49  H   UNL     1      -7.543   7.568   2.911  1.00  0.00     0.167 HD
ATOM     50  C   UNL     1      -7.895  11.169   5.379  1.00  0.00     0.037 A 
ATOM     51  C   UNL     1      -8.280   4.991   2.118  1.00  0.00     0.037 A 
ATOM     52  C   UNL     1      -9.100  10.425   5.632  1.00  0.00     0.049 A 
ATOM     53  C   UNL     1      -9.385   5.486   3.009  1.00  0.00     0.074 A 
ATOM     54  C   UNL     1     -10.186  10.780   6.412  1.00  0.00     0.029 A 
ATOM     55  N   UNL     1      -9.383   9.178   5.094  1.00  0.00    -0.354 N 
ATOM     56  N   UNL     1      -9.470   6.612   3.673  1.00  0.00    -0.248 NA
ATOM     57  C   UNL     1     -10.546   4.600   3.178  1.00  0.00     0.031 C 
ATOM     58  C   UNL     1     -11.117   9.736   6.366  1.00  0.00     0.029 A 
ATOM     59  C   UNL     1     -10.627   8.748   5.527  1.00  0.00     0.049 A 
ATOM     60  H   UNL     1      -8.788   8.674   4.493  1.00  0.00     0.167 HD
ATOM     61  C   UNL     1     -10.697   6.582   4.321  1.00  0.00     0.074 A 
ATOM     62  C   UNL     1     -11.331   5.332   3.957  1.00  0.00     0.031 C 
ATOM     63  C   UNL     1     -11.247   7.506   5.145  1.00  0.00     0.037 A 
BRANCH  50  64
ATOM     64  C   UNL     1      -7.707  12.487   6.074  1.00  0.00     0.064 A 
ATOM     65  C   UNL     1      -7.751  13.701   5.372  1.00  0.00     0.173 A 
ATOM     66  C   UNL     1      -7.491  12.539   7.460  1.00  0.00     0.173 A 
ATOM     67  F   UNL     1      -7.942  13.706   4.044  1.00  0.00    -0.203 F 
ATOM     68  C   UNL     1      -7.545  14.914   6.023  1.00  0.00     0.198 A 
ATOM     69  C   UNL     1      -7.319  13.757   8.113  1.00  0.00     0.198 A 
ATOM     70  F   UNL     1      -7.447  11.409   8.181  1.00  0.00    -0.203 F 
ATOM     71  F   UNL     1      -7.527  16.055   5.319  1.00  0.00    -0.200 F 
ATOM     72  C   UNL     1      -7.334  14.942   7.393  1.00  0.00     0.200 A 
ATOM     73  F   UNL     1      -7.128  13.783   9.439  1.00  0.00    -0.200 F 
ATOM     74  F   UNL     1      -7.136  16.110   8.018  1.00  0.00    -0.200 F 
ENDBRANCH  50  64
BRANCH  51  75
ATOM     75  C   UNL     1      -8.359   3.654   1.475  1.00  0.00     0.064 A 
ATOM     76  C   UNL     1      -9.267   3.414   0.434  1.00  0.00     0.173 A 
ATOM     77  C   UNL     1      -7.529   2.598   1.875  1.00  0.00     0.173 A 
ATOM     78  F   UNL     1     -10.095   4.388   0.031  1.00  0.00    -0.203 F 
ATOM     79  C   UNL     1      -9.355   2.161  -0.170  1.00  0.00     0.198 A 
ATOM     80  C   UNL     1      -7.600   1.353   1.252  1.00  0.00     0.198 A 
ATOM     81  F   UNL     1      -6.638   2.779   2.861  1.00  0.00    -0.203 F 
ATOM     82  F   UNL     1     -10.260   1.947  -1.134  1.00  0.00    -0.200 F 
ATOM     83  C   UNL     1      -8.517   1.133   0.236  1.00  0.00     0.200 A 
ATOM     84  F   UNL     1      -6.780   0.365   1.638  1.00  0.00    -0.200 F 
ATOM     85  F   UNL     1      -8.599  -0.070  -0.348  1.00  0.00    -0.200 F 
ENDBRANCH  51  75
BRANCH  63  86
ATOM     86  C   UNL     1     -12.616   7.217   5.685  1.00  0.00     0.064 A 
ATOM     87  C   UNL     1     -12.821   6.260   6.689  1.00  0.00     0.173 A 
ATOM     88  C   UNL     1     -13.726   7.938   5.223  1.00  0.00     0.173 A 
ATOM     89  F   UNL     1     -11.792   5.534   7.151  1.00  0.00    -0.203 F 
ATOM     90  C   UNL     1     -14.095   6.021   7.197  1.00  0.00     0.198 A 
ATOM     91  C   UNL     1     -14.994   7.715   5.751  1.00  0.00     0.198 A 
ATOM     92  F   UNL     1     -13.579   8.867   4.267  1.00  0.00    -0.203 F 
ATOM     93  F   UNL     1     -14.277   5.075   8.128  1.00  0.00    -0.200 F 
ATOM     94  C   UNL     1     -15.179   6.754   6.734  1.00  0.00     0.200 A 
ATOM     95  F   UNL     1     -16.038   8.431   5.310  1.00  0.00    -0.200 F 
ATOM     96  F   UNL     1     -16.403   6.528   7.230  1.00  0.00    -0.200 F 
ENDBRANCH  63  86
ENDBRANCH  37  38
ENDBRANCH  29  32
ENDBRANCH  27  28
ENDBRANCH  26  27
ENDBRANCH  25  26
ENDBRANCH   3  25
TORSDOF 16
