REMARK SMILES CCC[C@H](C)C(=O)N1CC[C@H](C(=O)NCCCNC(=O)c2ccc(-c3c4nc(c(-c5c(F)c(F)c(F)c(F)c5F)c5ccc([nH]5)c(-c5c(F)c(F)c(F)c(F)c5F)c5nc(c(-c6c(F)c(F)c(F)c(F)c6F)c6ccc3[nH]6)C=C5)C=C4)cc2)[C@@H]1C
REMARK SMILES IDX 15 1 14 2 12 3 13 4 11 6 8 7 9 8 84 9 10 10 85 11 6 12 7 13
REMARK SMILES IDX 4 14 5 15 3 16 2 17 1 18 16 19 17 20 18 21 19 22 20 24 21 25
REMARK SMILES IDX 22 26 83 27 23 28 82 29 24 30 25 31 26 32 76 33 27 34 81 35
REMARK SMILES IDX 75 36 77 37 28 38 80 39 74 40 73 41 29 43 61 44 41 45 60 46
REMARK SMILES IDX 42 47 45 48 59 49 78 50 43 51 44 52 58 54 79 55 46 56 30 57
REMARK SMILES IDX 31 58 39 59 32 60 33 61 37 62 40 63 34 64 35 65 38 66 36 67
REMARK SMILES IDX 62 68 63 69 71 70 64 71 65 72 69 73 72 74 66 75 67 76 70 77
REMARK SMILES IDX 68 78 47 79 48 80 56 81 49 82 50 83 54 84 57 85 51 86 52 87
REMARK SMILES IDX 55 88 53 89
REMARK H PARENT 14 5 18 23 77 42 45 53
REMARK Flexibility Score: inf
ROOT
ATOM      1  C   UNL     1       0.718   5.303  -5.623  1.00  0.00     0.117 C 
ENDROOT
BRANCH   1   2
ATOM      2  N   UNL     1       1.320   4.577  -6.729  1.00  0.00    -0.356 N 
ATOM      3  C   UNL     1       1.137   3.298  -7.164  1.00  0.00     0.225 C 
ATOM      4  O   UNL     1       1.737   2.950  -8.181  1.00  0.00    -0.275 OA
ATOM      5  H   UNL     1       1.971   5.098  -7.252  1.00  0.00     0.163 HD
BRANCH   3   6
ATOM      6  C   UNL     1       0.249   2.347  -6.378  1.00  0.00     0.102 C 
ATOM      7  N   UNL     1       0.608   0.299  -5.214  1.00  0.00    -0.339 N 
ATOM      8  C   UNL     1       0.443  -0.069  -6.606  1.00  0.00     0.120 C 
ATOM      9  C   UNL     1       0.925   1.725  -5.131  1.00  0.00     0.094 C 
ATOM     10  C   UNL     1      -0.228   1.145  -7.219  1.00  0.00     0.037 C 
ATOM     11  C   UNL     1       2.452   1.883  -5.096  1.00  0.00     0.032 C 
BRANCH   7  12
ATOM     12  C   UNL     1       0.707  -0.682  -4.253  1.00  0.00     0.225 C 
ATOM     13  O   UNL     1       0.885  -1.861  -4.584  1.00  0.00    -0.275 OA
BRANCH  12  14
ATOM     14  C   UNL     1       0.400  -0.382  -2.776  1.00  0.00     0.075 C 
ATOM     15  C   UNL     1       1.240   0.687  -2.089  1.00  0.00     0.018 C 
BRANCH  14  16
ATOM     16  C   UNL     1      -1.119  -0.165  -2.621  1.00  0.00     0.013 C 
BRANCH  16  17
ATOM     17  C   UNL     1      -1.738  -0.863  -1.403  1.00  0.00    -0.003 C 
ATOM     18  C   UNL     1      -1.361  -0.246  -0.067  1.00  0.00     0.004 C 
ENDBRANCH  16  17
ENDBRANCH  14  16
ENDBRANCH  12  14
ENDBRANCH   7  12
ENDBRANCH   3   6
ENDBRANCH   1   2
BRANCH   1  19
ATOM     19  C   UNL     1       1.698   5.617  -4.493  1.00  0.00     0.042 C 
BRANCH  19  20
ATOM     20  C   UNL     1       2.966   6.355  -4.920  1.00  0.00     0.118 C 
BRANCH  20  21
ATOM     21  N   UNL     1       2.702   7.720  -5.348  1.00  0.00    -0.352 N 
ATOM     22  C   UNL     1       3.204   8.905  -4.874  1.00  0.00     0.251 C 
ATOM     23  H   UNL     1       2.065   7.806  -6.094  1.00  0.00     0.163 HD
ATOM     24  O   UNL     1       2.710   9.967  -5.260  1.00  0.00    -0.269 OA
BRANCH  22  25
ATOM     25  C   UNL     1       4.314   8.935  -3.895  1.00  0.00     0.039 A 
ATOM     26  C   UNL     1       4.255   9.856  -2.843  1.00  0.00     0.014 A 
ATOM     27  C   UNL     1       5.434   8.110  -4.030  1.00  0.00     0.014 A 
ATOM     28  C   UNL     1       5.286   9.912  -1.901  1.00  0.00     0.010 A 
ATOM     29  C   UNL     1       6.434   8.124  -3.055  1.00  0.00     0.010 A 
ATOM     30  C   UNL     1       6.373   9.028  -1.984  1.00  0.00    -0.014 A 
BRANCH  30  31
ATOM     31  C   UNL     1       7.453   9.043  -0.961  1.00  0.00     0.031 A 
ATOM     32  C   UNL     1       8.853   9.446  -1.335  1.00  0.00     0.074 A 
ATOM     33  C   UNL     1       7.186   8.643   0.298  1.00  0.00     0.049 A 
ATOM     34  N   UNL     1       9.935   9.466  -0.597  1.00  0.00    -0.248 NA
ATOM     35  C   UNL     1       9.071   9.859  -2.729  1.00  0.00     0.031 C 
ATOM     36  C   UNL     1       5.883   8.187   0.781  1.00  0.00     0.029 A 
ATOM     37  N   UNL     1       8.002   8.545   1.399  1.00  0.00    -0.354 N 
ATOM     38  C   UNL     1      10.961   9.875  -1.439  1.00  0.00     0.074 A 
ATOM     39  C   UNL     1      10.382  10.051  -2.754  1.00  0.00     0.031 C 
ATOM     40  C   UNL     1       5.982   7.874   2.083  1.00  0.00     0.029 A 
ATOM     41  C   UNL     1       7.361   8.077   2.519  1.00  0.00     0.049 A 
ATOM     42  H   UNL     1       8.956   8.788   1.386  1.00  0.00     0.167 HD
ATOM     43  C   UNL     1      12.263  10.102  -1.140  1.00  0.00     0.037 A 
ATOM     44  C   UNL     1       7.831   7.832   3.757  1.00  0.00     0.037 A 
ATOM     45  C   UNL     1      12.834   9.960   0.174  1.00  0.00     0.049 A 
ATOM     46  C   UNL     1       9.278   8.103   4.066  1.00  0.00     0.074 A 
ATOM     47  C   UNL     1      14.127  10.232   0.588  1.00  0.00     0.029 A 
ATOM     48  N   UNL     1      12.146   9.505   1.289  1.00  0.00    -0.354 N 
ATOM     49  N   UNL     1      10.222   8.553   3.277  1.00  0.00    -0.248 NA
ATOM     50  C   UNL     1       9.722   7.839   5.442  1.00  0.00     0.031 C 
ATOM     51  C   UNL     1      14.231   9.906   1.945  1.00  0.00     0.029 A 
ATOM     52  C   UNL     1      12.993   9.471   2.386  1.00  0.00     0.049 A 
ATOM     53  H   UNL     1      11.197   9.244   1.300  1.00  0.00     0.167 HD
ATOM     54  C   UNL     1      11.363   8.649   4.062  1.00  0.00     0.074 A 
ATOM     55  C   UNL     1      10.990   8.225   5.395  1.00  0.00     0.031 C 
ATOM     56  C   UNL     1      12.607   9.053   3.709  1.00  0.00     0.037 A 
BRANCH  43  57
ATOM     57  C   UNL     1      13.166  10.535  -2.257  1.00  0.00     0.064 A 
ATOM     58  C   UNL     1      13.075  11.818  -2.819  1.00  0.00     0.173 A 
ATOM     59  C   UNL     1      14.162   9.675  -2.743  1.00  0.00     0.173 A 
ATOM     60  F   UNL     1      12.133  12.675  -2.396  1.00  0.00    -0.203 F 
ATOM     61  C   UNL     1      13.929  12.212  -3.846  1.00  0.00     0.198 A 
ATOM     62  C   UNL     1      15.032  10.082  -3.751  1.00  0.00     0.198 A 
ATOM     63  F   UNL     1      14.296   8.441  -2.235  1.00  0.00    -0.203 F 
ATOM     64  F   UNL     1      13.794  13.426  -4.398  1.00  0.00    -0.200 F 
ATOM     65  C   UNL     1      14.911  11.348  -4.306  1.00  0.00     0.200 A 
ATOM     66  F   UNL     1      15.988   9.250  -4.186  1.00  0.00    -0.200 F 
ATOM     67  F   UNL     1      15.736  11.732  -5.289  1.00  0.00    -0.200 F 
ENDBRANCH  43  57
BRANCH  44  68
ATOM     68  C   UNL     1       6.914   7.325   4.809  1.00  0.00     0.064 A 
ATOM     69  C   UNL     1       6.519   8.146   5.875  1.00  0.00     0.173 A 
ATOM     70  C   UNL     1       6.415   6.015   4.773  1.00  0.00     0.173 A 
ATOM     71  F   UNL     1       6.989   9.399   5.963  1.00  0.00    -0.203 F 
ATOM     72  C   UNL     1       5.674   7.670   6.875  1.00  0.00     0.198 A 
ATOM     73  C   UNL     1       5.549   5.549   5.760  1.00  0.00     0.198 A 
ATOM     74  F   UNL     1       6.759   5.193   3.772  1.00  0.00    -0.203 F 
ATOM     75  F   UNL     1       5.345   8.463   7.904  1.00  0.00    -0.200 F 
ATOM     76  C   UNL     1       5.185   6.374   6.814  1.00  0.00     0.200 A 
ATOM     77  F   UNL     1       5.067   4.300   5.690  1.00  0.00    -0.200 F 
ATOM     78  F   UNL     1       4.367   5.919   7.772  1.00  0.00    -0.200 F 
ENDBRANCH  44  68
BRANCH  56  79
ATOM     79  C   UNL     1      13.651   9.084   4.786  1.00  0.00     0.064 A 
ATOM     80  C   UNL     1      14.214   7.906   5.298  1.00  0.00     0.173 A 
ATOM     81  C   UNL     1      14.120  10.309   5.286  1.00  0.00     0.173 A 
ATOM     82  F   UNL     1      13.788   6.711   4.864  1.00  0.00    -0.203 F 
ATOM     83  C   UNL     1      15.193   7.952   6.287  1.00  0.00     0.198 A 
ATOM     84  C   UNL     1      15.117  10.352   6.256  1.00  0.00     0.198 A 
ATOM     85  F   UNL     1      13.617  11.464   4.825  1.00  0.00    -0.203 F 
ATOM     86  F   UNL     1      15.686   6.814   6.792  1.00  0.00    -0.200 F 
ATOM     87  C   UNL     1      15.648   9.174   6.760  1.00  0.00     0.200 A 
ATOM     88  F   UNL     1      15.563  11.533   6.704  1.00  0.00    -0.200 F 
ATOM     89  F   UNL     1      16.594   9.217   7.708  1.00  0.00    -0.200 F 
ENDBRANCH  56  79
ENDBRANCH  30  31
ENDBRANCH  22  25
ENDBRANCH  20  21
ENDBRANCH  19  20
ENDBRANCH   1  19
TORSDOF 14
