REMARK SMILES Cc1cc(C(=O)NC2(CC(=O)NCCCNC(=O)c3ccc(-c4c5nc(c(-c6c(F)c(F)c(F)c(F)c6F)c6ccc([nH]6)c(-c6c(F)c(F)c(F)c(F)c6F)c6nc(c(-c7c(F)c(F)c(F)c(F)c7F)c7ccc4[nH]7)C=C6)C=C5)cc3)CCC2)sc1C
REMARK SMILES IDX 13 1 12 2 10 3 11 4 9 6 8 7 82 8 84 9 83 10 7 11 5 12 6 13
REMARK SMILES IDX 4 15 1 16 2 17 3 18 86 19 85 20 87 21 14 22 15 23 16 24
REMARK SMILES IDX 17 25 18 27 19 28 20 29 81 30 21 31 80 32 22 33 23 34 24 35
REMARK SMILES IDX 74 36 25 37 79 38 73 39 75 40 26 41 78 42 72 43 71 44 27 46
REMARK SMILES IDX 59 47 39 48 58 49 40 50 43 51 57 52 76 53 41 54 42 55 56 57
REMARK SMILES IDX 77 58 44 59 28 60 29 61 37 62 30 63 31 64 35 65 38 66 32 67
REMARK SMILES IDX 33 68 36 69 34 70 60 71 61 72 69 73 62 74 63 75 67 76 70 77
REMARK SMILES IDX 64 78 65 79 68 80 66 81 45 82 46 83 54 84 47 85 48 86 52 87
REMARK SMILES IDX 55 88 49 89 50 90 53 91 51 92
REMARK H PARENT 12 5 7 14 16 26 75 45 43 56
REMARK Flexibility Score: inf
ROOT
ATOM      1  C   UNL     1       7.344  -0.816   1.464  1.00  0.00     0.117 C 
ENDROOT
BRANCH   1   2
ATOM      2  N   UNL     1       6.922  -2.046   0.822  1.00  0.00    -0.356 N 
ATOM      3  C   UNL     1       5.945  -2.257  -0.096  1.00  0.00     0.222 C 
ATOM      4  O   UNL     1       5.570  -3.416  -0.288  1.00  0.00    -0.275 OA
ATOM      5  H   UNL     1       7.420  -2.851   1.094  1.00  0.00     0.163 HD
BRANCH   3   6
ATOM      6  C   UNL     1       5.313  -1.117  -0.863  1.00  0.00     0.128 C 
BRANCH   6   7
ATOM      7  C   UNL     1       3.923  -0.647  -0.368  1.00  0.00     0.049 C 
ATOM      8  C   UNL     1       3.334   0.388  -1.360  1.00  0.00     0.029 C 
ATOM      9  C   UNL     1       4.018   0.471   0.695  1.00  0.00     0.029 C 
ATOM     10  C   UNL     1       3.759   1.515  -0.402  1.00  0.00     0.005 C 
BRANCH   7  11
ATOM     11  N   UNL     1       3.078  -1.818  -0.025  1.00  0.00    -0.345 N 
ATOM     12  C   UNL     1       1.742  -2.107   0.185  1.00  0.00     0.261 C 
ATOM     13  O   UNL     1       1.516  -3.315   0.333  1.00  0.00    -0.268 OA
ATOM     14  H   UNL     1       3.630  -2.626   0.086  1.00  0.00     0.164 HD
BRANCH  12  15
ATOM     15  C   UNL     1       0.642  -1.156   0.183  1.00  0.00     0.092 A 
ATOM     16  C   UNL     1      -3.025  -0.438  -0.391  1.00  0.00     0.045 C 
ATOM     17  C   UNL     1      -1.568  -0.347  -0.082  1.00  0.00    -0.037 A 
ATOM     18  C   UNL     1      -0.673  -1.468  -0.137  1.00  0.00     0.029 A 
ATOM     19  C   UNL     1      -0.879   0.798   0.273  1.00  0.00     0.005 A 
ATOM     20  S   UNL     1       0.704   0.431   0.783  1.00  0.00    -0.135 S 
ATOM     21  C   UNL     1      -1.353   2.212   0.318  1.00  0.00     0.056 C 
ENDBRANCH  12  15
ENDBRANCH   7  11
ENDBRANCH   6   7
ENDBRANCH   3   6
ENDBRANCH   1   2
BRANCH   1  22
ATOM     22  C   UNL     1       6.641  -0.638   2.810  1.00  0.00     0.042 C 
BRANCH  22  23
ATOM     23  C   UNL     1       7.149  -1.579   3.896  1.00  0.00     0.118 C 
BRANCH  23  24
ATOM     24  N   UNL     1       8.479  -1.215   4.355  1.00  0.00    -0.352 N 
ATOM     25  C   UNL     1       8.898  -0.658   5.538  1.00  0.00     0.251 C 
ATOM     26  H   UNL     1       9.200  -1.399   3.711  1.00  0.00     0.163 HD
ATOM     27  O   UNL     1      10.038  -0.210   5.615  1.00  0.00    -0.269 OA
BRANCH  25  28
ATOM     28  C   UNL     1       8.004  -0.582   6.718  1.00  0.00     0.039 A 
ATOM     29  C   UNL     1       8.107   0.530   7.563  1.00  0.00     0.014 A 
ATOM     30  C   UNL     1       7.130  -1.619   7.050  1.00  0.00     0.014 A 
ATOM     31  C   UNL     1       7.309   0.617   8.708  1.00  0.00     0.010 A 
ATOM     32  C   UNL     1       6.273  -1.492   8.142  1.00  0.00     0.010 A 
ATOM     33  C   UNL     1       6.368  -0.383   8.995  1.00  0.00    -0.014 A 
BRANCH  33  34
ATOM     34  C   UNL     1       5.508  -0.312  10.205  1.00  0.00     0.031 A 
ATOM     35  C   UNL     1       5.640  -1.351  11.286  1.00  0.00     0.074 A 
ATOM     36  C   UNL     1       4.575   0.653  10.310  1.00  0.00     0.049 A 
ATOM     37  N   UNL     1       4.932  -1.510  12.376  1.00  0.00    -0.248 NA
ATOM     38  C   UNL     1       6.691  -2.364  11.101  1.00  0.00     0.031 C 
ATOM     39  C   UNL     1       4.324   1.700   9.319  1.00  0.00     0.029 A 
ATOM     40  N   UNL     1       3.659   0.906  11.301  1.00  0.00    -0.354 N 
ATOM     41  C   UNL     1       5.436  -2.649  12.991  1.00  0.00     0.074 A 
ATOM     42  C   UNL     1       6.474  -3.171  12.129  1.00  0.00     0.031 C 
ATOM     43  C   UNL     1       3.342   2.500   9.764  1.00  0.00     0.029 A 
ATOM     44  C   UNL     1       2.869   2.001  11.052  1.00  0.00     0.049 A 
ATOM     45  H   UNL     1       3.576   0.355  12.112  1.00  0.00     0.167 HD
ATOM     46  C   UNL     1       5.085  -3.197  14.179  1.00  0.00     0.037 A 
ATOM     47  C   UNL     1       1.873   2.540  11.781  1.00  0.00     0.037 A 
ATOM     48  C   UNL     1       4.077  -2.658  15.054  1.00  0.00     0.049 A 
ATOM     49  C   UNL     1       1.496   1.910  13.094  1.00  0.00     0.074 A 
ATOM     50  C   UNL     1       3.685  -3.108  16.302  1.00  0.00     0.029 A 
ATOM     51  N   UNL     1       3.304  -1.542  14.769  1.00  0.00    -0.354 N 
ATOM     52  N   UNL     1       2.013   0.862  13.688  1.00  0.00    -0.248 NA
ATOM     53  C   UNL     1       0.397   2.541  13.838  1.00  0.00     0.031 C 
ATOM     54  C   UNL     1       2.651  -2.283  16.759  1.00  0.00     0.029 A 
ATOM     55  C   UNL     1       2.426  -1.297  15.812  1.00  0.00     0.049 A 
ATOM     56  H   UNL     1       3.369  -1.004  13.947  1.00  0.00     0.167 HD
ATOM     57  C   UNL     1       1.325   0.724  14.885  1.00  0.00     0.074 A 
ATOM     58  C   UNL     1       0.359   1.802  14.938  1.00  0.00     0.031 C 
ATOM     59  C   UNL     1       1.479  -0.212  15.853  1.00  0.00     0.037 A 
BRANCH  46  60
ATOM     60  C   UNL     1       5.803  -4.446  14.601  1.00  0.00     0.064 A 
ATOM     61  C   UNL     1       7.153  -4.423  14.986  1.00  0.00     0.173 A 
ATOM     62  C   UNL     1       5.134  -5.679  14.634  1.00  0.00     0.173 A 
ATOM     63  F   UNL     1       7.842  -3.272  14.960  1.00  0.00    -0.203 F 
ATOM     64  C   UNL     1       7.815  -5.591  15.353  1.00  0.00     0.198 A 
ATOM     65  C   UNL     1       5.791  -6.841  15.030  1.00  0.00     0.198 A 
ATOM     66  F   UNL     1       3.842  -5.757  14.283  1.00  0.00    -0.203 F 
ATOM     67  F   UNL     1       9.118  -5.552  15.662  1.00  0.00    -0.200 F 
ATOM     68  C   UNL     1       7.133  -6.798  15.380  1.00  0.00     0.200 A 
ATOM     69  F   UNL     1       5.128  -8.005  15.067  1.00  0.00    -0.200 F 
ATOM     70  F   UNL     1       7.771  -7.922  15.733  1.00  0.00    -0.200 F 
ENDBRANCH  46  60
BRANCH  47  71
ATOM     71  C   UNL     1       1.190   3.769  11.305  1.00  0.00     0.064 A 
ATOM     72  C   UNL     1       1.403   4.997  11.945  1.00  0.00     0.173 A 
ATOM     73  C   UNL     1       0.321   3.747  10.205  1.00  0.00     0.173 A 
ATOM     74  F   UNL     1       2.210   5.062  13.015  1.00  0.00    -0.203 F 
ATOM     75  C   UNL     1       0.763   6.156  11.512  1.00  0.00     0.198 A 
ATOM     76  C   UNL     1      -0.300   4.911   9.757  1.00  0.00     0.198 A 
ATOM     77  F   UNL     1       0.086   2.597   9.557  1.00  0.00    -0.203 F 
ATOM     78  F   UNL     1       0.958   7.310  12.164  1.00  0.00    -0.200 F 
ATOM     79  C   UNL     1      -0.083   6.113  10.414  1.00  0.00     0.200 A 
ATOM     80  F   UNL     1      -1.109   4.869   8.689  1.00  0.00    -0.200 F 
ATOM     81  F   UNL     1      -0.694   7.229   9.994  1.00  0.00    -0.200 F 
ENDBRANCH  47  71
BRANCH  59  82
ATOM     82  C   UNL     1       0.610  -0.089  17.069  1.00  0.00     0.064 A 
ATOM     83  C   UNL     1      -0.754  -0.413  17.033  1.00  0.00     0.173 A 
ATOM     84  C   UNL     1       1.158   0.323  18.293  1.00  0.00     0.173 A 
ATOM     85  F   UNL     1      -1.327  -0.795  15.882  1.00  0.00    -0.203 F 
ATOM     86  C   UNL     1      -1.543  -0.307  18.175  1.00  0.00     0.198 A 
ATOM     87  C   UNL     1       0.372   0.402  19.439  1.00  0.00     0.198 A 
ATOM     88  F   UNL     1       2.459   0.638  18.380  1.00  0.00    -0.203 F 
ATOM     89  F   UNL     1      -2.854  -0.579  18.109  1.00  0.00    -0.200 F 
ATOM     90  C   UNL     1      -0.979   0.094  19.377  1.00  0.00     0.200 A 
ATOM     91  F   UNL     1       0.920   0.780  20.602  1.00  0.00    -0.200 F 
ATOM     92  F   UNL     1      -1.740   0.190  20.476  1.00  0.00    -0.200 F 
ENDBRANCH  59  82
ENDBRANCH  33  34
ENDBRANCH  25  28
ENDBRANCH  23  24
ENDBRANCH  22  23
ENDBRANCH   1  22
TORSDOF 13
