REMARK SMILES CC(C)[NH2+][C@@]1(C(=O)NCCCNC(=O)c2ccc(-c3c4nc(c(-c5c(F)c(F)c(F)c(F)c5F)c5ccc([nH]5)c(-c5c(F)c(F)c(F)c(F)c5F)c5nc(c(-c6c(F)c(F)c(F)c(F)c6F)c6ccc3[nH]6)C=C5)C=C4)cc2)CC[C@@H](Sc2ccncc2)C1
REMARK SMILES IDX 10 1 9 2 8 3 6 4 7 5 5 7 78 8 88 9 79 10 80 11 4 12 2 15
REMARK SMILES IDX 1 16 3 17 81 18 82 19 83 20 87 21 84 22 86 23 85 24 11 25
REMARK SMILES IDX 12 26 13 27 14 29 15 30 16 31 77 32 17 33 76 34 18 35 19 36
REMARK SMILES IDX 20 37 70 38 21 39 75 40 69 41 71 42 22 43 74 44 68 45 67 46
REMARK SMILES IDX 23 48 55 49 35 50 54 51 36 52 39 53 53 54 72 55 37 56 38 57
REMARK SMILES IDX 52 59 73 60 40 61 24 62 25 63 33 64 26 65 27 66 31 67 34 68
REMARK SMILES IDX 28 69 29 70 32 71 30 72 56 73 57 74 65 75 58 76 59 77 63 78
REMARK SMILES IDX 66 79 60 80 61 81 64 82 62 83 41 84 42 85 50 86 43 87 44 88
REMARK SMILES IDX 48 89 51 90 45 91 46 92 49 93 47 94
REMARK H PARENT 8 6 4 13 4 14 12 28 71 47 39 58
REMARK Flexibility Score: inf
ROOT
ATOM      1  C   UNL     1      -4.288   5.464   1.381  1.00  0.00     0.042 C 
ENDROOT
BRANCH   1   2
ATOM      2  C   UNL     1      -2.937   4.978   1.870  1.00  0.00     0.118 C 
BRANCH   2   3
ATOM      3  N   UNL     1      -2.879   3.538   1.986  1.00  0.00    -0.351 N 
ATOM      4  C   UNL     1      -2.156   2.594   1.330  1.00  0.00     0.281 C 
ATOM      5  O   UNL     1      -2.315   1.431   1.732  1.00  0.00    -0.268 OA
ATOM      6  H   UNL     1      -3.481   3.171   2.673  1.00  0.00     0.163 HD
BRANCH   4   7
ATOM      7  C   UNL     1      -1.198   2.886   0.109  1.00  0.00     0.176 C 
ATOM      8  C   UNL     1      -0.249   4.067   0.388  1.00  0.00     0.080 C 
ATOM      9  C   UNL     1      -2.014   3.264  -1.148  1.00  0.00     0.094 C 
ATOM     10  C   UNL     1      -0.532   5.150  -0.654  1.00  0.00     0.022 C 
ATOM     11  C   UNL     1      -1.818   4.756  -1.379  1.00  0.00     0.058 C 
BRANCH   7  12
ATOM     12  N   UNL     1      -0.596   1.567  -0.254  1.00  0.00    -0.332 N 
ATOM     13  H   UNL     1      -1.098   0.855   0.277  1.00  0.00     0.347 HD
ATOM     14  H   UNL     1      -0.683   1.535  -1.269  1.00  0.00     0.347 HD
BRANCH  12  15
ATOM     15  C   UNL     1       0.827   1.340  -0.025  1.00  0.00     0.176 C 
ATOM     16  C   UNL     1       1.066  -0.160   0.179  1.00  0.00     0.075 C 
ATOM     17  C   UNL     1       1.616   1.796  -1.254  1.00  0.00     0.075 C 
ENDBRANCH  12  15
ENDBRANCH   7  12
BRANCH  11  18
ATOM     18  S   UNL     1      -1.946   5.245  -3.150  1.00  0.00    -0.122 SA
BRANCH  18  19
ATOM     19  C   UNL     1      -0.277   4.991  -3.723  1.00  0.00     0.011 A 
ATOM     20  C   UNL     1       0.204   3.723  -4.032  1.00  0.00     0.035 A 
ATOM     21  C   UNL     1       0.581   6.087  -3.815  1.00  0.00     0.035 A 
ATOM     22  C   UNL     1       1.541   3.599  -4.371  1.00  0.00     0.112 A 
ATOM     23  C   UNL     1       1.902   5.859  -4.154  1.00  0.00     0.112 A 
ATOM     24  N   UNL     1       2.404   4.636  -4.426  1.00  0.00    -0.265 NA
ENDBRANCH  18  19
ENDBRANCH  11  18
ENDBRANCH   4   7
ENDBRANCH   2   3
ENDBRANCH   1   2
BRANCH   1  25
ATOM     25  C   UNL     1      -5.263   5.676   2.524  1.00  0.00     0.118 C 
BRANCH  25  26
ATOM     26  N   UNL     1      -4.835   6.753   3.413  1.00  0.00    -0.352 N 
ATOM     27  C   UNL     1      -5.419   7.965   3.689  1.00  0.00     0.251 C 
ATOM     28  H   UNL     1      -3.993   6.582   3.893  1.00  0.00     0.163 HD
ATOM     29  O   UNL     1      -4.786   8.828   4.282  1.00  0.00    -0.269 OA
BRANCH  27  30
ATOM     30  C   UNL     1      -6.805   8.225   3.255  1.00  0.00     0.039 A 
ATOM     31  C   UNL     1      -7.146   9.493   2.779  1.00  0.00     0.014 A 
ATOM     32  C   UNL     1      -7.765   7.215   3.316  1.00  0.00     0.014 A 
ATOM     33  C   UNL     1      -8.436   9.721   2.298  1.00  0.00     0.010 A 
ATOM     34  C   UNL     1      -9.002   7.404   2.721  1.00  0.00     0.010 A 
ATOM     35  C   UNL     1      -9.359   8.665   2.226  1.00  0.00    -0.014 A 
BRANCH  35  36
ATOM     36  C   UNL     1     -10.716   8.854   1.662  1.00  0.00     0.031 A 
ATOM     37  C   UNL     1     -11.923   8.592   2.519  1.00  0.00     0.074 A 
ATOM     38  C   UNL     1     -10.857   9.179   0.364  1.00  0.00     0.049 A 
ATOM     39  N   UNL     1     -13.191   8.612   2.195  1.00  0.00    -0.248 NA
ATOM     40  C   UNL     1     -11.671   8.213   3.920  1.00  0.00     0.031 C 
ATOM     41  C   UNL     1      -9.759   9.394  -0.580  1.00  0.00     0.029 A 
ATOM     42  N   UNL     1     -11.986   9.375  -0.391  1.00  0.00    -0.354 N 
ATOM     43  C   UNL     1     -13.877   8.228   3.339  1.00  0.00     0.074 A 
ATOM     44  C   UNL     1     -12.888   7.909   4.343  1.00  0.00     0.031 C 
ATOM     45  C   UNL     1     -10.266   9.723  -1.778  1.00  0.00     0.029 A 
ATOM     46  C   UNL     1     -11.723   9.698  -1.699  1.00  0.00     0.049 A 
ATOM     47  H   UNL     1     -12.898   9.291  -0.029  1.00  0.00     0.167 HD
ATOM     48  C   UNL     1     -15.215   8.177   3.544  1.00  0.00     0.037 A 
ATOM     49  C   UNL     1     -12.566   9.941  -2.720  1.00  0.00     0.037 A 
ATOM     50  C   UNL     1     -16.190   8.526   2.545  1.00  0.00     0.049 A 
ATOM     51  C   UNL     1     -14.047   9.884  -2.468  1.00  0.00     0.074 A 
ATOM     52  C   UNL     1     -17.566   8.582   2.665  1.00  0.00     0.029 A 
ATOM     53  N   UNL     1     -15.886   8.875   1.236  1.00  0.00    -0.354 N 
ATOM     54  N   UNL     1     -14.689   9.600  -1.360  1.00  0.00    -0.248 NA
ATOM     55  C   UNL     1     -14.923  10.189  -3.607  1.00  0.00     0.031 C 
ATOM     56  C   UNL     1     -18.099   8.907   1.414  1.00  0.00     0.029 A 
ATOM     57  C   UNL     1     -17.052   9.118   0.529  1.00  0.00     0.049 A 
ATOM     58  H   UNL     1     -14.976   8.940   0.866  1.00  0.00     0.167 HD
ATOM     59  C   UNL     1     -16.039   9.717  -1.659  1.00  0.00     0.074 A 
ATOM     60  C   UNL     1     -16.123  10.115  -3.050  1.00  0.00     0.031 C 
ATOM     61  C   UNL     1     -17.113   9.515  -0.855  1.00  0.00     0.037 A 
BRANCH  48  62
ATOM     62  C   UNL     1     -15.692   7.727   4.896  1.00  0.00     0.064 A 
ATOM     63  C   UNL     1     -15.467   8.490   6.053  1.00  0.00     0.173 A 
ATOM     64  C   UNL     1     -16.392   6.519   5.037  1.00  0.00     0.173 A 
ATOM     65  F   UNL     1     -14.792   9.647   5.979  1.00  0.00    -0.203 F 
ATOM     66  C   UNL     1     -15.886   8.040   7.303  1.00  0.00     0.198 A 
ATOM     67  C   UNL     1     -16.843   6.091   6.283  1.00  0.00     0.198 A 
ATOM     68  F   UNL     1     -16.640   5.751   3.965  1.00  0.00    -0.203 F 
ATOM     69  F   UNL     1     -15.598   8.754   8.400  1.00  0.00    -0.200 F 
ATOM     70  C   UNL     1     -16.579   6.846   7.416  1.00  0.00     0.200 A 
ATOM     71  F   UNL     1     -17.525   4.943   6.389  1.00  0.00    -0.200 F 
ATOM     72  F   UNL     1     -16.983   6.415   8.619  1.00  0.00    -0.200 F 
ENDBRANCH  48  62
BRANCH  49  73
ATOM     73  C   UNL     1     -12.022  10.289  -4.059  1.00  0.00     0.064 A 
ATOM     74  C   UNL     1     -12.163  11.583  -4.578  1.00  0.00     0.173 A 
ATOM     75  C   UNL     1     -11.335   9.346  -4.837  1.00  0.00     0.173 A 
ATOM     76  F   UNL     1     -12.826  12.516  -3.879  1.00  0.00    -0.203 F 
ATOM     77  C   UNL     1     -11.653  11.916  -5.831  1.00  0.00     0.198 A 
ATOM     78  C   UNL     1     -10.799   9.688  -6.077  1.00  0.00     0.198 A 
ATOM     79  F   UNL     1     -11.164   8.096  -4.381  1.00  0.00    -0.203 F 
ATOM     80  F   UNL     1     -11.838  13.150  -6.321  1.00  0.00    -0.200 F 
ATOM     81  C   UNL     1     -10.965  10.970  -6.576  1.00  0.00     0.200 A 
ATOM     82  F   UNL     1     -10.119   8.776  -6.785  1.00  0.00    -0.200 F 
ATOM     83  F   UNL     1     -10.466  11.294  -7.777  1.00  0.00    -0.200 F 
ENDBRANCH  49  73
BRANCH  61  84
ATOM     84  C   UNL     1     -18.471   9.752  -1.450  1.00  0.00     0.064 A 
ATOM     85  C   UNL     1     -19.017   8.891  -2.413  1.00  0.00     0.173 A 
ATOM     86  C   UNL     1     -19.255  10.833  -1.016  1.00  0.00     0.173 A 
ATOM     87  F   UNL     1     -18.303   7.851  -2.871  1.00  0.00    -0.203 F 
ATOM     88  C   UNL     1     -20.285   9.118  -2.939  1.00  0.00     0.198 A 
ATOM     89  C   UNL     1     -20.536  11.037  -1.518  1.00  0.00     0.198 A 
ATOM     90  F   UNL     1     -18.783  11.682  -0.091  1.00  0.00    -0.203 F 
ATOM     91  F   UNL     1     -20.766   8.312  -3.896  1.00  0.00    -0.200 F 
ATOM     92  C   UNL     1     -21.047  10.185  -2.485  1.00  0.00     0.200 A 
ATOM     93  F   UNL     1     -21.277  12.057  -1.065  1.00  0.00    -0.200 F 
ATOM     94  F   UNL     1     -22.272  10.396  -2.986  1.00  0.00    -0.200 F 
ENDBRANCH  61  84
ENDBRANCH  35  36
ENDBRANCH  27  30
ENDBRANCH  25  26
ENDBRANCH   1  25
TORSDOF 14
