REMARK SMILES Cc1c(CC(=O)NCCCNC(=O)c2ccc(-c3c4nc(c(-c5c(F)c(F)c(F)c(F)c5F)c5ccc([nH]5)c(-c5c(F)c(F)c(F)c(F)c5F)c5nc(c(-c6c(F)c(F)c(F)c(F)c6F)c6ccc3[nH]6)C=C5)C=C4)cc2)c2cc(O)ccc2n1C(=O)c1ccc(Cl)cc1
REMARK SMILES IDX 8 1 7 2 5 3 6 4 4 6 3 7 1 8 2 9 84 10 77 11 83 12 78 13
REMARK SMILES IDX 82 14 79 15 81 16 85 17 86 18 87 19 88 20 93 21 89 22 92 23
REMARK SMILES IDX 90 24 91 25 80 26 9 28 10 29 11 30 12 31 13 33 14 34 15 35
REMARK SMILES IDX 76 36 16 37 75 38 17 39 18 40 19 41 69 42 20 43 74 44 68 45
REMARK SMILES IDX 70 46 21 47 73 48 67 49 66 50 22 52 54 53 34 54 53 55 35 56
REMARK SMILES IDX 38 57 52 58 71 59 36 60 37 61 51 63 72 64 39 65 23 66 24 67
REMARK SMILES IDX 32 68 25 69 26 70 30 71 33 72 27 73 28 74 31 75 29 76 55 77
REMARK SMILES IDX 56 78 64 79 57 80 58 81 62 82 65 83 59 84 60 85 63 86 61 87
REMARK SMILES IDX 40 88 41 89 49 90 42 91 43 92 47 93 50 94 44 95 45 96 48 97
REMARK SMILES IDX 46 98
REMARK H PARENT 7 5 80 27 11 32 70 51 38 62
REMARK Flexibility Score: inf
ROOT
ATOM      1  C   UNL     1      -0.297  -1.766   2.748  1.00  0.00     0.117 C 
ENDROOT
BRANCH   1   2
ATOM      2  N   UNL     1       0.477  -2.988   2.860  1.00  0.00    -0.356 N 
ATOM      3  C   UNL     1       1.540  -3.413   2.116  1.00  0.00     0.224 C 
ATOM      4  O   UNL     1       2.062  -4.489   2.417  1.00  0.00    -0.275 OA
ATOM      5  H   UNL     1       0.195  -3.600   3.578  1.00  0.00     0.163 HD
BRANCH   3   6
ATOM      6  C   UNL     1       2.089  -2.552   0.991  1.00  0.00     0.138 C 
BRANCH   6   7
ATOM      7  C   UNL     1       1.137  -2.399  -0.161  1.00  0.00    -0.009 A 
ATOM      8  C   UNL     1       1.143   0.182  -0.400  1.00  0.00     0.065 C 
ATOM      9  C   UNL     1       0.708  -1.211  -0.736  1.00  0.00     0.028 A 
ATOM     10  N   UNL     1      -0.273  -1.504  -1.692  1.00  0.00    -0.280 N 
ATOM     11  C   UNL     1       0.557  -3.461  -0.912  1.00  0.00     0.008 A 
ATOM     12  C   UNL     1      -0.237  -2.892  -1.915  1.00  0.00     0.057 A 
ATOM     13  C   UNL     1       0.670  -4.868  -0.832  1.00  0.00     0.056 A 
ATOM     14  C   UNL     1      -0.847  -3.720  -2.883  1.00  0.00     0.031 A 
ATOM     15  C   UNL     1       0.003  -5.669  -1.752  1.00  0.00     0.116 A 
ATOM     16  C   UNL     1      -0.738  -5.110  -2.775  1.00  0.00     0.048 A 
BRANCH  10  17
ATOM     17  C   UNL     1      -1.154  -0.563  -2.296  1.00  0.00     0.262 C 
ATOM     18  O   UNL     1      -1.101   0.619  -1.944  1.00  0.00    -0.268 OA
BRANCH  17  19
ATOM     19  C   UNL     1      -2.163  -0.880  -3.316  1.00  0.00     0.040 A 
ATOM     20  C   UNL     1      -3.295  -1.634  -2.987  1.00  0.00     0.015 A 
ATOM     21  C   UNL     1      -1.937  -0.454  -4.629  1.00  0.00     0.015 A 
ATOM     22  C   UNL     1      -4.160  -2.042  -4.005  1.00  0.00     0.021 A 
ATOM     23  C   UNL     1      -2.811  -0.857  -5.639  1.00  0.00     0.021 A 
ATOM     24  C   UNL     1      -3.904  -1.667  -5.327  1.00  0.00     0.041 A 
ATOM     25  Cl  UNL     1      -4.930  -2.233  -6.585  1.00  0.00    -0.084 Cl
ENDBRANCH  17  19
ENDBRANCH  10  17
BRANCH  15  26
ATOM     26  O   UNL     1       0.121  -7.021  -1.619  1.00  0.00    -0.508 OA
ATOM     27  H   UNL     1       0.628  -7.381  -0.918  1.00  0.00     0.293 HD
ENDBRANCH  15  26
ENDBRANCH   6   7
ENDBRANCH   3   6
ENDBRANCH   1   2
BRANCH   1  28
ATOM     28  C   UNL     1      -1.713  -2.011   2.219  1.00  0.00     0.042 C 
BRANCH  28  29
ATOM     29  C   UNL     1      -2.579  -2.862   3.149  1.00  0.00     0.118 C 
BRANCH  29  30
ATOM     30  N   UNL     1      -2.676  -2.344   4.501  1.00  0.00    -0.352 N 
ATOM     31  C   UNL     1      -3.502  -1.488   5.169  1.00  0.00     0.251 C 
ATOM     32  H   UNL     1      -1.966  -2.700   5.083  1.00  0.00     0.163 HD
ATOM     33  O   UNL     1      -3.305  -1.394   6.384  1.00  0.00    -0.269 OA
BRANCH  31  34
ATOM     34  C   UNL     1      -4.553  -0.631   4.558  1.00  0.00     0.039 A 
ATOM     35  C   UNL     1      -4.882  -0.586   3.205  1.00  0.00     0.014 A 
ATOM     36  C   UNL     1      -5.206   0.259   5.438  1.00  0.00     0.014 A 
ATOM     37  C   UNL     1      -5.756   0.392   2.734  1.00  0.00     0.010 A 
ATOM     38  C   UNL     1      -6.089   1.228   4.974  1.00  0.00     0.010 A 
ATOM     39  C   UNL     1      -6.321   1.328   3.611  1.00  0.00    -0.014 A 
BRANCH  39  40
ATOM     40  C   UNL     1      -7.223   2.330   3.046  1.00  0.00     0.031 A 
ATOM     41  C   UNL     1      -8.412   1.752   2.366  1.00  0.00     0.074 A 
ATOM     42  C   UNL     1      -7.055   3.666   3.147  1.00  0.00     0.049 A 
ATOM     43  N   UNL     1      -8.678   1.772   1.103  1.00  0.00    -0.248 NA
ATOM     44  C   UNL     1      -9.354   0.953   3.163  1.00  0.00     0.031 C 
ATOM     45  C   UNL     1      -6.127   4.387   4.022  1.00  0.00     0.029 A 
ATOM     46  N   UNL     1      -7.738   4.679   2.526  1.00  0.00    -0.354 N 
ATOM     47  C   UNL     1      -9.922   1.161   0.963  1.00  0.00     0.074 A 
ATOM     48  C   UNL     1     -10.221   0.550   2.231  1.00  0.00     0.031 C 
ATOM     49  C   UNL     1      -6.455   5.700   4.045  1.00  0.00     0.029 A 
ATOM     50  C   UNL     1      -7.497   5.939   3.061  1.00  0.00     0.049 A 
ATOM     51  H   UNL     1      -8.347   4.527   1.768  1.00  0.00     0.167 HD
ATOM     52  C   UNL     1     -10.707   1.438  -0.114  1.00  0.00     0.037 A 
ATOM     53  C   UNL     1      -8.120   7.097   2.729  1.00  0.00     0.037 A 
ATOM     54  C   UNL     1      -9.951   2.076  -1.159  1.00  0.00     0.049 A 
ATOM     55  C   UNL     1      -8.666   6.949   1.362  1.00  0.00     0.074 A 
ATOM     56  C   UNL     1      -9.147   1.690  -2.208  1.00  0.00     0.029 A 
ATOM     57  N   UNL     1      -9.722   3.404  -0.939  1.00  0.00    -0.354 N 
ATOM     58  N   UNL     1      -7.925   6.836   0.296  1.00  0.00    -0.248 NA
ATOM     59  C   UNL     1     -10.080   6.632   1.184  1.00  0.00     0.031 C 
ATOM     60  C   UNL     1      -8.340   2.821  -2.538  1.00  0.00     0.029 A 
ATOM     61  C   UNL     1      -8.694   3.877  -1.707  1.00  0.00     0.049 A 
ATOM     62  H   UNL     1     -10.235   3.954  -0.303  1.00  0.00     0.167 HD
ATOM     63  C   UNL     1      -8.674   6.047  -0.547  1.00  0.00     0.074 A 
ATOM     64  C   UNL     1     -10.037   6.107  -0.042  1.00  0.00     0.031 C 
ATOM     65  C   UNL     1      -8.076   5.134  -1.361  1.00  0.00     0.037 A 
BRANCH  52  66
ATOM     66  C   UNL     1     -12.214   1.575  -0.068  1.00  0.00     0.064 A 
ATOM     67  C   UNL     1     -12.931   1.752  -1.270  1.00  0.00     0.173 A 
ATOM     68  C   UNL     1     -12.934   1.859   1.112  1.00  0.00     0.173 A 
ATOM     69  F   UNL     1     -12.340   1.543  -2.456  1.00  0.00    -0.203 F 
ATOM     70  C   UNL     1     -14.248   2.224  -1.286  1.00  0.00     0.198 A 
ATOM     71  C   UNL     1     -14.263   2.282   1.095  1.00  0.00     0.198 A 
ATOM     72  F   UNL     1     -12.353   1.850   2.318  1.00  0.00    -0.203 F 
ATOM     73  F   UNL     1     -14.852   2.479  -2.455  1.00  0.00    -0.200 F 
ATOM     74  C   UNL     1     -14.913   2.490  -0.103  1.00  0.00     0.200 A 
ATOM     75  F   UNL     1     -14.880   2.562   2.252  1.00  0.00    -0.200 F 
ATOM     76  F   UNL     1     -16.156   2.989  -0.115  1.00  0.00    -0.200 F 
ENDBRANCH  52  66
BRANCH  53  77
ATOM     77  C   UNL     1      -8.526   8.230   3.595  1.00  0.00     0.064 A 
ATOM     78  C   UNL     1      -8.906   9.463   3.035  1.00  0.00     0.173 A 
ATOM     79  C   UNL     1      -8.880   8.017   4.940  1.00  0.00     0.173 A 
ATOM     80  F   UNL     1      -8.630   9.735   1.751  1.00  0.00    -0.203 F 
ATOM     81  C   UNL     1      -9.657  10.397   3.755  1.00  0.00     0.198 A 
ATOM     82  C   UNL     1      -9.626   8.952   5.659  1.00  0.00     0.198 A 
ATOM     83  F   UNL     1      -8.604   6.852   5.543  1.00  0.00    -0.203 F 
ATOM     84  F   UNL     1     -10.078  11.521   3.159  1.00  0.00    -0.200 F 
ATOM     85  C   UNL     1     -10.035  10.130   5.060  1.00  0.00     0.200 A 
ATOM     86  F   UNL     1     -10.015   8.669   6.911  1.00  0.00    -0.200 F 
ATOM     87  F   UNL     1     -10.829  10.983   5.723  1.00  0.00    -0.200 F 
ENDBRANCH  53  77
BRANCH  65  88
ATOM     88  C   UNL     1      -6.659   5.380  -1.760  1.00  0.00     0.064 A 
ATOM     89  C   UNL     1      -5.564   5.329  -0.884  1.00  0.00     0.173 A 
ATOM     90  C   UNL     1      -6.400   5.618  -3.116  1.00  0.00     0.173 A 
ATOM     91  F   UNL     1      -5.732   5.044   0.414  1.00  0.00    -0.203 F 
ATOM     92  C   UNL     1      -4.265   5.536  -1.350  1.00  0.00     0.198 A 
ATOM     93  C   UNL     1      -5.102   5.791  -3.583  1.00  0.00     0.198 A 
ATOM     94  F   UNL     1      -7.412   5.650  -3.998  1.00  0.00    -0.203 F 
ATOM     95  F   UNL     1      -3.231   5.501  -0.497  1.00  0.00    -0.200 F 
ATOM     96  C   UNL     1      -4.036   5.758  -2.700  1.00  0.00     0.200 A 
ATOM     97  F   UNL     1      -4.886   5.970  -4.894  1.00  0.00    -0.200 F 
ATOM     98  F   UNL     1      -2.786   5.925  -3.154  1.00  0.00    -0.200 F 
ENDBRANCH  65  88
ENDBRANCH  39  40
ENDBRANCH  31  34
ENDBRANCH  29  30
ENDBRANCH  28  29
ENDBRANCH   1  28
TORSDOF 14
