REMARK SMILES CC(C)c1ccc2c(c1)c(SC(C)(C)C)c(CC(C)(C)C(=O)NCCCNC(=O)c1ccc(-c3c4nc(c(-c5c(F)c(F)c(F)c(F)c5F)c5ccc([nH]5)c(-c5c(F)c(F)c(F)c(F)c5F)c5nc(c(-c6c(F)c(F)c(F)c(F)c6F)c6ccc3[nH]6)C=C5)C=C4)cc1)n2Cc1ccc(Cl)cc1
REMARK SMILES IDX 24 1 23 2 21 3 22 4 18 6 19 7 20 8 17 9 16 10 4 11 5 12 9 13
REMARK SMILES IDX 6 14 8 15 7 16 10 17 93 18 2 19 1 20 3 21 11 22 12 23 13 24
REMARK SMILES IDX 14 25 15 26 94 27 95 28 96 29 101 30 97 31 100 32 98 33
REMARK SMILES IDX 99 34 25 35 26 36 27 37 28 38 29 40 30 41 31 42 92 43 32 44
REMARK SMILES IDX 91 45 33 46 34 47 35 48 85 49 36 50 90 51 84 52 86 53 37 54
REMARK SMILES IDX 89 55 83 56 82 57 38 59 70 60 50 61 69 62 51 63 54 64 68 65
REMARK SMILES IDX 87 66 52 67 53 68 67 70 88 71 55 72 39 73 40 74 48 75 41 76
REMARK SMILES IDX 42 77 46 78 49 79 43 80 44 81 47 82 45 83 71 84 72 85 80 86
REMARK SMILES IDX 73 87 74 88 78 89 81 90 75 91 76 92 79 93 77 94 56 95 57 96
REMARK SMILES IDX 65 97 58 98 59 99 63 100 66 101 60 102 61 103 64 104 62 105
REMARK H PARENT 23 5 27 39 86 58 54 69
REMARK Flexibility Score: inf
ROOT
ATOM      1  C   UNL     1      -6.927   5.498   4.611  1.00  0.00     0.117 C 
ENDROOT
BRANCH   1   2
ATOM      2  N   UNL     1      -6.764   4.106   4.211  1.00  0.00    -0.356 N 
ATOM      3  C   UNL     1      -6.537   3.571   2.974  1.00  0.00     0.226 C 
ATOM      4  O   UNL     1      -6.100   2.414   2.951  1.00  0.00    -0.275 OA
ATOM      5  H   UNL     1      -6.826   3.452   4.943  1.00  0.00     0.163 HD
BRANCH   3   6
ATOM      6  C   UNL     1      -6.601   4.483   1.756  1.00  0.00     0.049 C 
ATOM      7  C   UNL     1      -5.263   5.226   2.022  1.00  0.00     0.022 C 
ATOM      8  C   UNL     1      -7.970   5.225   1.799  1.00  0.00     0.022 C 
BRANCH   6   9
ATOM      9  C   UNL     1      -6.631   3.847   0.332  1.00  0.00     0.071 C 
BRANCH   9  10
ATOM     10  C   UNL     1      -5.408   3.177  -0.118  1.00  0.00     0.034 A 
ATOM     11  C   UNL     1      -1.114   1.432  -0.302  1.00  0.00    -0.045 A 
ATOM     12  C   UNL     1      -1.850   0.260  -0.114  1.00  0.00     0.006 A 
ATOM     13  C   UNL     1      -1.829   2.638  -0.492  1.00  0.00     0.015 A 
ATOM     14  C   UNL     1      -3.249   0.266  -0.053  1.00  0.00     0.027 A 
ATOM     15  C   UNL     1      -3.249   2.687  -0.445  1.00  0.00     0.014 A 
ATOM     16  C   UNL     1      -3.930   1.488  -0.181  1.00  0.00     0.050 A 
ATOM     17  C   UNL     1      -4.227   3.747  -0.567  1.00  0.00     0.037 A 
ATOM     18  N   UNL     1      -5.280   1.790  -0.081  1.00  0.00    -0.339 N 
BRANCH  11  19
ATOM     19  C   UNL     1       0.412   1.463  -0.245  1.00  0.00     0.013 C 
ATOM     20  C   UNL     1       1.092   0.123   0.083  1.00  0.00     0.012 C 
ATOM     21  C   UNL     1       1.016   2.013  -1.542  1.00  0.00     0.012 C 
ENDBRANCH  11  19
BRANCH  17  22
ATOM     22  S   UNL     1      -3.752   5.430  -0.934  1.00  0.00    -0.118 SA
BRANCH  22  23
ATOM     23  C   UNL     1      -5.067   6.745  -1.247  1.00  0.00     0.012 C 
ATOM     24  C   UNL     1      -5.812   6.438  -2.551  1.00  0.00     0.023 C 
ATOM     25  C   UNL     1      -6.114   7.225  -0.209  1.00  0.00     0.023 C 
ATOM     26  C   UNL     1      -4.214   8.034  -1.417  1.00  0.00     0.023 C 
ENDBRANCH  22  23
ENDBRANCH  17  22
BRANCH  18  27
ATOM     27  C   UNL     1      -6.373   0.777  -0.143  1.00  0.00     0.158 C 
BRANCH  27  28
ATOM     28  C   UNL     1      -7.262   0.587   1.079  1.00  0.00    -0.028 A 
ATOM     29  C   UNL     1      -8.500   1.253   1.192  1.00  0.00     0.007 A 
ATOM     30  C   UNL     1      -6.874  -0.237   2.148  1.00  0.00     0.007 A 
ATOM     31  C   UNL     1      -9.201   1.289   2.402  1.00  0.00     0.021 A 
ATOM     32  C   UNL     1      -7.614  -0.259   3.344  1.00  0.00     0.021 A 
ATOM     33  C   UNL     1      -8.736   0.553   3.485  1.00  0.00     0.041 A 
ATOM     34  Cl  UNL     1      -9.530   0.685   5.006  1.00  0.00    -0.084 Cl
ENDBRANCH  27  28
ENDBRANCH  18  27
ENDBRANCH   9  10
ENDBRANCH   6   9
ENDBRANCH   3   6
ENDBRANCH   1   2
BRANCH   1  35
ATOM     35  C   UNL     1      -8.247   5.733   5.307  1.00  0.00     0.042 C 
BRANCH  35  36
ATOM     36  C   UNL     1      -8.349   4.898   6.576  1.00  0.00     0.118 C 
BRANCH  36  37
ATOM     37  N   UNL     1      -7.198   5.053   7.444  1.00  0.00    -0.352 N 
ATOM     38  C   UNL     1      -6.792   6.010   8.327  1.00  0.00     0.251 C 
ATOM     39  H   UNL     1      -6.568   4.299   7.382  1.00  0.00     0.163 HD
ATOM     40  O   UNL     1      -5.718   5.812   8.898  1.00  0.00    -0.269 OA
BRANCH  38  41
ATOM     41  C   UNL     1      -7.501   7.292   8.560  1.00  0.00     0.039 A 
ATOM     42  C   UNL     1      -8.677   7.690   7.926  1.00  0.00     0.014 A 
ATOM     43  C   UNL     1      -6.849   8.201   9.411  1.00  0.00     0.014 A 
ATOM     44  C   UNL     1      -9.075   9.013   7.958  1.00  0.00     0.010 A 
ATOM     45  C   UNL     1      -7.282   9.511   9.507  1.00  0.00     0.010 A 
ATOM     46  C   UNL     1      -8.338   9.927   8.705  1.00  0.00    -0.014 A 
BRANCH  46  47
ATOM     47  C   UNL     1      -8.772  11.314   8.681  1.00  0.00     0.031 A 
ATOM     48  C   UNL     1     -10.152  11.527   9.210  1.00  0.00     0.074 A 
ATOM     49  C   UNL     1      -7.935  12.296   8.294  1.00  0.00     0.049 A 
ATOM     50  N   UNL     1     -11.166  12.093   8.636  1.00  0.00    -0.248 NA
ATOM     51  C   UNL     1     -10.474  10.901  10.507  1.00  0.00     0.031 C 
ATOM     52  C   UNL     1      -6.503  12.204   7.987  1.00  0.00     0.029 A 
ATOM     53  N   UNL     1      -8.178  13.627   8.180  1.00  0.00    -0.354 N 
ATOM     54  C   UNL     1     -12.206  12.039   9.563  1.00  0.00     0.074 A 
ATOM     55  C   UNL     1     -11.770  11.181  10.633  1.00  0.00     0.031 C 
ATOM     56  C   UNL     1      -5.967  13.446   7.964  1.00  0.00     0.029 A 
ATOM     57  C   UNL     1      -7.036  14.416   8.107  1.00  0.00     0.049 A 
ATOM     58  H   UNL     1      -9.088  14.003   8.151  1.00  0.00     0.167 HD
ATOM     59  C   UNL     1     -13.283  12.867   9.497  1.00  0.00     0.037 A 
ATOM     60  C   UNL     1      -6.997  15.765   8.243  1.00  0.00     0.037 A 
ATOM     61  C   UNL     1     -13.473  13.395   8.177  1.00  0.00     0.049 A 
ATOM     62  C   UNL     1      -8.380  16.261   8.025  1.00  0.00     0.074 A 
ATOM     63  C   UNL     1     -13.829  12.848   6.961  1.00  0.00     0.029 A 
ATOM     64  N   UNL     1     -12.935  14.623   7.891  1.00  0.00    -0.354 N 
ATOM     65  N   UNL     1      -9.000  16.207   6.880  1.00  0.00    -0.248 NA
ATOM     66  C   UNL     1      -9.230  16.408   9.196  1.00  0.00     0.031 C 
ATOM     67  C   UNL     1     -13.058  13.557   5.994  1.00  0.00     0.029 A 
ATOM     68  C   UNL     1     -12.320  14.531   6.668  1.00  0.00     0.049 A 
ATOM     69  H   UNL     1     -12.982  15.425   8.460  1.00  0.00     0.167 HD
ATOM     70  C   UNL     1     -10.315  15.908   7.204  1.00  0.00     0.074 A 
ATOM     71  C   UNL     1     -10.411  16.117   8.646  1.00  0.00     0.031 C 
ATOM     72  C   UNL     1     -11.119  15.252   6.319  1.00  0.00     0.037 A 
BRANCH  59  73
ATOM     73  C   UNL     1     -13.960  13.429  10.719  1.00  0.00     0.064 A 
ATOM     74  C   UNL     1     -15.212  14.061  10.615  1.00  0.00     0.173 A 
ATOM     75  C   UNL     1     -13.291  13.596  11.953  1.00  0.00     0.173 A 
ATOM     76  F   UNL     1     -15.909  14.011   9.470  1.00  0.00    -0.203 F 
ATOM     77  C   UNL     1     -15.740  14.822  11.664  1.00  0.00     0.198 A 
ATOM     78  C   UNL     1     -13.845  14.307  13.014  1.00  0.00     0.198 A 
ATOM     79  F   UNL     1     -12.035  13.170  12.138  1.00  0.00    -0.203 F 
ATOM     80  F   UNL     1     -16.890  15.488  11.490  1.00  0.00    -0.200 F 
ATOM     81  C   UNL     1     -15.059  14.939  12.864  1.00  0.00     0.200 A 
ATOM     82  F   UNL     1     -13.154  14.430  14.156  1.00  0.00    -0.200 F 
ATOM     83  F   UNL     1     -15.545  15.700  13.853  1.00  0.00    -0.200 F 
ENDBRANCH  59  73
BRANCH  60  84
ATOM     84  C   UNL     1      -5.982  16.593   8.939  1.00  0.00     0.064 A 
ATOM     85  C   UNL     1      -5.975  17.989   8.780  1.00  0.00     0.173 A 
ATOM     86  C   UNL     1      -5.225  16.081  10.010  1.00  0.00     0.173 A 
ATOM     87  F   UNL     1      -6.701  18.558   7.806  1.00  0.00    -0.203 F 
ATOM     88  C   UNL     1      -5.296  18.826   9.670  1.00  0.00     0.198 A 
ATOM     89  C   UNL     1      -4.542  16.918  10.895  1.00  0.00     0.198 A 
ATOM     90  F   UNL     1      -5.218  14.769  10.284  1.00  0.00    -0.203 F 
ATOM     91  F   UNL     1      -5.381  20.157   9.533  1.00  0.00    -0.200 F 
ATOM     92  C   UNL     1      -4.595  18.291  10.737  1.00  0.00     0.200 A 
ATOM     93  F   UNL     1      -3.896  16.390  11.944  1.00  0.00    -0.200 F 
ATOM     94  F   UNL     1      -4.009  19.095  11.636  1.00  0.00    -0.200 F 
ENDBRANCH  60  84
BRANCH  72  95
ATOM     95  C   UNL     1     -10.596  15.070   4.919  1.00  0.00     0.064 A 
ATOM     96  C   UNL     1      -9.487  14.267   4.596  1.00  0.00     0.173 A 
ATOM     97  C   UNL     1     -11.329  15.611   3.856  1.00  0.00     0.173 A 
ATOM     98  F   UNL     1      -8.794  13.635   5.549  1.00  0.00    -0.203 F 
ATOM     99  C   UNL     1      -9.111  14.049   3.271  1.00  0.00     0.198 A 
ATOM    100  C   UNL     1     -10.973  15.363   2.533  1.00  0.00     0.198 A 
ATOM    101  F   UNL     1     -12.429  16.339   4.103  1.00  0.00    -0.203 F 
ATOM    102  F   UNL     1      -8.048  13.280   2.989  1.00  0.00    -0.200 F 
ATOM    103  C   UNL     1      -9.861  14.590   2.240  1.00  0.00     0.200 A 
ATOM    104  F   UNL     1     -11.732  15.845   1.539  1.00  0.00    -0.200 F 
ATOM    105  F   UNL     1      -9.532  14.340   0.965  1.00  0.00    -0.200 F 
ENDBRANCH  72  95
ENDBRANCH  46  47
ENDBRANCH  38  41
ENDBRANCH  36  37
ENDBRANCH  35  36
ENDBRANCH   1  35
TORSDOF 17
