REMARK SMILES O=C1C[C@@H](C(=O)NCCCNC(=O)c2ccc(-c3c4nc(c(-c5c(F)c(F)c(F)c(F)c5F)c5ccc([nH]5)c(-c5c(F)c(F)c(F)c(F)c5F)c5nc(c(-c6c(F)c(F)c(F)c(F)c6F)c6ccc3[nH]6)C=C5)C=C4)cc2)C2(CC[NH+](Cc3c[nH]nc3-c3ccc(Cl)cc3)CC2)N1
REMARK SMILES IDX 8 1 7 2 5 3 6 4 4 6 1 7 2 8 3 9 96 10 77 11 78 13 95 14
REMARK SMILES IDX 79 15 94 16 80 17 81 19 82 20 83 21 86 22 84 23 85 24 87 26
REMARK SMILES IDX 88 27 93 28 89 29 92 30 90 31 91 32 9 33 10 34 11 35 12 36
REMARK SMILES IDX 13 38 14 39 15 40 76 41 16 42 75 43 17 44 18 45 19 46 69 47
REMARK SMILES IDX 20 48 74 49 68 50 70 51 21 52 73 53 67 54 66 55 22 57 54 58
REMARK SMILES IDX 34 59 53 60 35 61 38 62 52 63 71 64 36 65 37 66 51 68 72 69
REMARK SMILES IDX 39 70 23 71 24 72 32 73 25 74 26 75 30 76 33 77 27 78 28 79
REMARK SMILES IDX 31 80 29 81 55 82 56 83 64 84 57 85 58 86 62 87 65 88 59 89
REMARK SMILES IDX 60 90 63 91 61 92 40 93 41 94 49 95 42 96 43 97 47 98 50 99
REMARK SMILES IDX 44 100 45 101 48 102 46 103
REMARK H PARENT 7 5 96 12 80 18 84 25 11 37 70 56 38 67
REMARK Flexibility Score: inf
ROOT
ATOM      1  C   UNL     1       1.538   1.835  -1.579  1.00  0.00     0.117 C 
ENDROOT
BRANCH   1   2
ATOM      2  N   UNL     1       2.658   1.704  -2.500  1.00  0.00    -0.356 N 
ATOM      3  C   UNL     1       3.794   0.962  -2.503  1.00  0.00     0.226 C 
ATOM      4  O   UNL     1       4.533   1.111  -3.484  1.00  0.00    -0.275 OA
ATOM      5  H   UNL     1       2.572   2.279  -3.294  1.00  0.00     0.163 HD
BRANCH   3   6
ATOM      6  C   UNL     1       4.248   0.032  -1.378  1.00  0.00     0.114 C 
ATOM      7  O   UNL     1       1.739  -1.099   0.904  1.00  0.00    -0.275 OA
ATOM      8  C   UNL     1       2.680  -0.613   0.307  1.00  0.00     0.221 C 
ATOM      9  C   UNL     1       3.221  -1.053  -1.029  1.00  0.00     0.116 C 
ATOM     10  N   UNL     1       3.412   0.471   0.738  1.00  0.00    -0.349 N 
ATOM     11  C   UNL     1       4.628   0.688  -0.033  1.00  0.00     0.063 C 
ATOM     12  H   UNL     1       3.141   1.042   1.492  1.00  0.00     0.164 HD
ATOM     13  C   UNL     1       4.953   2.188  -0.128  1.00  0.00     0.091 C 
ATOM     14  C   UNL     1       5.742  -0.127   0.693  1.00  0.00     0.091 C 
ATOM     15  C   UNL     1       6.425   2.492  -0.350  1.00  0.00     0.264 C 
ATOM     16  C   UNL     1       7.162   0.431   0.612  1.00  0.00     0.264 C 
ATOM     17  N   UNL     1       7.268   1.879   0.654  1.00  0.00    -0.331 N 
ATOM     18  H   UNL     1       8.233   2.069   0.385  1.00  0.00     0.348 HD
BRANCH  17  19
ATOM     19  C   UNL     1       7.374   2.554   1.957  1.00  0.00     0.303 C 
BRANCH  19  20
ATOM     20  C   UNL     1       6.140   2.551   2.807  1.00  0.00     0.052 A 
ATOM     21  C   UNL     1       5.676   1.505   3.586  1.00  0.00     0.115 A 
ATOM     22  C   UNL     1       5.244   3.632   3.135  1.00  0.00     0.101 A 
ATOM     23  N   UNL     1       4.513   1.917   4.152  1.00  0.00    -0.285 N 
ATOM     24  N   UNL     1       4.223   3.194   3.893  1.00  0.00    -0.175 NA
ATOM     25  H   UNL     1       3.941   1.332   4.700  1.00  0.00     0.189 HD
BRANCH  22  26
ATOM     26  C   UNL     1       5.321   5.059   2.816  1.00  0.00     0.003 A 
ATOM     27  C   UNL     1       5.311   5.984   3.871  1.00  0.00     0.012 A 
ATOM     28  C   UNL     1       5.369   5.540   1.504  1.00  0.00     0.012 A 
ATOM     29  C   UNL     1       5.386   7.358   3.621  1.00  0.00     0.021 A 
ATOM     30  C   UNL     1       5.452   6.914   1.249  1.00  0.00     0.021 A 
ATOM     31  C   UNL     1       5.465   7.816   2.310  1.00  0.00     0.041 A 
ATOM     32  Cl  UNL     1       5.571   9.503   1.994  1.00  0.00    -0.084 Cl
ENDBRANCH  22  26
ENDBRANCH  19  20
ENDBRANCH  17  19
ENDBRANCH   3   6
ENDBRANCH   1   2
BRANCH   1  33
ATOM     33  C   UNL     1       1.526   3.148  -0.797  1.00  0.00     0.042 C 
BRANCH  33  34
ATOM     34  C   UNL     1       1.338   4.379  -1.675  1.00  0.00     0.118 C 
BRANCH  34  35
ATOM     35  N   UNL     1       0.052   4.359  -2.356  1.00  0.00    -0.352 N 
ATOM     36  C   UNL     1      -1.070   5.118  -2.153  1.00  0.00     0.251 C 
ATOM     37  H   UNL     1      -0.023   3.693  -3.078  1.00  0.00     0.163 HD
ATOM     38  O   UNL     1      -2.147   4.731  -2.597  1.00  0.00    -0.269 OA
BRANCH  36  39
ATOM     39  C   UNL     1      -0.996   6.401  -1.422  1.00  0.00     0.039 A 
ATOM     40  C   UNL     1      -2.082   6.791  -0.633  1.00  0.00     0.014 A 
ATOM     41  C   UNL     1       0.098   7.258  -1.571  1.00  0.00     0.014 A 
ATOM     42  C   UNL     1      -2.056   8.021   0.025  1.00  0.00     0.010 A 
ATOM     43  C   UNL     1       0.164   8.441  -0.840  1.00  0.00     0.010 A 
ATOM     44  C   UNL     1      -0.923   8.847  -0.054  1.00  0.00    -0.014 A 
BRANCH  44  45
ATOM     45  C   UNL     1      -0.876  10.151   0.656  1.00  0.00     0.031 A 
ATOM     46  C   UNL     1      -0.759  11.434  -0.123  1.00  0.00     0.074 A 
ATOM     47  C   UNL     1      -0.904  10.174   2.002  1.00  0.00     0.049 A 
ATOM     48  N   UNL     1      -0.683  12.665   0.317  1.00  0.00    -0.248 NA
ATOM     49  C   UNL     1      -0.692  11.321  -1.589  1.00  0.00     0.031 C 
ATOM     50  C   UNL     1      -0.970   8.994   2.866  1.00  0.00     0.029 A 
ATOM     51  N   UNL     1      -0.881  11.227   2.882  1.00  0.00    -0.354 N 
ATOM     52  C   UNL     1      -0.542  13.463  -0.812  1.00  0.00     0.074 A 
ATOM     53  C   UNL     1      -0.487  12.578  -1.953  1.00  0.00     0.031 C 
ATOM     54  C   UNL     1      -1.020   9.389   4.148  1.00  0.00     0.029 A 
ATOM     55  C   UNL     1      -0.944  10.845   4.200  1.00  0.00     0.049 A 
ATOM     56  H   UNL     1      -0.825  12.167   2.595  1.00  0.00     0.167 HD
ATOM     57  C   UNL     1      -0.488  14.814  -0.890  1.00  0.00     0.037 A 
ATOM     58  C   UNL     1      -0.936  11.588   5.323  1.00  0.00     0.037 A 
ATOM     59  C   UNL     1      -0.575  15.690   0.248  1.00  0.00     0.049 A 
ATOM     60  C   UNL     1      -0.863  13.088   5.203  1.00  0.00     0.074 A 
ATOM     61  C   UNL     1      -0.603  17.074   0.271  1.00  0.00     0.029 A 
ATOM     62  N   UNL     1      -0.640  15.267   1.568  1.00  0.00    -0.354 N 
ATOM     63  N   UNL     1      -0.820  13.834   4.126  1.00  0.00    -0.248 NA
ATOM     64  C   UNL     1      -0.845  13.849   6.460  1.00  0.00     0.031 C 
ATOM     65  C   UNL     1      -0.620  17.488   1.606  1.00  0.00     0.029 A 
ATOM     66  C   UNL     1      -0.674  16.363   2.414  1.00  0.00     0.049 A 
ATOM     67  H   UNL     1      -0.658  14.326   1.859  1.00  0.00     0.167 HD
ATOM     68  C   UNL     1      -0.806  15.149   4.572  1.00  0.00     0.074 A 
ATOM     69  C   UNL     1      -0.865  15.098   6.018  1.00  0.00     0.031 C 
ATOM     70  C   UNL     1      -0.749  16.295   3.851  1.00  0.00     0.037 A 
BRANCH  57  71
ATOM     71  C   UNL     1      -0.328  15.435  -2.249  1.00  0.00     0.064 A 
ATOM     72  C   UNL     1      -1.352  15.394  -3.208  1.00  0.00     0.173 A 
ATOM     73  C   UNL     1       0.845  16.134  -2.575  1.00  0.00     0.173 A 
ATOM     74  F   UNL     1      -2.491  14.732  -2.952  1.00  0.00    -0.203 F 
ATOM     75  C   UNL     1      -1.198  16.006  -4.449  1.00  0.00     0.198 A 
ATOM     76  C   UNL     1       0.982  16.773  -3.805  1.00  0.00     0.198 A 
ATOM     77  F   UNL     1       1.854  16.211  -1.695  1.00  0.00    -0.203 F 
ATOM     78  F   UNL     1      -2.173  15.914  -5.365  1.00  0.00    -0.200 F 
ATOM     79  C   UNL     1      -0.037  16.703  -4.743  1.00  0.00     0.200 A 
ATOM     80  F   UNL     1       2.099  17.460  -4.080  1.00  0.00    -0.200 F 
ATOM     81  F   UNL     1       0.103  17.305  -5.932  1.00  0.00    -0.200 F 
ENDBRANCH  57  71
BRANCH  58  82
ATOM     82  C   UNL     1      -1.021  10.936   6.657  1.00  0.00     0.064 A 
ATOM     83  C   UNL     1      -2.139  11.125   7.482  1.00  0.00     0.173 A 
ATOM     84  C   UNL     1       0.023  10.139   7.150  1.00  0.00     0.173 A 
ATOM     85  F   UNL     1      -3.156  11.894   7.065  1.00  0.00    -0.203 F 
ATOM     86  C   UNL     1      -2.194  10.574   8.761  1.00  0.00     0.198 A 
ATOM     87  C   UNL     1      -0.049   9.558   8.415  1.00  0.00     0.198 A 
ATOM     88  F   UNL     1       1.114   9.920   6.402  1.00  0.00    -0.203 F 
ATOM     89  F   UNL     1      -3.246  10.827   9.552  1.00  0.00    -0.200 F 
ATOM     90  C   UNL     1      -1.151   9.788   9.225  1.00  0.00     0.200 A 
ATOM     91  F   UNL     1       0.955   8.786   8.854  1.00  0.00    -0.200 F 
ATOM     92  F   UNL     1      -1.202   9.262  10.456  1.00  0.00    -0.200 F 
ENDBRANCH  58  82
BRANCH  70  93
ATOM     93  C   UNL     1      -0.800  17.591   4.609  1.00  0.00     0.064 A 
ATOM     94  C   UNL     1       0.266  18.021   5.413  1.00  0.00     0.173 A 
ATOM     95  C   UNL     1      -1.918  18.432   4.496  1.00  0.00     0.173 A 
ATOM     96  F   UNL     1       1.352  17.248   5.565  1.00  0.00    -0.203 F 
ATOM     97  C   UNL     1       0.201  19.230   6.100  1.00  0.00     0.198 A 
ATOM     98  C   UNL     1      -1.963  19.657   5.155  1.00  0.00     0.198 A 
ATOM     99  F   UNL     1      -2.961  18.073   3.733  1.00  0.00    -0.203 F 
ATOM    100  F   UNL     1       1.207  19.594   6.907  1.00  0.00    -0.200 F 
ATOM    101  C   UNL     1      -0.908  20.051   5.964  1.00  0.00     0.200 A 
ATOM    102  F   UNL     1      -3.028  20.457   5.006  1.00  0.00    -0.200 F 
ATOM    103  F   UNL     1      -0.964  21.219   6.618  1.00  0.00    -0.200 F 
ENDBRANCH  70  93
ENDBRANCH  44  45
ENDBRANCH  36  39
ENDBRANCH  34  35
ENDBRANCH  33  34
ENDBRANCH   1  33
TORSDOF 13
