REMARK SMILES C[C@H]([NH2+]Cc1ccccc1F)C(=O)NCCCNC(=O)c1ccc(-c2c3nc(c(-c4c(F)c(F)c(F)c(F)c4F)c4ccc([nH]4)c(-c4c(F)c(F)c(F)c(F)c4F)c4nc(c(-c5c(F)c(F)c(F)c(F)c5F)c5ccc2[nH]5)C=C4)C=C3)cc1
REMARK SMILES IDX 15 1 14 2 12 3 13 4 2 6 1 7 3 8 4 11 5 12 6 13 10 14 7 15
REMARK SMILES IDX 9 16 11 17 8 18 16 19 17 20 18 21 19 22 20 24 21 25 22 26
REMARK SMILES IDX 83 27 23 28 82 29 24 30 25 31 26 32 76 33 27 34 81 35 75 36
REMARK SMILES IDX 77 37 28 38 80 39 74 40 73 41 29 43 61 44 41 45 60 46 42 47
REMARK SMILES IDX 45 48 59 49 78 50 43 51 44 52 58 54 79 55 46 56 30 57 31 58
REMARK SMILES IDX 39 59 32 60 33 61 37 62 40 63 34 64 35 65 38 66 36 67 62 68
REMARK SMILES IDX 63 69 71 70 64 71 65 72 69 73 72 74 66 75 67 76 70 77 68 78
REMARK SMILES IDX 47 79 48 80 56 81 49 82 50 83 54 84 57 85 51 86 52 87 55 88
REMARK SMILES IDX 53 89
REMARK H PARENT 14 5 3 9 3 10 18 23 77 42 45 53
REMARK Flexibility Score: inf
ROOT
ATOM      1  C   UNL     1      -1.405  -0.429   2.387  1.00  0.00     0.118 C 
ENDROOT
BRANCH   1   2
ATOM      2  N   UNL     1      -1.746  -0.965   1.086  1.00  0.00    -0.351 N 
ATOM      3  C   UNL     1      -0.978  -1.407   0.057  1.00  0.00     0.277 C 
ATOM      4  O   UNL     1      -1.576  -1.654  -0.998  1.00  0.00    -0.268 OA
ATOM      5  H   UNL     1      -2.715  -1.019   0.916  1.00  0.00     0.163 HD
BRANCH   3   6
ATOM      6  C   UNL     1       0.549  -1.612   0.148  1.00  0.00     0.269 C 
ATOM      7  C   UNL     1       0.960  -2.653   1.186  1.00  0.00     0.086 C 
BRANCH   6   8
ATOM      8  N   UNL     1       1.309  -0.350   0.084  1.00  0.00    -0.332 N 
ATOM      9  H   UNL     1       0.701   0.345  -0.349  1.00  0.00     0.347 HD
ATOM     10  H   UNL     1       2.154  -0.594  -0.433  1.00  0.00     0.347 HD
BRANCH   8  11
ATOM     11  C   UNL     1       1.804   0.227   1.322  1.00  0.00     0.301 C 
BRANCH  11  12
ATOM     12  C   UNL     1       2.998   1.139   1.153  1.00  0.00     0.042 A 
ATOM     13  C   UNL     1       3.531   1.520  -0.085  1.00  0.00     0.012 A 
ATOM     14  C   UNL     1       3.609   1.633   2.314  1.00  0.00     0.132 A 
ATOM     15  C   UNL     1       4.649   2.360  -0.148  1.00  0.00     0.001 A 
ATOM     16  C   UNL     1       4.724   2.464   2.260  1.00  0.00     0.040 A 
ATOM     17  F   UNL     1       3.114   1.299   3.516  1.00  0.00    -0.206 F 
ATOM     18  C   UNL     1       5.247   2.828   1.022  1.00  0.00     0.003 A 
ENDBRANCH  11  12
ENDBRANCH   8  11
ENDBRANCH   6   8
ENDBRANCH   3   6
ENDBRANCH   1   2
BRANCH   1  19
ATOM     19  C   UNL     1      -1.590   1.087   2.430  1.00  0.00     0.042 C 
BRANCH  19  20
ATOM     20  C   UNL     1      -3.048   1.537   2.441  1.00  0.00     0.118 C 
BRANCH  20  21
ATOM     21  N   UNL     1      -3.721   1.202   3.686  1.00  0.00    -0.352 N 
ATOM     22  C   UNL     1      -4.314   2.013   4.623  1.00  0.00     0.251 C 
ATOM     23  H   UNL     1      -3.758   0.240   3.890  1.00  0.00     0.163 HD
ATOM     24  O   UNL     1      -4.651   1.539   5.703  1.00  0.00    -0.269 OA
BRANCH  22  25
ATOM     25  C   UNL     1      -4.540   3.451   4.355  1.00  0.00     0.039 A 
ATOM     26  C   UNL     1      -4.320   4.367   5.390  1.00  0.00     0.014 A 
ATOM     27  C   UNL     1      -5.015   3.900   3.120  1.00  0.00     0.014 A 
ATOM     28  C   UNL     1      -4.513   5.732   5.168  1.00  0.00     0.010 A 
ATOM     29  C   UNL     1      -5.147   5.267   2.879  1.00  0.00     0.010 A 
ATOM     30  C   UNL     1      -4.895   6.196   3.899  1.00  0.00    -0.014 A 
BRANCH  30  31
ATOM     31  C   UNL     1      -5.020   7.648   3.616  1.00  0.00     0.031 A 
ATOM     32  C   UNL     1      -6.358   8.246   3.288  1.00  0.00     0.074 A 
ATOM     33  C   UNL     1      -3.913   8.415   3.590  1.00  0.00     0.049 A 
ATOM     34  N   UNL     1      -6.649   9.469   2.921  1.00  0.00    -0.248 NA
ATOM     35  C   UNL     1      -7.522   7.349   3.365  1.00  0.00     0.031 C 
ATOM     36  C   UNL     1      -2.555   7.944   3.862  1.00  0.00     0.029 A 
ATOM     37  N   UNL     1      -3.753   9.749   3.311  1.00  0.00    -0.354 N 
ATOM     38  C   UNL     1      -8.021   9.484   2.709  1.00  0.00     0.074 A 
ATOM     39  C   UNL     1      -8.502   8.141   2.951  1.00  0.00     0.031 C 
ATOM     40  C   UNL     1      -1.703   8.975   3.756  1.00  0.00     0.029 A 
ATOM     41  C   UNL     1      -2.447  10.171   3.370  1.00  0.00     0.049 A 
ATOM     42  H   UNL     1      -4.503  10.348   3.090  1.00  0.00     0.167 HD
ATOM     43  C   UNL     1      -8.807  10.530   2.362  1.00  0.00     0.037 A 
ATOM     44  C   UNL     1      -1.908  11.380   3.128  1.00  0.00     0.037 A 
ATOM     45  C   UNL     1      -8.331  11.872   2.154  1.00  0.00     0.049 A 
ATOM     46  C   UNL     1      -2.801  12.520   2.726  1.00  0.00     0.074 A 
ATOM     47  C   UNL     1      -9.063  13.010   1.863  1.00  0.00     0.029 A 
ATOM     48  N   UNL     1      -7.000  12.256   2.217  1.00  0.00    -0.354 N 
ATOM     49  N   UNL     1      -4.101  12.531   2.569  1.00  0.00    -0.248 NA
ATOM     50  C   UNL     1      -2.153  13.813   2.463  1.00  0.00     0.031 C 
ATOM     51  C   UNL     1      -8.171  14.076   1.712  1.00  0.00     0.029 A 
ATOM     52  C   UNL     1      -6.888  13.611   1.948  1.00  0.00     0.049 A 
ATOM     53  H   UNL     1      -6.247  11.656   2.422  1.00  0.00     0.167 HD
ATOM     54  C   UNL     1      -4.431  13.829   2.206  1.00  0.00     0.074 A 
ATOM     55  C   UNL     1      -3.195  14.583   2.176  1.00  0.00     0.031 C 
ATOM     56  C   UNL     1      -5.650  14.347   1.922  1.00  0.00     0.037 A 
BRANCH  43  57
ATOM     57  C   UNL     1     -10.276  10.276   2.195  1.00  0.00     0.064 A 
ATOM     58  C   UNL     1     -10.867  10.322   0.923  1.00  0.00     0.173 A 
ATOM     59  C   UNL     1     -11.111  10.063   3.301  1.00  0.00     0.173 A 
ATOM     60  F   UNL     1     -10.112  10.531  -0.166  1.00  0.00    -0.203 F 
ATOM     61  C   UNL     1     -12.242  10.174   0.767  1.00  0.00     0.198 A 
ATOM     62  C   UNL     1     -12.483   9.890   3.139  1.00  0.00     0.198 A 
ATOM     63  F   UNL     1     -10.592  10.002   4.537  1.00  0.00    -0.203 F 
ATOM     64  F   UNL     1     -12.789  10.249  -0.454  1.00  0.00    -0.200 F 
ATOM     65  C   UNL     1     -13.048   9.955   1.874  1.00  0.00     0.200 A 
ATOM     66  F   UNL     1     -13.258   9.659   4.207  1.00  0.00    -0.200 F 
ATOM     67  F   UNL     1     -14.371   9.805   1.722  1.00  0.00    -0.200 F 
ENDBRANCH  43  57
BRANCH  44  68
ATOM     68  C   UNL     1      -0.444  11.571   3.285  1.00  0.00     0.064 A 
ATOM     69  C   UNL     1       0.468  11.011   2.380  1.00  0.00     0.173 A 
ATOM     70  C   UNL     1       0.070  12.290   4.372  1.00  0.00     0.173 A 
ATOM     71  F   UNL     1       0.024  10.311   1.325  1.00  0.00    -0.203 F 
ATOM     72  C   UNL     1       1.842  11.144   2.569  1.00  0.00     0.198 A 
ATOM     73  C   UNL     1       1.444  12.442   4.548  1.00  0.00     0.198 A 
ATOM     74  F   UNL     1      -0.765  12.861   5.252  1.00  0.00    -0.203 F 
ATOM     75  F   UNL     1       2.694  10.571   1.708  1.00  0.00    -0.200 F 
ATOM     76  C   UNL     1       2.329  11.862   3.651  1.00  0.00     0.200 A 
ATOM     77  F   UNL     1       1.910  13.153   5.584  1.00  0.00    -0.200 F 
ATOM     78  F   UNL     1       3.650  11.995   3.830  1.00  0.00    -0.200 F 
ENDBRANCH  44  68
BRANCH  56  79
ATOM     79  C   UNL     1      -5.723  15.800   1.563  1.00  0.00     0.064 A 
ATOM     80  C   UNL     1      -6.271  16.728   2.461  1.00  0.00     0.173 A 
ATOM     81  C   UNL     1      -5.333  16.257   0.297  1.00  0.00     0.173 A 
ATOM     82  F   UNL     1      -6.664  16.336   3.682  1.00  0.00    -0.203 F 
ATOM     83  C   UNL     1      -6.444  18.060   2.095  1.00  0.00     0.198 A 
ATOM     84  C   UNL     1      -5.487  17.594  -0.058  1.00  0.00     0.198 A 
ATOM     85  F   UNL     1      -4.792  15.408  -0.590  1.00  0.00    -0.203 F 
ATOM     86  F   UNL     1      -7.000  18.923   2.956  1.00  0.00    -0.200 F 
ATOM     87  C   UNL     1      -6.051  18.491   0.837  1.00  0.00     0.200 A 
ATOM     88  F   UNL     1      -5.090  18.015  -1.266  1.00  0.00    -0.200 F 
ATOM     89  F   UNL     1      -6.216  19.774   0.487  1.00  0.00    -0.200 F 
ENDBRANCH  56  79
ENDBRANCH  30  31
ENDBRANCH  22  25
ENDBRANCH  20  21
ENDBRANCH  19  20
ENDBRANCH   1  19
TORSDOF 13
