REMARK SMILES Cc1cccc(-n2ncc(C(=O)Nc3cccc(C(=O)NCCCNC(=O)c4ccc(-c5c6nc(c(-c7c(F)c(F)c(F)c(F)c7F)c7ccc([nH]7)c(-c7c(F)c(F)c(F)c(F)c7F)c7nc(c(-c8c(F)c(F)c(F)c(F)c8F)c8ccc5[nH]8)C=C7)C=C6)cc4)c3C)c2C)c1
REMARK SMILES IDX 22 1 21 2 19 3 20 4 18 6 14 7 15 8 91 9 16 10 92 11 17 12
REMARK SMILES IDX 13 13 11 14 12 15 10 17 7 18 8 19 93 20 9 21 94 22 6 23 1 24
REMARK SMILES IDX 2 25 3 26 95 27 4 28 5 29 23 30 24 31 25 32 26 33 27 35
REMARK SMILES IDX 28 36 29 37 90 38 30 39 89 40 31 41 32 42 33 43 83 44 34 45
REMARK SMILES IDX 88 46 82 47 84 48 35 49 87 50 81 51 80 52 36 54 68 55 48 56
REMARK SMILES IDX 67 57 49 58 52 59 66 60 85 61 50 62 51 63 65 65 86 66 53 67
REMARK SMILES IDX 37 68 38 69 46 70 39 71 40 72 44 73 47 74 41 75 42 76 45 77
REMARK SMILES IDX 43 78 69 79 70 80 78 81 71 82 72 83 76 84 79 85 73 86 74 87
REMARK SMILES IDX 77 88 75 89 54 90 55 91 63 92 56 93 57 94 61 95 64 96 58 97
REMARK SMILES IDX 59 98 62 99 60 100
REMARK H PARENT 21 5 13 16 25 34 84 53 52 64
REMARK Flexibility Score: inf
ROOT
ATOM      1  C   UNL     1      -1.001   9.088  -3.756  1.00  0.00     0.118 C 
ENDROOT
BRANCH   1   2
ATOM      2  N   UNL     1      -1.483   9.859  -2.619  1.00  0.00    -0.352 N 
ATOM      3  C   UNL     1      -2.413   9.628  -1.628  1.00  0.00     0.251 C 
ATOM      4  O   UNL     1      -2.557  10.558  -0.836  1.00  0.00    -0.269 OA
ATOM      5  H   UNL     1      -1.049  10.740  -2.541  1.00  0.00     0.163 HD
BRANCH   3   6
ATOM      6  C   UNL     1      -3.195   8.344  -1.466  1.00  0.00     0.044 A 
ATOM      7  C   UNL     1      -4.199   6.598  -0.091  1.00  0.00     0.045 A 
ATOM      8  C   UNL     1      -4.422   5.808  -1.224  1.00  0.00     0.026 A 
ATOM      9  C   UNL     1      -3.685   7.916  -0.200  1.00  0.00    -0.015 A 
ATOM     10  C   UNL     1      -4.074   6.283  -2.471  1.00  0.00     0.003 A 
ATOM     11  C   UNL     1      -3.561   8.745   1.058  1.00  0.00     0.047 C 
ATOM     12  C   UNL     1      -3.455   7.525  -2.577  1.00  0.00     0.014 A 
BRANCH   7  13
ATOM     13  N   UNL     1      -4.463   6.041   1.170  1.00  0.00    -0.322 N 
ATOM     14  C   UNL     1      -4.168   4.775   1.632  1.00  0.00     0.259 C 
ATOM     15  O   UNL     1      -4.777   4.365   2.620  1.00  0.00    -0.269 OA
ATOM     16  H   UNL     1      -4.919   6.634   1.811  1.00  0.00     0.170 HD
BRANCH  14  17
ATOM     17  C   UNL     1      -3.072   4.012   1.027  1.00  0.00     0.081 A 
ATOM     18  N   UNL     1      -1.656   2.368   0.487  1.00  0.00    -0.237 N 
ATOM     19  N   UNL     1      -1.125   3.487  -0.064  1.00  0.00    -0.175 NA
ATOM     20  C   UNL     1      -2.771   2.671   1.260  1.00  0.00     0.054 A 
ATOM     21  C   UNL     1      -1.987   4.452   0.239  1.00  0.00     0.149 A 
ATOM     22  C   UNL     1      -3.392   1.746   2.250  1.00  0.00     0.068 C 
BRANCH  18  23
ATOM     23  C   UNL     1      -1.016   1.119   0.263  1.00  0.00     0.065 A 
ATOM     24  C   UNL     1       2.548  -0.140  -0.223  1.00  0.00     0.044 C 
ATOM     25  C   UNL     1       1.054  -0.112  -0.095  1.00  0.00    -0.049 A 
ATOM     26  C   UNL     1       0.327  -1.308  -0.070  1.00  0.00     0.003 A 
ATOM     27  C   UNL     1       0.371   1.102   0.042  1.00  0.00     0.031 A 
ATOM     28  C   UNL     1      -1.060  -1.291   0.090  1.00  0.00     0.002 A 
ATOM     29  C   UNL     1      -1.734  -0.081   0.261  1.00  0.00     0.028 A 
ENDBRANCH  18  23
ENDBRANCH  14  17
ENDBRANCH   7  13
ENDBRANCH   3   6
ENDBRANCH   1   2
BRANCH   1  30
ATOM     30  C   UNL     1      -1.896   9.295  -4.979  1.00  0.00     0.042 C 
BRANCH  30  31
ATOM     31  C   UNL     1      -1.476  10.440  -5.884  1.00  0.00     0.118 C 
BRANCH  31  32
ATOM     32  N   UNL     1      -0.796   9.998  -7.098  1.00  0.00    -0.352 N 
ATOM     33  C   UNL     1      -0.387  10.749  -8.188  1.00  0.00     0.251 C 
ATOM     34  H   UNL     1      -0.601   9.035  -7.150  1.00  0.00     0.163 HD
ATOM     35  O   UNL     1       0.200  10.233  -9.123  1.00  0.00    -0.269 OA
BRANCH  33  36
ATOM     36  C   UNL     1      -0.552  12.219  -8.124  1.00  0.00     0.039 A 
ATOM     37  C   UNL     1       0.605  13.000  -8.206  1.00  0.00     0.014 A 
ATOM     38  C   UNL     1      -1.757  12.767  -7.697  1.00  0.00     0.014 A 
ATOM     39  C   UNL     1       0.615  14.249  -7.596  1.00  0.00     0.010 A 
ATOM     40  C   UNL     1      -1.718  13.955  -6.997  1.00  0.00     0.010 A 
ATOM     41  C   UNL     1      -0.508  14.650  -6.875  1.00  0.00    -0.014 A 
BRANCH  41  42
ATOM     42  C   UNL     1      -0.462  15.684  -5.847  1.00  0.00     0.031 A 
ATOM     43  C   UNL     1      -1.158  16.971  -6.045  1.00  0.00     0.074 A 
ATOM     44  C   UNL     1       0.137  15.410  -4.665  1.00  0.00     0.049 A 
ATOM     45  N   UNL     1      -0.953  18.026  -5.332  1.00  0.00    -0.248 NA
ATOM     46  C   UNL     1      -2.091  17.196  -7.140  1.00  0.00     0.031 C 
ATOM     47  C   UNL     1       0.002  16.145  -3.410  1.00  0.00     0.029 A 
ATOM     48  N   UNL     1       1.180  14.497  -4.423  1.00  0.00    -0.354 N 
ATOM     49  C   UNL     1      -1.903  18.961  -5.672  1.00  0.00     0.074 A 
ATOM     50  C   UNL     1      -2.500  18.440  -6.876  1.00  0.00     0.031 C 
ATOM     51  C   UNL     1       1.074  15.894  -2.643  1.00  0.00     0.029 A 
ATOM     52  C   UNL     1       1.998  15.118  -3.450  1.00  0.00     0.049 A 
ATOM     53  H   UNL     1       1.312  13.615  -4.841  1.00  0.00     0.167 HD
ATOM     54  C   UNL     1      -2.145  19.988  -4.804  1.00  0.00     0.037 A 
ATOM     55  C   UNL     1       3.288  15.477  -3.712  1.00  0.00     0.037 A 
ATOM     56  C   UNL     1      -1.097  20.051  -3.779  1.00  0.00     0.049 A 
ATOM     57  C   UNL     1       3.579  16.941  -3.489  1.00  0.00     0.074 A 
ATOM     58  C   UNL     1      -1.040  19.675  -2.447  1.00  0.00     0.029 A 
ATOM     59  N   UNL     1       0.215  20.310  -4.168  1.00  0.00    -0.354 N 
ATOM     60  N   UNL     1       2.664  17.870  -3.475  1.00  0.00    -0.248 NA
ATOM     61  C   UNL     1       4.924  17.477  -3.304  1.00  0.00     0.031 C 
ATOM     62  C   UNL     1       0.323  19.664  -2.050  1.00  0.00     0.029 A 
ATOM     63  C   UNL     1       1.092  20.054  -3.133  1.00  0.00     0.049 A 
ATOM     64  H   UNL     1       0.481  20.633  -5.059  1.00  0.00     0.167 HD
ATOM     65  C   UNL     1       3.258  19.095  -3.306  1.00  0.00     0.074 A 
ATOM     66  C   UNL     1       4.672  18.792  -3.182  1.00  0.00     0.031 C 
ATOM     67  C   UNL     1       2.526  20.248  -3.301  1.00  0.00     0.037 A 
BRANCH  54  68
ATOM     68  C   UNL     1      -3.447  20.777  -4.705  1.00  0.00     0.064 A 
ATOM     69  C   UNL     1      -3.738  21.528  -3.539  1.00  0.00     0.173 A 
ATOM     70  C   UNL     1      -4.497  20.764  -5.646  1.00  0.00     0.173 A 
ATOM     71  F   UNL     1      -2.824  21.713  -2.578  1.00  0.00    -0.203 F 
ATOM     72  C   UNL     1      -4.988  22.117  -3.304  1.00  0.00     0.198 A 
ATOM     73  C   UNL     1      -5.749  21.343  -5.408  1.00  0.00     0.198 A 
ATOM     74  F   UNL     1      -4.370  20.220  -6.854  1.00  0.00    -0.203 F 
ATOM     75  F   UNL     1      -5.206  22.782  -2.161  1.00  0.00    -0.200 F 
ATOM     76  C   UNL     1      -6.002  22.006  -4.230  1.00  0.00     0.200 A 
ATOM     77  F   UNL     1      -6.709  21.241  -6.339  1.00  0.00    -0.200 F 
ATOM     78  F   UNL     1      -7.205  22.545  -4.000  1.00  0.00    -0.200 F 
ENDBRANCH  54  68
BRANCH  55  79
ATOM     79  C   UNL     1       3.944  14.629  -4.740  1.00  0.00     0.064 A 
ATOM     80  C   UNL     1       4.112  13.257  -4.471  1.00  0.00     0.173 A 
ATOM     81  C   UNL     1       4.060  15.048  -6.070  1.00  0.00     0.173 A 
ATOM     82  F   UNL     1       4.006  12.803  -3.212  1.00  0.00    -0.203 F 
ATOM     83  C   UNL     1       4.270  12.331  -5.500  1.00  0.00     0.198 A 
ATOM     84  C   UNL     1       4.233  14.118  -7.098  1.00  0.00     0.198 A 
ATOM     85  F   UNL     1       3.889  16.337  -6.393  1.00  0.00    -0.203 F 
ATOM     86  F   UNL     1       4.310  11.021  -5.220  1.00  0.00    -0.200 F 
ATOM     87  C   UNL     1       4.303  12.761  -6.815  1.00  0.00     0.200 A 
ATOM     88  F   UNL     1       4.229  14.528  -8.374  1.00  0.00    -0.200 F 
ATOM     89  F   UNL     1       4.355  11.867  -7.813  1.00  0.00    -0.200 F 
ENDBRANCH  55  79
BRANCH  67  90
ATOM     90  C   UNL     1       3.065  21.662  -3.369  1.00  0.00     0.064 A 
ATOM     91  C   UNL     1       4.306  22.012  -3.928  1.00  0.00     0.173 A 
ATOM     92  C   UNL     1       2.247  22.757  -2.989  1.00  0.00     0.173 A 
ATOM     93  F   UNL     1       5.127  21.088  -4.444  1.00  0.00    -0.203 F 
ATOM     94  C   UNL     1       4.723  23.343  -4.038  1.00  0.00     0.198 A 
ATOM     95  C   UNL     1       2.641  24.084  -3.157  1.00  0.00     0.198 A 
ATOM     96  F   UNL     1       1.024  22.574  -2.471  1.00  0.00    -0.203 F 
ATOM     97  F   UNL     1       5.936  23.617  -4.541  1.00  0.00    -0.200 F 
ATOM     98  C   UNL     1       3.888  24.378  -3.666  1.00  0.00     0.200 A 
ATOM     99  F   UNL     1       1.794  25.075  -2.843  1.00  0.00    -0.200 F 
ATOM    100  F   UNL     1       4.272  25.652  -3.821  1.00  0.00    -0.200 F 
ENDBRANCH  67  90
ENDBRANCH  41  42
ENDBRANCH  33  36
ENDBRANCH  31  32
ENDBRANCH  30  31
ENDBRANCH   1  30
TORSDOF 13
