REMARK SMILES C[NH+]1CCC2(CC1)OC[C@@H](C(=O)NCCCNC(=O)c1ccc(-c3c4nc(c(-c5c(F)c(F)c(F)c(F)c5F)c5ccc([nH]5)c(-c5c(F)c(F)c(F)c(F)c5F)c5nc(c(-c6c(F)c(F)c(F)c(F)c6F)c6ccc3[nH]6)C=C5)C=C4)cc1)N2C(=O)c1ccc2ccccc2c1
REMARK SMILES IDX 15 1 14 2 13 3 11 4 12 5 10 7 1 8 2 9 3 10 7 11 4 13 6 14
REMARK SMILES IDX 5 15 8 16 83 17 9 18 84 19 85 20 86 21 87 22 95 23 88 24
REMARK SMILES IDX 94 25 89 26 93 27 90 28 92 29 91 30 16 31 17 32 18 33 19 35
REMARK SMILES IDX 20 36 21 37 82 38 22 39 81 40 23 41 24 42 25 43 75 44 26 45
REMARK SMILES IDX 80 46 74 47 76 48 27 49 79 50 73 51 72 52 28 54 60 55 40 56
REMARK SMILES IDX 59 57 41 58 44 59 58 60 77 61 42 62 43 63 57 65 78 66 45 67
REMARK SMILES IDX 29 68 30 69 38 70 31 71 32 72 36 73 39 74 33 75 34 76 37 77
REMARK SMILES IDX 35 78 61 79 62 80 70 81 63 82 64 83 68 84 71 85 65 86 66 87
REMARK SMILES IDX 69 88 67 89 46 90 47 91 55 92 48 93 49 94 53 95 56 96 50 97
REMARK SMILES IDX 51 98 54 99 52 100
REMARK H PARENT 13 6 2 12 17 34 76 53 44 64
REMARK Flexibility Score: inf
ROOT
ATOM      1  C   UNL     1       0.502   3.344   6.315  1.00  0.00     0.042 C 
ENDROOT
BRANCH   1   2
ATOM      2  C   UNL     1       1.999   3.329   6.094  1.00  0.00     0.117 C 
BRANCH   2   3
ATOM      3  N   UNL     1       2.613   2.317   6.921  1.00  0.00    -0.354 N 
ATOM      4  C   UNL     1       3.011   1.051   6.612  1.00  0.00     0.245 C 
ATOM      5  O   UNL     1       3.568   0.423   7.521  1.00  0.00    -0.273 OA
ATOM      6  H   UNL     1       2.768   2.583   7.856  1.00  0.00     0.163 HD
BRANCH   4   7
ATOM      7  C   UNL     1       3.039   0.514   5.167  1.00  0.00     0.203 C 
ATOM      8  C   UNL     1       1.288  -0.004  -0.855  1.00  0.00     0.332 C 
ATOM      9  N   UNL     1       0.900  -0.058   0.544  1.00  0.00    -0.337 N 
ATOM     10  C   UNL     1       1.740  -0.940   1.345  1.00  0.00     0.267 C 
ATOM     11  C   UNL     1       0.585   1.251   1.104  1.00  0.00     0.267 C 
ATOM     12  H   UNL     1      -0.002  -0.533   0.587  1.00  0.00     0.347 HD
ATOM     13  C   UNL     1       2.869  -0.252   2.082  1.00  0.00     0.120 C 
ATOM     14  C   UNL     1       1.602   1.904   2.026  1.00  0.00     0.120 C 
ATOM     15  C   UNL     1       2.396   0.952   2.913  1.00  0.00     0.155 C 
ATOM     16  O   UNL     1       3.613   1.701   3.200  1.00  0.00    -0.352 OA
ATOM     17  N   UNL     1       1.891   0.610   4.258  1.00  0.00    -0.295 N 
ATOM     18  C   UNL     1       4.152   1.262   4.450  1.00  0.00     0.198 C 
BRANCH  17  19
ATOM     19  C   UNL     1       0.734  -0.082   4.646  1.00  0.00     0.256 C 
ATOM     20  O   UNL     1       0.700  -0.754   5.676  1.00  0.00    -0.269 OA
BRANCH  19  21
ATOM     21  C   UNL     1      -0.557   0.053   3.926  1.00  0.00     0.040 A 
ATOM     22  C   UNL     1      -1.286   1.238   4.039  1.00  0.00     0.014 A 
ATOM     23  C   UNL     1      -1.125  -1.017   3.223  1.00  0.00     0.022 A 
ATOM     24  C   UNL     1      -2.475   1.424   3.337  1.00  0.00     0.009 A 
ATOM     25  C   UNL     1      -2.288  -0.823   2.441  1.00  0.00    -0.018 A 
ATOM     26  C   UNL     1      -2.945   0.431   2.478  1.00  0.00    -0.018 A 
ATOM     27  C   UNL     1      -2.793  -1.812   1.579  1.00  0.00     0.009 A 
ATOM     28  C   UNL     1      -4.035   0.684   1.634  1.00  0.00     0.009 A 
ATOM     29  C   UNL     1      -3.883  -1.548   0.743  1.00  0.00     0.001 A 
ATOM     30  C   UNL     1      -4.492  -0.296   0.758  1.00  0.00     0.001 A 
ENDBRANCH  19  21
ENDBRANCH  17  19
ENDBRANCH   4   7
ENDBRANCH   2   3
ENDBRANCH   1   2
BRANCH   1  31
ATOM     31  C   UNL     1       0.044   3.799   7.688  1.00  0.00     0.118 C 
BRANCH  31  32
ATOM     32  N   UNL     1       0.360   5.188   7.967  1.00  0.00    -0.352 N 
ATOM     33  C   UNL     1      -0.465   6.257   8.206  1.00  0.00     0.251 C 
ATOM     34  H   UNL     1       1.322   5.396   7.989  1.00  0.00     0.163 HD
ATOM     35  O   UNL     1       0.018   7.387   8.274  1.00  0.00    -0.269 OA
BRANCH  33  36
ATOM     36  C   UNL     1      -1.928   6.078   8.347  1.00  0.00     0.039 A 
ATOM     37  C   UNL     1      -2.774   7.038   7.784  1.00  0.00     0.014 A 
ATOM     38  C   UNL     1      -2.475   4.997   9.042  1.00  0.00     0.014 A 
ATOM     39  C   UNL     1      -4.159   6.879   7.862  1.00  0.00     0.010 A 
ATOM     40  C   UNL     1      -3.852   4.785   9.029  1.00  0.00     0.010 A 
ATOM     41  C   UNL     1      -4.710   5.729   8.449  1.00  0.00    -0.014 A 
BRANCH  41  42
ATOM     42  C   UNL     1      -6.179   5.506   8.476  1.00  0.00     0.031 A 
ATOM     43  C   UNL     1      -6.907   5.406   9.789  1.00  0.00     0.074 A 
ATOM     44  C   UNL     1      -6.850   5.341   7.319  1.00  0.00     0.049 A 
ATOM     45  N   UNL     1      -8.173   5.160  10.019  1.00  0.00    -0.248 NA
ATOM     46  C   UNL     1      -6.101   5.577  11.008  1.00  0.00     0.031 C 
ATOM     47  C   UNL     1      -6.252   5.371   5.984  1.00  0.00     0.029 A 
ATOM     48  N   UNL     1      -8.182   5.107   7.080  1.00  0.00    -0.354 N 
ATOM     49  C   UNL     1      -8.309   5.135  11.401  1.00  0.00     0.074 A 
ATOM     50  C   UNL     1      -6.989   5.328  11.959  1.00  0.00     0.031 C 
ATOM     51  C   UNL     1      -7.215   5.191   5.066  1.00  0.00     0.029 A 
ATOM     52  C   UNL     1      -8.489   4.986   5.747  1.00  0.00     0.049 A 
ATOM     53  H   UNL     1      -8.853   5.032   7.797  1.00  0.00     0.167 HD
ATOM     54  C   UNL     1      -9.436   4.990  12.139  1.00  0.00     0.037 A 
ATOM     55  C   UNL     1      -9.665   4.729   5.142  1.00  0.00     0.037 A 
ATOM     56  C   UNL     1     -10.750   4.815  11.578  1.00  0.00     0.049 A 
ATOM     57  C   UNL     1     -10.899   4.550   5.985  1.00  0.00     0.074 A 
ATOM     58  C   UNL     1     -11.963   4.715  12.238  1.00  0.00     0.029 A 
ATOM     59  N   UNL     1     -11.023   4.704  10.222  1.00  0.00    -0.354 N 
ATOM     60  N   UNL     1     -11.027   4.603   7.289  1.00  0.00    -0.248 NA
ATOM     61  C   UNL     1     -12.155   4.282   5.271  1.00  0.00     0.031 C 
ATOM     62  C   UNL     1     -12.960   4.484  11.286  1.00  0.00     0.029 A 
ATOM     63  C   UNL     1     -12.381   4.507  10.027  1.00  0.00     0.049 A 
ATOM     64  H   UNL     1     -10.351   4.757   9.505  1.00  0.00     0.167 HD
ATOM     65  C   UNL     1     -12.377   4.407   7.549  1.00  0.00     0.074 A 
ATOM     66  C   UNL     1     -13.030   4.251   6.266  1.00  0.00     0.031 C 
ATOM     67  C   UNL     1     -13.018   4.360   8.743  1.00  0.00     0.037 A 
BRANCH  54  68
ATOM     68  C   UNL     1      -9.296   5.012  13.635  1.00  0.00     0.064 A 
ATOM     69  C   UNL     1      -8.931   6.179  14.326  1.00  0.00     0.173 A 
ATOM     70  C   UNL     1      -9.563   3.861  14.393  1.00  0.00     0.173 A 
ATOM     71  F   UNL     1      -8.655   7.305  13.651  1.00  0.00    -0.203 F 
ATOM     72  C   UNL     1      -8.804   6.182  15.713  1.00  0.00     0.198 A 
ATOM     73  C   UNL     1      -9.470   3.878  15.782  1.00  0.00     0.198 A 
ATOM     74  F   UNL     1      -9.924   2.720  13.786  1.00  0.00    -0.203 F 
ATOM     75  F   UNL     1      -8.399   7.293  16.344  1.00  0.00    -0.200 F 
ATOM     76  C   UNL     1      -9.082   5.035  16.440  1.00  0.00     0.200 A 
ATOM     77  F   UNL     1      -9.756   2.773  16.485  1.00  0.00    -0.200 F 
ATOM     78  F   UNL     1      -8.968   5.042  17.776  1.00  0.00    -0.200 F 
ENDBRANCH  54  68
BRANCH  55  79
ATOM     79  C   UNL     1      -9.735   4.644   3.659  1.00  0.00     0.064 A 
ATOM     80  C   UNL     1     -10.427   5.609   2.913  1.00  0.00     0.173 A 
ATOM     81  C   UNL     1      -9.119   3.598   2.956  1.00  0.00     0.173 A 
ATOM     82  F   UNL     1     -11.047   6.620   3.538  1.00  0.00    -0.203 F 
ATOM     83  C   UNL     1     -10.522   5.517   1.526  1.00  0.00     0.198 A 
ATOM     84  C   UNL     1      -9.185   3.525   1.567  1.00  0.00     0.198 A 
ATOM     85  F   UNL     1      -8.435   2.654   3.619  1.00  0.00    -0.203 F 
ATOM     86  F   UNL     1     -11.232   6.425   0.843  1.00  0.00    -0.200 F 
ATOM     87  C   UNL     1      -9.896   4.478   0.853  1.00  0.00     0.200 A 
ATOM     88  F   UNL     1      -8.560   2.532   0.919  1.00  0.00    -0.200 F 
ATOM     89  F   UNL     1      -9.982   4.393  -0.481  1.00  0.00    -0.200 F 
ENDBRANCH  55  79
BRANCH  67  90
ATOM     90  C   UNL     1     -14.509   4.173   8.719  1.00  0.00     0.064 A 
ATOM     91  C   UNL     1     -15.097   2.958   8.338  1.00  0.00     0.173 A 
ATOM     92  C   UNL     1     -15.360   5.214   9.123  1.00  0.00     0.173 A 
ATOM     93  F   UNL     1     -14.330   1.935   7.929  1.00  0.00    -0.203 F 
ATOM     94  C   UNL     1     -16.481   2.802   8.333  1.00  0.00     0.198 A 
ATOM     95  C   UNL     1     -16.741   5.043   9.151  1.00  0.00     0.198 A 
ATOM     96  F   UNL     1     -14.850   6.395   9.505  1.00  0.00    -0.203 F 
ATOM     97  F   UNL     1     -17.022   1.651   7.912  1.00  0.00    -0.200 F 
ATOM     98  C   UNL     1     -17.300   3.841   8.748  1.00  0.00     0.200 A 
ATOM     99  F   UNL     1     -17.529   6.043   9.569  1.00  0.00    -0.200 F 
ATOM    100  F   UNL     1     -18.632   3.687   8.751  1.00  0.00    -0.200 F 
ENDBRANCH  67  90
ENDBRANCH  41  42
ENDBRANCH  33  36
ENDBRANCH  31  32
ENDBRANCH   1  31
TORSDOF 12
