REMARK SMILES O=C(NCCCNC(=O)c1nn2cc(Br)cnc2c1Br)c1ccc(-c2c3nc(c(-c4c(F)c(F)c(F)c(F)c4F)c4ccc([nH]4)c(-c4c(F)c(F)c(F)c(F)c4F)c4nc(c(-c5c(F)c(F)c(F)c(F)c5F)c5ccc2[nH]5)C=C4)C=C3)cc1
REMARK SMILES IDX 4 1 3 2 1 3 2 4 21 6 22 7 83 8 23 9 82 10 24 11 25 12 26 13
REMARK SMILES IDX 76 14 27 15 81 16 75 17 77 18 28 19 80 20 74 21 73 22 29 24
REMARK SMILES IDX 61 25 41 26 60 27 42 28 45 29 59 30 78 31 43 32 44 33 58 35
REMARK SMILES IDX 79 36 46 37 30 38 31 39 39 40 32 41 33 42 37 43 40 44 34 45
REMARK SMILES IDX 35 46 38 47 36 48 62 49 63 50 71 51 64 52 65 53 69 54 72 55
REMARK SMILES IDX 66 56 67 57 70 58 68 59 47 60 48 61 56 62 49 63 50 64 54 65
REMARK SMILES IDX 57 66 51 67 52 68 55 69 53 70 5 71 6 72 7 73 8 74 9 76 10 77
REMARK SMILES IDX 11 78 19 79 12 80 18 81 20 82 13 83 17 84 14 85 16 86 15 87
REMARK H PARENT 3 5 77 23 45 34 7 75
REMARK Flexibility Score: inf
ROOT
ATOM      1  C   UNL     1       4.572   0.509   0.862  1.00  0.00     0.118 C 
ENDROOT
BRANCH   1   2
ATOM      2  N   UNL     1       3.151   0.253   0.988  1.00  0.00    -0.352 N 
ATOM      3  O   UNL     1       1.093  -0.440   0.611  1.00  0.00    -0.269 OA
ATOM      4  C   UNL     1       2.127   0.015   0.114  1.00  0.00     0.251 C 
ATOM      5  H   UNL     1       2.852   0.251   1.926  1.00  0.00     0.163 HD
BRANCH   4   6
ATOM      6  C   UNL     1       2.131   0.335  -1.341  1.00  0.00     0.039 A 
ATOM      7  C   UNL     1       3.230   0.750  -2.090  1.00  0.00     0.014 A 
ATOM      8  C   UNL     1       0.875   0.260  -1.980  1.00  0.00     0.014 A 
ATOM      9  C   UNL     1       3.060   1.174  -3.410  1.00  0.00     0.010 A 
ATOM     10  C   UNL     1       0.701   0.672  -3.296  1.00  0.00     0.010 A 
ATOM     11  C   UNL     1       1.790   1.169  -4.001  1.00  0.00    -0.014 A 
BRANCH  11  12
ATOM     12  C   UNL     1       1.671   1.529  -5.414  1.00  0.00     0.031 A 
ATOM     13  C   UNL     1       2.357   0.585  -6.342  1.00  0.00     0.074 A 
ATOM     14  C   UNL     1       0.904   2.535  -5.887  1.00  0.00     0.049 A 
ATOM     15  N   UNL     1       3.334   0.831  -7.152  1.00  0.00    -0.248 NA
ATOM     16  C   UNL     1       1.975  -0.835  -6.282  1.00  0.00     0.031 C 
ATOM     17  C   UNL     1      -0.052   3.364  -5.150  1.00  0.00     0.029 A 
ATOM     18  N   UNL     1       0.763   2.980  -7.173  1.00  0.00    -0.354 N 
ATOM     19  C   UNL     1       3.591  -0.363  -7.826  1.00  0.00     0.074 A 
ATOM     20  C   UNL     1       2.822  -1.379  -7.158  1.00  0.00     0.031 C 
ATOM     21  C   UNL     1      -0.815   4.059  -6.026  1.00  0.00     0.029 A 
ATOM     22  C   UNL     1      -0.316   3.835  -7.372  1.00  0.00     0.049 A 
ATOM     23  H   UNL     1       1.375   2.716  -7.897  1.00  0.00     0.167 HD
ATOM     24  C   UNL     1       4.257  -0.374  -9.014  1.00  0.00     0.037 A 
ATOM     25  C   UNL     1      -0.786   4.290  -8.562  1.00  0.00     0.037 A 
ATOM     26  C   UNL     1       4.996   0.847  -9.200  1.00  0.00     0.049 A 
ATOM     27  C   UNL     1       0.306   4.147  -9.551  1.00  0.00     0.074 A 
ATOM     28  C   UNL     1       6.055   1.465  -8.568  1.00  0.00     0.029 A 
ATOM     29  N   UNL     1       4.434   1.800 -10.008  1.00  0.00    -0.354 N 
ATOM     30  N   UNL     1       1.403   4.849  -9.540  1.00  0.00    -0.248 NA
ATOM     31  C   UNL     1       0.343   2.936 -10.355  1.00  0.00     0.031 C 
ATOM     32  C   UNL     1       5.796   2.862  -8.684  1.00  0.00     0.029 A 
ATOM     33  C   UNL     1       4.621   3.020  -9.420  1.00  0.00     0.049 A 
ATOM     34  H   UNL     1       3.975   1.635 -10.863  1.00  0.00     0.167 HD
ATOM     35  C   UNL     1       2.383   3.965  -9.956  1.00  0.00     0.074 A 
ATOM     36  C   UNL     1       1.659   2.850 -10.558  1.00  0.00     0.031 C 
ATOM     37  C   UNL     1       3.667   4.098  -9.514  1.00  0.00     0.037 A 
BRANCH  24  38
ATOM     38  C   UNL     1       3.925  -1.284 -10.181  1.00  0.00     0.064 A 
ATOM     39  C   UNL     1       4.697  -1.186 -11.361  1.00  0.00     0.173 A 
ATOM     40  C   UNL     1       2.710  -1.990 -10.316  1.00  0.00     0.173 A 
ATOM     41  F   UNL     1       5.872  -0.538 -11.360  1.00  0.00    -0.203 F 
ATOM     42  C   UNL     1       4.232  -1.652 -12.594  1.00  0.00     0.198 A 
ATOM     43  C   UNL     1       2.274  -2.499 -11.539  1.00  0.00     0.198 A 
ATOM     44  F   UNL     1       1.843  -2.122  -9.307  1.00  0.00    -0.203 F 
ATOM     45  F   UNL     1       4.934  -1.402 -13.707  1.00  0.00    -0.200 F 
ATOM     46  C   UNL     1       3.014  -2.297 -12.684  1.00  0.00     0.200 A 
ATOM     47  F   UNL     1       1.083  -3.110 -11.609  1.00  0.00    -0.200 F 
ATOM     48  F   UNL     1       2.531  -2.680 -13.873  1.00  0.00    -0.200 F 
ENDBRANCH  24  38
BRANCH  25  49
ATOM     49  C   UNL     1      -2.182   4.564  -8.993  1.00  0.00     0.064 A 
ATOM     50  C   UNL     1      -2.448   5.259 -10.189  1.00  0.00     0.173 A 
ATOM     51  C   UNL     1      -3.268   3.880  -8.418  1.00  0.00     0.173 A 
ATOM     52  F   UNL     1      -1.462   5.906 -10.828  1.00  0.00    -0.203 F 
ATOM     53  C   UNL     1      -3.709   5.229 -10.794  1.00  0.00     0.198 A 
ATOM     54  C   UNL     1      -4.529   3.856  -9.020  1.00  0.00     0.198 A 
ATOM     55  F   UNL     1      -3.103   3.135  -7.316  1.00  0.00    -0.203 F 
ATOM     56  F   UNL     1      -3.901   5.837 -11.974  1.00  0.00    -0.200 F 
ATOM     57  C   UNL     1      -4.744   4.514 -10.216  1.00  0.00     0.200 A 
ATOM     58  F   UNL     1      -5.513   3.131  -8.470  1.00  0.00    -0.200 F 
ATOM     59  F   UNL     1      -5.932   4.422 -10.832  1.00  0.00    -0.200 F 
ENDBRANCH  25  49
BRANCH  37  60
ATOM     60  C   UNL     1       4.048   5.394  -8.857  1.00  0.00     0.064 A 
ATOM     61  C   UNL     1       3.513   5.851  -7.641  1.00  0.00     0.173 A 
ATOM     62  C   UNL     1       5.110   6.121  -9.411  1.00  0.00     0.173 A 
ATOM     63  F   UNL     1       2.558   5.163  -7.003  1.00  0.00    -0.203 F 
ATOM     64  C   UNL     1       4.003   7.002  -7.026  1.00  0.00     0.198 A 
ATOM     65  C   UNL     1       5.623   7.247  -8.775  1.00  0.00     0.198 A 
ATOM     66  F   UNL     1       5.691   5.702 -10.546  1.00  0.00    -0.203 F 
ATOM     67  F   UNL     1       3.476   7.422  -5.866  1.00  0.00    -0.200 F 
ATOM     68  C   UNL     1       5.066   7.691  -7.588  1.00  0.00     0.200 A 
ATOM     69  F   UNL     1       6.682   7.881  -9.297  1.00  0.00    -0.200 F 
ATOM     70  F   UNL     1       5.573   8.767  -6.968  1.00  0.00    -0.200 F 
ENDBRANCH  37  60
ENDBRANCH  11  12
ENDBRANCH   4   6
ENDBRANCH   1   2
BRANCH   1  71
ATOM     71  C   UNL     1       4.967   1.979   0.733  1.00  0.00     0.042 C 
BRANCH  71  72
ATOM     72  C   UNL     1       4.466   2.899   1.843  1.00  0.00     0.118 C 
BRANCH  72  73
ATOM     73  N   UNL     1       4.969   2.551   3.161  1.00  0.00    -0.351 N 
ATOM     74  C   UNL     1       5.665   3.312   4.071  1.00  0.00     0.273 C 
ATOM     75  H   UNL     1       4.783   1.628   3.447  1.00  0.00     0.163 HD
ATOM     76  O   UNL     1       6.017   2.767   5.125  1.00  0.00    -0.267 OA
BRANCH  74  77
ATOM     77  C   UNL     1       5.995   4.707   3.769  1.00  0.00     0.167 A 
ATOM     78  N   UNL     1       7.279   5.117   3.764  1.00  0.00    -0.160 NA
ATOM     79  C   UNL     1       5.130   5.793   3.506  1.00  0.00     0.095 A 
ATOM     80  N   UNL     1       7.231   6.441   3.497  1.00  0.00    -0.219 N 
ATOM     81  C   UNL     1       5.928   6.882   3.252  1.00  0.00     0.170 A 
ATOM     82  Br  UNL     1       3.255   5.773   3.531  1.00  0.00    -0.044 Br
ATOM     83  C   UNL     1       8.300   7.329   3.451  1.00  0.00     0.132 A 
ATOM     84  N   UNL     1       5.655   8.173   2.883  1.00  0.00    -0.235 NA
ATOM     85  C   UNL     1       8.097   8.613   3.131  1.00  0.00     0.054 A 
ATOM     86  C   UNL     1       6.680   8.973   2.821  1.00  0.00     0.131 A 
ATOM     87  Br  UNL     1       9.409   9.911   3.045  1.00  0.00    -0.047 Br
ENDBRANCH  74  77
ENDBRANCH  72  73
ENDBRANCH  71  72
ENDBRANCH   1  71
TORSDOF 10
