REMARK SMILES O=C(Cc1ccccc1[C@H]1CCC[NH2+]1)NCCCNC(=O)c1ccc(-c2c3nc(c(-c4c(F)c(F)c(F)c(F)c4F)c4ccc([nH]4)c(-c4c(F)c(F)c(F)c(F)c4F)c4nc(c(-c5c(F)c(F)c(F)c(F)c5F)c5ccc2[nH]5)C=C4)C=C3)cc1
REMARK SMILES IDX 17 1 16 2 15 3 1 4 2 5 3 7 4 8 5 9 9 10 6 11 8 12 7 13 10 14
REMARK SMILES IDX 11 15 14 16 12 17 13 18 18 21 19 22 20 23 21 25 22 26 23 27
REMARK SMILES IDX 84 28 24 29 83 30 25 31 26 32 27 33 77 34 28 35 82 36 76 37
REMARK SMILES IDX 78 38 29 39 81 40 75 41 74 42 30 44 62 45 42 46 61 47 43 48
REMARK SMILES IDX 46 49 60 50 79 51 44 52 45 53 59 55 80 56 47 57 31 58 32 59
REMARK SMILES IDX 40 60 33 61 34 62 38 63 41 64 35 65 36 66 39 67 37 68 63 69
REMARK SMILES IDX 64 70 72 71 65 72 66 73 70 74 73 75 67 76 68 77 71 78 69 79
REMARK SMILES IDX 48 80 49 81 57 82 50 83 51 84 55 85 58 86 52 87 53 88 56 89
REMARK SMILES IDX 54 90
REMARK H PARENT 15 6 14 19 14 20 19 24 78 43 46 54
REMARK Flexibility Score: inf
ROOT
ATOM      1  C   UNL     1      11.392   5.268   2.918  1.00  0.00     0.042 C 
ENDROOT
BRANCH   1   2
ATOM      2  C   UNL     1      11.361   3.837   3.437  1.00  0.00     0.117 C 
BRANCH   2   3
ATOM      3  N   UNL     1      10.078   3.204   3.219  1.00  0.00    -0.356 N 
ATOM      4  O   UNL     1      10.839   1.527   1.843  1.00  0.00    -0.275 OA
ATOM      5  C   UNL     1       9.920   2.065   2.453  1.00  0.00     0.224 C 
ATOM      6  H   UNL     1       9.280   3.604   3.635  1.00  0.00     0.163 HD
BRANCH   5   7
ATOM      7  C   UNL     1       8.483   1.565   2.388  1.00  0.00     0.136 C 
BRANCH   7   8
ATOM      8  C   UNL     1       7.833   1.212   3.722  1.00  0.00    -0.030 A 
ATOM      9  C   UNL     1       8.689   0.824   4.785  1.00  0.00     0.005 A 
ATOM     10  C   UNL     1       6.427   1.151   3.926  1.00  0.00     0.013 A 
ATOM     11  C   UNL     1       8.202   0.416   6.024  1.00  0.00     0.000 A 
ATOM     12  C   UNL     1       5.973   0.665   5.181  1.00  0.00     0.010 A 
ATOM     13  C   UNL     1       6.838   0.327   6.220  1.00  0.00     0.001 A 
BRANCH  10  14
ATOM     14  C   UNL     1       5.325   1.427   2.889  1.00  0.00     0.214 C 
ATOM     15  C   UNL     1       4.147   2.265   3.409  1.00  0.00     0.076 C 
ATOM     16  N   UNL     1       5.712   2.208   1.701  1.00  0.00    -0.340 N 
ATOM     17  C   UNL     1       4.631   3.691   3.246  1.00  0.00     0.068 C 
ATOM     18  C   UNL     1       5.499   3.631   2.006  1.00  0.00     0.261 C 
ATOM     19  H   UNL     1       5.137   1.934   0.904  1.00  0.00     0.346 HD
ATOM     20  H   UNL     1       6.690   2.037   1.466  1.00  0.00     0.346 HD
ENDBRANCH  10  14
ENDBRANCH   7   8
ENDBRANCH   5   7
ENDBRANCH   2   3
ENDBRANCH   1   2
BRANCH   1  21
ATOM     21  C   UNL     1      10.397   6.205   3.596  1.00  0.00     0.118 C 
BRANCH  21  22
ATOM     22  N   UNL     1      10.688   6.434   5.006  1.00  0.00    -0.352 N 
ATOM     23  C   UNL     1      10.921   7.611   5.677  1.00  0.00     0.251 C 
ATOM     24  H   UNL     1      10.724   5.623   5.562  1.00  0.00     0.163 HD
ATOM     25  O   UNL     1      11.285   7.592   6.849  1.00  0.00    -0.269 OA
BRANCH  23  26
ATOM     26  C   UNL     1      10.764   8.906   4.981  1.00  0.00     0.039 A 
ATOM     27  C   UNL     1      11.768   9.870   5.107  1.00  0.00     0.014 A 
ATOM     28  C   UNL     1       9.637   9.166   4.198  1.00  0.00     0.014 A 
ATOM     29  C   UNL     1      11.688  11.057   4.374  1.00  0.00     0.010 A 
ATOM     30  C   UNL     1       9.592  10.315   3.414  1.00  0.00     0.010 A 
ATOM     31  C   UNL     1      10.623  11.266   3.483  1.00  0.00    -0.014 A 
BRANCH  31  32
ATOM     32  C   UNL     1      10.566  12.454   2.593  1.00  0.00     0.031 A 
ATOM     33  C   UNL     1       9.435  13.435   2.722  1.00  0.00     0.074 A 
ATOM     34  C   UNL     1      11.467  12.591   1.601  1.00  0.00     0.049 A 
ATOM     35  N   UNL     1       9.109  14.433   1.940  1.00  0.00    -0.248 NA
ATOM     36  C   UNL     1       8.533  13.250   3.869  1.00  0.00     0.031 C 
ATOM     37  C   UNL     1      12.593  11.691   1.349  1.00  0.00     0.029 A 
ATOM     38  N   UNL     1      11.562  13.527   0.599  1.00  0.00    -0.354 N 
ATOM     39  C   UNL     1       7.953  14.976   2.484  1.00  0.00     0.074 A 
ATOM     40  C   UNL     1       7.612  14.174   3.640  1.00  0.00     0.031 C 
ATOM     41  C   UNL     1      13.268  12.120   0.271  1.00  0.00     0.029 A 
ATOM     42  C   UNL     1      12.596  13.295  -0.275  1.00  0.00     0.049 A 
ATOM     43  H   UNL     1      10.946  14.291   0.516  1.00  0.00     0.167 HD
ATOM     44  C   UNL     1       7.250  16.056   2.066  1.00  0.00     0.037 A 
ATOM     45  C   UNL     1      12.949  13.943  -1.402  1.00  0.00     0.037 A 
ATOM     46  C   UNL     1       7.609  16.868   0.933  1.00  0.00     0.049 A 
ATOM     47  C   UNL     1      12.143  15.130  -1.853  1.00  0.00     0.074 A 
ATOM     48  C   UNL     1       6.990  18.013   0.462  1.00  0.00     0.029 A 
ATOM     49  N   UNL     1       8.685  16.620   0.093  1.00  0.00    -0.354 N 
ATOM     50  N   UNL     1      11.079  15.665  -1.304  1.00  0.00    -0.248 NA
ATOM     51  C   UNL     1      12.587  15.807  -3.081  1.00  0.00     0.031 C 
ATOM     52  C   UNL     1       7.666  18.433  -0.689  1.00  0.00     0.029 A 
ATOM     53  C   UNL     1       8.737  17.581  -0.903  1.00  0.00     0.049 A 
ATOM     54  H   UNL     1       9.318  15.872   0.191  1.00  0.00     0.167 HD
ATOM     55  C   UNL     1      10.751  16.758  -2.094  1.00  0.00     0.074 A 
ATOM     56  C   UNL     1      11.728  16.814  -3.160  1.00  0.00     0.031 C 
ATOM     57  C   UNL     1       9.732  17.639  -1.943  1.00  0.00     0.037 A 
BRANCH  44  58
ATOM     58  C   UNL     1       6.015  16.423   2.837  1.00  0.00     0.064 A 
ATOM     59  C   UNL     1       6.087  16.953   4.134  1.00  0.00     0.173 A 
ATOM     60  C   UNL     1       4.746  16.282   2.255  1.00  0.00     0.173 A 
ATOM     61  F   UNL     1       7.276  17.097   4.739  1.00  0.00    -0.203 F 
ATOM     62  C   UNL     1       4.933  17.300   4.831  1.00  0.00     0.198 A 
ATOM     63  C   UNL     1       3.596  16.660   2.943  1.00  0.00     0.198 A 
ATOM     64  F   UNL     1       4.620  15.788   1.014  1.00  0.00    -0.203 F 
ATOM     65  F   UNL     1       5.024  17.758   6.087  1.00  0.00    -0.200 F 
ATOM     66  C   UNL     1       3.690  17.161   4.233  1.00  0.00     0.200 A 
ATOM     67  F   UNL     1       2.396  16.538   2.359  1.00  0.00    -0.200 F 
ATOM     68  F   UNL     1       2.581  17.504   4.902  1.00  0.00    -0.200 F 
ENDBRANCH  44  58
BRANCH  45  69
ATOM     69  C   UNL     1      14.132  13.488  -2.179  1.00  0.00     0.064 A 
ATOM     70  C   UNL     1      15.299  14.263  -2.226  1.00  0.00     0.173 A 
ATOM     71  C   UNL     1      14.122  12.280  -2.890  1.00  0.00     0.173 A 
ATOM     72  F   UNL     1      15.349  15.438  -1.581  1.00  0.00    -0.203 F 
ATOM     73  C   UNL     1      16.404  13.856  -2.971  1.00  0.00     0.198 A 
ATOM     74  C   UNL     1      15.238  11.860  -3.611  1.00  0.00     0.198 A 
ATOM     75  F   UNL     1      13.031  11.500  -2.874  1.00  0.00    -0.203 F 
ATOM     76  F   UNL     1      17.490  14.638  -3.036  1.00  0.00    -0.200 F 
ATOM     77  C   UNL     1      16.375  12.652  -3.658  1.00  0.00     0.200 A 
ATOM     78  F   UNL     1      15.210  10.689  -4.263  1.00  0.00    -0.200 F 
ATOM     79  F   UNL     1      17.439  12.259  -4.371  1.00  0.00    -0.200 F 
ENDBRANCH  45  69
BRANCH  57  80
ATOM     80  C   UNL     1       9.650  18.779  -2.915  1.00  0.00     0.064 A 
ATOM     81  C   UNL     1       9.225  18.595  -4.238  1.00  0.00     0.173 A 
ATOM     82  C   UNL     1       9.938  20.087  -2.492  1.00  0.00     0.173 A 
ATOM     83  F   UNL     1       8.952  17.363  -4.694  1.00  0.00    -0.203 F 
ATOM     84  C   UNL     1       9.104  19.676  -5.107  1.00  0.00     0.198 A 
ATOM     85  C   UNL     1       9.789  21.168  -3.355  1.00  0.00     0.198 A 
ATOM     86  F   UNL     1      10.343  20.316  -1.234  1.00  0.00    -0.203 F 
ATOM     87  F   UNL     1       8.728  19.474  -6.377  1.00  0.00    -0.200 F 
ATOM     88  C   UNL     1       9.376  20.962  -4.662  1.00  0.00     0.200 A 
ATOM     89  F   UNL     1      10.039  22.411  -2.919  1.00  0.00    -0.200 F 
ATOM     90  F   UNL     1       9.243  22.003  -5.495  1.00  0.00    -0.200 F 
ENDBRANCH  57  80
ENDBRANCH  31  32
ENDBRANCH  23  26
ENDBRANCH  21  22
ENDBRANCH   1  21
TORSDOF 12
