REMARK SMILES CSc1nc(C2CC2)nc(C)c1C(=O)NCCCNC(=O)c1ccc(-c2c3nc(c(-c4c(F)c(F)c(F)c(F)c4F)c4ccc([nH]4)c(-c4c(F)c(F)c(F)c(F)c4F)c4nc(c(-c5c(F)c(F)c(F)c(F)c5F)c5ccc2[nH]5)C=C4)C=C3)cc1
REMARK SMILES IDX 17 1 16 2 15 3 13 4 14 5 12 7 3 8 4 9 5 10 10 11 9 12 11 13
REMARK SMILES IDX 2 14 1 15 6 16 7 17 8 18 18 19 19 20 20 21 21 23 22 24 23 25
REMARK SMILES IDX 84 26 24 27 83 28 25 29 26 30 27 31 77 32 28 33 82 34 76 35
REMARK SMILES IDX 78 36 29 37 81 38 75 39 74 40 30 42 62 43 42 44 61 45 43 46
REMARK SMILES IDX 46 47 60 48 79 49 44 50 45 51 59 53 80 54 47 55 31 56 32 57
REMARK SMILES IDX 40 58 33 59 34 60 38 61 41 62 35 63 36 64 39 65 37 66 63 67
REMARK SMILES IDX 64 68 72 69 65 70 66 71 70 72 73 73 67 74 68 75 71 76 69 77
REMARK SMILES IDX 48 78 49 79 57 80 50 81 51 82 55 83 58 84 52 85 53 86 56 87
REMARK SMILES IDX 54 88
REMARK H PARENT 15 6 19 22 78 41 46 52
REMARK Flexibility Score: inf
ROOT
ATOM      1  C   UNL     1      -2.057   6.098  -0.513  1.00  0.00     0.042 C 
ENDROOT
BRANCH   1   2
ATOM      2  C   UNL     1      -1.073   5.176   0.230  1.00  0.00     0.118 C 
BRANCH   2   3
ATOM      3  N   UNL     1      -1.277   3.808  -0.207  1.00  0.00    -0.352 N 
ATOM      4  C   UNL     1      -0.834   3.055  -1.266  1.00  0.00     0.255 C 
ATOM      5  O   UNL     1      -1.609   2.144  -1.571  1.00  0.00    -0.269 OA
ATOM      6  H   UNL     1      -1.870   3.303   0.394  1.00  0.00     0.163 HD
BRANCH   4   7
ATOM      7  C   UNL     1       0.465   3.173  -1.996  1.00  0.00     0.093 A 
ATOM      8  C   UNL     1       1.153   1.989  -2.326  1.00  0.00     0.113 A 
ATOM      9  N   UNL     1       2.265   1.943  -3.109  1.00  0.00    -0.225 NA
ATOM     10  C   UNL     1       2.728   3.084  -3.617  1.00  0.00     0.133 A 
ATOM     11  C   UNL     1       1.048   4.307  -2.549  1.00  0.00     0.055 A 
ATOM     12  N   UNL     1       2.171   4.257  -3.313  1.00  0.00    -0.237 NA
ATOM     13  C   UNL     1       0.540   5.702  -2.591  1.00  0.00     0.068 C 
BRANCH   8  14
ATOM     14  S   UNL     1       0.671   0.318  -1.873  1.00  0.00    -0.109 SA
ATOM     15  C   UNL     1       1.289   0.270  -0.181  1.00  0.00     0.092 C 
ENDBRANCH   8  14
BRANCH  10  16
ATOM     16  C   UNL     1       3.827   3.108  -4.646  1.00  0.00     0.058 C 
ATOM     17  C   UNL     1       4.459   1.865  -5.212  1.00  0.00     0.012 C 
ATOM     18  C   UNL     1       3.497   2.651  -6.053  1.00  0.00     0.012 C 
ENDBRANCH  10  16
ENDBRANCH   4   7
ENDBRANCH   2   3
ENDBRANCH   1   2
BRANCH   1  19
ATOM     19  C   UNL     1      -3.431   6.215   0.125  1.00  0.00     0.118 C 
BRANCH  19  20
ATOM     20  N   UNL     1      -3.392   7.082   1.291  1.00  0.00    -0.352 N 
ATOM     21  C   UNL     1      -3.981   8.302   1.487  1.00  0.00     0.251 C 
ATOM     22  H   UNL     1      -2.865   6.743   2.050  1.00  0.00     0.163 HD
ATOM     23  O   UNL     1      -3.581   9.021   2.412  1.00  0.00    -0.269 OA
BRANCH  21  24
ATOM     24  C   UNL     1      -5.079   8.777   0.618  1.00  0.00     0.039 A 
ATOM     25  C   UNL     1      -5.169  10.141   0.321  1.00  0.00     0.014 A 
ATOM     26  C   UNL     1      -6.056   7.898   0.139  1.00  0.00     0.014 A 
ATOM     27  C   UNL     1      -6.208  10.614  -0.484  1.00  0.00     0.010 A 
ATOM     28  C   UNL     1      -7.040   8.355  -0.732  1.00  0.00     0.010 A 
ATOM     29  C   UNL     1      -7.136   9.720  -1.040  1.00  0.00    -0.014 A 
BRANCH  29  30
ATOM     30  C   UNL     1      -8.222  10.191  -1.935  1.00  0.00     0.031 A 
ATOM     31  C   UNL     1      -9.660  10.028  -1.527  1.00  0.00     0.074 A 
ATOM     32  C   UNL     1      -7.913  10.696  -3.145  1.00  0.00     0.049 A 
ATOM     33  N   UNL     1     -10.750  10.296  -2.201  1.00  0.00    -0.248 NA
ATOM     34  C   UNL     1      -9.907   9.459  -0.192  1.00  0.00     0.031 C 
ATOM     35  C   UNL     1      -6.556  10.855  -3.670  1.00  0.00     0.029 A 
ATOM     36  N   UNL     1      -8.717  11.154  -4.157  1.00  0.00    -0.354 N 
ATOM     37  C   UNL     1     -11.805   9.909  -1.384  1.00  0.00     0.074 A 
ATOM     38  C   UNL     1     -11.226   9.340  -0.187  1.00  0.00     0.031 C 
ATOM     39  C   UNL     1      -6.621  11.391  -4.898  1.00  0.00     0.029 A 
ATOM     40  C   UNL     1      -8.022  11.575  -5.264  1.00  0.00     0.049 A 
ATOM     41  H   UNL     1      -9.700  11.178  -4.096  1.00  0.00     0.167 HD
ATOM     42  C   UNL     1     -13.135  10.039  -1.605  1.00  0.00     0.037 A 
ATOM     43  C   UNL     1      -8.466  12.045  -6.445  1.00  0.00     0.037 A 
ATOM     44  C   UNL     1     -13.700  10.632  -2.789  1.00  0.00     0.049 A 
ATOM     45  C   UNL     1      -9.947  12.179  -6.666  1.00  0.00     0.074 A 
ATOM     46  C   UNL     1     -15.029  10.878  -3.081  1.00  0.00     0.029 A 
ATOM     47  N   UNL     1     -12.962  11.067  -3.881  1.00  0.00    -0.354 N 
ATOM     48  N   UNL     1     -10.935  11.881  -5.856  1.00  0.00    -0.248 NA
ATOM     49  C   UNL     1     -10.376  12.720  -7.962  1.00  0.00     0.031 C 
ATOM     50  C   UNL     1     -15.100  11.413  -4.372  1.00  0.00     0.029 A 
ATOM     51  C   UNL     1     -13.811  11.554  -4.862  1.00  0.00     0.049 A 
ATOM     52  H   UNL     1     -11.980  11.034  -3.949  1.00  0.00     0.167 HD
ATOM     53  C   UNL     1     -12.099  12.219  -6.533  1.00  0.00     0.074 A 
ATOM     54  C   UNL     1     -11.693  12.761  -7.813  1.00  0.00     0.031 C 
ATOM     55  C   UNL     1     -13.387  12.090  -6.130  1.00  0.00     0.037 A 
BRANCH  42  56
ATOM     56  C   UNL     1     -14.069   9.529  -0.544  1.00  0.00     0.064 A 
ATOM     57  C   UNL     1     -14.172  10.148   0.711  1.00  0.00     0.173 A 
ATOM     58  C   UNL     1     -14.893   8.420  -0.794  1.00  0.00     0.173 A 
ATOM     59  F   UNL     1     -13.401  11.206   1.007  1.00  0.00    -0.203 F 
ATOM     60  C   UNL     1     -15.035   9.656   1.687  1.00  0.00     0.198 A 
ATOM     61  C   UNL     1     -15.779   7.951   0.172  1.00  0.00     0.198 A 
ATOM     62  F   UNL     1     -14.841   7.792  -1.979  1.00  0.00    -0.203 F 
ATOM     63  F   UNL     1     -15.073  10.230   2.897  1.00  0.00    -0.200 F 
ATOM     64  C   UNL     1     -15.842   8.562   1.415  1.00  0.00     0.200 A 
ATOM     65  F   UNL     1     -16.569   6.902  -0.098  1.00  0.00    -0.200 F 
ATOM     66  F   UNL     1     -16.676   8.092   2.353  1.00  0.00    -0.200 F 
ENDBRANCH  42  56
BRANCH  43  67
ATOM     67  C   UNL     1      -7.492  12.443  -7.494  1.00  0.00     0.064 A 
ATOM     68  C   UNL     1      -7.314  13.790  -7.838  1.00  0.00     0.173 A 
ATOM     69  C   UNL     1      -6.708  11.491  -8.163  1.00  0.00     0.173 A 
ATOM     70  F   UNL     1      -8.053  14.736  -7.239  1.00  0.00    -0.203 F 
ATOM     71  C   UNL     1      -6.402  14.169  -8.821  1.00  0.00     0.198 A 
ATOM     72  C   UNL     1      -5.775  11.873  -9.125  1.00  0.00     0.198 A 
ATOM     73  F   UNL     1      -6.833  10.189  -7.865  1.00  0.00    -0.203 F 
ATOM     74  F   UNL     1      -6.281  15.460  -9.157  1.00  0.00    -0.200 F 
ATOM     75  C   UNL     1      -5.628  13.211  -9.458  1.00  0.00     0.200 A 
ATOM     76  F   UNL     1      -5.017  10.946  -9.726  1.00  0.00    -0.200 F 
ATOM     77  F   UNL     1      -4.744  13.576 -10.396  1.00  0.00    -0.200 F 
ENDBRANCH  43  67
BRANCH  55  78
ATOM     78  C   UNL     1     -14.452  12.569  -7.074  1.00  0.00     0.064 A 
ATOM     79  C   UNL     1     -14.758  11.871  -8.252  1.00  0.00     0.173 A 
ATOM     80  C   UNL     1     -15.205  13.714  -6.773  1.00  0.00     0.173 A 
ATOM     81  F   UNL     1     -14.056  10.780  -8.592  1.00  0.00    -0.203 F 
ATOM     82  C   UNL     1     -15.764  12.316  -9.105  1.00  0.00     0.198 A 
ATOM     83  C   UNL     1     -16.231  14.138  -7.612  1.00  0.00     0.198 A 
ATOM     84  F   UNL     1     -14.955  14.413  -5.655  1.00  0.00    -0.203 F 
ATOM     85  F   UNL     1     -16.009  11.661 -10.248  1.00  0.00    -0.200 F 
ATOM     86  C   UNL     1     -16.505  13.443  -8.780  1.00  0.00     0.200 A 
ATOM     87  F   UNL     1     -16.955  15.218  -7.289  1.00  0.00    -0.200 F 
ATOM     88  F   UNL     1     -17.480  13.864  -9.598  1.00  0.00    -0.200 F 
ENDBRANCH  55  78
ENDBRANCH  29  30
ENDBRANCH  21  24
ENDBRANCH  19  20
ENDBRANCH   1  19
TORSDOF 12
