REMARK SMILES CCCc1nc(C)cc(N2CCC(C(=O)NCCCNC(=O)c3ccc(-c4c5nc(c(-c6c(F)c(F)c(F)c(F)c6F)c6ccc([nH]6)c(-c6c(F)c(F)c(F)c(F)c6F)c6nc(c(-c7c(F)c(F)c(F)c(F)c7F)c7ccc4[nH]7)C=C6)C=C5)cc3)(n3ccc(C(C)C)n3)CC2)n1
REMARK SMILES IDX 17 1 16 2 14 3 15 4 13 6 10 7 11 8 95 9 12 10 94 11 9 12
REMARK SMILES IDX 4 13 5 14 96 15 6 16 7 17 8 18 3 19 2 20 1 21 86 22 87 23
REMARK SMILES IDX 93 24 88 25 89 26 90 27 91 28 92 29 18 30 19 31 20 32 21 33
REMARK SMILES IDX 22 35 23 36 24 37 85 38 25 39 84 40 26 41 27 42 28 43 78 44
REMARK SMILES IDX 29 45 83 46 77 47 79 48 30 49 82 50 76 51 75 52 31 54 63 55
REMARK SMILES IDX 43 56 62 57 44 58 47 59 61 60 80 61 45 62 46 63 60 65 81 66
REMARK SMILES IDX 48 67 32 68 33 69 41 70 34 71 35 72 39 73 42 74 36 75 37 76
REMARK SMILES IDX 40 77 38 78 64 79 65 80 73 81 66 82 67 83 71 84 74 85 68 86
REMARK SMILES IDX 69 87 72 88 70 89 49 90 50 91 58 92 51 93 52 94 56 95 59 96
REMARK SMILES IDX 53 97 54 98 57 99 55 100
REMARK H PARENT 16 5 20 34 79 53 47 64
REMARK Flexibility Score: inf
ROOT
ATOM      1  C   UNL     1       3.426  -3.300  -1.587  1.00  0.00     0.117 C 
ENDROOT
BRANCH   1   2
ATOM      2  N   UNL     1       3.507  -4.595  -2.256  1.00  0.00    -0.354 N 
ATOM      3  C   UNL     1       2.869  -5.143  -3.345  1.00  0.00     0.248 C 
ATOM      4  O   UNL     1       3.264  -6.283  -3.596  1.00  0.00    -0.272 OA
ATOM      5  H   UNL     1       4.156  -5.206  -1.839  1.00  0.00     0.163 HD
BRANCH   3   6
ATOM      6  C   UNL     1       1.804  -4.340  -4.168  1.00  0.00     0.144 C 
ATOM      7  N   UNL     1       0.909  -1.649  -3.941  1.00  0.00    -0.356 N 
ATOM      8  C   UNL     1      -0.043  -2.642  -3.481  1.00  0.00     0.121 C 
ATOM      9  C   UNL     1       1.750  -1.929  -5.085  1.00  0.00     0.121 C 
ATOM     10  C   UNL     1       0.653  -3.965  -3.196  1.00  0.00     0.062 C 
ATOM     11  C   UNL     1       2.587  -3.160  -4.803  1.00  0.00     0.062 C 
BRANCH   7  12
ATOM     12  C   UNL     1       0.519  -0.334  -3.751  1.00  0.00     0.132 A 
ATOM     13  C   UNL     1       0.438   1.470  -2.336  1.00  0.00     0.130 A 
ATOM     14  N   UNL     1      -0.080   2.284  -3.274  1.00  0.00    -0.238 NA
ATOM     15  N   UNL     1       0.738   0.177  -2.534  1.00  0.00    -0.216 NA
ATOM     16  C   UNL     1      -0.310   1.745  -4.487  1.00  0.00     0.043 A 
ATOM     17  C   UNL     1      -0.835   2.659  -5.552  1.00  0.00     0.067 C 
ATOM     18  C   UNL     1      -0.021   0.426  -4.769  1.00  0.00     0.070 A 
BRANCH  13  19
ATOM     19  C   UNL     1       0.848   2.084  -1.024  1.00  0.00     0.077 C 
BRANCH  19  20
ATOM     20  C   UNL     1       0.309   1.378   0.224  1.00  0.00     0.005 C 
ATOM     21  C   UNL     1       0.934   0.015   0.494  1.00  0.00     0.004 C 
ENDBRANCH  19  20
ENDBRANCH  13  19
ENDBRANCH   7  12
BRANCH   6  22
ATOM     22  N   UNL     1       1.176  -5.100  -5.301  1.00  0.00    -0.257 N 
ATOM     23  C   UNL     1       0.204  -4.631  -6.158  1.00  0.00     0.110 A 
ATOM     24  N   UNL     1       1.515  -6.364  -5.605  1.00  0.00    -0.177 NA
ATOM     25  C   UNL     1      -0.062  -5.631  -7.057  1.00  0.00     0.045 A 
ATOM     26  C   UNL     1       0.775  -6.692  -6.667  1.00  0.00     0.065 A 
BRANCH  26  27
ATOM     27  C   UNL     1       0.890  -8.052  -7.288  1.00  0.00     0.034 C 
ATOM     28  C   UNL     1      -0.431  -8.819  -7.180  1.00  0.00     0.014 C 
ATOM     29  C   UNL     1       1.339  -7.960  -8.748  1.00  0.00     0.014 C 
ENDBRANCH  26  27
ENDBRANCH   6  22
ENDBRANCH   3   6
ENDBRANCH   1   2
BRANCH   1  30
ATOM     30  C   UNL     1       2.943  -3.427  -0.145  1.00  0.00     0.042 C 
BRANCH  30  31
ATOM     31  C   UNL     1       3.888  -4.196   0.771  1.00  0.00     0.118 C 
BRANCH  31  32
ATOM     32  N   UNL     1       5.143  -3.495   1.004  1.00  0.00    -0.352 N 
ATOM     33  C   UNL     1       5.699  -3.036   2.169  1.00  0.00     0.251 C 
ATOM     34  H   UNL     1       5.678  -3.325   0.195  1.00  0.00     0.163 HD
ATOM     35  O   UNL     1       6.694  -2.309   2.119  1.00  0.00    -0.269 OA
BRANCH  33  36
ATOM     36  C   UNL     1       5.117  -3.379   3.485  1.00  0.00     0.039 A 
ATOM     37  C   UNL     1       5.079  -2.396   4.480  1.00  0.00     0.014 A 
ATOM     38  C   UNL     1       4.649  -4.665   3.765  1.00  0.00     0.014 A 
ATOM     39  C   UNL     1       4.523  -2.686   5.728  1.00  0.00     0.010 A 
ATOM     40  C   UNL     1       4.019  -4.930   4.980  1.00  0.00     0.010 A 
ATOM     41  C   UNL     1       3.958  -3.947   5.979  1.00  0.00    -0.014 A 
BRANCH  41  42
ATOM     42  C   UNL     1       3.320  -4.259   7.284  1.00  0.00     0.031 A 
ATOM     43  C   UNL     1       3.895  -5.327   8.174  1.00  0.00     0.074 A 
ATOM     44  C   UNL     1       2.190  -3.620   7.644  1.00  0.00     0.049 A 
ATOM     45  N   UNL     1       3.450  -5.782   9.319  1.00  0.00    -0.248 NA
ATOM     46  C   UNL     1       5.119  -5.992   7.702  1.00  0.00     0.031 C 
ATOM     47  C   UNL     1       1.503  -2.602   6.849  1.00  0.00     0.029 A 
ATOM     48  N   UNL     1       1.414  -3.740   8.771  1.00  0.00    -0.354 N 
ATOM     49  C   UNL     1       4.325  -6.794   9.690  1.00  0.00     0.074 A 
ATOM     50  C   UNL     1       5.296  -6.925   8.626  1.00  0.00     0.031 C 
ATOM     51  C   UNL     1       0.424  -2.171   7.522  1.00  0.00     0.029 A 
ATOM     52  C   UNL     1       0.323  -2.906   8.779  1.00  0.00     0.049 A 
ATOM     53  H   UNL     1       1.620  -4.365   9.503  1.00  0.00     0.167 HD
ATOM     54  C   UNL     1       4.334  -7.532  10.826  1.00  0.00     0.037 A 
ATOM     55  C   UNL     1      -0.650  -2.752   9.697  1.00  0.00     0.037 A 
ATOM     56  C   UNL     1       3.387  -7.379  11.899  1.00  0.00     0.049 A 
ATOM     57  C   UNL     1      -0.609  -3.574  10.957  1.00  0.00     0.074 A 
ATOM     58  C   UNL     1       3.346  -8.038  13.116  1.00  0.00     0.029 A 
ATOM     59  N   UNL     1       2.312  -6.503  11.883  1.00  0.00    -0.354 N 
ATOM     60  N   UNL     1       0.261  -4.481  11.326  1.00  0.00    -0.248 NA
ATOM     61  C   UNL     1      -1.682  -3.340  11.934  1.00  0.00     0.031 C 
ATOM     62  C   UNL     1       2.224  -7.587  13.820  1.00  0.00     0.029 A 
ATOM     63  C   UNL     1       1.593  -6.614  13.063  1.00  0.00     0.049 A 
ATOM     64  H   UNL     1       2.092  -5.892  11.143  1.00  0.00     0.167 HD
ATOM     65  C   UNL     1      -0.140  -4.905  12.586  1.00  0.00     0.074 A 
ATOM     66  C   UNL     1      -1.325  -4.144  12.925  1.00  0.00     0.031 C 
ATOM     67  C   UNL     1       0.422  -5.841  13.390  1.00  0.00     0.037 A 
BRANCH  54  68
ATOM     68  C   UNL     1       5.412  -8.568  10.971  1.00  0.00     0.064 A 
ATOM     69  C   UNL     1       6.755  -8.210  11.163  1.00  0.00     0.173 A 
ATOM     70  C   UNL     1       5.095  -9.934  10.948  1.00  0.00     0.173 A 
ATOM     71  F   UNL     1       7.113  -6.917  11.181  1.00  0.00    -0.203 F 
ATOM     72  C   UNL     1       7.744  -9.181  11.295  1.00  0.00     0.198 A 
ATOM     73  C   UNL     1       6.083 -10.902  11.112  1.00  0.00     0.198 A 
ATOM     74  F   UNL     1       3.825 -10.332  10.775  1.00  0.00    -0.203 F 
ATOM     75  F   UNL     1       9.027  -8.814  11.425  1.00  0.00    -0.200 F 
ATOM     76  C   UNL     1       7.407 -10.525  11.276  1.00  0.00     0.200 A 
ATOM     77  F   UNL     1       5.753 -12.202  11.107  1.00  0.00    -0.200 F 
ATOM     78  F   UNL     1       8.360 -11.459  11.409  1.00  0.00    -0.200 F 
ENDBRANCH  54  68
BRANCH  55  79
ATOM     79  C   UNL     1      -1.728  -1.753   9.476  1.00  0.00     0.064 A 
ATOM     80  C   UNL     1      -1.792  -0.585  10.249  1.00  0.00     0.173 A 
ATOM     81  C   UNL     1      -2.713  -1.944   8.498  1.00  0.00     0.173 A 
ATOM     82  F   UNL     1      -0.883  -0.368  11.211  1.00  0.00    -0.203 F 
ATOM     83  C   UNL     1      -2.814   0.344  10.066  1.00  0.00     0.198 A 
ATOM     84  C   UNL     1      -3.719  -1.001   8.297  1.00  0.00     0.198 A 
ATOM     85  F   UNL     1      -2.693  -3.043   7.730  1.00  0.00    -0.203 F 
ATOM     86  F   UNL     1      -2.878   1.430  10.848  1.00  0.00    -0.200 F 
ATOM     87  C   UNL     1      -3.773   0.138   9.086  1.00  0.00     0.200 A 
ATOM     88  F   UNL     1      -4.637  -1.197   7.341  1.00  0.00    -0.200 F 
ATOM     89  F   UNL     1      -4.754   1.033   8.908  1.00  0.00    -0.200 F 
ENDBRANCH  55  79
BRANCH  67  90
ATOM     90  C   UNL     1      -0.213  -6.065  14.731  1.00  0.00     0.064 A 
ATOM     91  C   UNL     1      -1.449  -6.714  14.862  1.00  0.00     0.173 A 
ATOM     92  C   UNL     1       0.440  -5.651  15.902  1.00  0.00     0.173 A 
ATOM     93  F   UNL     1      -2.120  -7.115  13.771  1.00  0.00    -0.203 F 
ATOM     94  C   UNL     1      -2.022  -6.915  16.115  1.00  0.00     0.198 A 
ATOM     95  C   UNL     1      -0.121  -5.880  17.154  1.00  0.00     0.198 A 
ATOM     96  F   UNL     1       1.628  -5.032  15.831  1.00  0.00    -0.203 F 
ATOM     97  F   UNL     1      -3.228  -7.492  16.213  1.00  0.00    -0.200 F 
ATOM     98  C   UNL     1      -1.355  -6.504  17.260  1.00  0.00     0.200 A 
ATOM     99  F   UNL     1       0.530  -5.494  18.260  1.00  0.00    -0.200 F 
ATOM    100  F   UNL     1      -1.906  -6.702  18.465  1.00  0.00    -0.200 F 
ENDBRANCH  67  90
ENDBRANCH  41  42
ENDBRANCH  33  36
ENDBRANCH  31  32
ENDBRANCH  30  31
ENDBRANCH   1  30
TORSDOF 15
