REMARK SMILES C[C@H](CNc1cccc(F)c1C(=O)NCCCNC(=O)c1ccc(-c2c3nc(c(-c4c(F)c(F)c(F)c(F)c4F)c4ccc([nH]4)c(-c4c(F)c(F)c(F)c(F)c4F)c4nc(c(-c5c(F)c(F)c(F)c(F)c5F)c5ccc2[nH]5)C=C4)C=C3)cc1)C[NH+]1CCCC1
REMARK SMILES IDX 12 1 13 2 14 3 11 5 5 6 6 7 7 8 9 9 8 10 10 11 4 12 3 14
REMARK SMILES IDX 2 15 1 16 84 17 85 18 86 19 89 20 87 22 88 23 15 24 16 25
REMARK SMILES IDX 17 26 18 27 19 28 20 30 21 31 22 32 83 33 23 34 82 35 24 36
REMARK SMILES IDX 25 37 26 38 76 39 27 40 81 41 75 42 77 43 28 44 80 45 74 46
REMARK SMILES IDX 73 47 29 49 61 50 41 51 60 52 42 53 45 54 59 55 78 56 43 57
REMARK SMILES IDX 44 58 58 60 79 61 46 62 30 63 31 64 39 65 32 66 33 67 37 68
REMARK SMILES IDX 40 69 34 70 35 71 38 72 36 73 62 74 63 75 71 76 64 77 65 78
REMARK SMILES IDX 69 79 72 80 66 81 67 82 70 83 68 84 47 85 48 86 56 87 49 88
REMARK SMILES IDX 50 89 54 90 57 91 51 92 52 93 55 94 53 95
REMARK H PARENT 14 4 4 13 85 21 18 29 77 48 45 59
REMARK Flexibility Score: inf
ROOT
ATOM      1  C   UNL     1       4.800   1.997  -0.603  1.00  0.00     0.256 C 
ATOM      2  O   UNL     1       4.286   1.637  -1.670  1.00  0.00    -0.269 OA
ATOM      3  N   UNL     1       5.403   3.224  -0.680  1.00  0.00    -0.352 N 
ATOM      4  H   UNL     1       5.154   3.711  -1.499  1.00  0.00     0.163 HD
ENDROOT
BRANCH   1   5
ATOM      5  C   UNL     1       4.647   1.136   0.618  1.00  0.00     0.098 A 
ATOM      6  C   UNL     1       3.564   0.201   0.648  1.00  0.00     0.050 A 
ATOM      7  C   UNL     1       3.356  -0.574   1.805  1.00  0.00     0.027 A 
ATOM      8  C   UNL     1       4.179  -0.455   2.920  1.00  0.00     0.005 A 
ATOM      9  C   UNL     1       5.500   1.175   1.726  1.00  0.00     0.138 A 
ATOM     10  C   UNL     1       5.255   0.417   2.875  1.00  0.00     0.040 A 
ATOM     11  F   UNL     1       6.641   1.872   1.726  1.00  0.00    -0.206 F 
BRANCH   6  12
ATOM     12  N   UNL     1       2.721   0.030  -0.448  1.00  0.00    -0.384 N 
ATOM     13  H   UNL     1       3.136   0.027  -1.341  1.00  0.00     0.160 HD
BRANCH  12  14
ATOM     14  C   UNL     1       1.280  -0.146  -0.381  1.00  0.00     0.122 C 
BRANCH  14  15
ATOM     15  C   UNL     1       0.554   1.121  -0.881  1.00  0.00     0.060 C 
ATOM     16  C   UNL     1       0.740   1.255  -2.407  1.00  0.00     0.015 C 
BRANCH  15  17
ATOM     17  C   UNL     1      -0.968   1.085  -0.587  1.00  0.00     0.267 C 
BRANCH  17  18
ATOM     18  N   UNL     1      -1.520   1.493   0.709  1.00  0.00    -0.335 N 
ATOM     19  C   UNL     1      -1.391   2.919   1.010  1.00  0.00     0.262 C 
ATOM     20  C   UNL     1      -1.059   0.793   1.901  1.00  0.00     0.262 C 
ATOM     21  H   UNL     1      -2.488   1.224   0.536  1.00  0.00     0.348 HD
ATOM     22  C   UNL     1      -0.182   3.052   1.920  1.00  0.00     0.067 C 
ATOM     23  C   UNL     1       0.018   1.669   2.524  1.00  0.00     0.067 C 
ENDBRANCH  17  18
ENDBRANCH  15  17
ENDBRANCH  14  15
ENDBRANCH  12  14
ENDBRANCH   6  12
ENDBRANCH   1   5
BRANCH   3  24
ATOM     24  C   UNL     1       6.320   3.978   0.151  1.00  0.00     0.118 C 
BRANCH  24  25
ATOM     25  C   UNL     1       7.765   3.665  -0.248  1.00  0.00     0.042 C 
BRANCH  25  26
ATOM     26  C   UNL     1       8.158   4.276  -1.597  1.00  0.00     0.118 C 
BRANCH  26  27
ATOM     27  N   UNL     1       8.224   5.732  -1.535  1.00  0.00    -0.352 N 
ATOM     28  C   UNL     1       9.306   6.574  -1.593  1.00  0.00     0.251 C 
ATOM     29  H   UNL     1       7.354   6.182  -1.436  1.00  0.00     0.163 HD
ATOM     30  O   UNL     1       9.191   7.741  -1.238  1.00  0.00    -0.269 OA
BRANCH  28  31
ATOM     31  C   UNL     1      10.612   6.085  -2.084  1.00  0.00     0.039 A 
ATOM     32  C   UNL     1      11.778   6.490  -1.427  1.00  0.00     0.014 A 
ATOM     33  C   UNL     1      10.692   5.277  -3.220  1.00  0.00     0.014 A 
ATOM     34  C   UNL     1      13.020   6.031  -1.871  1.00  0.00     0.010 A 
ATOM     35  C   UNL     1      11.923   4.767  -3.623  1.00  0.00     0.010 A 
ATOM     36  C   UNL     1      13.098   5.136  -2.950  1.00  0.00    -0.014 A 
BRANCH  36  37
ATOM     37  C   UNL     1      14.390   4.544  -3.376  1.00  0.00     0.031 A 
ATOM     38  C   UNL     1      14.942   4.830  -4.742  1.00  0.00     0.074 A 
ATOM     39  C   UNL     1      15.014   3.672  -2.561  1.00  0.00     0.049 A 
ATOM     40  N   UNL     1      15.990   4.316  -5.334  1.00  0.00    -0.248 NA
ATOM     41  C   UNL     1      14.204   5.803  -5.562  1.00  0.00     0.031 C 
ATOM     42  C   UNL     1      14.551   3.288  -1.228  1.00  0.00     0.029 A 
ATOM     43  N   UNL     1      16.160   2.938  -2.741  1.00  0.00    -0.354 N 
ATOM     44  C   UNL     1      16.024   4.885  -6.600  1.00  0.00     0.074 A 
ATOM     45  C   UNL     1      14.870   5.750  -6.707  1.00  0.00     0.031 C 
ATOM     46  C   UNL     1      15.412   2.404  -0.702  1.00  0.00     0.029 A 
ATOM     47  C   UNL     1      16.461   2.123  -1.678  1.00  0.00     0.049 A 
ATOM     48  H   UNL     1      16.713   2.992  -3.553  1.00  0.00     0.167 HD
ATOM     49  C   UNL     1      16.948   4.711  -7.574  1.00  0.00     0.037 A 
ATOM     50  C   UNL     1      17.459   1.234  -1.512  1.00  0.00     0.037 A 
ATOM     51  C   UNL     1      18.110   3.871  -7.443  1.00  0.00     0.049 A 
ATOM     52  C   UNL     1      18.460   1.039  -2.616  1.00  0.00     0.074 A 
ATOM     53  C   UNL     1      19.153   3.701  -8.335  1.00  0.00     0.029 A 
ATOM     54  N   UNL     1      18.375   3.053  -6.354  1.00  0.00    -0.354 N 
ATOM     55  N   UNL     1      18.524   1.633  -3.782  1.00  0.00    -0.248 NA
ATOM     56  C   UNL     1      19.521   0.048  -2.388  1.00  0.00     0.031 C 
ATOM     57  C   UNL     1      20.020   2.738  -7.813  1.00  0.00     0.029 A 
ATOM     58  C   UNL     1      19.546   2.345  -6.570  1.00  0.00     0.049 A 
ATOM     59  H   UNL     1      17.815   2.986  -5.547  1.00  0.00     0.167 HD
ATOM     60  C   UNL     1      19.633   1.101  -4.423  1.00  0.00     0.074 A 
ATOM     61  C   UNL     1      20.221   0.141  -3.512  1.00  0.00     0.031 C 
ATOM     62  C   UNL     1      20.116   1.385  -5.657  1.00  0.00     0.037 A 
BRANCH  49  63
ATOM     63  C   UNL     1      16.746   5.442  -8.870  1.00  0.00     0.064 A 
ATOM     64  C   UNL     1      16.463   4.734 -10.048  1.00  0.00     0.173 A 
ATOM     65  C   UNL     1      16.881   6.836  -8.960  1.00  0.00     0.173 A 
ATOM     66  F   UNL     1      16.332   3.400 -10.021  1.00  0.00    -0.203 F 
ATOM     67  C   UNL     1      16.325   5.395 -11.266  1.00  0.00     0.198 A 
ATOM     68  C   UNL     1      16.712   7.496 -10.174  1.00  0.00     0.198 A 
ATOM     69  F   UNL     1      17.145   7.561  -7.862  1.00  0.00    -0.203 F 
ATOM     70  F   UNL     1      16.080   4.695 -12.383  1.00  0.00    -0.200 F 
ATOM     71  C   UNL     1      16.442   6.775 -11.327  1.00  0.00     0.200 A 
ATOM     72  F   UNL     1      16.801   8.832 -10.226  1.00  0.00    -0.200 F 
ATOM     73  F   UNL     1      16.290   7.411 -12.497  1.00  0.00    -0.200 F 
ENDBRANCH  49  63
BRANCH  50  74
ATOM     74  C   UNL     1      17.556   0.492  -0.230  1.00  0.00     0.064 A 
ATOM     75  C   UNL     1      16.622  -0.496   0.116  1.00  0.00     0.173 A 
ATOM     76  C   UNL     1      18.537   0.823   0.713  1.00  0.00     0.173 A 
ATOM     77  F   UNL     1      15.659  -0.842  -0.751  1.00  0.00    -0.203 F 
ATOM     78  C   UNL     1      16.645  -1.099   1.371  1.00  0.00     0.198 A 
ATOM     79  C   UNL     1      18.573   0.203   1.960  1.00  0.00     0.198 A 
ATOM     80  F   UNL     1      19.461   1.750   0.420  1.00  0.00    -0.203 F 
ATOM     81  F   UNL     1      15.711  -2.003   1.696  1.00  0.00    -0.200 F 
ATOM     82  C   UNL     1      17.620  -0.748   2.293  1.00  0.00     0.200 A 
ATOM     83  F   UNL     1      19.525   0.533   2.843  1.00  0.00    -0.200 F 
ATOM     84  F   UNL     1      17.637  -1.322   3.504  1.00  0.00    -0.200 F 
ENDBRANCH  50  74
BRANCH  62  85
ATOM     85  C   UNL     1      21.342   0.654  -6.116  1.00  0.00     0.064 A 
ATOM     86  C   UNL     1      22.566   1.329  -6.246  1.00  0.00     0.173 A 
ATOM     87  C   UNL     1      21.275  -0.679  -6.542  1.00  0.00     0.173 A 
ATOM     88  F   UNL     1      22.676   2.608  -5.859  1.00  0.00    -0.203 F 
ATOM     89  C   UNL     1      23.670   0.703  -6.817  1.00  0.00     0.198 A 
ATOM     90  C   UNL     1      22.389  -1.310  -7.089  1.00  0.00     0.198 A 
ATOM     91  F   UNL     1      20.131  -1.369  -6.424  1.00  0.00    -0.203 F 
ATOM     92  F   UNL     1      24.814   1.381  -6.977  1.00  0.00    -0.200 F 
ATOM     93  C   UNL     1      23.580  -0.615  -7.239  1.00  0.00     0.200 A 
ATOM     94  F   UNL     1      22.308  -2.590  -7.479  1.00  0.00    -0.200 F 
ATOM     95  F   UNL     1      24.642  -1.214  -7.795  1.00  0.00    -0.200 F 
ENDBRANCH  62  85
ENDBRANCH  36  37
ENDBRANCH  28  31
ENDBRANCH  26  27
ENDBRANCH  25  26
ENDBRANCH  24  25
ENDBRANCH   3  24
TORSDOF 15
