REMARK SMILES O=C(NCCCNC(=O)C1CC[NH+]([C@H]2CC(=O)N(c3ccc4c(c3)OCCO4)C2=O)CC1)c1ccc(-c2c3nc(c(-c4c(F)c(F)c(F)c(F)c4F)c4ccc([nH]4)c(-c4c(F)c(F)c(F)c(F)c4F)c4nc(c(-c5c(F)c(F)c(F)c(F)c5F)c5ccc2[nH]5)C=C4)C=C3)cc1
REMARK SMILES IDX 5 1 4 2 3 3 1 4 2 5 33 7 34 8 95 9 35 10 94 11 36 12 37 13
REMARK SMILES IDX 38 14 88 15 39 16 93 17 87 18 89 19 40 20 92 21 86 22 85 23
REMARK SMILES IDX 41 25 73 26 53 27 72 28 54 29 57 30 71 31 90 32 55 33 56 34
REMARK SMILES IDX 70 36 91 37 58 38 42 39 43 40 51 41 44 42 45 43 49 44 52 45
REMARK SMILES IDX 46 46 47 47 50 48 48 49 74 50 75 51 83 52 76 53 77 54 81 55
REMARK SMILES IDX 84 56 78 57 79 58 82 59 80 60 59 61 60 62 68 63 61 64 62 65
REMARK SMILES IDX 66 66 69 67 63 68 64 69 67 70 65 71 6 72 7 73 8 74 9 76
REMARK SMILES IDX 10 77 11 78 32 79 12 80 31 81 13 82 14 84 15 85 29 86 16 87
REMARK SMILES IDX 18 88 30 89 17 90 19 91 20 92 24 93 21 94 23 95 22 96 25 97
REMARK SMILES IDX 28 98 26 99 27 100
REMARK H PARENT 3 6 89 24 57 35 7 75 13 83
REMARK Flexibility Score: inf
ROOT
ATOM      1  C   UNL     1       3.779   2.568   5.387  1.00  0.00     0.042 C 
ENDROOT
BRANCH   1   2
ATOM      2  C   UNL     1       3.089   3.376   6.469  1.00  0.00     0.118 C 
BRANCH   2   3
ATOM      3  N   UNL     1       1.677   3.045   6.554  1.00  0.00    -0.352 N 
ATOM      4  O   UNL     1      -0.105   1.795   7.102  1.00  0.00    -0.269 OA
ATOM      5  C   UNL     1       1.022   2.183   7.397  1.00  0.00     0.251 C 
ATOM      6  H   UNL     1       1.100   3.512   5.907  1.00  0.00     0.163 HD
BRANCH   5   7
ATOM      7  C   UNL     1       1.655   1.719   8.652  1.00  0.00     0.039 A 
ATOM      8  C   UNL     1       2.453   2.570   9.419  1.00  0.00     0.014 A 
ATOM      9  C   UNL     1       1.365   0.433   9.119  1.00  0.00     0.014 A 
ATOM     10  C   UNL     1       3.061   2.106  10.579  1.00  0.00     0.010 A 
ATOM     11  C   UNL     1       1.887   0.003  10.341  1.00  0.00     0.010 A 
ATOM     12  C   UNL     1       2.746   0.835  11.075  1.00  0.00    -0.014 A 
BRANCH  12  13
ATOM     13  C   UNL     1       3.232   0.423  12.414  1.00  0.00     0.031 A 
ATOM     14  C   UNL     1       4.124  -0.770  12.571  1.00  0.00     0.074 A 
ATOM     15  C   UNL     1       2.814   1.111  13.493  1.00  0.00     0.049 A 
ATOM     16  N   UNL     1       4.539  -1.353  13.666  1.00  0.00    -0.248 NA
ATOM     17  C   UNL     1       4.599  -1.403  11.332  1.00  0.00     0.031 C 
ATOM     18  C   UNL     1       1.942   2.287  13.455  1.00  0.00     0.029 A 
ATOM     19  N   UNL     1       3.050   0.916  14.830  1.00  0.00    -0.354 N 
ATOM     20  C   UNL     1       5.299  -2.438  13.252  1.00  0.00     0.074 A 
ATOM     21  C   UNL     1       5.268  -2.446  11.804  1.00  0.00     0.031 C 
ATOM     22  C   UNL     1       1.723   2.715  14.705  1.00  0.00     0.029 A 
ATOM     23  C   UNL     1       2.374   1.800  15.635  1.00  0.00     0.049 A 
ATOM     24  H   UNL     1       3.644   0.213  15.178  1.00  0.00     0.167 HD
ATOM     25  C   UNL     1       5.959  -3.341  14.017  1.00  0.00     0.037 A 
ATOM     26  C   UNL     1       2.249   1.843  16.974  1.00  0.00     0.037 A 
ATOM     27  C   UNL     1       5.981  -3.310  15.457  1.00  0.00     0.049 A 
ATOM     28  C   UNL     1       2.955   0.810  17.801  1.00  0.00     0.074 A 
ATOM     29  C   UNL     1       6.652  -4.149  16.329  1.00  0.00     0.029 A 
ATOM     30  N   UNL     1       5.287  -2.395  16.239  1.00  0.00    -0.354 N 
ATOM     31  N   UNL     1       3.696  -0.195  17.404  1.00  0.00    -0.248 NA
ATOM     32  C   UNL     1       2.809   0.913  19.258  1.00  0.00     0.031 C 
ATOM     33  C   UNL     1       6.314  -3.782  17.636  1.00  0.00     0.029 A 
ATOM     34  C   UNL     1       5.488  -2.670  17.582  1.00  0.00     0.049 A 
ATOM     35  H   UNL     1       4.733  -1.659  15.890  1.00  0.00     0.167 HD
ATOM     36  C   UNL     1       4.129  -0.830  18.558  1.00  0.00     0.074 A 
ATOM     37  C   UNL     1       3.567  -0.094  19.673  1.00  0.00     0.031 C 
ATOM     38  C   UNL     1       4.927  -1.919  18.680  1.00  0.00     0.037 A 
BRANCH  25  39
ATOM     39  C   UNL     1       6.671  -4.460  13.309  1.00  0.00     0.064 A 
ATOM     40  C   UNL     1       7.803  -4.237  12.510  1.00  0.00     0.173 A 
ATOM     41  C   UNL     1       6.211  -5.780  13.435  1.00  0.00     0.173 A 
ATOM     42  F   UNL     1       8.281  -2.994  12.348  1.00  0.00    -0.203 F 
ATOM     43  C   UNL     1       8.417  -5.285  11.828  1.00  0.00     0.198 A 
ATOM     44  C   UNL     1       6.849  -6.830  12.779  1.00  0.00     0.198 A 
ATOM     45  F   UNL     1       5.138  -6.055  14.193  1.00  0.00    -0.203 F 
ATOM     46  F   UNL     1       9.454  -5.036  11.015  1.00  0.00    -0.200 F 
ATOM     47  C   UNL     1       7.943  -6.580  11.965  1.00  0.00     0.200 A 
ATOM     48  F   UNL     1       6.397  -8.084  12.926  1.00  0.00    -0.200 F 
ATOM     49  F   UNL     1       8.532  -7.586  11.304  1.00  0.00    -0.200 F 
ENDBRANCH  25  39
BRANCH  26  50
ATOM     50  C   UNL     1       1.402   2.898  17.586  1.00  0.00     0.064 A 
ATOM     51  C   UNL     1       1.974   3.964  18.291  1.00  0.00     0.173 A 
ATOM     52  C   UNL     1       0.009   2.898  17.415  1.00  0.00     0.173 A 
ATOM     53  F   UNL     1       3.300   4.001  18.490  1.00  0.00    -0.203 F 
ATOM     54  C   UNL     1       1.184   4.992  18.802  1.00  0.00     0.198 A 
ATOM     55  C   UNL     1      -0.776   3.941  17.901  1.00  0.00     0.198 A 
ATOM     56  F   UNL     1      -0.585   1.906  16.735  1.00  0.00    -0.203 F 
ATOM     57  F   UNL     1       1.752   5.991  19.491  1.00  0.00    -0.200 F 
ATOM     58  C   UNL     1      -0.188   4.985  18.598  1.00  0.00     0.200 A 
ATOM     59  F   UNL     1      -2.098   3.941  17.681  1.00  0.00    -0.200 F 
ATOM     60  F   UNL     1      -0.943   5.986  19.070  1.00  0.00    -0.200 F 
ENDBRANCH  26  50
BRANCH  38  61
ATOM     61  C   UNL     1       5.287  -2.360  20.067  1.00  0.00     0.064 A 
ATOM     62  C   UNL     1       4.365  -3.008  20.901  1.00  0.00     0.173 A 
ATOM     63  C   UNL     1       6.600  -2.199  20.536  1.00  0.00     0.173 A 
ATOM     64  F   UNL     1       3.093  -3.169  20.505  1.00  0.00    -0.203 F 
ATOM     65  C   UNL     1       4.743  -3.475  22.157  1.00  0.00     0.198 A 
ATOM     66  C   UNL     1       6.982  -2.693  21.779  1.00  0.00     0.198 A 
ATOM     67  F   UNL     1       7.519  -1.587  19.774  1.00  0.00    -0.203 F 
ATOM     68  F   UNL     1       3.840  -4.066  22.950  1.00  0.00    -0.200 F 
ATOM     69  C   UNL     1       6.053  -3.328  22.589  1.00  0.00     0.200 A 
ATOM     70  F   UNL     1       8.252  -2.563  22.189  1.00  0.00    -0.200 F 
ATOM     71  F   UNL     1       6.421  -3.798  23.789  1.00  0.00    -0.200 F 
ENDBRANCH  38  61
ENDBRANCH  12  13
ENDBRANCH   5   7
ENDBRANCH   2   3
ENDBRANCH   1   2
BRANCH   1  72
ATOM     72  C   UNL     1       3.406   3.028   3.979  1.00  0.00     0.117 C 
BRANCH  72  73
ATOM     73  N   UNL     1       4.173   4.201   3.596  1.00  0.00    -0.356 N 
ATOM     74  C   UNL     1       5.309   4.427   2.899  1.00  0.00     0.223 C 
ATOM     75  H   UNL     1       3.766   5.035   3.924  1.00  0.00     0.163 HD
ATOM     76  O   UNL     1       5.737   5.588   2.985  1.00  0.00    -0.275 OA
BRANCH  74  77
ATOM     77  C   UNL     1       6.018   3.444   1.956  1.00  0.00     0.089 C 
ATOM     78  C   UNL     1       5.676   1.967   1.951  1.00  0.00     0.075 C 
ATOM     79  C   UNL     1       7.548   3.561   2.103  1.00  0.00     0.075 C 
ATOM     80  C   UNL     1       6.186   1.247   3.198  1.00  0.00     0.263 C 
ATOM     81  C   UNL     1       8.063   2.837   3.351  1.00  0.00     0.263 C 
ATOM     82  N   UNL     1       7.592   1.463   3.522  1.00  0.00    -0.324 N 
ATOM     83  H   UNL     1       7.691   1.430   4.536  1.00  0.00     0.348 HD
BRANCH  82  84
ATOM     84  C   UNL     1       8.450   0.329   3.154  1.00  0.00     0.284 C 
ATOM     85  C   UNL     1       8.375  -0.084   1.696  1.00  0.00     0.176 C 
ATOM     86  C   UNL     1       9.933   0.474   3.450  1.00  0.00     0.292 C 
ATOM     87  C   UNL     1       9.789  -0.288   1.287  1.00  0.00     0.240 C 
ATOM     88  N   UNL     1      10.612   0.114   2.310  1.00  0.00    -0.245 N 
ATOM     89  O   UNL     1      10.406   0.841   4.519  1.00  0.00    -0.267 OA
ATOM     90  O   UNL     1      10.093  -0.753   0.203  1.00  0.00    -0.274 OA
BRANCH  88  91
ATOM     91  C   UNL     1      12.009   0.117   2.173  1.00  0.00     0.056 A 
ATOM     92  C   UNL     1      12.832  -0.501   3.119  1.00  0.00     0.031 A 
ATOM     93  C   UNL     1      12.573   0.708   1.036  1.00  0.00     0.077 A 
ATOM     94  C   UNL     1      14.209  -0.578   2.894  1.00  0.00     0.052 A 
ATOM     95  C   UNL     1      13.947   0.677   0.844  1.00  0.00     0.163 A 
ATOM     96  C   UNL     1      14.766   0.025   1.767  1.00  0.00     0.161 A 
ATOM     97  O   UNL     1      14.414   1.323  -0.270  1.00  0.00    -0.486 OA
ATOM     98  O   UNL     1      16.125  -0.063   1.622  1.00  0.00    -0.486 OA
ATOM     99  C   UNL     1      15.762   0.954  -0.562  1.00  0.00     0.271 C 
ATOM    100  C   UNL     1      16.608   0.922   0.702  1.00  0.00     0.271 C 
ENDBRANCH  88  91
ENDBRANCH  82  84
ENDBRANCH  74  77
ENDBRANCH  72  73
ENDBRANCH   1  72
TORSDOF 12
