REMARK SMILES C[C@@H](C(=O)NCCCNC(=O)c1ccc(-c2c3nc(c(-c4c(F)c(F)c(F)c(F)c4F)c4ccc([nH]4)c(-c4c(F)c(F)c(F)c(F)c4F)c4nc(c(-c5c(F)c(F)c(F)c(F)c5F)c5ccc2[nH]5)C=C4)C=C3)cc1)c1ccc(-c2cccc(OC(=O)NC3CC3)c2)c(F)c1
REMARK SMILES IDX 3 1 4 2 5 3 2 5 1 6 75 7 76 8 94 9 77 10 92 11 78 12 93 13
REMARK SMILES IDX 79 14 80 15 91 16 81 17 83 18 82 19 84 20 85 21 86 22 87 23
REMARK SMILES IDX 88 25 89 26 90 27 6 28 7 29 8 30 9 31 10 32 11 34 12 35
REMARK SMILES IDX 13 36 74 37 14 38 73 39 15 40 16 41 17 42 67 43 18 44 72 45
REMARK SMILES IDX 66 46 68 47 19 48 71 49 65 50 64 51 20 53 52 54 32 55 51 56
REMARK SMILES IDX 33 57 36 58 50 59 69 60 34 61 35 62 49 64 70 65 37 66 21 67
REMARK SMILES IDX 22 68 30 69 23 70 24 71 28 72 31 73 25 74 26 75 29 76 27 77
REMARK SMILES IDX 53 78 54 79 62 80 55 81 56 82 60 83 63 84 57 85 58 86 61 87
REMARK SMILES IDX 59 88 38 89 39 90 47 91 40 92 41 93 45 94 48 95 42 96 43 97
REMARK SMILES IDX 46 98 44 99
REMARK H PARENT 5 4 87 24 9 33 68 52 36 63
REMARK Flexibility Score: inf
ROOT
ATOM      1  C   UNL     1       1.126  -0.336  -2.508  1.00  0.00     0.227 C 
ATOM      2  O   UNL     1       0.488  -1.037  -3.296  1.00  0.00    -0.274 OA
ATOM      3  N   UNL     1       2.459  -0.215  -2.758  1.00  0.00    -0.356 N 
ATOM      4  H   UNL     1       2.763  -0.629  -3.598  1.00  0.00     0.163 HD
ENDROOT
BRANCH   1   5
ATOM      5  C   UNL     1       0.494   0.411  -1.322  1.00  0.00     0.105 C 
ATOM      6  C   UNL     1       0.891  -0.180   0.035  1.00  0.00     0.023 C 
BRANCH   5   7
ATOM      7  C   UNL     1      -1.025   0.457  -1.407  1.00  0.00    -0.033 A 
ATOM      8  C   UNL     1      -1.702   1.684  -1.422  1.00  0.00     0.005 A 
ATOM      9  C   UNL     1      -1.775  -0.727  -1.417  1.00  0.00     0.044 A 
ATOM     10  C   UNL     1      -3.100   1.723  -1.412  1.00  0.00     0.012 A 
ATOM     11  C   UNL     1      -3.162  -0.680  -1.414  1.00  0.00     0.131 A 
ATOM     12  C   UNL     1      -3.852   0.539  -1.386  1.00  0.00     0.018 A 
ATOM     13  F   UNL     1      -3.833  -1.842  -1.404  1.00  0.00    -0.206 F 
BRANCH  12  14
ATOM     14  C   UNL     1      -5.307   0.571  -1.222  1.00  0.00    -0.012 A 
ATOM     15  C   UNL     1      -6.151   1.209  -2.140  1.00  0.00     0.009 A 
ATOM     16  C   UNL     1      -5.876  -0.044  -0.094  1.00  0.00     0.056 A 
ATOM     17  C   UNL     1      -7.534   1.224  -1.939  1.00  0.00     0.004 A 
ATOM     18  C   UNL     1      -7.250  -0.027   0.106  1.00  0.00     0.133 A 
ATOM     19  C   UNL     1      -8.084   0.606  -0.815  1.00  0.00     0.047 A 
BRANCH  18  20
ATOM     20  O   UNL     1      -7.895  -0.622   1.217  1.00  0.00    -0.410 OA
BRANCH  20  21
ATOM     21  C   UNL     1      -7.302  -1.440   2.175  1.00  0.00     0.412 C 
ATOM     22  O   UNL     1      -6.108  -1.712   2.264  1.00  0.00    -0.224 OA
ATOM     23  N   UNL     1      -8.185  -1.975   3.075  1.00  0.00    -0.318 N 
ATOM     24  H   UNL     1      -7.790  -2.594   3.731  1.00  0.00     0.167 HD
BRANCH  23  25
ATOM     25  C   UNL     1      -9.588  -1.770   3.205  1.00  0.00     0.085 C 
ATOM     26  C   UNL     1     -10.552  -1.403   2.113  1.00  0.00     0.027 C 
ATOM     27  C   UNL     1     -10.518  -2.808   2.629  1.00  0.00     0.027 C 
ENDBRANCH  23  25
ENDBRANCH  20  21
ENDBRANCH  18  20
ENDBRANCH  12  14
ENDBRANCH   5   7
ENDBRANCH   1   5
BRANCH   3  28
ATOM     28  C   UNL     1       3.501   0.425  -1.985  1.00  0.00     0.117 C 
BRANCH  28  29
ATOM     29  C   UNL     1       4.341  -0.604  -1.232  1.00  0.00     0.042 C 
BRANCH  29  30
ATOM     30  C   UNL     1       5.063  -1.601  -2.134  1.00  0.00     0.118 C 
BRANCH  30  31
ATOM     31  N   UNL     1       5.981  -0.951  -3.055  1.00  0.00    -0.352 N 
ATOM     32  C   UNL     1       7.334  -1.095  -3.218  1.00  0.00     0.251 C 
ATOM     33  H   UNL     1       5.562  -0.299  -3.662  1.00  0.00     0.163 HD
ATOM     34  O   UNL     1       7.943  -0.282  -3.909  1.00  0.00    -0.269 OA
BRANCH  32  35
ATOM     35  C   UNL     1       8.072  -2.200  -2.568  1.00  0.00     0.039 A 
ATOM     36  C   UNL     1       9.361  -1.943  -2.094  1.00  0.00     0.014 A 
ATOM     37  C   UNL     1       7.540  -3.490  -2.469  1.00  0.00     0.014 A 
ATOM     38  C   UNL     1      10.091  -2.959  -1.478  1.00  0.00     0.010 A 
ATOM     39  C   UNL     1       8.237  -4.482  -1.780  1.00  0.00     0.010 A 
ATOM     40  C   UNL     1       9.523  -4.229  -1.282  1.00  0.00    -0.014 A 
BRANCH  40  41
ATOM     41  C   UNL     1      10.268  -5.274  -0.533  1.00  0.00     0.031 A 
ATOM     42  C   UNL     1      10.694  -6.552  -1.202  1.00  0.00     0.074 A 
ATOM     43  C   UNL     1      10.546  -5.071   0.769  1.00  0.00     0.049 A 
ATOM     44  N   UNL     1      11.377  -7.555  -0.707  1.00  0.00    -0.248 NA
ATOM     45  C   UNL     1      10.284  -6.740  -2.602  1.00  0.00     0.031 C 
ATOM     46  C   UNL     1      10.132  -3.900   1.545  1.00  0.00     0.029 A 
ATOM     47  N   UNL     1      11.244  -5.836   1.669  1.00  0.00    -0.354 N 
ATOM     48  C   UNL     1      11.482  -8.486  -1.732  1.00  0.00     0.074 A 
ATOM     49  C   UNL     1      10.737  -7.960  -2.856  1.00  0.00     0.031 C 
ATOM     50  C   UNL     1      10.616  -4.005   2.792  1.00  0.00     0.029 A 
ATOM     51  C   UNL     1      11.337  -5.268   2.917  1.00  0.00     0.049 A 
ATOM     52  H   UNL     1      11.639  -6.708   1.443  1.00  0.00     0.167 HD
ATOM     53  C   UNL     1      12.161  -9.659  -1.744  1.00  0.00     0.037 A 
ATOM     54  C   UNL     1      11.935  -5.714   4.037  1.00  0.00     0.037 A 
ATOM     55  C   UNL     1      12.902 -10.179  -0.622  1.00  0.00     0.049 A 
ATOM     56  C   UNL     1      12.671  -7.025   3.999  1.00  0.00     0.074 A 
ATOM     57  C   UNL     1      13.657 -11.336  -0.547  1.00  0.00     0.029 A 
ATOM     58  N   UNL     1      12.972  -9.577   0.626  1.00  0.00    -0.354 N 
ATOM     59  N   UNL     1      12.829  -7.859   3.000  1.00  0.00    -0.248 NA
ATOM     60  C   UNL     1      13.323  -7.451   5.244  1.00  0.00     0.031 C 
ATOM     61  C   UNL     1      14.137 -11.464   0.761  1.00  0.00     0.029 A 
ATOM     62  C   UNL     1      13.736 -10.354   1.486  1.00  0.00     0.049 A 
ATOM     63  H   UNL     1      12.543  -8.725   0.867  1.00  0.00     0.167 HD
ATOM     64  C   UNL     1      13.612  -8.896   3.488  1.00  0.00     0.074 A 
ATOM     65  C   UNL     1      13.925  -8.568   4.863  1.00  0.00     0.031 C 
ATOM     66  C   UNL     1      14.029 -10.022   2.857  1.00  0.00     0.037 A 
BRANCH  53  67
ATOM     67  C   UNL     1      12.139 -10.463  -3.015  1.00  0.00     0.064 A 
ATOM     68  C   UNL     1      12.789 -10.019  -4.177  1.00  0.00     0.173 A 
ATOM     69  C   UNL     1      11.500 -11.711  -3.061  1.00  0.00     0.173 A 
ATOM     70  F   UNL     1      13.409  -8.829  -4.192  1.00  0.00    -0.203 F 
ATOM     71  C   UNL     1      12.776 -10.781  -5.343  1.00  0.00     0.198 A 
ATOM     72  C   UNL     1      11.518 -12.486  -4.219  1.00  0.00     0.198 A 
ATOM     73  F   UNL     1      10.868 -12.189  -1.978  1.00  0.00    -0.203 F 
ATOM     74  F   UNL     1      13.362 -10.312  -6.454  1.00  0.00    -0.200 F 
ATOM     75  C   UNL     1      12.148 -12.016  -5.361  1.00  0.00     0.200 A 
ATOM     76  F   UNL     1      10.924 -13.687  -4.229  1.00  0.00    -0.200 F 
ATOM     77  F   UNL     1      12.146 -12.753  -6.481  1.00  0.00    -0.200 F 
ENDBRANCH  53  67
BRANCH  54  78
ATOM     78  C   UNL     1      11.876  -4.904   5.283  1.00  0.00     0.064 A 
ATOM     79  C   UNL     1      13.029  -4.314   5.820  1.00  0.00     0.173 A 
ATOM     80  C   UNL     1      10.666  -4.711   5.966  1.00  0.00     0.173 A 
ATOM     81  F   UNL     1      14.213  -4.484   5.214  1.00  0.00    -0.203 F 
ATOM     82  C   UNL     1      12.978  -3.584   7.006  1.00  0.00     0.198 A 
ATOM     83  C   UNL     1      10.611  -3.952   7.133  1.00  0.00     0.198 A 
ATOM     84  F   UNL     1       9.533  -5.247   5.491  1.00  0.00    -0.203 F 
ATOM     85  F   UNL     1      14.104  -3.077   7.526  1.00  0.00    -0.200 F 
ATOM     86  C   UNL     1      11.768  -3.398   7.658  1.00  0.00     0.200 A 
ATOM     87  F   UNL     1       9.437  -3.759   7.748  1.00  0.00    -0.200 F 
ATOM     88  F   UNL     1      11.719  -2.693   8.796  1.00  0.00    -0.200 F 
ENDBRANCH  54  78
BRANCH  66  89
ATOM     89  C   UNL     1      14.886 -10.969   3.651  1.00  0.00     0.064 A 
ATOM     90  C   UNL     1      14.371 -11.698   4.735  1.00  0.00     0.173 A 
ATOM     91  C   UNL     1      16.238 -11.152   3.323  1.00  0.00     0.173 A 
ATOM     92  F   UNL     1      13.088 -11.550   5.099  1.00  0.00    -0.203 F 
ATOM     93  C   UNL     1      15.188 -12.536   5.488  1.00  0.00     0.198 A 
ATOM     94  C   UNL     1      17.043 -12.021   4.055  1.00  0.00     0.198 A 
ATOM     95  F   UNL     1      16.781 -10.488   2.292  1.00  0.00    -0.203 F 
ATOM     96  F   UNL     1      14.691 -13.165   6.562  1.00  0.00    -0.200 F 
ATOM     97  C   UNL     1      16.521 -12.701   5.145  1.00  0.00     0.200 A 
ATOM     98  F   UNL     1      18.327 -12.192   3.712  1.00  0.00    -0.200 F 
ATOM     99  F   UNL     1      17.307 -13.506   5.873  1.00  0.00    -0.200 F 
ENDBRANCH  66  89
ENDBRANCH  40  41
ENDBRANCH  32  35
ENDBRANCH  30  31
ENDBRANCH  29  30
ENDBRANCH  28  29
ENDBRANCH   3  28
TORSDOF 15
