REMARK SMILES O=C(NCCCNC(=O)c1nnn(-c2cccc(Br)c2)c1[C@@H]1COc2ccccc2O1)c1ccc(-c2c3nc(c(-c4c(F)c(F)c(F)c(F)c4F)c4ccc([nH]4)c(-c4c(F)c(F)c(F)c(F)c4F)c4nc(c(-c5c(F)c(F)c(F)c(F)c5F)c5ccc2[nH]5)C=C4)C=C3)cc1
REMARK SMILES IDX 4 1 3 2 1 3 2 4 32 6 33 7 94 8 34 9 93 10 35 11 36 12 37 13
REMARK SMILES IDX 87 14 38 15 92 16 86 17 88 18 39 19 91 20 85 21 84 22 40 24
REMARK SMILES IDX 72 25 52 26 71 27 53 28 56 29 70 30 89 31 54 32 55 33 69 35
REMARK SMILES IDX 90 36 57 37 41 38 42 39 50 40 43 41 44 42 48 43 51 44 45 45
REMARK SMILES IDX 46 46 49 47 47 48 73 49 74 50 82 51 75 52 76 53 80 54 83 55
REMARK SMILES IDX 77 56 78 57 81 58 79 59 58 60 59 61 67 62 60 63 61 64 65 65
REMARK SMILES IDX 68 66 62 67 63 68 66 69 64 70 5 71 6 72 7 73 8 74 9 76 10 77
REMARK SMILES IDX 11 78 21 79 12 80 13 81 22 82 23 83 31 84 24 85 30 86 25 87
REMARK SMILES IDX 29 88 26 89 28 90 27 91 14 92 15 93 20 94 16 95 18 96 17 97
REMARK SMILES IDX 19 98
REMARK H PARENT 3 5 88 23 56 34 7 75
REMARK Flexibility Score: inf
ROOT
ATOM      1  C   UNL     1       5.180   0.200   0.339  1.00  0.00     0.118 C 
ENDROOT
BRANCH   1   2
ATOM      2  N   UNL     1       3.774  -0.065   0.578  1.00  0.00    -0.352 N 
ATOM      3  O   UNL     1       1.634  -0.518   0.249  1.00  0.00    -0.269 OA
ATOM      4  C   UNL     1       2.609   0.147  -0.112  1.00  0.00     0.251 C 
ATOM      5  H   UNL     1       3.619  -0.503   1.446  1.00  0.00     0.163 HD
BRANCH   4   6
ATOM      6  C   UNL     1       2.419   1.151  -1.195  1.00  0.00     0.039 A 
ATOM      7  C   UNL     1       3.427   1.952  -1.718  1.00  0.00     0.014 A 
ATOM      8  C   UNL     1       1.104   1.336  -1.677  1.00  0.00     0.014 A 
ATOM      9  C   UNL     1       3.131   2.940  -2.653  1.00  0.00     0.010 A 
ATOM     10  C   UNL     1       0.803   2.314  -2.631  1.00  0.00     0.010 A 
ATOM     11  C   UNL     1       1.822   3.128  -3.113  1.00  0.00    -0.014 A 
BRANCH  11  12
ATOM     12  C   UNL     1       1.653   4.091  -4.199  1.00  0.00     0.031 A 
ATOM     13  C   UNL     1       2.371   3.765  -5.465  1.00  0.00     0.074 A 
ATOM     14  C   UNL     1       0.881   5.194  -4.196  1.00  0.00     0.049 A 
ATOM     15  N   UNL     1       3.332   4.423  -6.031  1.00  0.00    -0.248 NA
ATOM     16  C   UNL     1       1.986   2.533  -6.166  1.00  0.00     0.031 C 
ATOM     17  C   UNL     1      -0.163   5.583  -3.254  1.00  0.00     0.029 A 
ATOM     18  N   UNL     1       0.854   6.189  -5.135  1.00  0.00    -0.354 N 
ATOM     19  C   UNL     1       3.595   3.769  -7.231  1.00  0.00     0.074 A 
ATOM     20  C   UNL     1       2.789   2.572  -7.231  1.00  0.00     0.031 C 
ATOM     21  C   UNL     1      -0.845   6.636  -3.765  1.00  0.00     0.029 A 
ATOM     22  C   UNL     1      -0.203   7.070  -4.999  1.00  0.00     0.049 A 
ATOM     23  H   UNL     1       1.530   6.271  -5.847  1.00  0.00     0.167 HD
ATOM     24  C   UNL     1       4.354   4.327  -8.214  1.00  0.00     0.037 A 
ATOM     25  C   UNL     1      -0.551   8.052  -5.864  1.00  0.00     0.037 A 
ATOM     26  C   UNL     1       5.165   5.410  -7.729  1.00  0.00     0.049 A 
ATOM     27  C   UNL     1       0.618   8.372  -6.719  1.00  0.00     0.074 A 
ATOM     28  C   UNL     1       6.141   5.539  -6.759  1.00  0.00     0.029 A 
ATOM     29  N   UNL     1       4.844   6.695  -8.087  1.00  0.00    -0.354 N 
ATOM     30  N   UNL     1       1.671   9.031  -6.326  1.00  0.00    -0.248 NA
ATOM     31  C   UNL     1       0.755   7.683  -7.993  1.00  0.00     0.031 C 
ATOM     32  C   UNL     1       5.990   6.862  -6.247  1.00  0.00     0.029 A 
ATOM     33  C   UNL     1       4.935   7.447  -6.944  1.00  0.00     0.049 A 
ATOM     34  H   UNL     1       4.598   7.014  -8.985  1.00  0.00     0.167 HD
ATOM     35  C   UNL     1       2.712   8.510  -7.076  1.00  0.00     0.074 A 
ATOM     36  C   UNL     1       2.072   7.794  -8.170  1.00  0.00     0.031 C 
ATOM     37  C   UNL     1       3.984   8.470  -6.585  1.00  0.00     0.037 A 
BRANCH  24  38
ATOM     38  C   UNL     1       4.171   4.063  -9.685  1.00  0.00     0.064 A 
ATOM     39  C   UNL     1       5.164   4.469 -10.599  1.00  0.00     0.173 A 
ATOM     40  C   UNL     1       2.935   3.687 -10.251  1.00  0.00     0.173 A 
ATOM     41  F   UNL     1       6.364   4.881 -10.165  1.00  0.00    -0.203 F 
ATOM     42  C   UNL     1       4.917   4.545 -11.972  1.00  0.00     0.198 A 
ATOM     43  C   UNL     1       2.709   3.712 -11.627  1.00  0.00     0.198 A 
ATOM     44  F   UNL     1       1.875   3.386  -9.488  1.00  0.00    -0.203 F 
ATOM     45  F   UNL     1       5.852   5.048 -12.789  1.00  0.00    -0.200 F 
ATOM     46  C   UNL     1       3.689   4.168 -12.485  1.00  0.00     0.200 A 
ATOM     47  F   UNL     1       1.506   3.363 -12.105  1.00  0.00    -0.200 F 
ATOM     48  F   UNL     1       3.433   4.291 -13.793  1.00  0.00    -0.200 F 
ENDBRANCH  24  38
BRANCH  25  49
ATOM     49  C   UNL     1      -1.889   8.623  -6.134  1.00  0.00     0.064 A 
ATOM     50  C   UNL     1      -2.035   9.870  -6.764  1.00  0.00     0.173 A 
ATOM     51  C   UNL     1      -3.051   7.838  -6.018  1.00  0.00     0.173 A 
ATOM     52  F   UNL     1      -0.970  10.660  -6.960  1.00  0.00    -0.203 F 
ATOM     53  C   UNL     1      -3.269  10.298  -7.262  1.00  0.00     0.198 A 
ATOM     54  C   UNL     1      -4.284   8.271  -6.504  1.00  0.00     0.198 A 
ATOM     55  F   UNL     1      -2.994   6.596  -5.514  1.00  0.00    -0.203 F 
ATOM     56  F   UNL     1      -3.358  11.467  -7.912  1.00  0.00    -0.200 F 
ATOM     57  C   UNL     1      -4.390   9.495  -7.138  1.00  0.00     0.200 A 
ATOM     58  F   UNL     1      -5.354   7.470  -6.408  1.00  0.00    -0.200 F 
ATOM     59  F   UNL     1      -5.562   9.881  -7.662  1.00  0.00    -0.200 F 
ENDBRANCH  25  49
BRANCH  37  60
ATOM     60  C   UNL     1       4.309   9.325  -5.398  1.00  0.00     0.064 A 
ATOM     61  C   UNL     1       3.676   9.206  -4.149  1.00  0.00     0.173 A 
ATOM     62  C   UNL     1       5.380  10.226  -5.498  1.00  0.00     0.173 A 
ATOM     63  F   UNL     1       2.725   8.283  -3.942  1.00  0.00    -0.203 F 
ATOM     64  C   UNL     1       4.055  10.005  -3.072  1.00  0.00     0.198 A 
ATOM     65  C   UNL     1       5.783  10.992  -4.408  1.00  0.00     0.198 A 
ATOM     66  F   UNL     1       6.064  10.335  -6.648  1.00  0.00    -0.203 F 
ATOM     67  F   UNL     1       3.417   9.894  -1.897  1.00  0.00    -0.200 F 
ATOM     68  C   UNL     1       5.109  10.894  -3.202  1.00  0.00     0.200 A 
ATOM     69  F   UNL     1       6.837  11.812  -4.522  1.00  0.00    -0.200 F 
ATOM     70  F   UNL     1       5.494  11.639  -2.155  1.00  0.00    -0.200 F 
ENDBRANCH  37  60
ENDBRANCH  11  12
ENDBRANCH   4   6
ENDBRANCH   1   2
BRANCH   1  71
ATOM     71  C   UNL     1       5.737   1.504   0.913  1.00  0.00     0.042 C 
BRANCH  71  72
ATOM     72  C   UNL     1       5.430   1.795   2.377  1.00  0.00     0.118 C 
BRANCH  72  73
ATOM     73  N   UNL     1       5.890   0.777   3.302  1.00  0.00    -0.351 N 
ATOM     74  C   UNL     1       6.186   0.950   4.640  1.00  0.00     0.273 C 
ATOM     75  H   UNL     1       6.003  -0.131   2.938  1.00  0.00     0.163 HD
ATOM     76  O   UNL     1       6.508  -0.014   5.323  1.00  0.00    -0.267 OA
BRANCH  74  77
ATOM     77  C   UNL     1       6.166   2.310   5.151  1.00  0.00     0.178 A 
ATOM     78  N   UNL     1       7.288   3.079   5.032  1.00  0.00    -0.124 NA
ATOM     79  C   UNL     1       5.120   3.070   5.677  1.00  0.00     0.122 A 
ATOM     80  N   UNL     1       6.983   4.307   5.392  1.00  0.00    -0.061 NA
ATOM     81  N   UNL     1       5.692   4.338   5.799  1.00  0.00    -0.213 N 
BRANCH  79  82
ATOM     82  C   UNL     1       3.675   2.755   5.948  1.00  0.00     0.262 C 
ATOM     83  C   UNL     1       3.431   1.957   7.231  1.00  0.00     0.281 C 
ATOM     84  O   UNL     1       3.080   2.146   4.793  1.00  0.00    -0.477 OA
ATOM     85  O   UNL     1       3.861   0.601   7.116  1.00  0.00    -0.485 OA
ATOM     86  C   UNL     1       2.933   0.787   4.881  1.00  0.00     0.162 A 
ATOM     87  C   UNL     1       3.372   0.034   5.970  1.00  0.00     0.161 A 
ATOM     88  C   UNL     1       2.399   0.148   3.763  1.00  0.00     0.050 A 
ATOM     89  C   UNL     1       3.392  -1.356   5.891  1.00  0.00     0.050 A 
ATOM     90  C   UNL     1       2.387  -1.245   3.697  1.00  0.00     0.004 A 
ATOM     91  C   UNL     1       2.911  -1.996   4.748  1.00  0.00     0.004 A 
ENDBRANCH  79  82
BRANCH  81  92
ATOM     92  C   UNL     1       5.129   5.596   6.143  1.00  0.00     0.068 A 
ATOM     93  C   UNL     1       4.124   5.737   7.104  1.00  0.00     0.028 A 
ATOM     94  C   UNL     1       5.606   6.732   5.466  1.00  0.00     0.044 A 
ATOM     95  C   UNL     1       3.555   6.994   7.335  1.00  0.00     0.003 A 
ATOM     96  C   UNL     1       5.020   7.975   5.691  1.00  0.00     0.020 A 
ATOM     97  C   UNL     1       3.990   8.109   6.617  1.00  0.00     0.016 A 
ATOM     98  Br  UNL     1       5.607   9.477   4.707  1.00  0.00    -0.051 Br
ENDBRANCH  81  92
ENDBRANCH  74  77
ENDBRANCH  72  73
ENDBRANCH  71  72
ENDBRANCH   1  71
TORSDOF 12
