REMARK SMILES O=C(/C=C/c1ccc(S(=O)(=O)Nc2ccc3c(c2)OCCO3)cc1)NCCCNC(=O)c1ccc(-c2c3nc(c(-c4c(F)c(F)c(F)c(F)c4F)c4ccc([nH]4)c(-c4c(F)c(F)c(F)c(F)c4F)c4nc(c(-c5c(F)c(F)c(F)c(F)c5F)c5ccc2[nH]5)C=C4)C=C3)cc1
REMARK SMILES IDX 26 1 25 2 1 3 2 4 3 6 4 7 5 8 6 9 24 10 7 11 23 12 8 13 9 14
REMARK SMILES IDX 10 15 11 16 12 17 13 19 14 20 18 21 15 22 17 23 16 24 19 25
REMARK SMILES IDX 22 26 20 27 21 28 27 29 28 30 29 31 30 32 31 34 32 35 33 36
REMARK SMILES IDX 94 37 34 38 93 39 35 40 36 41 37 42 87 43 38 44 92 45 86 46
REMARK SMILES IDX 88 47 39 48 91 49 85 50 84 51 40 53 72 54 52 55 71 56 53 57
REMARK SMILES IDX 56 58 70 59 89 60 54 61 55 62 69 64 90 65 57 66 41 67 42 68
REMARK SMILES IDX 50 69 43 70 44 71 48 72 51 73 45 74 46 75 49 76 47 77 73 78
REMARK SMILES IDX 74 79 82 80 75 81 76 82 80 83 83 84 77 85 78 86 81 87 79 88
REMARK SMILES IDX 58 89 59 90 67 91 60 92 61 93 65 94 68 95 62 96 63 97 66 98
REMARK SMILES IDX 64 99
REMARK H PARENT 25 5 12 18 29 33 88 52 56 63
REMARK Flexibility Score: inf
ROOT
ATOM      1  C   UNL     1       2.330  -0.211  -2.385  1.00  0.00     0.118 C 
ENDROOT
BRANCH   1   2
ATOM      2  N   UNL     1       2.993  -0.128  -1.095  1.00  0.00    -0.352 N 
ATOM      3  O   UNL     1       1.133   0.585   0.040  1.00  0.00    -0.270 OA
ATOM      4  C   UNL     1       2.317   0.267   0.030  1.00  0.00     0.244 C 
ATOM      5  H   UNL     1       3.947  -0.360  -1.027  1.00  0.00     0.163 HD
BRANCH   4   6
ATOM      6  C   UNL     1       3.066   0.220   1.315  1.00  0.00     0.072 C 
ATOM      7  C   UNL     1       4.395   0.329   1.481  1.00  0.00     0.014 C 
BRANCH   7   8
ATOM      8  C   UNL     1       5.101   0.292   2.785  1.00  0.00    -0.025 A 
ATOM      9  C   UNL     1       6.496   0.448   2.804  1.00  0.00     0.009 A 
ATOM     10  C   UNL     1       4.452   0.096   4.014  1.00  0.00     0.009 A 
ATOM     11  C   UNL     1       7.221   0.343   4.002  1.00  0.00     0.023 A 
ATOM     12  C   UNL     1       5.168   0.045   5.221  1.00  0.00     0.023 A 
ATOM     13  C   UNL     1       6.558   0.116   5.213  1.00  0.00     0.087 A 
BRANCH  13  14
ATOM     14  S   UNL     1       7.537  -0.098   6.693  1.00  0.00     0.261 S 
ATOM     15  O   UNL     1       8.743  -0.798   6.297  1.00  0.00    -0.201 OA
ATOM     16  O   UNL     1       7.621   1.192   7.343  1.00  0.00    -0.201 OA
BRANCH  14  17
ATOM     17  N   UNL     1       6.738  -1.168   7.789  1.00  0.00    -0.279 N 
ATOM     18  H   UNL     1       6.771  -1.028   8.763  1.00  0.00     0.180 HD
BRANCH  17  19
ATOM     19  C   UNL     1       6.025  -2.269   7.211  1.00  0.00     0.053 A 
ATOM     20  C   UNL     1       4.653  -2.348   7.476  1.00  0.00     0.031 A 
ATOM     21  C   UNL     1       6.627  -3.130   6.300  1.00  0.00     0.077 A 
ATOM     22  C   UNL     1       3.838  -3.122   6.654  1.00  0.00     0.052 A 
ATOM     23  C   UNL     1       5.810  -3.841   5.434  1.00  0.00     0.163 A 
ATOM     24  C   UNL     1       4.418  -3.780   5.575  1.00  0.00     0.161 A 
ATOM     25  O   UNL     1       6.438  -4.450   4.380  1.00  0.00    -0.486 OA
ATOM     26  O   UNL     1       3.576  -4.242   4.593  1.00  0.00    -0.486 OA
ATOM     27  C   UNL     1       5.540  -4.861   3.342  1.00  0.00     0.271 C 
ATOM     28  C   UNL     1       4.246  -4.061   3.337  1.00  0.00     0.271 C 
ENDBRANCH  17  19
ENDBRANCH  14  17
ENDBRANCH  13  14
ENDBRANCH   7   8
ENDBRANCH   4   6
ENDBRANCH   1   2
BRANCH   1  29
ATOM     29  C   UNL     1       2.528   1.039  -3.235  1.00  0.00     0.042 C 
BRANCH  29  30
ATOM     30  C   UNL     1       3.977   1.302  -3.631  1.00  0.00     0.118 C 
BRANCH  30  31
ATOM     31  N   UNL     1       4.528   0.279  -4.511  1.00  0.00    -0.352 N 
ATOM     32  C   UNL     1       5.216   0.414  -5.694  1.00  0.00     0.251 C 
ATOM     33  H   UNL     1       4.387  -0.649  -4.214  1.00  0.00     0.163 HD
ATOM     34  O   UNL     1       5.497  -0.581  -6.355  1.00  0.00    -0.269 OA
BRANCH  32  35
ATOM     35  C   UNL     1       5.594   1.755  -6.189  1.00  0.00     0.039 A 
ATOM     36  C   UNL     1       5.384   2.061  -7.537  1.00  0.00     0.014 A 
ATOM     37  C   UNL     1       6.158   2.705  -5.335  1.00  0.00     0.014 A 
ATOM     38  C   UNL     1       5.667   3.344  -8.012  1.00  0.00     0.010 A 
ATOM     39  C   UNL     1       6.376   4.002  -5.792  1.00  0.00     0.010 A 
ATOM     40  C   UNL     1       6.129   4.336  -7.133  1.00  0.00    -0.014 A 
BRANCH  40  41
ATOM     41  C   UNL     1       6.363   5.733  -7.581  1.00  0.00     0.031 A 
ATOM     42  C   UNL     1       7.748   6.313  -7.529  1.00  0.00     0.074 A 
ATOM     43  C   UNL     1       5.321   6.507  -7.939  1.00  0.00     0.049 A 
ATOM     44  N   UNL     1       8.139   7.548  -7.718  1.00  0.00    -0.248 NA
ATOM     45  C   UNL     1       8.836   5.383  -7.189  1.00  0.00     0.031 C 
ATOM     46  C   UNL     1       3.925   6.072  -8.004  1.00  0.00     0.029 A 
ATOM     47  N   UNL     1       5.272   7.833  -8.294  1.00  0.00    -0.354 N 
ATOM     48  C   UNL     1       9.510   7.548  -7.494  1.00  0.00     0.074 A 
ATOM     49  C   UNL     1       9.877   6.201  -7.115  1.00  0.00     0.031 C 
ATOM     50  C   UNL     1       3.159   7.108  -8.381  1.00  0.00     0.029 A 
ATOM     51  C   UNL     1       4.000   8.290  -8.540  1.00  0.00     0.049 A 
ATOM     52  H   UNL     1       6.072   8.402  -8.366  1.00  0.00     0.167 HD
ATOM     53  C   UNL     1      10.384   8.576  -7.609  1.00  0.00     0.037 A 
ATOM     54  C   UNL     1       3.560   9.527  -8.839  1.00  0.00     0.037 A 
ATOM     55  C   UNL     1      10.020   9.908  -8.015  1.00  0.00     0.049 A 
ATOM     56  C   UNL     1       4.551  10.654  -8.953  1.00  0.00     0.074 A 
ATOM     57  C   UNL     1      10.840  11.005  -8.212  1.00  0.00     0.029 A 
ATOM     58  N   UNL     1       8.725  10.323  -8.290  1.00  0.00    -0.354 N 
ATOM     59  N   UNL     1       5.851  10.634  -8.784  1.00  0.00    -0.248 NA
ATOM     60  C   UNL     1       4.014  11.977  -9.303  1.00  0.00     0.031 C 
ATOM     61  C   UNL     1      10.037  12.095  -8.566  1.00  0.00     0.029 A 
ATOM     62  C   UNL     1       8.723  11.664  -8.639  1.00  0.00     0.049 A 
ATOM     63  H   UNL     1       7.926   9.750  -8.243  1.00  0.00     0.167 HD
ATOM     64  C   UNL     1       6.290  11.926  -9.041  1.00  0.00     0.074 A 
ATOM     65  C   UNL     1       5.119  12.705  -9.384  1.00  0.00     0.031 C 
ATOM     66  C   UNL     1       7.551  12.420  -9.000  1.00  0.00     0.037 A 
BRANCH  53  67
ATOM     67  C   UNL     1      11.825   8.301  -7.289  1.00  0.00     0.064 A 
ATOM     68  C   UNL     1      12.624   7.503  -8.120  1.00  0.00     0.173 A 
ATOM     69  C   UNL     1      12.423   8.872  -6.155  1.00  0.00     0.173 A 
ATOM     70  F   UNL     1      12.098   6.924  -9.210  1.00  0.00    -0.203 F 
ATOM     71  C   UNL     1      13.961   7.261  -7.812  1.00  0.00     0.198 A 
ATOM     72  C   UNL     1      13.767   8.653  -5.867  1.00  0.00     0.198 A 
ATOM     73  F   UNL     1      11.705   9.648  -5.329  1.00  0.00    -0.203 F 
ATOM     74  F   UNL     1      14.691   6.453  -8.593  1.00  0.00    -0.200 F 
ATOM     75  C   UNL     1      14.533   7.841  -6.690  1.00  0.00     0.200 A 
ATOM     76  F   UNL     1      14.322   9.226  -4.789  1.00  0.00    -0.200 F 
ATOM     77  F   UNL     1      15.820   7.613  -6.399  1.00  0.00    -0.200 F 
ENDBRANCH  53  67
BRANCH  54  78
ATOM     78  C   UNL     1       2.111   9.765  -9.068  1.00  0.00     0.064 A 
ATOM     79  C   UNL     1       1.627  10.064 -10.349  1.00  0.00     0.173 A 
ATOM     80  C   UNL     1       1.184   9.707  -8.017  1.00  0.00     0.173 A 
ATOM     81  F   UNL     1       2.478  10.152 -11.382  1.00  0.00    -0.203 F 
ATOM     82  C   UNL     1       0.274  10.316 -10.568  1.00  0.00     0.198 A 
ATOM     83  C   UNL     1      -0.172   9.932  -8.242  1.00  0.00     0.198 A 
ATOM     84  F   UNL     1       1.596   9.422  -6.773  1.00  0.00    -0.203 F 
ATOM     85  F   UNL     1      -0.154  10.646 -11.794  1.00  0.00    -0.200 F 
ATOM     86  C   UNL     1      -0.625  10.245  -9.515  1.00  0.00     0.200 A 
ATOM     87  F   UNL     1      -1.041   9.849  -7.224  1.00  0.00    -0.200 F 
ATOM     88  F   UNL     1      -1.927  10.485  -9.725  1.00  0.00    -0.200 F 
ENDBRANCH  54  78
BRANCH  66  89
ATOM     89  C   UNL     1       7.744  13.857  -9.388  1.00  0.00     0.064 A 
ATOM     90  C   UNL     1       7.343  14.909  -8.553  1.00  0.00     0.173 A 
ATOM     91  C   UNL     1       8.388  14.181 -10.592  1.00  0.00     0.173 A 
ATOM     92  F   UNL     1       6.710  14.651  -7.399  1.00  0.00    -0.203 F 
ATOM     93  C   UNL     1       7.562  16.235  -8.919  1.00  0.00     0.198 A 
ATOM     94  C   UNL     1       8.631  15.507 -10.941  1.00  0.00     0.198 A 
ATOM     95  F   UNL     1       8.796  13.211 -11.423  1.00  0.00    -0.203 F 
ATOM     96  F   UNL     1       7.134  17.226  -8.125  1.00  0.00    -0.200 F 
ATOM     97  C   UNL     1       8.213  16.532 -10.107  1.00  0.00     0.200 A 
ATOM     98  F   UNL     1       9.271  15.791 -12.083  1.00  0.00    -0.200 F 
ATOM     99  F   UNL     1       8.432  17.808 -10.452  1.00  0.00    -0.200 F 
ENDBRANCH  66  89
ENDBRANCH  40  41
ENDBRANCH  32  35
ENDBRANCH  30  31
ENDBRANCH  29  30
ENDBRANCH   1  29
TORSDOF 14
