REMARK SMILES O=C(Cc1ccc(F)c(F)c1)NC1(C(=O)NCCCNC(=O)c2ccc(-c3c4nc(c(-c5c(F)c(F)c(F)c(F)c5F)c5ccc([nH]5)c(-c5c(F)c(F)c(F)c(F)c5F)c5nc(c(-c6c(F)c(F)c(F)c(F)c6F)c6ccc3[nH]6)C=C5)C=C4)cc2)CCCC1
REMARK SMILES IDX 17 1 16 2 14 3 15 4 13 6 86 7 89 8 87 9 88 10 12 11 1 12
REMARK SMILES IDX 2 13 3 15 4 16 5 17 11 18 6 19 9 20 7 21 10 22 8 23 18 24
REMARK SMILES IDX 19 25 20 26 21 27 22 29 23 30 24 31 85 32 25 33 84 34 26 35
REMARK SMILES IDX 27 36 28 37 78 38 29 39 83 40 77 41 79 42 30 43 82 44 76 45
REMARK SMILES IDX 75 46 31 48 63 49 43 50 62 51 44 52 47 53 61 54 80 55 45 56
REMARK SMILES IDX 46 57 60 59 81 60 48 61 32 62 33 63 41 64 34 65 35 66 39 67
REMARK SMILES IDX 42 68 36 69 37 70 40 71 38 72 64 73 65 74 73 75 66 76 67 77
REMARK SMILES IDX 71 78 74 79 68 80 69 81 72 82 70 83 49 84 50 85 58 86 51 87
REMARK SMILES IDX 52 88 56 89 59 90 53 91 54 92 57 93 55 94
REMARK H PARENT 16 5 12 14 20 28 79 47 47 58
REMARK Flexibility Score: inf
ROOT
ATOM      1  C   UNL     1       1.844   0.124   5.630  1.00  0.00     0.117 C 
ENDROOT
BRANCH   1   2
ATOM      2  N   UNL     1       3.024   0.020   4.798  1.00  0.00    -0.354 N 
ATOM      3  C   UNL     1       3.169  -0.047   3.448  1.00  0.00     0.245 C 
ATOM      4  O   UNL     1       4.337  -0.086   3.031  1.00  0.00    -0.272 OA
ATOM      5  H   UNL     1       3.872  -0.007   5.298  1.00  0.00     0.163 HD
BRANCH   3   6
ATOM      6  C   UNL     1       1.972  -0.109   2.439  1.00  0.00     0.119 C 
ATOM      7  C   UNL     1       1.000   1.070   2.585  1.00  0.00     0.038 C 
ATOM      8  C   UNL     1       1.163  -1.402   2.603  1.00  0.00     0.038 C 
ATOM      9  C   UNL     1      -0.386   0.486   2.849  1.00  0.00     0.003 C 
ATOM     10  C   UNL     1      -0.232  -1.011   3.068  1.00  0.00     0.003 C 
BRANCH   6  11
ATOM     11  N   UNL     1       2.647  -0.074   1.125  1.00  0.00    -0.341 N 
ATOM     12  O   UNL     1       0.810  -0.147  -0.245  1.00  0.00    -0.275 OA
ATOM     13  C   UNL     1       2.027  -0.075  -0.100  1.00  0.00     0.225 C 
ATOM     14  H   UNL     1       3.631  -0.047   1.128  1.00  0.00     0.164 HD
BRANCH  13  15
ATOM     15  C   UNL     1       2.981  -0.014  -1.280  1.00  0.00     0.135 C 
BRANCH  15  16
ATOM     16  C   UNL     1       3.842   1.230  -1.299  1.00  0.00    -0.036 A 
ATOM     17  C   UNL     1       5.241   1.124  -1.382  1.00  0.00     0.007 A 
ATOM     18  C   UNL     1       3.257   2.506  -1.262  1.00  0.00     0.046 A 
ATOM     19  C   UNL     1       6.039   2.272  -1.414  1.00  0.00     0.043 A 
ATOM     20  C   UNL     1       4.061   3.643  -1.292  1.00  0.00     0.159 A 
ATOM     21  C   UNL     1       5.442   3.526  -1.368  1.00  0.00     0.158 A 
ATOM     22  F   UNL     1       3.487   4.854  -1.247  1.00  0.00    -0.204 F 
ATOM     23  F   UNL     1       6.213   4.622  -1.400  1.00  0.00    -0.204 F 
ENDBRANCH  15  16
ENDBRANCH  13  15
ENDBRANCH   6  11
ENDBRANCH   3   6
ENDBRANCH   1   2
BRANCH   1  24
ATOM     24  C   UNL     1       1.555  -1.160   6.392  1.00  0.00     0.042 C 
BRANCH  24  25
ATOM     25  C   UNL     1       2.405  -1.316   7.645  1.00  0.00     0.118 C 
BRANCH  25  26
ATOM     26  N   UNL     1       2.105  -0.298   8.644  1.00  0.00    -0.352 N 
ATOM     27  C   UNL     1       1.568  -0.405   9.900  1.00  0.00     0.251 C 
ATOM     28  H   UNL     1       2.325   0.621   8.369  1.00  0.00     0.163 HD
ATOM     29  O   UNL     1       1.187   0.615  10.478  1.00  0.00    -0.269 OA
BRANCH  27  30
ATOM     30  C   UNL     1       1.434  -1.715  10.568  1.00  0.00     0.039 A 
ATOM     31  C   UNL     1       0.330  -1.941  11.395  1.00  0.00     0.014 A 
ATOM     32  C   UNL     1       2.412  -2.703  10.432  1.00  0.00     0.014 A 
ATOM     33  C   UNL     1       0.183  -3.170  12.040  1.00  0.00     0.010 A 
ATOM     34  C   UNL     1       2.216  -3.961  10.993  1.00  0.00     0.010 A 
ATOM     35  C   UNL     1       1.109  -4.202  11.818  1.00  0.00    -0.014 A 
BRANCH  35  36
ATOM     36  C   UNL     1       0.949  -5.530  12.460  1.00  0.00     0.031 A 
ATOM     37  C   UNL     1       1.988  -6.030  13.427  1.00  0.00     0.074 A 
ATOM     38  C   UNL     1      -0.106  -6.302  12.138  1.00  0.00     0.049 A 
ATOM     39  N   UNL     1       2.051  -7.179  14.051  1.00  0.00    -0.248 NA
ATOM     40  C   UNL     1       3.122  -5.135  13.710  1.00  0.00     0.031 C 
ATOM     41  C   UNL     1      -1.151  -5.943  11.178  1.00  0.00     0.029 A 
ATOM     42  N   UNL     1      -0.477  -7.547  12.581  1.00  0.00    -0.354 N 
ATOM     43  C   UNL     1       3.229  -7.146  14.784  1.00  0.00     0.074 A 
ATOM     44  C   UNL     1       3.885  -5.894  14.482  1.00  0.00     0.031 C 
ATOM     45  C   UNL     1      -2.066  -6.924  11.136  1.00  0.00     0.029 A 
ATOM     46  C   UNL     1      -1.652  -7.999  12.032  1.00  0.00     0.049 A 
ATOM     47  H   UNL     1       0.049  -8.066  13.231  1.00  0.00     0.167 HD
ATOM     48  C   UNL     1       3.703  -8.063  15.659  1.00  0.00     0.037 A 
ATOM     49  C   UNL     1      -2.322  -9.151  12.232  1.00  0.00     0.037 A 
ATOM     50  C   UNL     1       3.022  -9.287  15.988  1.00  0.00     0.049 A 
ATOM     51  C   UNL     1      -1.771 -10.158  13.204  1.00  0.00     0.074 A 
ATOM     52  C   UNL     1       3.387 -10.252  16.909  1.00  0.00     0.029 A 
ATOM     53  N   UNL     1       1.834  -9.709  15.410  1.00  0.00    -0.354 N 
ATOM     54  N   UNL     1      -0.687 -10.087  13.938  1.00  0.00    -0.248 NA
ATOM     55  C   UNL     1      -2.531 -11.404  13.376  1.00  0.00     0.031 C 
ATOM     56  C   UNL     1       2.444 -11.281  16.856  1.00  0.00     0.029 A 
ATOM     57  C   UNL     1       1.465 -10.934  15.938  1.00  0.00     0.049 A 
ATOM     58  H   UNL     1       1.330  -9.212  14.726  1.00  0.00     0.167 HD
ATOM     59  C   UNL     1      -0.646 -11.263  14.674  1.00  0.00     0.074 A 
ATOM     60  C   UNL     1      -1.821 -12.027  14.307  1.00  0.00     0.031 C 
ATOM     61  C   UNL     1       0.285 -11.673  15.569  1.00  0.00     0.037 A 
BRANCH  48  62
ATOM     62  C   UNL     1       5.005  -7.774  16.348  1.00  0.00     0.064 A 
ATOM     63  C   UNL     1       6.141  -8.554  16.084  1.00  0.00     0.173 A 
ATOM     64  C   UNL     1       5.108  -6.774  17.326  1.00  0.00     0.173 A 
ATOM     65  F   UNL     1       6.095  -9.527  15.163  1.00  0.00    -0.203 F 
ATOM     66  C   UNL     1       7.328  -8.350  16.784  1.00  0.00     0.198 A 
ATOM     67  C   UNL     1       6.305  -6.553  18.002  1.00  0.00     0.198 A 
ATOM     68  F   UNL     1       4.053  -5.994  17.608  1.00  0.00    -0.203 F 
ATOM     69  F   UNL     1       8.390  -9.129  16.539  1.00  0.00    -0.200 F 
ATOM     70  C   UNL     1       7.410  -7.348  17.739  1.00  0.00     0.200 A 
ATOM     71  F   UNL     1       6.389  -5.567  18.907  1.00  0.00    -0.200 F 
ATOM     72  F   UNL     1       8.555  -7.147  18.404  1.00  0.00    -0.200 F 
ENDBRANCH  48  62
BRANCH  49  73
ATOM     73  C   UNL     1      -3.609  -9.383  11.526  1.00  0.00     0.064 A 
ATOM     74  C   UNL     1      -3.661  -9.584  10.139  1.00  0.00     0.173 A 
ATOM     75  C   UNL     1      -4.823  -9.367  12.228  1.00  0.00     0.173 A 
ATOM     76  F   UNL     1      -2.529  -9.601   9.420  1.00  0.00    -0.203 F 
ATOM     77  C   UNL     1      -4.878  -9.738   9.478  1.00  0.00     0.198 A 
ATOM     78  C   UNL     1      -6.038  -9.549  11.570  1.00  0.00     0.198 A 
ATOM     79  F   UNL     1      -4.824  -9.197  13.558  1.00  0.00    -0.203 F 
ATOM     80  F   UNL     1      -4.901  -9.890   8.147  1.00  0.00    -0.200 F 
ATOM     81  C   UNL     1      -6.065  -9.725  10.195  1.00  0.00     0.200 A 
ATOM     82  F   UNL     1      -7.181  -9.557  12.269  1.00  0.00    -0.200 F 
ATOM     83  F   UNL     1      -7.235  -9.882   9.560  1.00  0.00    -0.200 F 
ENDBRANCH  49  73
BRANCH  61  84
ATOM     84  C   UNL     1       0.080 -13.001  16.235  1.00  0.00     0.064 A 
ATOM     85  C   UNL     1      -0.231 -13.068  17.602  1.00  0.00     0.173 A 
ATOM     86  C   UNL     1       0.309 -14.202  15.550  1.00  0.00     0.173 A 
ATOM     87  F   UNL     1      -0.448 -11.945  18.302  1.00  0.00    -0.203 F 
ATOM     88  C   UNL     1      -0.276 -14.291  18.265  1.00  0.00     0.198 A 
ATOM     89  C   UNL     1       0.236 -15.425  16.211  1.00  0.00     0.198 A 
ATOM     90  F   UNL     1       0.598 -14.187  14.240  1.00  0.00    -0.203 F 
ATOM     91  F   UNL     1      -0.525 -14.329  19.581  1.00  0.00    -0.200 F 
ATOM     92  C   UNL     1      -0.042 -15.467  17.570  1.00  0.00     0.200 A 
ATOM     93  F   UNL     1       0.444 -16.563  15.534  1.00  0.00    -0.200 F 
ATOM     94  F   UNL     1      -0.081 -16.644  18.210  1.00  0.00    -0.200 F 
ENDBRANCH  61  84
ENDBRANCH  35  36
ENDBRANCH  27  30
ENDBRANCH  25  26
ENDBRANCH  24  25
ENDBRANCH   1  24
TORSDOF 13
