REMARK SMILES O=C(NCCCNC(=O)c1ccc(-c2c3nc(c(-c4c(F)c(F)c(F)c(F)c4F)c4ccc([nH]4)c(-c4c(F)c(F)c(F)c(F)c4F)c4nc(c(-c5c(F)c(F)c(F)c(F)c5F)c5ccc2[nH]5)C=C4)C=C3)cc1)c1ccc(NC(=O)c2cc(F)cc(Br)c2)cc1
REMARK SMILES IDX 5 1 4 2 3 3 1 4 2 5 73 7 74 8 89 9 75 10 88 11 76 12 77 13
REMARK SMILES IDX 78 14 79 16 80 17 81 18 87 19 82 20 85 21 83 22 84 23 86 24
REMARK SMILES IDX 6 25 7 26 8 27 9 29 10 30 11 31 72 32 12 33 71 34 13 35
REMARK SMILES IDX 14 36 15 37 65 38 16 39 70 40 64 41 66 42 17 43 69 44 63 45
REMARK SMILES IDX 62 46 18 48 50 49 30 50 49 51 31 52 34 53 48 54 67 55 32 56
REMARK SMILES IDX 33 57 47 59 68 60 35 61 19 62 20 63 28 64 21 65 22 66 26 67
REMARK SMILES IDX 29 68 23 69 24 70 27 71 25 72 51 73 52 74 60 75 53 76 54 77
REMARK SMILES IDX 58 78 61 79 55 80 56 81 59 82 57 83 36 84 37 85 45 86 38 87
REMARK SMILES IDX 39 88 43 89 46 90 40 91 41 92 44 93 42 94
REMARK H PARENT 3 6 77 15 7 28 66 47 34 58
REMARK Flexibility Score: inf
ROOT
ATOM      1  C   UNL     1       4.860   2.442   0.487  1.00  0.00     0.042 C 
ENDROOT
BRANCH   1   2
ATOM      2  C   UNL     1       4.397   1.021   0.733  1.00  0.00     0.118 C 
BRANCH   2   3
ATOM      3  N   UNL     1       2.963   0.842   0.525  1.00  0.00    -0.352 N 
ATOM      4  O   UNL     1       1.083   0.068  -0.457  1.00  0.00    -0.269 OA
ATOM      5  C   UNL     1       2.296  -0.034  -0.301  1.00  0.00     0.251 C 
ATOM      6  H   UNL     1       2.386   1.438   1.055  1.00  0.00     0.163 HD
BRANCH   5   7
ATOM      7  C   UNL     1       3.047  -1.091  -1.012  1.00  0.00     0.039 A 
ATOM      8  C   UNL     1       4.088  -1.751  -0.373  1.00  0.00     0.016 A 
ATOM      9  C   UNL     1       2.743  -1.411  -2.336  1.00  0.00     0.016 A 
ATOM     10  C   UNL     1       4.929  -2.582  -1.097  1.00  0.00     0.027 A 
ATOM     11  C   UNL     1       3.520  -2.360  -3.019  1.00  0.00     0.027 A 
ATOM     12  C   UNL     1       4.623  -2.964  -2.398  1.00  0.00     0.041 A 
BRANCH  12  13
ATOM     13  N   UNL     1       5.356  -3.921  -3.128  1.00  0.00    -0.322 N 
ATOM     14  C   UNL     1       6.373  -4.789  -2.779  1.00  0.00     0.255 C 
ATOM     15  H   UNL     1       5.090  -3.984  -4.074  1.00  0.00     0.170 HD
ATOM     16  O   UNL     1       6.948  -5.444  -3.646  1.00  0.00    -0.269 OA
BRANCH  14  17
ATOM     17  C   UNL     1       6.811  -4.960  -1.381  1.00  0.00     0.044 A 
ATOM     18  C   UNL     1       8.125  -4.611  -1.057  1.00  0.00     0.053 A 
ATOM     19  C   UNL     1       5.912  -5.363  -0.383  1.00  0.00     0.029 A 
ATOM     20  C   UNL     1       8.502  -4.578   0.280  1.00  0.00     0.125 A 
ATOM     21  C   UNL     1       6.307  -5.287   0.954  1.00  0.00     0.021 A 
ATOM     22  F   UNL     1       9.741  -4.187   0.603  1.00  0.00    -0.207 F 
ATOM     23  C   UNL     1       7.599  -4.887   1.292  1.00  0.00     0.055 A 
ATOM     24  Br  UNL     1       5.042  -5.608   2.321  1.00  0.00    -0.051 Br
ENDBRANCH  14  17
ENDBRANCH  12  13
ENDBRANCH   5   7
ENDBRANCH   2   3
ENDBRANCH   1   2
BRANCH   1  25
ATOM     25  C   UNL     1       4.324   3.431   1.502  1.00  0.00     0.118 C 
BRANCH  25  26
ATOM     26  N   UNL     1       4.899   3.249   2.831  1.00  0.00    -0.352 N 
ATOM     27  C   UNL     1       5.740   4.068   3.546  1.00  0.00     0.251 C 
ATOM     28  H   UNL     1       4.645   2.413   3.284  1.00  0.00     0.163 HD
ATOM     29  O   UNL     1       6.254   3.672   4.588  1.00  0.00    -0.269 OA
BRANCH  27  30
ATOM     30  C   UNL     1       6.052   5.419   3.035  1.00  0.00     0.039 A 
ATOM     31  C   UNL     1       7.375   5.870   3.047  1.00  0.00     0.014 A 
ATOM     32  C   UNL     1       5.042   6.221   2.505  1.00  0.00     0.014 A 
ATOM     33  C   UNL     1       7.695   7.084   2.434  1.00  0.00     0.010 A 
ATOM     34  C   UNL     1       5.375   7.366   1.798  1.00  0.00     0.010 A 
ATOM     35  C   UNL     1       6.705   7.813   1.758  1.00  0.00    -0.014 A 
BRANCH  35  36
ATOM     36  C   UNL     1       6.998   9.064   1.016  1.00  0.00     0.031 A 
ATOM     37  C   UNL     1       6.297  10.333   1.414  1.00  0.00     0.074 A 
ATOM     38  C   UNL     1       7.785   9.038  -0.077  1.00  0.00     0.049 A 
ATOM     39  N   UNL     1       6.221  11.475   0.781  1.00  0.00    -0.248 NA
ATOM     40  C   UNL     1       5.539  10.291   2.675  1.00  0.00     0.031 C 
ATOM     41  C   UNL     1       8.495   7.864  -0.587  1.00  0.00     0.029 A 
ATOM     42  N   UNL     1       8.097  10.030  -0.973  1.00  0.00    -0.354 N 
ATOM     43  C   UNL     1       5.371  12.267   1.542  1.00  0.00     0.074 A 
ATOM     44  C   UNL     1       4.922  11.462   2.657  1.00  0.00     0.031 C 
ATOM     45  C   UNL     1       9.177   8.209  -1.692  1.00  0.00     0.029 A 
ATOM     46  C   UNL     1       8.909   9.611  -1.997  1.00  0.00     0.049 A 
ATOM     47  H   UNL     1       7.769  10.954  -0.889  1.00  0.00     0.167 HD
ATOM     48  C   UNL     1       5.013  13.557   1.339  1.00  0.00     0.037 A 
ATOM     49  C   UNL     1       9.371  10.280  -3.071  1.00  0.00     0.037 A 
ATOM     50  C   UNL     1       5.505  14.368   0.259  1.00  0.00     0.049 A 
ATOM     51  C   UNL     1       8.974  11.717  -3.266  1.00  0.00     0.074 A 
ATOM     52  C   UNL     1       5.252  15.702  -0.005  1.00  0.00     0.029 A 
ATOM     53  N   UNL     1       6.365  13.918  -0.732  1.00  0.00    -0.354 N 
ATOM     54  N   UNL     1       8.193  12.467  -2.528  1.00  0.00    -0.248 NA
ATOM     55  C   UNL     1       9.523  12.401  -4.446  1.00  0.00     0.031 C 
ATOM     56  C   UNL     1       5.939  16.053  -1.172  1.00  0.00     0.029 A 
ATOM     57  C   UNL     1       6.650  14.947  -1.613  1.00  0.00     0.049 A 
ATOM     58  H   UNL     1       6.721  13.002  -0.799  1.00  0.00     0.167 HD
ATOM     59  C   UNL     1       8.180  13.716  -3.132  1.00  0.00     0.074 A 
ATOM     60  C   UNL     1       9.035  13.625  -4.298  1.00  0.00     0.031 C 
ATOM     61  C   UNL     1       7.523  14.839  -2.753  1.00  0.00     0.037 A 
BRANCH  48  62
ATOM     62  C   UNL     1       4.045  14.162   2.312  1.00  0.00     0.064 A 
ATOM     63  C   UNL     1       4.412  14.440   3.638  1.00  0.00     0.173 A 
ATOM     64  C   UNL     1       2.735  14.469   1.916  1.00  0.00     0.173 A 
ATOM     65  F   UNL     1       5.648  14.149   4.072  1.00  0.00    -0.203 F 
ATOM     66  C   UNL     1       3.491  14.966   4.541  1.00  0.00     0.198 A 
ATOM     67  C   UNL     1       1.826  15.024   2.813  1.00  0.00     0.198 A 
ATOM     68  F   UNL     1       2.334  14.226   0.659  1.00  0.00    -0.203 F 
ATOM     69  F   UNL     1       3.847  15.164   5.818  1.00  0.00    -0.200 F 
ATOM     70  C   UNL     1       2.202  15.262   4.127  1.00  0.00     0.200 A 
ATOM     71  F   UNL     1       0.583  15.319   2.409  1.00  0.00    -0.200 F 
ATOM     72  F   UNL     1       1.317  15.766   4.997  1.00  0.00    -0.200 F 
ENDBRANCH  48  62
BRANCH  49  73
ATOM     73  C   UNL     1      10.287   9.605  -4.025  1.00  0.00     0.064 A 
ATOM     74  C   UNL     1      11.647   9.943  -4.063  1.00  0.00     0.173 A 
ATOM     75  C   UNL     1       9.835   8.610  -4.902  1.00  0.00     0.173 A 
ATOM     76  F   UNL     1      12.120  10.904  -3.256  1.00  0.00    -0.203 F 
ATOM     77  C   UNL     1      12.519   9.319  -4.953  1.00  0.00     0.198 A 
ATOM     78  C   UNL     1      10.713   7.970  -5.776  1.00  0.00     0.198 A 
ATOM     79  F   UNL     1       8.544   8.248  -4.900  1.00  0.00    -0.203 F 
ATOM     80  F   UNL     1      13.807   9.685  -4.992  1.00  0.00    -0.200 F 
ATOM     81  C   UNL     1      12.052   8.329  -5.804  1.00  0.00     0.200 A 
ATOM     82  F   UNL     1      10.261   7.005  -6.588  1.00  0.00    -0.200 F 
ATOM     83  F   UNL     1      12.892   7.724  -6.655  1.00  0.00    -0.200 F 
ENDBRANCH  49  73
BRANCH  61  84
ATOM     84  C   UNL     1       7.743  16.075  -3.573  1.00  0.00     0.064 A 
ATOM     85  C   UNL     1       7.147  16.240  -4.830  1.00  0.00     0.173 A 
ATOM     86  C   UNL     1       8.516  17.129  -3.064  1.00  0.00     0.173 A 
ATOM     87  F   UNL     1       6.412  15.252  -5.364  1.00  0.00    -0.203 F 
ATOM     88  C   UNL     1       7.329  17.413  -5.557  1.00  0.00     0.198 A 
ATOM     89  C   UNL     1       8.677  18.309  -3.782  1.00  0.00     0.198 A 
ATOM     90  F   UNL     1       9.102  17.018  -1.862  1.00  0.00    -0.203 F 
ATOM     91  F   UNL     1       6.779  17.539  -6.772  1.00  0.00    -0.200 F 
ATOM     92  C   UNL     1       8.087  18.449  -5.029  1.00  0.00     0.200 A 
ATOM     93  F   UNL     1       9.400  19.313  -3.266  1.00  0.00    -0.200 F 
ATOM     94  F   UNL     1       8.252  19.582  -5.726  1.00  0.00    -0.200 F 
ENDBRANCH  61  84
ENDBRANCH  35  36
ENDBRANCH  27  30
ENDBRANCH  25  26
ENDBRANCH   1  25
TORSDOF 12
