REMARK SMILES O=C(NCCCNC(=O)c1cc(N2CCN(c3ccc(F)cc3)CC2)ccc1NC(=O)C1CCCC1)c1ccc(-c2c3nc(c(-c4c(F)c(F)c(F)c(F)c4F)c4ccc([nH]4)c(-c4c(F)c(F)c(F)c(F)c4F)c4nc(c(-c5c(F)c(F)c(F)c(F)c5F)c5ccc2[nH]5)C=C4)C=C3)cc1
REMARK SMILES IDX 5 1 4 2 3 3 1 4 2 5 37 7 38 8 99 9 39 10 98 11 40 12 41 13
REMARK SMILES IDX 42 14 92 15 43 16 97 17 91 18 93 19 44 20 96 21 90 22 89 23
REMARK SMILES IDX 45 25 77 26 57 27 76 28 58 29 61 30 75 31 94 32 59 33 60 34
REMARK SMILES IDX 74 36 95 37 62 38 46 39 47 40 55 41 48 42 49 43 53 44 56 45
REMARK SMILES IDX 50 46 51 47 54 48 52 49 78 50 79 51 87 52 80 53 81 54 85 55
REMARK SMILES IDX 88 56 82 57 83 58 86 59 84 60 63 61 64 62 72 63 65 64 66 65
REMARK SMILES IDX 70 66 73 67 67 68 68 69 71 70 69 71 6 72 7 73 8 74 9 76
REMARK SMILES IDX 10 77 11 78 28 79 12 80 27 81 26 82 29 83 30 84 31 86 32 87
REMARK SMILES IDX 33 88 36 89 34 90 35 91 13 92 14 93 25 94 15 95 24 96 16 97
REMARK SMILES IDX 17 98 18 99 23 100 19 101 22 102 20 103 21 104
REMARK H PARENT 3 6 93 24 61 35 7 75 29 85
REMARK Flexibility Score: inf
ROOT
ATOM      1  C   UNL     1       5.043   2.153  -0.767  1.00  0.00     0.042 C 
ENDROOT
BRANCH   1   2
ATOM      2  C   UNL     1       4.533   1.341   0.410  1.00  0.00     0.118 C 
BRANCH   2   3
ATOM      3  N   UNL     1       3.090   1.130   0.382  1.00  0.00    -0.352 N 
ATOM      4  O   UNL     1       1.132   0.094  -0.037  1.00  0.00    -0.269 OA
ATOM      5  C   UNL     1       2.353   0.012   0.073  1.00  0.00     0.251 C 
ATOM      6  H   UNL     1       2.555   1.920   0.624  1.00  0.00     0.163 HD
BRANCH   5   7
ATOM      7  C   UNL     1       3.020  -1.286  -0.159  1.00  0.00     0.039 A 
ATOM      8  C   UNL     1       4.084  -1.694   0.643  1.00  0.00     0.014 A 
ATOM      9  C   UNL     1       2.563  -2.122  -1.183  1.00  0.00     0.014 A 
ATOM     10  C   UNL     1       4.817  -2.820   0.301  1.00  0.00     0.010 A 
ATOM     11  C   UNL     1       3.221  -3.329  -1.444  1.00  0.00     0.010 A 
ATOM     12  C   UNL     1       4.376  -3.669  -0.726  1.00  0.00    -0.014 A 
BRANCH  12  13
ATOM     13  C   UNL     1       5.101  -4.944  -0.954  1.00  0.00     0.031 A 
ATOM     14  C   UNL     1       5.784  -5.234  -2.260  1.00  0.00     0.074 A 
ATOM     15  C   UNL     1       5.172  -5.826   0.063  1.00  0.00     0.049 A 
ATOM     16  N   UNL     1       6.476  -6.292  -2.608  1.00  0.00    -0.248 NA
ATOM     17  C   UNL     1       5.675  -4.218  -3.317  1.00  0.00     0.031 C 
ATOM     18  C   UNL     1       4.533  -5.653   1.371  1.00  0.00     0.029 A 
ATOM     19  N   UNL     1       5.826  -7.025   0.173  1.00  0.00    -0.354 N 
ATOM     20  C   UNL     1       6.860  -6.080  -3.926  1.00  0.00     0.074 A 
ATOM     21  C   UNL     1       6.313  -4.801  -4.324  1.00  0.00     0.031 C 
ATOM     22  C   UNL     1       4.875  -6.672   2.169  1.00  0.00     0.029 A 
ATOM     23  C   UNL     1       5.689  -7.611   1.408  1.00  0.00     0.049 A 
ATOM     24  H   UNL     1       6.344  -7.428  -0.561  1.00  0.00     0.167 HD
ATOM     25  C   UNL     1       7.607  -6.882  -4.722  1.00  0.00     0.037 A 
ATOM     26  C   UNL     1       6.147  -8.787   1.873  1.00  0.00     0.037 A 
ATOM     27  C   UNL     1       8.169  -8.142  -4.305  1.00  0.00     0.049 A 
ATOM     28  C   UNL     1       6.960  -9.656   0.960  1.00  0.00     0.074 A 
ATOM     29  C   UNL     1       8.974  -9.008  -5.026  1.00  0.00     0.029 A 
ATOM     30  N   UNL     1       7.984  -8.717  -3.056  1.00  0.00    -0.354 N 
ATOM     31  N   UNL     1       7.341  -9.429  -0.273  1.00  0.00    -0.248 NA
ATOM     32  C   UNL     1       7.401 -10.948   1.499  1.00  0.00     0.031 C 
ATOM     33  C   UNL     1       9.238 -10.127  -4.229  1.00  0.00     0.029 A 
ATOM     34  C   UNL     1       8.640  -9.937  -2.994  1.00  0.00     0.049 A 
ATOM     35  H   UNL     1       7.464  -8.317  -2.322  1.00  0.00     0.167 HD
ATOM     36  C   UNL     1       8.076 -10.541  -0.654  1.00  0.00     0.074 A 
ATOM     37  C   UNL     1       8.110 -11.430   0.489  1.00  0.00     0.031 C 
ATOM     38  C   UNL     1       8.663 -10.806  -1.846  1.00  0.00     0.037 A 
BRANCH  25  39
ATOM     39  C   UNL     1       7.855  -6.440  -6.135  1.00  0.00     0.064 A 
ATOM     40  C   UNL     1       8.741  -5.396  -6.438  1.00  0.00     0.173 A 
ATOM     41  C   UNL     1       7.255  -7.123  -7.205  1.00  0.00     0.173 A 
ATOM     42  F   UNL     1       9.332  -4.705  -5.452  1.00  0.00    -0.203 F 
ATOM     43  C   UNL     1       9.009  -5.045  -7.759  1.00  0.00     0.198 A 
ATOM     44  C   UNL     1       7.545  -6.785  -8.525  1.00  0.00     0.198 A 
ATOM     45  F   UNL     1       6.405  -8.133  -6.971  1.00  0.00    -0.203 F 
ATOM     46  F   UNL     1       9.837  -4.025  -8.025  1.00  0.00    -0.200 F 
ATOM     47  C   UNL     1       8.418  -5.745  -8.801  1.00  0.00     0.200 A 
ATOM     48  F   UNL     1       6.983  -7.471  -9.530  1.00  0.00    -0.200 F 
ATOM     49  F   UNL     1       8.690  -5.415 -10.071  1.00  0.00    -0.200 F 
ENDBRANCH  25  39
BRANCH  26  50
ATOM     50  C   UNL     1       5.824  -9.211   3.259  1.00  0.00     0.064 A 
ATOM     51  C   UNL     1       6.823  -9.312   4.236  1.00  0.00     0.173 A 
ATOM     52  C   UNL     1       4.508  -9.517   3.637  1.00  0.00     0.173 A 
ATOM     53  F   UNL     1       8.099  -9.047   3.920  1.00  0.00    -0.203 F 
ATOM     54  C   UNL     1       6.521  -9.722   5.533  1.00  0.00     0.198 A 
ATOM     55  C   UNL     1       4.202  -9.894   4.941  1.00  0.00     0.198 A 
ATOM     56  F   UNL     1       3.514  -9.428   2.741  1.00  0.00    -0.203 F 
ATOM     57  F   UNL     1       7.501  -9.856   6.436  1.00  0.00    -0.200 F 
ATOM     58  C   UNL     1       5.210 -10.006   5.886  1.00  0.00     0.200 A 
ATOM     59  F   UNL     1       2.931 -10.147   5.282  1.00  0.00    -0.200 F 
ATOM     60  F   UNL     1       4.919 -10.393   7.135  1.00  0.00    -0.200 F 
ENDBRANCH  26  50
BRANCH  38  61
ATOM     61  C   UNL     1       9.412 -12.099  -1.959  1.00  0.00     0.064 A 
ATOM     62  C   UNL     1       8.744 -13.330  -2.026  1.00  0.00     0.173 A 
ATOM     63  C   UNL     1      10.814 -12.105  -2.019  1.00  0.00     0.173 A 
ATOM     64  F   UNL     1       7.405 -13.376  -1.952  1.00  0.00    -0.203 F 
ATOM     65  C   UNL     1       9.454 -14.524  -2.121  1.00  0.00     0.198 A 
ATOM     66  C   UNL     1      11.519 -13.298  -2.144  1.00  0.00     0.198 A 
ATOM     67  F   UNL     1      11.498 -10.952  -1.963  1.00  0.00    -0.203 F 
ATOM     68  F   UNL     1       8.798 -15.692  -2.130  1.00  0.00    -0.200 F 
ATOM     69  C   UNL     1      10.839 -14.506  -2.186  1.00  0.00     0.200 A 
ATOM     70  F   UNL     1      12.857 -13.279  -2.218  1.00  0.00    -0.200 F 
ATOM     71  F   UNL     1      11.521 -15.656  -2.280  1.00  0.00    -0.200 F 
ENDBRANCH  38  61
ENDBRANCH  12  13
ENDBRANCH   5   7
ENDBRANCH   2   3
ENDBRANCH   1   2
BRANCH   1  72
ATOM     72  C   UNL     1       4.578   3.595  -0.754  1.00  0.00     0.118 C 
BRANCH  72  73
ATOM     73  N   UNL     1       5.028   4.330   0.425  1.00  0.00    -0.352 N 
ATOM     74  C   UNL     1       5.789   5.470   0.529  1.00  0.00     0.253 C 
ATOM     75  H   UNL     1       4.739   3.947   1.285  1.00  0.00     0.163 HD
ATOM     76  O   UNL     1       6.180   5.831   1.635  1.00  0.00    -0.269 OA
BRANCH  74  77
ATOM     77  C   UNL     1       6.137   6.257  -0.677  1.00  0.00     0.065 A 
ATOM     78  C   UNL     1       7.470   6.696  -0.768  1.00  0.00     0.042 A 
ATOM     79  C   UNL     1       5.189   6.603  -1.665  1.00  0.00     0.054 A 
ATOM     80  C   UNL     1       7.904   7.429  -1.869  1.00  0.00     0.038 A 
ATOM     81  C   UNL     1       5.682   7.172  -2.833  1.00  0.00     0.029 A 
ATOM     82  C   UNL     1       7.017   7.579  -2.931  1.00  0.00     0.028 A 
BRANCH  79  83
ATOM     83  N   UNL     1       3.818   6.365  -1.400  1.00  0.00    -0.325 N 
ATOM     84  C   UNL     1       2.643   6.507  -2.073  1.00  0.00     0.227 C 
ATOM     85  H   UNL     1       3.679   6.004  -0.495  1.00  0.00     0.169 HD
ATOM     86  O   UNL     1       1.631   6.058  -1.526  1.00  0.00    -0.274 OA
BRANCH  84  87
ATOM     87  C   UNL     1       2.574   7.174  -3.422  1.00  0.00     0.079 C 
ATOM     88  C   UNL     1       1.220   7.070  -4.122  1.00  0.00     0.013 C 
ATOM     89  C   UNL     1       2.724   8.689  -3.304  1.00  0.00     0.013 C 
ATOM     90  C   UNL     1       1.312   8.140  -5.206  1.00  0.00     0.001 C 
ATOM     91  C   UNL     1       2.259   9.208  -4.657  1.00  0.00     0.001 C 
ENDBRANCH  84  87
ENDBRANCH  79  83
BRANCH  80  92
ATOM     92  N   UNL     1       9.128   8.062  -1.846  1.00  0.00    -0.368 N 
ATOM     93  C   UNL     1      10.353   7.359  -2.261  1.00  0.00     0.138 C 
ATOM     94  C   UNL     1       9.150   9.529  -2.002  1.00  0.00     0.138 C 
ATOM     95  C   UNL     1      10.810   7.790  -3.681  1.00  0.00     0.138 C 
ATOM     96  C   UNL     1       9.586   9.945  -3.421  1.00  0.00     0.138 C 
ATOM     97  N   UNL     1      10.827   9.262  -3.816  1.00  0.00    -0.368 N 
BRANCH  97  98
ATOM     98  C   UNL     1      12.025   9.946  -3.879  1.00  0.00     0.037 A 
ATOM     99  C   UNL     1      12.946   9.663  -4.899  1.00  0.00     0.029 A 
ATOM    100  C   UNL     1      12.353  10.965  -2.971  1.00  0.00     0.029 A 
ATOM    101  C   UNL     1      14.137  10.385  -5.023  1.00  0.00     0.041 A 
ATOM    102  C   UNL     1      13.549  11.680  -3.078  1.00  0.00     0.041 A 
ATOM    103  C   UNL     1      14.427  11.387  -4.110  1.00  0.00     0.123 A 
ATOM    104  F   UNL     1      15.564  12.084  -4.228  1.00  0.00    -0.207 F 
ENDBRANCH  97  98
ENDBRANCH  80  92
ENDBRANCH  74  77
ENDBRANCH  72  73
ENDBRANCH   1  72
TORSDOF 14
