REMARK SMILES O=C(NCCCNC(=O)c1ccc(-c2c3nc(c(-c4c(F)c(F)c(F)c(F)c4F)c4ccc([nH]4)c(-c4c(F)c(F)c(F)c(F)c4F)c4nc(c(-c5c(F)c(F)c(F)c(F)c5F)c5ccc2[nH]5)C=C4)C=C3)cc1)C1=Cc2c(ccc(Cl)c2Oc2ccccc2)O[C@H]1C(F)(F)F
REMARK SMILES IDX 5 1 4 2 3 3 1 4 2 5 73 7 74 8 90 9 75 10 89 11 76 12 81 13
REMARK SMILES IDX 77 14 79 15 78 16 80 17 91 18 92 19 93 20 94 21 82 22 83 23
REMARK SMILES IDX 84 24 88 25 85 26 87 27 86 28 6 29 7 30 8 31 9 33 10 34
REMARK SMILES IDX 11 35 72 36 12 37 71 38 13 39 14 40 15 41 65 42 16 43 70 44
REMARK SMILES IDX 64 45 66 46 17 47 69 48 63 49 62 50 18 52 50 53 30 54 49 55
REMARK SMILES IDX 31 56 34 57 48 58 67 59 32 60 33 61 47 63 68 64 35 65 19 66
REMARK SMILES IDX 20 67 28 68 21 69 22 70 26 71 29 72 23 73 24 74 27 75 25 76
REMARK SMILES IDX 51 77 52 78 60 79 53 80 54 81 58 82 61 83 55 84 56 85 59 86
REMARK SMILES IDX 57 87 36 88 37 89 45 90 38 91 39 92 43 93 46 94 40 95 41 96
REMARK SMILES IDX 44 97 42 98
REMARK H PARENT 3 6 7 32 66 51 34 62
REMARK Flexibility Score: inf
ROOT
ATOM      1  C   UNL     1       3.832  -1.034  -3.069  1.00  0.00     0.042 C 
ENDROOT
BRANCH   1   2
ATOM      2  C   UNL     1       3.393  -0.358  -1.776  1.00  0.00     0.118 C 
BRANCH   2   3
ATOM      3  N   UNL     1       2.323  -1.066  -1.090  1.00  0.00    -0.352 N 
ATOM      4  O   UNL     1       1.285  -2.150   0.582  1.00  0.00    -0.270 OA
ATOM      5  C   UNL     1       2.218  -1.448   0.219  1.00  0.00     0.251 C 
ATOM      6  H   UNL     1       1.554  -1.308  -1.656  1.00  0.00     0.163 HD
BRANCH   5   7
ATOM      7  C   UNL     1       3.257  -1.065   1.196  1.00  0.00     0.067 C 
ATOM      8  C   UNL     1       3.488   0.223   1.472  1.00  0.00     0.029 C 
ATOM      9  C   UNL     1       4.261  -2.102   1.581  1.00  0.00     0.314 C 
ATOM     10  C   UNL     1       4.828   0.648   0.995  1.00  0.00     0.061 A 
ATOM     11  O   UNL     1       5.630  -1.661   1.322  1.00  0.00    -0.475 OA
ATOM     12  C   UNL     1       5.823  -0.357   0.921  1.00  0.00     0.131 A 
ATOM     13  C   UNL     1       5.062   1.926   0.431  1.00  0.00     0.156 A 
ATOM     14  C   UNL     1       7.043  -0.096   0.302  1.00  0.00     0.049 A 
ATOM     15  C   UNL     1       6.288   2.147  -0.224  1.00  0.00     0.084 A 
ATOM     16  C   UNL     1       7.266   1.147  -0.286  1.00  0.00     0.028 A 
ATOM     17  Cl  UNL     1       6.614   3.634  -1.046  1.00  0.00    -0.080 Cl
BRANCH   9  18
ATOM     18  C   UNL     1       4.105  -2.530   3.049  1.00  0.00     0.429 C 
ATOM     19  F   UNL     1       2.815  -2.528   3.458  1.00  0.00    -0.167 F 
ATOM     20  F   UNL     1       4.579  -3.784   3.243  1.00  0.00    -0.167 F 
ATOM     21  F   UNL     1       4.784  -1.708   3.887  1.00  0.00    -0.167 F 
ENDBRANCH   9  18
BRANCH  13  22
ATOM     22  O   UNL     1       4.140   2.961   0.321  1.00  0.00    -0.455 OA
BRANCH  22  23
ATOM     23  C   UNL     1       3.066   2.999   1.172  1.00  0.00     0.127 A 
ATOM     24  C   UNL     1       1.804   2.682   0.662  1.00  0.00     0.047 A 
ATOM     25  C   UNL     1       3.231   3.316   2.521  1.00  0.00     0.047 A 
ATOM     26  C   UNL     1       0.722   2.563   1.532  1.00  0.00     0.004 A 
ATOM     27  C   UNL     1       2.142   3.206   3.386  1.00  0.00     0.004 A 
ATOM     28  C   UNL     1       0.895   2.809   2.895  1.00  0.00     0.000 A 
ENDBRANCH  22  23
ENDBRANCH  13  22
ENDBRANCH   5   7
ENDBRANCH   2   3
ENDBRANCH   1   2
BRANCH   1  29
ATOM     29  C   UNL     1       3.425  -0.257  -4.314  1.00  0.00     0.118 C 
BRANCH  29  30
ATOM     30  N   UNL     1       4.186   0.975  -4.509  1.00  0.00    -0.352 N 
ATOM     31  C   UNL     1       5.241   1.304  -5.331  1.00  0.00     0.251 C 
ATOM     32  H   UNL     1       3.885   1.719  -3.939  1.00  0.00     0.163 HD
ATOM     33  O   UNL     1       5.760   2.412  -5.212  1.00  0.00    -0.269 OA
BRANCH  31  34
ATOM     34  C   UNL     1       5.808   0.350  -6.314  1.00  0.00     0.039 A 
ATOM     35  C   UNL     1       7.193   0.350  -6.527  1.00  0.00     0.014 A 
ATOM     36  C   UNL     1       5.013  -0.531  -7.042  1.00  0.00     0.014 A 
ATOM     37  C   UNL     1       7.780  -0.613  -7.355  1.00  0.00     0.010 A 
ATOM     38  C   UNL     1       5.603  -1.557  -7.776  1.00  0.00     0.010 A 
ATOM     39  C   UNL     1       6.996  -1.629  -7.920  1.00  0.00    -0.014 A 
BRANCH  39  40
ATOM     40  C   UNL     1       7.591  -2.802  -8.617  1.00  0.00     0.031 A 
ATOM     41  C   UNL     1       7.177  -3.143 -10.022  1.00  0.00     0.074 A 
ATOM     42  C   UNL     1       8.396  -3.643  -7.936  1.00  0.00     0.049 A 
ATOM     43  N   UNL     1       7.378  -4.243 -10.703  1.00  0.00    -0.248 NA
ATOM     44  C   UNL     1       6.396  -2.126 -10.743  1.00  0.00     0.031 C 
ATOM     45  C   UNL     1       8.842  -3.462  -6.553  1.00  0.00     0.029 A 
ATOM     46  N   UNL     1       8.961  -4.839  -8.308  1.00  0.00    -0.354 N 
ATOM     47  C   UNL     1       6.707  -4.071 -11.907  1.00  0.00     0.074 A 
ATOM     48  C   UNL     1       6.073  -2.771 -11.855  1.00  0.00     0.031 C 
ATOM     49  C   UNL     1       9.624  -4.494  -6.200  1.00  0.00     0.029 A 
ATOM     50  C   UNL     1       9.686  -5.441  -7.308  1.00  0.00     0.049 A 
ATOM     51  H   UNL     1       8.857  -5.229  -9.206  1.00  0.00     0.167 HD
ATOM     52  C   UNL     1       6.636  -4.917 -12.963  1.00  0.00     0.037 A 
ATOM     53  C   UNL     1      10.308  -6.634  -7.271  1.00  0.00     0.037 A 
ATOM     54  C   UNL     1       7.324  -6.178 -13.042  1.00  0.00     0.049 A 
ATOM     55  C   UNL     1      10.239  -7.540  -8.467  1.00  0.00     0.074 A 
ATOM     56  C   UNL     1       7.390  -7.060 -14.107  1.00  0.00     0.029 A 
ATOM     57  N   UNL     1       8.077  -6.731 -12.018  1.00  0.00    -0.354 N 
ATOM     58  N   UNL     1       9.621  -7.354  -9.607  1.00  0.00    -0.248 NA
ATOM     59  C   UNL     1      10.941  -8.827  -8.364  1.00  0.00     0.031 C 
ATOM     60  C   UNL     1       8.164  -8.159 -13.719  1.00  0.00     0.029 A 
ATOM     61  C   UNL     1       8.601  -7.949 -12.422  1.00  0.00     0.049 A 
ATOM     62  H   UNL     1       8.219  -6.320 -11.135  1.00  0.00     0.167 HD
ATOM     63  C   UNL     1       9.866  -8.493 -10.361  1.00  0.00     0.074 A 
ATOM     64  C   UNL     1      10.704  -9.357  -9.556  1.00  0.00     0.031 C 
ATOM     65  C   UNL     1       9.429  -8.797 -11.606  1.00  0.00     0.037 A 
BRANCH  52  66
ATOM     66  C   UNL     1       5.789  -4.503 -14.128  1.00  0.00     0.064 A 
ATOM     67  C   UNL     1       6.193  -3.489 -15.008  1.00  0.00     0.173 A 
ATOM     68  C   UNL     1       4.576  -5.157 -14.392  1.00  0.00     0.173 A 
ATOM     69  F   UNL     1       7.339  -2.826 -14.791  1.00  0.00    -0.203 F 
ATOM     70  C   UNL     1       5.402  -3.127 -16.095  1.00  0.00     0.198 A 
ATOM     71  C   UNL     1       3.800  -4.810 -15.494  1.00  0.00     0.198 A 
ATOM     72  F   UNL     1       4.147  -6.138 -13.584  1.00  0.00    -0.203 F 
ATOM     73  F   UNL     1       5.789  -2.126 -16.899  1.00  0.00    -0.200 F 
ATOM     74  C   UNL     1       4.210  -3.791 -16.341  1.00  0.00     0.200 A 
ATOM     75  F   UNL     1       2.652  -5.459 -15.736  1.00  0.00    -0.200 F 
ATOM     76  F   UNL     1       3.453  -3.445 -17.391  1.00  0.00    -0.200 F 
ENDBRANCH  52  66
BRANCH  53  77
ATOM     77  C   UNL     1      11.051  -7.044  -6.052  1.00  0.00     0.064 A 
ATOM     78  C   UNL     1      12.452  -7.066  -6.045  1.00  0.00     0.173 A 
ATOM     79  C   UNL     1      10.383  -7.415  -4.877  1.00  0.00     0.173 A 
ATOM     80  F   UNL     1      13.131  -6.740  -7.155  1.00  0.00    -0.203 F 
ATOM     81  C   UNL     1      13.159  -7.456  -4.910  1.00  0.00     0.198 A 
ATOM     82  C   UNL     1      11.092  -7.783  -3.735  1.00  0.00     0.198 A 
ATOM     83  F   UNL     1       9.043  -7.405  -4.833  1.00  0.00    -0.203 F 
ATOM     84  F   UNL     1      14.497  -7.502  -4.941  1.00  0.00    -0.200 F 
ATOM     85  C   UNL     1      12.478  -7.809  -3.754  1.00  0.00     0.200 A 
ATOM     86  F   UNL     1      10.432  -8.111  -2.616  1.00  0.00    -0.200 F 
ATOM     87  F   UNL     1      13.159  -8.179  -2.661  1.00  0.00    -0.200 F 
ENDBRANCH  53  77
BRANCH  65  88
ATOM     88  C   UNL     1       9.858 -10.114 -12.176  1.00  0.00     0.064 A 
ATOM     89  C   UNL     1       9.260 -11.313 -11.763  1.00  0.00     0.173 A 
ATOM     90  C   UNL     1      10.846 -10.174 -13.168  1.00  0.00     0.173 A 
ATOM     91  F   UNL     1       8.323 -11.305 -10.803  1.00  0.00    -0.203 F 
ATOM     92  C   UNL     1       9.648 -12.530 -12.317  1.00  0.00     0.198 A 
ATOM     93  C   UNL     1      11.217 -11.390 -13.734  1.00  0.00     0.198 A 
ATOM     94  F   UNL     1      11.445  -9.052 -13.595  1.00  0.00    -0.203 F 
ATOM     95  F   UNL     1       9.088 -13.669 -11.885  1.00  0.00    -0.200 F 
ATOM     96  C   UNL     1      10.620 -12.567 -13.305  1.00  0.00     0.200 A 
ATOM     97  F   UNL     1      12.152 -11.425 -14.693  1.00  0.00    -0.200 F 
ATOM     98  F   UNL     1      10.988 -13.739 -13.840  1.00  0.00    -0.200 F 
ENDBRANCH  65  88
ENDBRANCH  39  40
ENDBRANCH  31  34
ENDBRANCH  29  30
ENDBRANCH   1  29
TORSDOF 13
