REMARK SMILES CC1(C)S[C@@H](c2cccc3c2sc2ccccc23)[NH2+][C@@H]1C(=O)NCCCNC(=O)c1ccc(-c2c3nc(c(-c4c(F)c(F)c(F)c(F)c4F)c4ccc([nH]4)c(-c4c(F)c(F)c(F)c(F)c4F)c4nc(c(-c5c(F)c(F)c(F)c(F)c5F)c5ccc2[nH]5)C=C4)C=C3)cc1
REMARK SMILES IDX 25 1 24 2 23 3 21 4 22 5 20 7 1 8 2 9 3 10 4 11 5 12 19 13
REMARK SMILES IDX 6 16 7 17 11 18 8 19 10 20 12 21 9 22 18 23 13 24 17 25
REMARK SMILES IDX 14 26 16 27 15 28 26 29 27 30 28 31 29 33 30 34 31 35 92 36
REMARK SMILES IDX 32 37 91 38 33 39 34 40 35 41 85 42 36 43 90 44 84 45 86 46
REMARK SMILES IDX 37 47 89 48 83 49 82 50 38 52 70 53 50 54 69 55 51 56 54 57
REMARK SMILES IDX 68 58 87 59 52 60 53 61 67 63 88 64 55 65 39 66 40 67 48 68
REMARK SMILES IDX 41 69 42 70 46 71 49 72 43 73 44 74 47 75 45 76 71 77 72 78
REMARK SMILES IDX 80 79 73 80 74 81 78 82 81 83 75 84 76 85 79 86 77 87 56 88
REMARK SMILES IDX 57 89 65 90 58 91 59 92 63 93 66 94 60 95 61 96 64 97 62 98
REMARK H PARENT 23 6 19 14 19 15 27 32 86 51 54 62
REMARK Flexibility Score: inf
ROOT
ATOM      1  C   UNL     1      -3.180   3.328  -2.530  1.00  0.00     0.042 C 
ENDROOT
BRANCH   1   2
ATOM      2  C   UNL     1      -2.748   1.986  -1.964  1.00  0.00     0.118 C 
BRANCH   2   3
ATOM      3  N   UNL     1      -1.492   1.530  -2.537  1.00  0.00    -0.351 N 
ATOM      4  C   UNL     1      -0.288   1.202  -1.993  1.00  0.00     0.279 C 
ATOM      5  O   UNL     1       0.608   0.994  -2.817  1.00  0.00    -0.268 OA
ATOM      6  H   UNL     1      -1.517   1.442  -3.517  1.00  0.00     0.163 HD
BRANCH   4   7
ATOM      7  C   UNL     1      -0.007   1.210  -0.463  1.00  0.00     0.289 C 
ATOM      8  C   UNL     1       1.605   0.594   1.416  1.00  0.00     0.030 C 
ATOM      9  C   UNL     1       1.018   0.158   0.058  1.00  0.00     0.077 C 
ATOM     10  C   UNL     1       2.181  -0.203  -0.867  1.00  0.00     0.030 C 
ATOM     11  S   UNL     1      -0.016  -1.327   0.368  1.00  0.00    -0.081 SA
ATOM     12  C   UNL     1      -1.577  -0.411   0.281  1.00  0.00     0.276 C 
ATOM     13  N   UNL     1      -1.238   1.016   0.346  1.00  0.00    -0.320 N 
ATOM     14  H   UNL     1      -1.068   1.291   1.314  1.00  0.00     0.348 HD
ATOM     15  H   UNL     1      -2.003   1.587  -0.013  1.00  0.00     0.348 HD
BRANCH  12  16
ATOM     16  C   UNL     1      -2.583  -0.779   1.357  1.00  0.00     0.038 A 
ATOM     17  C   UNL     1      -2.222  -0.693   2.722  1.00  0.00     0.012 A 
ATOM     18  C   UNL     1      -3.928  -1.169   1.076  1.00  0.00     0.046 A 
ATOM     19  C   UNL     1      -3.111  -0.985   3.742  1.00  0.00     0.001 A 
ATOM     20  C   UNL     1      -4.839  -1.488   2.089  1.00  0.00     0.001 A 
ATOM     21  S   UNL     1      -4.685  -1.314  -0.469  1.00  0.00    -0.135 S 
ATOM     22  C   UNL     1      -4.406  -1.388   3.435  1.00  0.00     0.010 A 
ATOM     23  C   UNL     1      -6.135  -1.894   1.569  1.00  0.00     0.000 A 
ATOM     24  C   UNL     1      -6.184  -1.824   0.180  1.00  0.00     0.036 A 
ATOM     25  C   UNL     1      -7.303  -2.327   2.251  1.00  0.00     0.010 A 
ATOM     26  C   UNL     1      -7.353  -2.151  -0.538  1.00  0.00     0.019 A 
ATOM     27  C   UNL     1      -8.461  -2.667   1.545  1.00  0.00     0.001 A 
ATOM     28  C   UNL     1      -8.485  -2.574   0.163  1.00  0.00     0.002 A 
ENDBRANCH  12  16
ENDBRANCH   4   7
ENDBRANCH   2   3
ENDBRANCH   1   2
BRANCH   1  29
ATOM     29  C   UNL     1      -3.423   3.319  -4.029  1.00  0.00     0.118 C 
BRANCH  29  30
ATOM     30  N   UNL     1      -4.516   2.438  -4.423  1.00  0.00    -0.352 N 
ATOM     31  C   UNL     1      -5.727   2.734  -4.996  1.00  0.00     0.251 C 
ATOM     32  H   UNL     1      -4.360   1.481  -4.252  1.00  0.00     0.163 HD
ATOM     33  O   UNL     1      -6.592   1.866  -5.088  1.00  0.00    -0.269 OA
BRANCH  31  34
ATOM     34  C   UNL     1      -6.007   4.103  -5.476  1.00  0.00     0.039 A 
ATOM     35  C   UNL     1      -7.262   4.665  -5.228  1.00  0.00     0.014 A 
ATOM     36  C   UNL     1      -5.038   4.835  -6.165  1.00  0.00     0.014 A 
ATOM     37  C   UNL     1      -7.514   5.986  -5.602  1.00  0.00     0.010 A 
ATOM     38  C   UNL     1      -5.252   6.181  -6.440  1.00  0.00     0.010 A 
ATOM     39  C   UNL     1      -6.495   6.770  -6.169  1.00  0.00    -0.014 A 
BRANCH  39  40
ATOM     40  C   UNL     1      -6.712   8.203  -6.493  1.00  0.00     0.031 A 
ATOM     41  C   UNL     1      -6.589   8.682  -7.913  1.00  0.00     0.074 A 
ATOM     42  C   UNL     1      -6.955   9.081  -5.501  1.00  0.00     0.049 A 
ATOM     43  N   UNL     1      -6.678   9.900  -8.387  1.00  0.00    -0.248 NA
ATOM     44  C   UNL     1      -6.299   7.663  -8.934  1.00  0.00     0.031 C 
ATOM     45  C   UNL     1      -7.046   8.747  -4.078  1.00  0.00     0.029 A 
ATOM     46  N   UNL     1      -7.164  10.437  -5.536  1.00  0.00    -0.354 N 
ATOM     47  C   UNL     1      -6.444   9.792  -9.752  1.00  0.00     0.074 A 
ATOM     48  C   UNL     1      -6.143   8.403 -10.021  1.00  0.00     0.031 C 
ATOM     49  C   UNL     1      -7.326   9.860  -3.382  1.00  0.00     0.029 A 
ATOM     50  C   UNL     1      -7.388  10.993  -4.300  1.00  0.00     0.049 A 
ATOM     51  H   UNL     1      -7.155  10.962  -6.369  1.00  0.00     0.167 HD
ATOM     52  C   UNL     1      -6.504  10.757 -10.700  1.00  0.00     0.037 A 
ATOM     53  C   UNL     1      -7.612  12.273  -3.947  1.00  0.00     0.037 A 
ATOM     54  C   UNL     1      -6.823  12.134 -10.429  1.00  0.00     0.049 A 
ATOM     55  C   UNL     1      -7.652  13.330  -5.018  1.00  0.00     0.074 A 
ATOM     56  C   UNL     1      -6.960  13.180 -11.324  1.00  0.00     0.029 A 
ATOM     57  N   UNL     1      -7.050  12.658  -9.164  1.00  0.00    -0.354 N 
ATOM     58  N   UNL     1      -7.499  13.204  -6.314  1.00  0.00    -0.248 NA
ATOM     59  C   UNL     1      -7.905  14.708  -4.575  1.00  0.00     0.031 C 
ATOM     60  C   UNL     1      -7.216  14.347 -10.597  1.00  0.00     0.029 A 
ATOM     61  C   UNL     1      -7.302  14.018  -9.254  1.00  0.00     0.049 A 
ATOM     62  H   UNL     1      -7.036  12.140  -8.327  1.00  0.00     0.167 HD
ATOM     63  C   UNL     1      -7.667  14.476  -6.844  1.00  0.00     0.074 A 
ATOM     64  C   UNL     1      -7.952  15.357  -5.730  1.00  0.00     0.031 C 
ATOM     65  C   UNL     1      -7.592  14.880  -8.136  1.00  0.00     0.037 A 
BRANCH  52  66
ATOM     66  C   UNL     1      -6.223  10.355 -12.120  1.00  0.00     0.064 A 
ATOM     67  C   UNL     1      -7.099   9.525 -12.838  1.00  0.00     0.173 A 
ATOM     68  C   UNL     1      -5.083  10.832 -12.784  1.00  0.00     0.173 A 
ATOM     69  F   UNL     1      -8.198   9.031 -12.247  1.00  0.00    -0.203 F 
ATOM     70  C   UNL     1      -6.827   9.161 -14.154  1.00  0.00     0.198 A 
ATOM     71  C   UNL     1      -4.832  10.495 -14.112  1.00  0.00     0.198 A 
ATOM     72  F   UNL     1      -4.215  11.633 -12.149  1.00  0.00    -0.203 F 
ATOM     73  F   UNL     1      -7.649   8.323 -14.799  1.00  0.00    -0.200 F 
ATOM     74  C   UNL     1      -5.699   9.653 -14.793  1.00  0.00     0.200 A 
ATOM     75  F   UNL     1      -3.750  10.984 -14.733  1.00  0.00    -0.200 F 
ATOM     76  F   UNL     1      -5.443   9.310 -16.063  1.00  0.00    -0.200 F 
ENDBRANCH  52  66
BRANCH  53  77
ATOM     77  C   UNL     1      -7.840  12.624  -2.520  1.00  0.00     0.064 A 
ATOM     78  C   UNL     1      -9.094  13.073  -2.082  1.00  0.00     0.173 A 
ATOM     79  C   UNL     1      -6.813  12.530  -1.569  1.00  0.00     0.173 A 
ATOM     80  F   UNL     1     -10.103  13.199  -2.956  1.00  0.00    -0.203 F 
ATOM     81  C   UNL     1      -9.305  13.438  -0.754  1.00  0.00     0.198 A 
ATOM     82  C   UNL     1      -7.035  12.865  -0.235  1.00  0.00     0.198 A 
ATOM     83  F   UNL     1      -5.596  12.101  -1.934  1.00  0.00    -0.203 F 
ATOM     84  F   UNL     1     -10.499  13.914  -0.374  1.00  0.00    -0.200 F 
ATOM     85  C   UNL     1      -8.277  13.329   0.170  1.00  0.00     0.200 A 
ATOM     86  F   UNL     1      -6.043  12.742   0.658  1.00  0.00    -0.200 F 
ATOM     87  F   UNL     1      -8.481  13.678   1.447  1.00  0.00    -0.200 F 
ENDBRANCH  53  77
BRANCH  65  88
ATOM     88  C   UNL     1      -7.862  16.329  -8.422  1.00  0.00     0.064 A 
ATOM     89  C   UNL     1      -6.967  17.339  -8.038  1.00  0.00     0.173 A 
ATOM     90  C   UNL     1      -9.019  16.709  -9.122  1.00  0.00     0.173 A 
ATOM     91  F   UNL     1      -5.855  17.031  -7.355  1.00  0.00    -0.203 F 
ATOM     92  C   UNL     1      -7.235  18.677  -8.316  1.00  0.00     0.198 A 
ATOM     93  C   UNL     1      -9.265  18.044  -9.429  1.00  0.00     0.198 A 
ATOM     94  F   UNL     1      -9.904  15.783  -9.519  1.00  0.00    -0.203 F 
ATOM     95  F   UNL     1      -6.393  19.629  -7.891  1.00  0.00    -0.200 F 
ATOM     96  C   UNL     1      -8.379  19.027  -9.018  1.00  0.00     0.200 A 
ATOM     97  F   UNL     1     -10.362  18.378 -10.123  1.00  0.00    -0.200 F 
ATOM     98  F   UNL     1      -8.631  20.315  -9.292  1.00  0.00    -0.200 F 
ENDBRANCH  65  88
ENDBRANCH  39  40
ENDBRANCH  31  34
ENDBRANCH  29  30
ENDBRANCH   1  29
TORSDOF 11
