REMARK SMILES CCN1C(=O)C[C@@H](C(=O)Nc2cccc(C(=O)NCCCNC(=O)c3ccc(-c4c5nc(c(-c6c(F)c(F)c(F)c(F)c6F)c6ccc([nH]6)c(-c6c(F)c(F)c(F)c(F)c6F)c6nc(c(-c7c(F)c(F)c(F)c(F)c7F)c7ccc4[nH]7)C=C6)C=C5)cc3)c2)S/C1=[NH+]/c1ccccc1
REMARK SMILES IDX 19 1 18 2 16 3 17 4 15 6 11 7 12 8 88 9 13 10 14 11 10 12
REMARK SMILES IDX 8 13 9 14 7 16 3 17 4 18 90 19 5 20 6 21 89 22 91 23 2 25
REMARK SMILES IDX 1 26 92 27 93 28 97 29 94 30 96 31 95 32 20 33 21 34 22 35
REMARK SMILES IDX 23 36 24 38 25 39 26 40 87 41 27 42 86 43 28 44 29 45 30 46
REMARK SMILES IDX 80 47 31 48 85 49 79 50 81 51 32 52 84 53 78 54 77 55 33 57
REMARK SMILES IDX 65 58 45 59 64 60 46 61 49 62 63 63 82 64 47 65 48 66 62 68
REMARK SMILES IDX 83 69 50 70 34 71 35 72 43 73 36 74 37 75 41 76 44 77 38 78
REMARK SMILES IDX 39 79 42 80 40 81 66 82 67 83 75 84 68 85 69 86 73 87 76 88
REMARK SMILES IDX 70 89 71 90 74 91 72 92 51 93 52 94 60 95 53 96 54 97 58 98
REMARK SMILES IDX 61 99 55 100 56 101 59 102 57 103
REMARK H PARENT 18 5 10 15 91 24 22 37 81 56 49 67
REMARK Flexibility Score: inf
ROOT
ATOM      1  C   UNL     1      -1.103   4.174  -4.027  1.00  0.00     0.118 C 
ENDROOT
BRANCH   1   2
ATOM      2  N   UNL     1      -1.694   4.014  -2.705  1.00  0.00    -0.352 N 
ATOM      3  C   UNL     1      -2.404   2.966  -2.167  1.00  0.00     0.251 C 
ATOM      4  O   UNL     1      -2.779   3.039  -0.998  1.00  0.00    -0.269 OA
ATOM      5  H   UNL     1      -1.564   4.779  -2.099  1.00  0.00     0.163 HD
BRANCH   3   6
ATOM      6  C   UNL     1      -2.756   1.764  -2.965  1.00  0.00     0.041 A 
ATOM      7  C   UNL     1      -2.287   0.183  -4.749  1.00  0.00     0.041 A 
ATOM      8  C   UNL     1      -3.561  -0.365  -4.572  1.00  0.00     0.026 A 
ATOM      9  C   UNL     1      -1.888   1.220  -3.916  1.00  0.00     0.040 A 
ATOM     10  C   UNL     1      -4.399   0.095  -3.551  1.00  0.00     0.003 A 
ATOM     11  C   UNL     1      -3.999   1.164  -2.750  1.00  0.00     0.014 A 
BRANCH   7  12
ATOM     12  N   UNL     1      -1.519  -0.265  -5.837  1.00  0.00    -0.325 N 
ATOM     13  C   UNL     1      -0.192  -0.196  -6.162  1.00  0.00     0.238 C 
ATOM     14  O   UNL     1       0.078  -0.307  -7.366  1.00  0.00    -0.273 OA
ATOM     15  H   UNL     1      -2.056  -0.733  -6.517  1.00  0.00     0.169 HD
BRANCH  13  16
ATOM     16  C   UNL     1       0.949  -0.125  -5.137  1.00  0.00     0.160 C 
ATOM     17  N   UNL     1       1.488   0.692  -2.372  1.00  0.00    -0.191 N 
ATOM     18  C   UNL     1       1.604  -0.617  -2.788  1.00  0.00     0.311 C 
ATOM     19  C   UNL     1       1.844   1.739  -3.199  1.00  0.00     0.319 C 
ATOM     20  O   UNL     1       2.307  -1.453  -2.228  1.00  0.00    -0.247 OA
ATOM     21  C   UNL     1       0.709  -0.985  -3.921  1.00  0.00     0.153 C 
ATOM     22  S   UNL     1       1.546   1.565  -4.923  1.00  0.00    -0.024 SA
ATOM     23  N   UNL     1       2.342   2.886  -2.857  1.00  0.00    -0.235 N 
ATOM     24  H   UNL     1       2.291   3.633  -3.497  1.00  0.00     0.313 HD
BRANCH  17  25
ATOM     25  C   UNL     1       0.813   0.933  -1.094  1.00  0.00     0.243 C 
ATOM     26  C   UNL     1       1.334   0.137   0.091  1.00  0.00     0.054 C 
ENDBRANCH  17  25
BRANCH  23  27
ATOM     27  C   UNL     1       2.952   3.108  -1.610  1.00  0.00     0.125 A 
ATOM     28  C   UNL     1       2.591   4.217  -0.839  1.00  0.00     0.051 A 
ATOM     29  C   UNL     1       4.013   2.307  -1.170  1.00  0.00     0.051 A 
ATOM     30  C   UNL     1       3.253   4.503   0.359  1.00  0.00     0.004 A 
ATOM     31  C   UNL     1       4.666   2.578   0.035  1.00  0.00     0.004 A 
ATOM     32  C   UNL     1       4.285   3.678   0.799  1.00  0.00     0.000 A 
ENDBRANCH  23  27
ENDBRANCH  13  16
ENDBRANCH   7  12
ENDBRANCH   3   6
ENDBRANCH   1   2
BRANCH   1  33
ATOM     33  C   UNL     1      -0.931   5.610  -4.489  1.00  0.00     0.042 C 
BRANCH  33  34
ATOM     34  C   UNL     1       0.010   6.434  -3.622  1.00  0.00     0.118 C 
BRANCH  34  35
ATOM     35  N   UNL     1       1.419   6.079  -3.740  1.00  0.00    -0.352 N 
ATOM     36  C   UNL     1       2.492   6.697  -4.335  1.00  0.00     0.251 C 
ATOM     37  H   UNL     1       1.647   5.225  -3.307  1.00  0.00     0.163 HD
ATOM     38  O   UNL     1       3.618   6.223  -4.195  1.00  0.00    -0.269 OA
BRANCH  36  39
ATOM     39  C   UNL     1       2.325   7.855  -5.240  1.00  0.00     0.039 A 
ATOM     40  C   UNL     1       3.067   7.854  -6.428  1.00  0.00     0.014 A 
ATOM     41  C   UNL     1       1.451   8.906  -4.982  1.00  0.00     0.014 A 
ATOM     42  C   UNL     1       2.827   8.819  -7.407  1.00  0.00     0.010 A 
ATOM     43  C   UNL     1       1.126   9.799  -6.000  1.00  0.00     0.010 A 
ATOM     44  C   UNL     1       1.790   9.745  -7.235  1.00  0.00    -0.014 A 
BRANCH  44  45
ATOM     45  C   UNL     1       1.335  10.622  -8.344  1.00  0.00     0.031 A 
ATOM     46  C   UNL     1       1.328  12.114  -8.180  1.00  0.00     0.074 A 
ATOM     47  C   UNL     1       0.804  10.063  -9.450  1.00  0.00     0.049 A 
ATOM     48  N   UNL     1       0.797  13.029  -8.950  1.00  0.00    -0.248 NA
ATOM     49  C   UNL     1       1.965  12.645  -6.966  1.00  0.00     0.031 C 
ATOM     50  C   UNL     1       0.692   8.625  -9.703  1.00  0.00     0.029 A 
ATOM     51  N   UNL     1       0.230  10.638 -10.557  1.00  0.00    -0.354 N 
ATOM     52  C   UNL     1       1.000  14.236  -8.296  1.00  0.00     0.074 A 
ATOM     53  C   UNL     1       1.667  13.933  -7.047  1.00  0.00     0.031 C 
ATOM     54  C   UNL     1       0.098   8.430 -10.889  1.00  0.00     0.029 A 
ATOM     55  C   UNL     1      -0.260   9.724 -11.458  1.00  0.00     0.049 A 
ATOM     56  H   UNL     1       0.174  11.611 -10.692  1.00  0.00     0.167 HD
ATOM     57  C   UNL     1       0.675  15.484  -8.709  1.00  0.00     0.037 A 
ATOM     58  C   UNL     1      -0.947   9.903 -12.602  1.00  0.00     0.037 A 
ATOM     59  C   UNL     1       0.061  15.784  -9.975  1.00  0.00     0.049 A 
ATOM     60  C   UNL     1      -1.275  11.297 -13.051  1.00  0.00     0.074 A 
ATOM     61  C   UNL     1      -0.199  17.021 -10.537  1.00  0.00     0.029 A 
ATOM     62  N   UNL     1      -0.390  14.831 -10.877  1.00  0.00    -0.354 N 
ATOM     63  N   UNL     1      -1.014  12.436 -12.459  1.00  0.00    -0.248 NA
ATOM     64  C   UNL     1      -1.998  11.431 -14.323  1.00  0.00     0.031 C 
ATOM     65  C   UNL     1      -0.845  16.817 -11.761  1.00  0.00     0.029 A 
ATOM     66  C   UNL     1      -0.957  15.452 -11.978  1.00  0.00     0.049 A 
ATOM     67  H   UNL     1      -0.319  13.857 -10.752  1.00  0.00     0.167 HD
ATOM     68  C   UNL     1      -1.537  13.422 -13.282  1.00  0.00     0.074 A 
ATOM     69  C   UNL     1      -2.112  12.748 -14.428  1.00  0.00     0.031 C 
ATOM     70  C   UNL     1      -1.543  14.765 -13.100  1.00  0.00     0.037 A 
BRANCH  57  71
ATOM     71  C   UNL     1       0.982  16.619  -7.776  1.00  0.00     0.064 A 
ATOM     72  C   UNL     1       2.299  17.025  -7.516  1.00  0.00     0.173 A 
ATOM     73  C   UNL     1      -0.058  17.313  -7.139  1.00  0.00     0.173 A 
ATOM     74  F   UNL     1       3.329  16.386  -8.091  1.00  0.00    -0.203 F 
ATOM     75  C   UNL     1       2.567  18.057  -6.621  1.00  0.00     0.198 A 
ATOM     76  C   UNL     1       0.213  18.365  -6.267  1.00  0.00     0.198 A 
ATOM     77  F   UNL     1      -1.336  16.969  -7.357  1.00  0.00    -0.203 F 
ATOM     78  F   UNL     1       3.836  18.388  -6.342  1.00  0.00    -0.200 F 
ATOM     79  C   UNL     1       1.524  18.729  -6.000  1.00  0.00     0.200 A 
ATOM     80  F   UNL     1      -0.796  19.019  -5.675  1.00  0.00    -0.200 F 
ATOM     81  F   UNL     1       1.784  19.720  -5.136  1.00  0.00    -0.200 F 
ENDBRANCH  57  71
BRANCH  58  82
ATOM     82  C   UNL     1      -1.370   8.719 -13.390  1.00  0.00     0.064 A 
ATOM     83  C   UNL     1      -0.724   8.385 -14.588  1.00  0.00     0.173 A 
ATOM     84  C   UNL     1      -2.398   7.876 -12.943  1.00  0.00     0.173 A 
ATOM     85  F   UNL     1       0.250   9.174 -15.064  1.00  0.00    -0.203 F 
ATOM     86  C   UNL     1      -1.093   7.253 -15.311  1.00  0.00     0.198 A 
ATOM     87  C   UNL     1      -2.751   6.732 -13.655  1.00  0.00     0.198 A 
ATOM     88  F   UNL     1      -3.042   8.151 -11.799  1.00  0.00    -0.203 F 
ATOM     89  F   UNL     1      -0.477   6.969 -16.466  1.00  0.00    -0.200 F 
ATOM     90  C   UNL     1      -2.100   6.423 -14.840  1.00  0.00     0.200 A 
ATOM     91  F   UNL     1      -3.716   5.926 -13.191  1.00  0.00    -0.200 F 
ATOM     92  F   UNL     1      -2.446   5.328 -15.530  1.00  0.00    -0.200 F 
ENDBRANCH  58  82
BRANCH  70  93
ATOM     93  C   UNL     1      -2.204  15.595 -14.158  1.00  0.00     0.064 A 
ATOM     94  C   UNL     1      -3.600  15.666 -14.258  1.00  0.00     0.173 A 
ATOM     95  C   UNL     1      -1.438  16.366 -15.045  1.00  0.00     0.173 A 
ATOM     96  F   UNL     1      -4.373  14.932 -13.443  1.00  0.00    -0.203 F 
ATOM     97  C   UNL     1      -4.208  16.473 -15.216  1.00  0.00     0.198 A 
ATOM     98  C   UNL     1      -2.049  17.189 -15.987  1.00  0.00     0.198 A 
ATOM     99  F   UNL     1      -0.098  16.332 -14.987  1.00  0.00    -0.203 F 
ATOM    100  F   UNL     1      -5.544  16.503 -15.314  1.00  0.00    -0.200 F 
ATOM    101  C   UNL     1      -3.432  17.239 -16.073  1.00  0.00     0.200 A 
ATOM    102  F   UNL     1      -1.299  17.936 -16.809  1.00  0.00    -0.200 F 
ATOM    103  F   UNL     1      -4.019  18.024 -16.988  1.00  0.00    -0.200 F 
ENDBRANCH  70  93
ENDBRANCH  44  45
ENDBRANCH  36  39
ENDBRANCH  34  35
ENDBRANCH  33  34
ENDBRANCH   1  33
TORSDOF 14
