REMARK SMILES C[C@@](O)(CNC(=O)c1ccc(Br)cc1N)CC(=O)NCCCNC(=O)c1ccc(-c2c3nc(c(-c4c(F)c(F)c(F)c(F)c4F)c4ccc([nH]4)c(-c4c(F)c(F)c(F)c(F)c4F)c4nc(c(-c5c(F)c(F)c(F)c(F)c5F)c5ccc2[nH]5)C=C4)C=C3)cc1
REMARK SMILES IDX 17 1 18 2 19 3 16 5 2 6 1 7 3 8 4 10 5 11 6 12 7 14 8 15
REMARK SMILES IDX 9 16 14 17 10 18 13 19 11 20 12 21 15 22 20 25 21 26 22 27
REMARK SMILES IDX 23 28 24 29 25 31 26 32 27 33 88 34 28 35 87 36 29 37 30 38
REMARK SMILES IDX 31 39 81 40 32 41 86 42 80 43 82 44 33 45 85 46 79 47 78 48
REMARK SMILES IDX 34 50 66 51 46 52 65 53 47 54 50 55 64 56 83 57 48 58 49 59
REMARK SMILES IDX 63 61 84 62 51 63 35 64 36 65 44 66 37 67 38 68 42 69 45 70
REMARK SMILES IDX 39 71 40 72 43 73 41 74 67 75 68 76 76 77 69 78 70 79 74 80
REMARK SMILES IDX 77 81 71 82 72 83 75 84 73 85 52 86 53 87 61 88 54 89 55 90
REMARK SMILES IDX 59 91 62 92 56 93 57 94 60 95 58 96
REMARK H PARENT 19 4 3 9 5 13 15 23 15 24 23 30 82 49 50 60
REMARK Flexibility Score: inf
ROOT
ATOM      1  C   UNL     1       0.283  -0.903  -3.028  1.00  0.00     0.222 C 
ATOM      2  O   UNL     1       0.697  -0.662  -4.166  1.00  0.00    -0.275 OA
ATOM      3  N   UNL     1      -0.956  -1.444  -2.884  1.00  0.00    -0.356 N 
ATOM      4  H   UNL     1      -1.389  -1.561  -3.760  1.00  0.00     0.163 HD
ENDROOT
BRANCH   1   5
ATOM      5  C   UNL     1       1.188  -0.658  -1.875  1.00  0.00     0.136 C 
BRANCH   5   6
ATOM      6  C   UNL     1       0.518   0.020  -0.710  1.00  0.00     0.088 C 
ATOM      7  C   UNL     1       1.562   0.794   0.123  1.00  0.00     0.044 C 
BRANCH   6   8
ATOM      8  O   UNL     1       0.117  -1.026   0.223  1.00  0.00    -0.388 OA
ATOM      9  H   UNL     1      -0.320  -0.624   0.990  1.00  0.00     0.211 HD
ENDBRANCH   6   8
BRANCH   6  10
ATOM     10  C   UNL     1      -0.757   0.891  -1.027  1.00  0.00     0.151 C 
BRANCH  10  11
ATOM     11  N   UNL     1      -1.263   1.425  -2.375  1.00  0.00    -0.349 N 
ATOM     12  C   UNL     1      -2.072   1.263  -3.522  1.00  0.00     0.253 C 
ATOM     13  H   UNL     1      -0.808   2.289  -2.498  1.00  0.00     0.163 HD
ATOM     14  O   UNL     1      -2.462   2.363  -3.958  1.00  0.00    -0.269 OA
BRANCH  12  15
ATOM     15  C   UNL     1      -2.547   0.079  -4.409  1.00  0.00     0.062 A 
ATOM     16  C   UNL     1      -3.485  -0.945  -4.109  1.00  0.00     0.017 A 
ATOM     17  C   UNL     1      -2.143   0.074  -5.757  1.00  0.00     0.045 A 
ATOM     18  C   UNL     1      -3.727  -2.071  -4.908  1.00  0.00     0.016 A 
ATOM     19  C   UNL     1      -2.314  -1.092  -6.547  1.00  0.00     0.042 A 
ATOM     20  C   UNL     1      -3.064  -2.176  -6.103  1.00  0.00     0.020 A 
ATOM     21  Br  UNL     1      -3.204  -3.765  -7.107  1.00  0.00    -0.051 Br
BRANCH  17  22
ATOM     22  N   UNL     1      -1.470   1.157  -6.327  1.00  0.00    -0.398 N 
ATOM     23  H   UNL     1      -1.335   1.981  -5.807  1.00  0.00     0.156 HD
ATOM     24  H   UNL     1      -1.132   1.095  -7.250  1.00  0.00     0.156 HD
ENDBRANCH  17  22
ENDBRANCH  12  15
ENDBRANCH  10  11
ENDBRANCH   6  10
ENDBRANCH   5   6
ENDBRANCH   1   5
BRANCH   3  25
ATOM     25  C   UNL     1      -1.840  -1.908  -1.800  1.00  0.00     0.117 C 
BRANCH  25  26
ATOM     26  C   UNL     1      -3.155  -1.205  -1.109  1.00  0.00     0.042 C 
BRANCH  26  27
ATOM     27  C   UNL     1      -3.925   0.229  -1.060  1.00  0.00     0.118 C 
BRANCH  27  28
ATOM     28  N   UNL     1      -4.706   0.762  -2.195  1.00  0.00    -0.352 N 
ATOM     29  C   UNL     1      -5.960   1.305  -2.339  1.00  0.00     0.251 C 
ATOM     30  H   UNL     1      -4.213   0.718  -3.046  1.00  0.00     0.163 HD
ATOM     31  O   UNL     1      -6.469   1.442  -3.430  1.00  0.00    -0.269 OA
BRANCH  29  32
ATOM     32  C   UNL     1      -6.635   1.822  -1.155  1.00  0.00     0.039 A 
ATOM     33  C   UNL     1      -5.932   2.699  -0.331  1.00  0.00     0.014 A 
ATOM     34  C   UNL     1      -7.963   1.476  -0.909  1.00  0.00     0.014 A 
ATOM     35  C   UNL     1      -6.501   3.089   0.864  1.00  0.00     0.010 A 
ATOM     36  C   UNL     1      -8.553   1.908   0.272  1.00  0.00     0.010 A 
ATOM     37  C   UNL     1      -7.794   2.652   1.189  1.00  0.00    -0.014 A 
BRANCH  37  38
ATOM     38  C   UNL     1      -8.287   2.881   2.558  1.00  0.00     0.031 A 
ATOM     39  C   UNL     1      -8.387   1.715   3.497  1.00  0.00     0.074 A 
ATOM     40  C   UNL     1      -8.543   4.136   2.961  1.00  0.00     0.049 A 
ATOM     41  N   UNL     1      -8.776   1.692   4.744  1.00  0.00    -0.248 NA
ATOM     42  C   UNL     1      -7.998   0.395   2.967  1.00  0.00     0.031 C 
ATOM     43  C   UNL     1      -8.424   5.328   2.121  1.00  0.00     0.029 A 
ATOM     44  N   UNL     1      -8.928   4.618   4.181  1.00  0.00    -0.354 N 
ATOM     45  C   UNL     1      -8.696   0.363   5.138  1.00  0.00     0.074 A 
ATOM     46  C   UNL     1      -8.254  -0.400   3.995  1.00  0.00     0.031 C 
ATOM     47  C   UNL     1      -8.700   6.412   2.862  1.00  0.00     0.029 A 
ATOM     48  C   UNL     1      -9.068   5.982   4.207  1.00  0.00     0.049 A 
ATOM     49  H   UNL     1      -9.090   4.043   4.964  1.00  0.00     0.167 HD
ATOM     50  C   UNL     1      -8.956  -0.160   6.357  1.00  0.00     0.037 A 
ATOM     51  C   UNL     1      -9.468   6.787   5.208  1.00  0.00     0.037 A 
ATOM     52  C   UNL     1      -9.369   0.626   7.488  1.00  0.00     0.049 A 
ATOM     53  C   UNL     1      -9.807   6.167   6.535  1.00  0.00     0.074 A 
ATOM     54  C   UNL     1      -9.646   0.203   8.774  1.00  0.00     0.029 A 
ATOM     55  N   UNL     1      -9.559   2.001   7.464  1.00  0.00    -0.354 N 
ATOM     56  N   UNL     1      -9.728   4.911   6.904  1.00  0.00    -0.248 NA
ATOM     57  C   UNL     1     -10.298   7.071   7.582  1.00  0.00     0.031 C 
ATOM     58  C   UNL     1     -10.052   1.314   9.517  1.00  0.00     0.029 A 
ATOM     59  C   UNL     1      -9.974   2.439   8.710  1.00  0.00     0.049 A 
ATOM     60  H   UNL     1      -9.419   2.578   6.679  1.00  0.00     0.167 HD
ATOM     61  C   UNL     1     -10.143   4.874   8.226  1.00  0.00     0.074 A 
ATOM     62  C   UNL     1     -10.452   6.239   8.602  1.00  0.00     0.031 C 
ATOM     63  C   UNL     1     -10.267   3.808   9.054  1.00  0.00     0.037 A 
BRANCH  50  64
ATOM     64  C   UNL     1      -8.812  -1.642   6.537  1.00  0.00     0.064 A 
ATOM     65  C   UNL     1      -7.554  -2.262   6.568  1.00  0.00     0.173 A 
ATOM     66  C   UNL     1      -9.944  -2.441   6.762  1.00  0.00     0.173 A 
ATOM     67  F   UNL     1      -6.442  -1.547   6.340  1.00  0.00    -0.203 F 
ATOM     68  C   UNL     1      -7.435  -3.628   6.814  1.00  0.00     0.198 A 
ATOM     69  C   UNL     1      -9.819  -3.801   7.035  1.00  0.00     0.198 A 
ATOM     70  F   UNL     1     -11.170  -1.898   6.741  1.00  0.00    -0.203 F 
ATOM     71  F   UNL     1      -6.225  -4.204   6.812  1.00  0.00    -0.200 F 
ATOM     72  C   UNL     1      -8.566  -4.393   7.060  1.00  0.00     0.200 A 
ATOM     73  F   UNL     1     -10.912  -4.535   7.285  1.00  0.00    -0.200 F 
ATOM     74  F   UNL     1      -8.447  -5.702   7.320  1.00  0.00    -0.200 F 
ENDBRANCH  50  64
BRANCH  51  75
ATOM     75  C   UNL     1      -9.567   8.251   4.979  1.00  0.00     0.064 A 
ATOM     76  C   UNL     1      -8.703   9.142   5.626  1.00  0.00     0.173 A 
ATOM     77  C   UNL     1     -10.507   8.785   4.084  1.00  0.00     0.173 A 
ATOM     78  F   UNL     1      -7.798   8.681   6.502  1.00  0.00    -0.203 F 
ATOM     79  C   UNL     1      -8.780  10.514   5.394  1.00  0.00     0.198 A 
ATOM     80  C   UNL     1     -10.563  10.153   3.829  1.00  0.00     0.198 A 
ATOM     81  F   UNL     1     -11.355   7.974   3.435  1.00  0.00    -0.203 F 
ATOM     82  F   UNL     1      -7.964  11.349   6.052  1.00  0.00    -0.200 F 
ATOM     83  C   UNL     1      -9.703  11.018   4.489  1.00  0.00     0.200 A 
ATOM     84  F   UNL     1     -11.444  10.632   2.940  1.00  0.00    -0.200 F 
ATOM     85  F   UNL     1      -9.767  12.335   4.257  1.00  0.00    -0.200 F 
ENDBRANCH  51  75
BRANCH  63  86
ATOM     86  C   UNL     1     -10.741   4.071  10.452  1.00  0.00     0.064 A 
ATOM     87  C   UNL     1     -12.077   4.398  10.720  1.00  0.00     0.173 A 
ATOM     88  C   UNL     1      -9.869   3.908  11.540  1.00  0.00     0.173 A 
ATOM     89  F   UNL     1     -12.944   4.576   9.711  1.00  0.00    -0.203 F 
ATOM     90  C   UNL     1     -12.522   4.565  12.027  1.00  0.00     0.198 A 
ATOM     91  C   UNL     1     -10.325   4.044  12.847  1.00  0.00     0.198 A 
ATOM     92  F   UNL     1      -8.583   3.584  11.334  1.00  0.00    -0.203 F 
ATOM     93  F   UNL     1     -13.796   4.910  12.260  1.00  0.00    -0.200 F 
ATOM     94  C   UNL     1     -11.649   4.376  13.089  1.00  0.00     0.200 A 
ATOM     95  F   UNL     1      -9.486   3.842  13.872  1.00  0.00    -0.200 F 
ATOM     96  F   UNL     1     -12.086   4.515  14.348  1.00  0.00    -0.200 F 
ENDBRANCH  63  86
ENDBRANCH  37  38
ENDBRANCH  29  32
ENDBRANCH  27  28
ENDBRANCH  26  27
ENDBRANCH  25  26
ENDBRANCH   3  25
TORSDOF 16
