REMARK SMILES CC[C@@H]1COCCN1c1nc(C(F)(F)F)ccc1C(=O)NCCCNC(=O)c1ccc(-c2c3nc(c(-c4c(F)c(F)c(F)c(F)c4F)c4ccc([nH]4)c(-c4c(F)c(F)c(F)c(F)c4F)c4nc(c(-c5c(F)c(F)c(F)c(F)c5F)c5ccc2[nH]5)C=C4)C=C3)cc1
REMARK SMILES IDX 23 1 22 2 21 3 19 4 20 5 18 7 9 8 10 9 11 10 17 11 16 12
REMARK SMILES IDX 8 13 3 14 4 15 5 16 7 17 6 18 2 19 1 20 12 21 13 22 14 23
REMARK SMILES IDX 15 24 24 25 25 26 26 27 27 29 28 30 29 31 90 32 30 33 89 34
REMARK SMILES IDX 31 35 32 36 33 37 83 38 34 39 88 40 82 41 84 42 35 43 87 44
REMARK SMILES IDX 81 45 80 46 36 48 68 49 48 50 67 51 49 52 52 53 66 54 85 55
REMARK SMILES IDX 50 56 51 57 65 59 86 60 53 61 37 62 38 63 46 64 39 65 40 66
REMARK SMILES IDX 44 67 47 68 41 69 42 70 45 71 43 72 69 73 70 74 78 75 71 76
REMARK SMILES IDX 72 77 76 78 79 79 73 80 74 81 77 82 75 83 54 84 55 85 63 86
REMARK SMILES IDX 56 87 57 88 61 89 64 90 58 91 59 92 62 93 60 94
REMARK H PARENT 21 6 25 28 84 47 52 58
REMARK Flexibility Score: inf
ROOT
ATOM      1  C   UNL     1      -4.742  -0.192   0.851  1.00  0.00     0.042 C 
ENDROOT
BRANCH   1   2
ATOM      2  C   UNL     1      -4.734  -0.779  -0.559  1.00  0.00     0.118 C 
BRANCH   2   3
ATOM      3  N   UNL     1      -3.820  -0.060  -1.422  1.00  0.00    -0.352 N 
ATOM      4  C   UNL     1      -2.513  -0.181  -1.815  1.00  0.00     0.255 C 
ATOM      5  O   UNL     1      -2.174   0.720  -2.585  1.00  0.00    -0.269 OA
ATOM      6  H   UNL     1      -4.252   0.722  -1.835  1.00  0.00     0.163 HD
BRANCH   4   7
ATOM      7  C   UNL     1      -1.572  -1.290  -1.418  1.00  0.00     0.082 A 
ATOM      8  C   UNL     1      -0.310  -1.403  -2.043  1.00  0.00     0.142 A 
ATOM      9  N   UNL     1       0.479  -2.502  -1.890  1.00  0.00    -0.226 NA
ATOM     10  C   UNL     1       0.098  -3.496  -1.046  1.00  0.00     0.146 A 
ATOM     11  C   UNL     1      -1.884  -2.270  -0.472  1.00  0.00     0.020 A 
ATOM     12  C   UNL     1      -1.058  -3.380  -0.289  1.00  0.00     0.034 A 
BRANCH   8  13
ATOM     13  N   UNL     1       0.230  -0.400  -2.809  1.00  0.00    -0.348 N 
ATOM     14  C   UNL     1       1.004   0.728  -2.239  1.00  0.00     0.109 C 
ATOM     15  C   UNL     1       0.835   1.931  -3.210  1.00  0.00     0.185 C 
ATOM     16  O   UNL     1       1.270   1.599  -4.543  1.00  0.00    -0.377 OA
ATOM     17  C   UNL     1       0.631  -0.750  -4.175  1.00  0.00     0.147 C 
ATOM     18  C   UNL     1       0.497   0.500  -5.059  1.00  0.00     0.181 C 
BRANCH  14  19
ATOM     19  C   UNL     1       0.633   1.165  -0.809  1.00  0.00     0.024 C 
ATOM     20  C   UNL     1       1.273   0.312   0.281  1.00  0.00     0.006 C 
ENDBRANCH  14  19
ENDBRANCH   8  13
BRANCH  10  21
ATOM     21  C   UNL     1       0.972  -4.736  -0.922  1.00  0.00     0.433 C 
ATOM     22  F   UNL     1       1.201  -5.356  -2.115  1.00  0.00    -0.165 F 
ATOM     23  F   UNL     1       2.197  -4.479  -0.383  1.00  0.00    -0.165 F 
ATOM     24  F   UNL     1       0.420  -5.698  -0.119  1.00  0.00    -0.165 F 
ENDBRANCH  10  21
ENDBRANCH   4   7
ENDBRANCH   2   3
ENDBRANCH   1   2
BRANCH   1  25
ATOM     25  C   UNL     1      -5.297   1.235   0.914  1.00  0.00     0.118 C 
BRANCH  25  26
ATOM     26  N   UNL     1      -6.682   1.304   0.468  1.00  0.00    -0.352 N 
ATOM     27  C   UNL     1      -7.836   1.564   1.159  1.00  0.00     0.251 C 
ATOM     28  H   UNL     1      -6.811   1.136  -0.494  1.00  0.00     0.163 HD
ATOM     29  O   UNL     1      -8.917   1.299   0.643  1.00  0.00    -0.269 OA
BRANCH  27  30
ATOM     30  C   UNL     1      -7.802   2.167   2.509  1.00  0.00     0.039 A 
ATOM     31  C   UNL     1      -8.739   1.741   3.456  1.00  0.00     0.014 A 
ATOM     32  C   UNL     1      -6.927   3.213   2.817  1.00  0.00     0.014 A 
ATOM     33  C   UNL     1      -8.773   2.333   4.721  1.00  0.00     0.010 A 
ATOM     34  C   UNL     1      -6.922   3.764   4.098  1.00  0.00     0.010 A 
ATOM     35  C   UNL     1      -7.851   3.337   5.058  1.00  0.00    -0.014 A 
BRANCH  35  36
ATOM     36  C   UNL     1      -7.860   3.963   6.404  1.00  0.00     0.031 A 
ATOM     37  C   UNL     1      -8.233   5.412   6.560  1.00  0.00     0.074 A 
ATOM     38  C   UNL     1      -7.487   3.240   7.477  1.00  0.00     0.049 A 
ATOM     39  N   UNL     1      -8.221   6.159   7.636  1.00  0.00    -0.248 NA
ATOM     40  C   UNL     1      -8.655   6.120   5.342  1.00  0.00     0.031 C 
ATOM     41  C   UNL     1      -7.078   1.836   7.448  1.00  0.00     0.029 A 
ATOM     42  N   UNL     1      -7.382   3.591   8.799  1.00  0.00    -0.354 N 
ATOM     43  C   UNL     1      -8.625   7.422   7.224  1.00  0.00     0.074 A 
ATOM     44  C   UNL     1      -8.828   7.355   5.792  1.00  0.00     0.031 C 
ATOM     45  C   UNL     1      -6.780   1.440   8.696  1.00  0.00     0.029 A 
ATOM     46  C   UNL     1      -6.944   2.569   9.606  1.00  0.00     0.049 A 
ATOM     47  H   UNL     1      -7.601   4.489   9.138  1.00  0.00     0.167 HD
ATOM     48  C   UNL     1      -8.830   8.531   7.974  1.00  0.00     0.037 A 
ATOM     49  C   UNL     1      -6.695   2.551  10.928  1.00  0.00     0.037 A 
ATOM     50  C   UNL     1      -8.646   8.591   9.400  1.00  0.00     0.049 A 
ATOM     51  C   UNL     1      -6.922   3.800  11.736  1.00  0.00     0.074 A 
ATOM     52  C   UNL     1      -8.843   9.663  10.254  1.00  0.00     0.029 A 
ATOM     53  N   UNL     1      -8.226   7.527  10.185  1.00  0.00    -0.354 N 
ATOM     54  N   UNL     1      -7.337   4.978  11.339  1.00  0.00    -0.248 NA
ATOM     55  C   UNL     1      -6.651   3.714  13.178  1.00  0.00     0.031 C 
ATOM     56  C   UNL     1      -8.519   9.254  11.553  1.00  0.00     0.029 A 
ATOM     57  C   UNL     1      -8.156   7.918  11.512  1.00  0.00     0.049 A 
ATOM     58  H   UNL     1      -8.011   6.627   9.849  1.00  0.00     0.167 HD
ATOM     59  C   UNL     1      -7.408   5.762  12.482  1.00  0.00     0.074 A 
ATOM     60  C   UNL     1      -7.004   4.923  13.591  1.00  0.00     0.031 C 
ATOM     61  C   UNL     1      -7.772   7.061  12.603  1.00  0.00     0.037 A 
BRANCH  48  62
ATOM     62  C   UNL     1      -9.293   9.771   7.267  1.00  0.00     0.064 A 
ATOM     63  C   UNL     1     -10.598   9.878   6.764  1.00  0.00     0.173 A 
ATOM     64  C   UNL     1      -8.443  10.878   7.130  1.00  0.00     0.173 A 
ATOM     65  F   UNL     1     -11.446   8.842   6.860  1.00  0.00    -0.203 F 
ATOM     66  C   UNL     1     -11.028  11.040   6.128  1.00  0.00     0.198 A 
ATOM     67  C   UNL     1      -8.885  12.048   6.517  1.00  0.00     0.198 A 
ATOM     68  F   UNL     1      -7.187  10.830   7.599  1.00  0.00    -0.203 F 
ATOM     69  F   UNL     1     -12.267  11.104   5.620  1.00  0.00    -0.200 F 
ATOM     70  C   UNL     1     -10.174  12.126   6.012  1.00  0.00     0.200 A 
ATOM     71  F   UNL     1      -8.063  13.102   6.415  1.00  0.00    -0.200 F 
ATOM     72  F   UNL     1     -10.592  13.247   5.407  1.00  0.00    -0.200 F 
ENDBRANCH  48  62
BRANCH  49  73
ATOM     73  C   UNL     1      -6.223   1.302  11.581  1.00  0.00     0.064 A 
ATOM     74  C   UNL     1      -7.054   0.594  12.460  1.00  0.00     0.173 A 
ATOM     75  C   UNL     1      -4.933   0.803  11.355  1.00  0.00     0.173 A 
ATOM     76  F   UNL     1      -8.290   1.044  12.721  1.00  0.00    -0.203 F 
ATOM     77  C   UNL     1      -6.604  -0.554  13.108  1.00  0.00     0.198 A 
ATOM     78  C   UNL     1      -4.493  -0.360  11.984  1.00  0.00     0.198 A 
ATOM     79  F   UNL     1      -4.101   1.441  10.519  1.00  0.00    -0.203 F 
ATOM     80  F   UNL     1      -7.401  -1.184  13.981  1.00  0.00    -0.200 F 
ATOM     81  C   UNL     1      -5.325  -1.032  12.867  1.00  0.00     0.200 A 
ATOM     82  F   UNL     1      -3.261  -0.827  11.738  1.00  0.00    -0.200 F 
ATOM     83  F   UNL     1      -4.891  -2.135  13.492  1.00  0.00    -0.200 F 
ENDBRANCH  49  73
BRANCH  61  84
ATOM     84  C   UNL     1      -7.794   7.640  13.986  1.00  0.00     0.064 A 
ATOM     85  C   UNL     1      -6.611   7.952  14.671  1.00  0.00     0.173 A 
ATOM     86  C   UNL     1      -9.015   7.916  14.619  1.00  0.00     0.173 A 
ATOM     87  F   UNL     1      -5.419   7.691  14.113  1.00  0.00    -0.203 F 
ATOM     88  C   UNL     1      -6.650   8.499  15.951  1.00  0.00     0.198 A 
ATOM     89  C   UNL     1      -9.050   8.486  15.888  1.00  0.00     0.198 A 
ATOM     90  F   UNL     1     -10.174   7.639  14.002  1.00  0.00    -0.203 F 
ATOM     91  F   UNL     1      -5.507   8.749  16.605  1.00  0.00    -0.200 F 
ATOM     92  C   UNL     1      -7.868   8.771  16.555  1.00  0.00     0.200 A 
ATOM     93  F   UNL     1     -10.228   8.757  16.467  1.00  0.00    -0.200 F 
ATOM     94  F   UNL     1      -7.903   9.300  17.786  1.00  0.00    -0.200 F 
ENDBRANCH  61  84
ENDBRANCH  35  36
ENDBRANCH  27  30
ENDBRANCH  25  26
ENDBRANCH   1  25
TORSDOF 13
