REMARK SMILES O=C(NCCCNC(=O)c1cc(S(=O)(=O)Nc2ccc(F)c(C(F)(F)F)c2)c[nH]1)c1ccc(-c2c3nc(c(-c4c(F)c(F)c(F)c(F)c4F)c4ccc([nH]4)c(-c4c(F)c(F)c(F)c(F)c4F)c4nc(c(-c5c(F)c(F)c(F)c(F)c5F)c5ccc2[nH]5)C=C4)C=C3)cc1
REMARK SMILES IDX 6 1 5 2 4 3 3 4 1 5 2 6 30 8 31 9 92 10 32 11 91 12 33 13
REMARK SMILES IDX 34 14 35 15 85 16 36 17 90 18 84 19 86 20 37 21 89 22 83 23
REMARK SMILES IDX 82 24 38 26 70 27 50 28 69 29 51 30 54 31 68 32 87 33 52 34
REMARK SMILES IDX 53 35 67 37 88 38 55 39 39 40 40 41 48 42 41 43 42 44 46 45
REMARK SMILES IDX 49 46 43 47 44 48 47 49 45 50 71 51 72 52 80 53 73 54 74 55
REMARK SMILES IDX 78 56 81 57 75 58 76 59 79 60 77 61 56 62 57 63 65 64 58 65
REMARK SMILES IDX 59 66 63 67 66 68 60 69 61 70 64 71 62 72 7 73 8 74 9 76
REMARK SMILES IDX 10 77 11 78 29 79 12 80 28 81 13 83 14 84 15 85 16 86 17 88
REMARK SMILES IDX 18 89 27 90 19 91 22 92 20 93 21 94 23 95 24 96 25 97 26 98
REMARK H PARENT 3 7 86 25 54 36 7 75 29 82 16 87
REMARK Flexibility Score: inf
ROOT
ATOM      1  C   UNL     1       4.485   3.008   1.511  1.00  0.00     0.118 C 
ENDROOT
BRANCH   1   2
ATOM      2  C   UNL     1       4.984   1.915   0.581  1.00  0.00     0.042 C 
BRANCH   2   3
ATOM      3  C   UNL     1       4.567   0.516   1.015  1.00  0.00     0.118 C 
BRANCH   3   4
ATOM      4  N   UNL     1       3.151   0.222   0.875  1.00  0.00    -0.352 N 
ATOM      5  O   UNL     1       1.168  -0.307   0.005  1.00  0.00    -0.269 OA
ATOM      6  C   UNL     1       2.319   0.076  -0.205  1.00  0.00     0.251 C 
ATOM      7  H   UNL     1       2.692   0.103   1.738  1.00  0.00     0.163 HD
BRANCH   6   8
ATOM      8  C   UNL     1       2.712   0.425  -1.594  1.00  0.00     0.039 A 
ATOM      9  C   UNL     1       4.015   0.325  -2.082  1.00  0.00     0.014 A 
ATOM     10  C   UNL     1       1.689   0.856  -2.459  1.00  0.00     0.014 A 
ATOM     11  C   UNL     1       4.316   0.739  -3.373  1.00  0.00     0.010 A 
ATOM     12  C   UNL     1       1.973   1.225  -3.774  1.00  0.00     0.010 A 
ATOM     13  C   UNL     1       3.292   1.164  -4.227  1.00  0.00    -0.014 A 
BRANCH  13  14
ATOM     14  C   UNL     1       3.638   1.283  -5.661  1.00  0.00     0.031 A 
ATOM     15  C   UNL     1       3.740  -0.110  -6.325  1.00  0.00     0.074 A 
ATOM     16  C   UNL     1       3.906   2.538  -6.129  1.00  0.00     0.049 A 
ATOM     17  N   UNL     1       4.431  -0.505  -7.351  1.00  0.00    -0.248 NA
ATOM     18  C   UNL     1       3.007  -1.253  -5.708  1.00  0.00     0.031 C 
ATOM     19  C   UNL     1       3.718   3.783  -5.355  1.00  0.00     0.029 A 
ATOM     20  N   UNL     1       4.402   3.033  -7.321  1.00  0.00    -0.354 N 
ATOM     21  C   UNL     1       4.092  -1.855  -7.603  1.00  0.00     0.074 A 
ATOM     22  C   UNL     1       3.291  -2.287  -6.502  1.00  0.00     0.031 C 
ATOM     23  C   UNL     1       4.171   4.853  -6.043  1.00  0.00     0.029 A 
ATOM     24  C   UNL     1       4.688   4.426  -7.329  1.00  0.00     0.049 A 
ATOM     25  H   UNL     1       4.547   2.460  -8.109  1.00  0.00     0.167 HD
ATOM     26  C   UNL     1       4.409  -2.511  -8.758  1.00  0.00     0.037 A 
ATOM     27  C   UNL     1       5.342   5.167  -8.281  1.00  0.00     0.037 A 
ATOM     28  C   UNL     1       5.188  -1.675  -9.602  1.00  0.00     0.049 A 
ATOM     29  C   UNL     1       5.550   4.241  -9.405  1.00  0.00     0.074 A 
ATOM     30  C   UNL     1       6.504  -1.303  -9.553  1.00  0.00     0.029 A 
ATOM     31  N   UNL     1       4.515  -0.838 -10.456  1.00  0.00    -0.354 N 
ATOM     32  N   UNL     1       4.613   3.822 -10.203  1.00  0.00    -0.248 NA
ATOM     33  C   UNL     1       6.889   3.673  -9.608  1.00  0.00     0.031 C 
ATOM     34  C   UNL     1       6.491   0.026 -10.018  1.00  0.00     0.029 A 
ATOM     35  C   UNL     1       5.218   0.341 -10.508  1.00  0.00     0.049 A 
ATOM     36  H   UNL     1       3.683  -1.044 -10.940  1.00  0.00     0.167 HD
ATOM     37  C   UNL     1       5.191   2.713 -10.771  1.00  0.00     0.074 A 
ATOM     38  C   UNL     1       6.620   2.866 -10.630  1.00  0.00     0.031 C 
ATOM     39  C   UNL     1       4.495   1.550 -10.820  1.00  0.00     0.037 A 
BRANCH  26  40
ATOM     40  C   UNL     1       3.949  -3.822  -9.329  1.00  0.00     0.064 A 
ATOM     41  C   UNL     1       2.632  -4.285  -9.223  1.00  0.00     0.173 A 
ATOM     42  C   UNL     1       4.763  -4.465 -10.296  1.00  0.00     0.173 A 
ATOM     43  F   UNL     1       1.773  -3.724  -8.362  1.00  0.00    -0.203 F 
ATOM     44  C   UNL     1       2.139  -5.278 -10.077  1.00  0.00     0.198 A 
ATOM     45  C   UNL     1       4.257  -5.422 -11.173  1.00  0.00     0.198 A 
ATOM     46  F   UNL     1       6.052  -4.121 -10.448  1.00  0.00    -0.203 F 
ATOM     47  F   UNL     1       0.859  -5.662  -9.978  1.00  0.00    -0.200 F 
ATOM     48  C   UNL     1       2.938  -5.817 -11.073  1.00  0.00     0.200 A 
ATOM     49  F   UNL     1       5.033  -5.911 -12.150  1.00  0.00    -0.200 F 
ATOM     50  F   UNL     1       2.428  -6.690 -11.953  1.00  0.00    -0.200 F 
ENDBRANCH  26  40
BRANCH  27  51
ATOM     51  C   UNL     1       5.959   6.547  -8.430  1.00  0.00     0.064 A 
ATOM     52  C   UNL     1       6.815   6.828  -9.538  1.00  0.00     0.173 A 
ATOM     53  C   UNL     1       5.862   7.602  -7.515  1.00  0.00     0.173 A 
ATOM     54  F   UNL     1       6.888   6.011 -10.597  1.00  0.00    -0.203 F 
ATOM     55  C   UNL     1       7.642   7.949  -9.616  1.00  0.00     0.198 A 
ATOM     56  C   UNL     1       6.654   8.764  -7.623  1.00  0.00     0.198 A 
ATOM     57  F   UNL     1       4.995   7.561  -6.499  1.00  0.00    -0.203 F 
ATOM     58  F   UNL     1       8.511   8.064 -10.631  1.00  0.00    -0.200 F 
ATOM     59  C   UNL     1       7.577   8.913  -8.643  1.00  0.00     0.200 A 
ATOM     60  F   UNL     1       6.530   9.739  -6.711  1.00  0.00    -0.200 F 
ATOM     61  F   UNL     1       8.384   9.981  -8.696  1.00  0.00    -0.200 F 
ENDBRANCH  27  51
BRANCH  39  62
ATOM     62  C   UNL     1       2.992   1.729 -10.800  1.00  0.00     0.064 A 
ATOM     63  C   UNL     1       2.175   1.406  -9.704  1.00  0.00     0.173 A 
ATOM     64  C   UNL     1       2.353   2.353 -11.881  1.00  0.00     0.173 A 
ATOM     65  F   UNL     1       2.689   0.823  -8.625  1.00  0.00    -0.203 F 
ATOM     66  C   UNL     1       0.806   1.674  -9.683  1.00  0.00     0.198 A 
ATOM     67  C   UNL     1       0.983   2.631 -11.862  1.00  0.00     0.198 A 
ATOM     68  F   UNL     1       3.060   2.693 -12.969  1.00  0.00    -0.203 F 
ATOM     69  F   UNL     1       0.069   1.326  -8.617  1.00  0.00    -0.200 F 
ATOM     70  C   UNL     1       0.209   2.289 -10.765  1.00  0.00     0.200 A 
ATOM     71  F   UNL     1       0.409   3.224 -12.918  1.00  0.00    -0.200 F 
ATOM     72  F   UNL     1      -1.108   2.539 -10.756  1.00  0.00    -0.200 F 
ENDBRANCH  39  62
ENDBRANCH  13  14
ENDBRANCH   6   8
ENDBRANCH   3   4
ENDBRANCH   2   3
ENDBRANCH   1   2
BRANCH   1  73
ATOM     73  N   UNL     1       5.217   3.021   2.767  1.00  0.00    -0.351 N 
ATOM     74  C   UNL     1       6.199   3.865   3.223  1.00  0.00     0.267 C 
ATOM     75  H   UNL     1       4.967   2.305   3.395  1.00  0.00     0.163 HD
ATOM     76  O   UNL     1       6.900   3.479   4.156  1.00  0.00    -0.268 OA
BRANCH  74  77
ATOM     77  C   UNL     1       6.358   5.179   2.644  1.00  0.00     0.105 A 
ATOM     78  C   UNL     1       5.460   5.983   1.973  1.00  0.00     0.055 A 
ATOM     79  N   UNL     1       7.496   5.945   2.807  1.00  0.00    -0.356 N 
ATOM     80  C   UNL     1       6.019   7.262   1.785  1.00  0.00     0.106 A 
ATOM     81  C   UNL     1       7.309   7.199   2.272  1.00  0.00     0.105 A 
ATOM     82  H   UNL     1       8.324   5.638   3.243  1.00  0.00     0.166 HD
BRANCH  80  83
ATOM     83  S   UNL     1       5.175   8.645   1.169  1.00  0.00     0.263 S 
ATOM     84  O   UNL     1       5.120   9.552   2.292  1.00  0.00    -0.201 OA
ATOM     85  O   UNL     1       5.887   8.982  -0.045  1.00  0.00    -0.201 OA
BRANCH  83  86
ATOM     86  N   UNL     1       3.588   8.272   0.716  1.00  0.00    -0.280 N 
ATOM     87  H   UNL     1       3.249   8.617  -0.141  1.00  0.00     0.180 HD
BRANCH  86  88
ATOM     88  C   UNL     1       2.722   7.479   1.525  1.00  0.00     0.050 A 
ATOM     89  C   UNL     1       2.777   7.420   2.918  1.00  0.00     0.030 A 
ATOM     90  C   UNL     1       1.813   6.665   0.837  1.00  0.00     0.043 A 
ATOM     91  C   UNL     1       2.051   6.436   3.595  1.00  0.00     0.042 A 
ATOM     92  C   UNL     1       1.067   5.682   1.513  1.00  0.00     0.093 A 
ATOM     93  C   UNL     1       1.221   5.567   2.890  1.00  0.00     0.135 A 
ATOM     94  F   UNL     1       0.587   4.602   3.568  1.00  0.00    -0.206 F 
BRANCH  92  95
ATOM     95  C   UNL     1       0.148   4.774   0.750  1.00  0.00     0.419 C 
ATOM     96  F   UNL     1      -0.930   5.442   0.254  1.00  0.00    -0.166 F 
ATOM     97  F   UNL     1       0.770   4.224  -0.334  1.00  0.00    -0.166 F 
ATOM     98  F   UNL     1      -0.348   3.727   1.457  1.00  0.00    -0.166 F 
ENDBRANCH  92  95
ENDBRANCH  86  88
ENDBRANCH  83  86
ENDBRANCH  80  83
ENDBRANCH  74  77
ENDBRANCH   1  73
TORSDOF 14
