REMARK SMILES C[C@@H]1CN(S(=O)(=O)c2cccc(C(=O)N3CCC[C@@H]3C(=O)NCCCNC(=O)c3ccc(-c4c5nc(c(-c6c(F)c(F)c(F)c(F)c6F)c6ccc([nH]6)c(-c6c(F)c(F)c(F)c(F)c6F)c6nc(c(-c7c(F)c(F)c(F)c(F)c7F)c7ccc4[nH]7)C=C6)C=C5)cc3)c2)C[C@H](C)O1
REMARK SMILES IDX 23 1 22 2 20 3 21 4 19 6 15 7 16 8 17 9 18 10 13 11 14 12
REMARK SMILES IDX 12 13 8 14 9 15 92 16 10 17 11 18 5 19 6 20 7 21 4 22 1 23
REMARK SMILES IDX 2 24 3 25 96 26 94 27 93 28 95 29 24 30 25 31 26 32 27 33
REMARK SMILES IDX 28 35 29 36 30 37 91 38 31 39 90 40 32 41 33 42 34 43 84 44
REMARK SMILES IDX 35 45 89 46 83 47 85 48 36 49 88 50 82 51 81 52 37 54 69 55
REMARK SMILES IDX 49 56 68 57 50 58 53 59 67 60 86 61 51 62 52 63 66 65 87 66
REMARK SMILES IDX 54 67 38 68 39 69 47 70 40 71 41 72 45 73 48 74 42 75 43 76
REMARK SMILES IDX 46 77 44 78 70 79 71 80 79 81 72 82 73 83 77 84 80 85 74 86
REMARK SMILES IDX 75 87 78 88 76 89 55 90 56 91 64 92 57 93 58 94 62 95 65 96
REMARK SMILES IDX 59 97 60 98 63 99 61 100
REMARK H PARENT 22 5 26 34 85 53 53 64
REMARK Flexibility Score: inf
ROOT
ATOM      1  C   UNL     1       0.756  -1.744   1.557  1.00  0.00     0.117 C 
ENDROOT
BRANCH   1   2
ATOM      2  N   UNL     1       0.670  -2.755   2.579  1.00  0.00    -0.354 N 
ATOM      3  C   UNL     1      -0.421  -3.236   3.237  1.00  0.00     0.242 C 
ATOM      4  O   UNL     1      -0.189  -3.915   4.245  1.00  0.00    -0.273 OA
ATOM      5  H   UNL     1       1.528  -3.158   2.841  1.00  0.00     0.163 HD
BRANCH   3   6
ATOM      6  C   UNL     1      -1.870  -2.794   2.922  1.00  0.00     0.174 C 
ATOM      7  N   UNL     1      -2.339  -2.578   1.544  1.00  0.00    -0.327 N 
ATOM      8  C   UNL     1      -3.495  -1.703   1.639  1.00  0.00     0.121 C 
ATOM      9  C   UNL     1      -3.040  -0.660   2.635  1.00  0.00     0.024 C 
ATOM     10  C   UNL     1      -2.181  -1.453   3.623  1.00  0.00     0.037 C 
BRANCH   7  11
ATOM     11  C   UNL     1      -2.231  -3.621   0.627  1.00  0.00     0.254 C 
ATOM     12  O   UNL     1      -2.058  -4.778   1.006  1.00  0.00    -0.269 OA
BRANCH  11  13
ATOM     13  C   UNL     1      -2.067  -3.311  -0.841  1.00  0.00     0.041 A 
ATOM     14  C   UNL     1      -2.070  -1.821  -2.783  1.00  0.00     0.083 A 
ATOM     15  C   UNL     1      -1.412  -2.785  -3.546  1.00  0.00     0.022 A 
ATOM     16  C   UNL     1      -2.422  -2.106  -1.454  1.00  0.00     0.035 A 
ATOM     17  C   UNL     1      -1.107  -4.021  -2.972  1.00  0.00     0.002 A 
ATOM     18  C   UNL     1      -1.425  -4.277  -1.632  1.00  0.00     0.014 A 
BRANCH  14  19
ATOM     19  S   UNL     1      -2.568  -0.263  -3.528  1.00  0.00     0.243 S 
ATOM     20  O   UNL     1      -3.946  -0.032  -3.156  1.00  0.00    -0.207 OA
ATOM     21  O   UNL     1      -2.153  -0.303  -4.915  1.00  0.00    -0.207 OA
BRANCH  19  22
ATOM     22  N   UNL     1      -1.619   0.901  -2.748  1.00  0.00    -0.193 NA
ATOM     23  C   UNL     1       0.422   0.777  -0.861  1.00  0.00     0.040 C 
ATOM     24  C   UNL     1      -0.707   1.792  -0.722  1.00  0.00     0.130 C 
ATOM     25  C   UNL     1      -1.986   1.274  -1.362  1.00  0.00     0.134 C 
ATOM     26  O   UNL     1      -0.373   3.059  -1.290  1.00  0.00    -0.373 OA
ATOM     27  C   UNL     1      -0.316   3.094  -2.728  1.00  0.00     0.130 C 
ATOM     28  C   UNL     1      -1.292   2.149  -3.506  1.00  0.00     0.134 C 
ATOM     29  C   UNL     1       1.139   2.994  -3.175  1.00  0.00     0.040 C 
ENDBRANCH  19  22
ENDBRANCH  14  19
ENDBRANCH  11  13
ENDBRANCH   7  11
ENDBRANCH   3   6
ENDBRANCH   1   2
BRANCH   1  30
ATOM     30  C   UNL     1       1.450  -0.484   2.068  1.00  0.00     0.042 C 
BRANCH  30  31
ATOM     31  C   UNL     1       2.928  -0.317   1.706  1.00  0.00     0.118 C 
BRANCH  31  32
ATOM     32  N   UNL     1       3.287  -0.552   0.311  1.00  0.00    -0.352 N 
ATOM     33  C   UNL     1       3.866   0.222  -0.669  1.00  0.00     0.251 C 
ATOM     34  H   UNL     1       3.067  -1.462   0.005  1.00  0.00     0.163 HD
ATOM     35  O   UNL     1       4.023  -0.283  -1.782  1.00  0.00    -0.269 OA
BRANCH  33  36
ATOM     36  C   UNL     1       4.266   1.640  -0.469  1.00  0.00     0.039 A 
ATOM     37  C   UNL     1       4.248   2.503  -1.580  1.00  0.00     0.014 A 
ATOM     38  C   UNL     1       4.722   2.133   0.750  1.00  0.00     0.014 A 
ATOM     39  C   UNL     1       4.607   3.853  -1.454  1.00  0.00     0.010 A 
ATOM     40  C   UNL     1       5.015   3.486   0.899  1.00  0.00     0.010 A 
ATOM     41  C   UNL     1       4.983   4.351  -0.205  1.00  0.00    -0.014 A 
BRANCH  41  42
ATOM     42  C   UNL     1       5.580   5.694  -0.029  1.00  0.00     0.031 A 
ATOM     43  C   UNL     1       7.069   5.765   0.159  1.00  0.00     0.074 A 
ATOM     44  C   UNL     1       4.818   6.794   0.100  1.00  0.00     0.049 A 
ATOM     45  N   UNL     1       7.815   6.752   0.579  1.00  0.00    -0.248 NA
ATOM     46  C   UNL     1       7.812   4.524  -0.123  1.00  0.00     0.031 C 
ATOM     47  C   UNL     1       3.366   6.845  -0.053  1.00  0.00     0.029 A 
ATOM     48  N   UNL     1       5.168   8.078   0.436  1.00  0.00    -0.354 N 
ATOM     49  C   UNL     1       9.104   6.240   0.646  1.00  0.00     0.074 A 
ATOM     50  C   UNL     1       9.034   4.848   0.263  1.00  0.00     0.031 C 
ATOM     51  C   UNL     1       2.944   8.096   0.211  1.00  0.00     0.029 A 
ATOM     52  C   UNL     1       4.093   8.921   0.582  1.00  0.00     0.049 A 
ATOM     53  H   UNL     1       6.101   8.368   0.560  1.00  0.00     0.167 HD
ATOM     54  C   UNL     1      10.247   6.878   0.989  1.00  0.00     0.037 A 
ATOM     55  C   UNL     1       4.052  10.203   0.993  1.00  0.00     0.037 A 
ATOM     56  C   UNL     1      10.309   8.265   1.354  1.00  0.00     0.049 A 
ATOM     57  C   UNL     1       5.340  10.897   1.367  1.00  0.00     0.074 A 
ATOM     58  C   UNL     1      11.414   9.023   1.696  1.00  0.00     0.029 A 
ATOM     59  N   UNL     1       9.207   9.106   1.418  1.00  0.00    -0.354 N 
ATOM     60  N   UNL     1       6.561  10.421   1.395  1.00  0.00    -0.248 NA
ATOM     61  C   UNL     1       5.242  12.310   1.763  1.00  0.00     0.031 C 
ATOM     62  C   UNL     1      10.975  10.318   1.994  1.00  0.00     0.029 A 
ATOM     63  C   UNL     1       9.604  10.376   1.797  1.00  0.00     0.049 A 
ATOM     64  H   UNL     1       8.280   8.838   1.224  1.00  0.00     0.167 HD
ATOM     65  C   UNL     1       7.378  11.480   1.770  1.00  0.00     0.074 A 
ATOM     66  C   UNL     1       6.514  12.627   1.957  1.00  0.00     0.031 C 
ATOM     67  C   UNL     1       8.723  11.506   1.942  1.00  0.00     0.037 A 
BRANCH  54  68
ATOM     68  C   UNL     1      11.506   6.065   0.990  1.00  0.00     0.064 A 
ATOM     69  C   UNL     1      12.079   5.597  -0.203  1.00  0.00     0.173 A 
ATOM     70  C   UNL     1      12.134   5.725   2.197  1.00  0.00     0.173 A 
ATOM     71  F   UNL     1      11.502   5.875  -1.382  1.00  0.00    -0.203 F 
ATOM     72  C   UNL     1      13.210   4.786  -0.185  1.00  0.00     0.198 A 
ATOM     73  C   UNL     1      13.284   4.940   2.209  1.00  0.00     0.198 A 
ATOM     74  F   UNL     1      11.626   6.144   3.366  1.00  0.00    -0.203 F 
ATOM     75  F   UNL     1      13.698   4.295  -1.333  1.00  0.00    -0.200 F 
ATOM     76  C   UNL     1      13.813   4.461   1.020  1.00  0.00     0.200 A 
ATOM     77  F   UNL     1      13.870   4.631   3.374  1.00  0.00    -0.200 F 
ATOM     78  F   UNL     1      14.898   3.675   1.036  1.00  0.00    -0.200 F 
ENDBRANCH  54  68
BRANCH  55  79
ATOM     79  C   UNL     1       2.757  10.931   1.057  1.00  0.00     0.064 A 
ATOM     80  C   UNL     1       2.470  11.959   0.148  1.00  0.00     0.173 A 
ATOM     81  C   UNL     1       1.797  10.642   2.037  1.00  0.00     0.173 A 
ATOM     82  F   UNL     1       3.368  12.291  -0.791  1.00  0.00    -0.203 F 
ATOM     83  C   UNL     1       1.284  12.686   0.230  1.00  0.00     0.198 A 
ATOM     84  C   UNL     1       0.599  11.353   2.103  1.00  0.00     0.198 A 
ATOM     85  F   UNL     1       2.022   9.669   2.932  1.00  0.00    -0.203 F 
ATOM     86  F   UNL     1       1.059  13.696  -0.622  1.00  0.00    -0.200 F 
ATOM     87  C   UNL     1       0.347  12.379   1.205  1.00  0.00     0.200 A 
ATOM     88  F   UNL     1      -0.308  11.049   3.042  1.00  0.00    -0.200 F 
ATOM     89  F   UNL     1      -0.792  13.080   1.286  1.00  0.00    -0.200 F 
ENDBRANCH  55  79
BRANCH  67  90
ATOM     90  C   UNL     1       9.352  12.823   2.287  1.00  0.00     0.064 A 
ATOM     91  C   UNL     1       9.242  13.381   3.568  1.00  0.00     0.173 A 
ATOM     92  C   UNL     1      10.131  13.500   1.336  1.00  0.00     0.173 A 
ATOM     93  F   UNL     1       8.498  12.776   4.506  1.00  0.00    -0.203 F 
ATOM     94  C   UNL     1       9.877  14.580   3.880  1.00  0.00     0.198 A 
ATOM     95  C   UNL     1      10.785  14.684   1.659  1.00  0.00     0.198 A 
ATOM     96  F   UNL     1      10.272  13.001   0.099  1.00  0.00    -0.203 F 
ATOM     97  F   UNL     1       9.731  15.115   5.100  1.00  0.00    -0.200 F 
ATOM     98  C   UNL     1      10.654  15.226   2.929  1.00  0.00     0.200 A 
ATOM     99  F   UNL     1      11.546  15.300   0.743  1.00  0.00    -0.200 F 
ATOM    100  F   UNL     1      11.274  16.374   3.236  1.00  0.00    -0.200 F 
ENDBRANCH  67  90
ENDBRANCH  41  42
ENDBRANCH  33  36
ENDBRANCH  31  32
ENDBRANCH  30  31
ENDBRANCH   1  30
TORSDOF 14
