REMARK SMILES O=C1C[C@@H](c2cccc(O)c2)c2c(c(C(=O)NCCCNC(=O)c3ccc(-c4c5nc(c(-c6c(F)c(F)c(F)c(F)c6F)c6ccc([nH]6)c(-c6c(F)c(F)c(F)c(F)c6F)c6nc(c(-c7c(F)c(F)c(F)c(F)c7F)c7ccc4[nH]7)C=C6)C=C5)cc3)cn2-c2cccc(C(F)(F)F)c2)N1
REMARK SMILES IDX 19 1 18 2 17 3 15 4 16 5 14 7 1 8 2 9 3 10 99 11 4 12 13 13
REMARK SMILES IDX 12 15 88 16 87 17 5 18 6 19 11 20 7 21 9 22 8 23 10 24 89 26
REMARK SMILES IDX 90 27 98 28 91 29 93 30 92 31 94 32 95 33 96 34 97 35 20 36
REMARK SMILES IDX 21 37 22 38 23 40 24 41 25 42 86 43 26 44 85 45 27 46 28 47
REMARK SMILES IDX 29 48 79 49 30 50 84 51 78 52 80 53 31 54 83 55 77 56 76 57
REMARK SMILES IDX 32 59 64 60 44 61 63 62 45 63 48 64 62 65 81 66 46 67 47 68
REMARK SMILES IDX 61 70 82 71 49 72 33 73 34 74 42 75 35 76 36 77 40 78 43 79
REMARK SMILES IDX 37 80 38 81 41 82 39 83 65 84 66 85 74 86 67 87 68 88 72 89
REMARK SMILES IDX 75 90 69 91 70 92 73 93 71 94 50 95 51 96 59 97 52 98 53 99
REMARK SMILES IDX 57 100 60 101 54 102 55 103 58 104 56 105
REMARK H PARENT 17 6 99 14 10 25 21 39 80 58 48 69
REMARK Flexibility Score: inf
ROOT
ATOM      1  C   UNL     1       6.887  -3.379   4.717  1.00  0.00     0.042 C 
ENDROOT
BRANCH   1   2
ATOM      2  C   UNL     1       7.135  -3.508   3.205  1.00  0.00     0.118 C 
BRANCH   2   3
ATOM      3  N   UNL     1       5.939  -3.897   2.473  1.00  0.00    -0.352 N 
ATOM      4  C   UNL     1       4.953  -3.144   1.886  1.00  0.00     0.254 C 
ATOM      5  O   UNL     1       4.093  -3.744   1.233  1.00  0.00    -0.269 OA
ATOM      6  H   UNL     1       5.816  -4.869   2.382  1.00  0.00     0.163 HD
BRANCH   4   7
ATOM      7  C   UNL     1       4.917  -1.692   2.008  1.00  0.00     0.081 A 
ATOM      8  O   UNL     1       1.468  -0.384  -1.050  1.00  0.00    -0.275 OA
ATOM      9  C   UNL     1       2.422  -0.110  -0.324  1.00  0.00     0.225 C 
ATOM     10  C   UNL     1       2.999   1.300  -0.252  1.00  0.00     0.115 C 
ATOM     11  N   UNL     1       3.095  -1.091   0.362  1.00  0.00    -0.324 N 
ATOM     12  C   UNL     1       3.594   1.681   1.118  1.00  0.00     0.078 C 
ATOM     13  C   UNL     1       4.065  -0.806   1.296  1.00  0.00     0.076 A 
ATOM     14  H   UNL     1       2.876  -2.033   0.179  1.00  0.00     0.170 HD
ATOM     15  C   UNL     1       4.298   0.491   1.696  1.00  0.00     0.055 A 
ATOM     16  N   UNL     1       5.294   0.460   2.644  1.00  0.00    -0.317 N 
ATOM     17  C   UNL     1       5.646  -0.861   2.836  1.00  0.00     0.107 A 
BRANCH  12  18
ATOM     18  C   UNL     1       2.535   2.245   2.048  1.00  0.00    -0.035 A 
ATOM     19  C   UNL     1       1.506   1.449   2.579  1.00  0.00     0.005 A 
ATOM     20  C   UNL     1       2.625   3.586   2.455  1.00  0.00     0.050 A 
ATOM     21  C   UNL     1       0.624   1.967   3.528  1.00  0.00     0.004 A 
ATOM     22  C   UNL     1       1.762   4.081   3.425  1.00  0.00     0.115 A 
ATOM     23  C   UNL     1       0.760   3.283   3.966  1.00  0.00     0.046 A 
BRANCH  22  24
ATOM     24  O   UNL     1       1.971   5.355   3.862  1.00  0.00    -0.508 OA
ATOM     25  H   UNL     1       1.410   5.724   4.515  1.00  0.00     0.293 HD
ENDBRANCH  22  24
ENDBRANCH  12  18
BRANCH  16  26
ATOM     26  C   UNL     1       5.855   1.488   3.434  1.00  0.00     0.046 A 
ATOM     27  C   UNL     1       7.249   1.588   3.525  1.00  0.00     0.026 A 
ATOM     28  C   UNL     1       5.038   2.241   4.277  1.00  0.00     0.039 A 
ATOM     29  C   UNL     1       7.821   2.491   4.419  1.00  0.00     0.003 A 
ATOM     30  C   UNL     1       5.606   3.143   5.189  1.00  0.00     0.058 A 
ATOM     31  C   UNL     1       7.004   3.269   5.241  1.00  0.00     0.013 A 
BRANCH  30  32
ATOM     32  C   UNL     1       4.740   3.944   6.131  1.00  0.00     0.416 C 
ATOM     33  F   UNL     1       5.142   3.820   7.429  1.00  0.00    -0.166 F 
ATOM     34  F   UNL     1       4.766   5.277   5.862  1.00  0.00    -0.166 F 
ATOM     35  F   UNL     1       3.427   3.581   6.123  1.00  0.00    -0.166 F 
ENDBRANCH  30  32
ENDBRANCH  16  26
ENDBRANCH   4   7
ENDBRANCH   2   3
ENDBRANCH   1   2
BRANCH   1  36
ATOM     36  C   UNL     1       7.035  -4.717   5.416  1.00  0.00     0.118 C 
BRANCH  36  37
ATOM     37  N   UNL     1       8.428  -5.214   5.414  1.00  0.00    -0.352 N 
ATOM     38  C   UNL     1       8.935  -6.430   5.846  1.00  0.00     0.251 C 
ATOM     39  H   UNL     1       9.096  -4.588   5.051  1.00  0.00     0.163 HD
ATOM     40  O   UNL     1      10.143  -6.575   6.067  1.00  0.00    -0.269 OA
BRANCH  38  41
ATOM     41  C   UNL     1       8.017  -7.561   6.016  1.00  0.00     0.039 A 
ATOM     42  C   UNL     1       8.080  -8.520   7.032  1.00  0.00     0.014 A 
ATOM     43  C   UNL     1       6.957  -7.565   5.143  1.00  0.00     0.014 A 
ATOM     44  C   UNL     1       7.036  -9.444   7.116  1.00  0.00     0.010 A 
ATOM     45  C   UNL     1       5.797  -8.012   5.664  1.00  0.00     0.010 A 
ATOM     46  C   UNL     1       5.890  -9.186   6.363  1.00  0.00    -0.014 A 
BRANCH  46  47
ATOM     47  C   UNL     1       4.708 -10.017   6.270  1.00  0.00     0.031 A 
ATOM     48  C   UNL     1       3.992 -10.194   7.545  1.00  0.00     0.074 A 
ATOM     49  C   UNL     1       4.152 -10.329   5.073  1.00  0.00     0.049 A 
ATOM     50  N   UNL     1       3.917 -11.264   8.258  1.00  0.00    -0.248 NA
ATOM     51  C   UNL     1       3.428  -8.998   8.189  1.00  0.00     0.031 C 
ATOM     52  C   UNL     1       4.544  -9.924   3.712  1.00  0.00     0.029 A 
ATOM     53  N   UNL     1       3.016 -11.038   4.842  1.00  0.00    -0.354 N 
ATOM     54  C   UNL     1       3.120 -10.934   9.346  1.00  0.00     0.074 A 
ATOM     55  C   UNL     1       3.033  -9.497   9.362  1.00  0.00     0.031 C 
ATOM     56  C   UNL     1       3.550 -10.208   2.840  1.00  0.00     0.029 A 
ATOM     57  C   UNL     1       2.531 -10.962   3.540  1.00  0.00     0.049 A 
ATOM     58  H   UNL     1       2.569 -11.566   5.543  1.00  0.00     0.167 HD
ATOM     59  C   UNL     1       2.385 -11.884   9.986  1.00  0.00     0.037 A 
ATOM     60  C   UNL     1       1.341 -11.457   3.116  1.00  0.00     0.037 A 
ATOM     61  C   UNL     1       2.807 -13.211   9.608  1.00  0.00     0.049 A 
ATOM     62  C   UNL     1       0.933 -12.490   4.112  1.00  0.00     0.074 A 
ATOM     63  C   UNL     1       4.003 -13.899   9.693  1.00  0.00     0.029 A 
ATOM     64  N   UNL     1       2.072 -13.875   8.652  1.00  0.00    -0.354 N 
ATOM     65  N   UNL     1       1.602 -13.599   4.305  1.00  0.00    -0.248 NA
ATOM     66  C   UNL     1       0.128 -12.045   5.243  1.00  0.00     0.031 C 
ATOM     67  C   UNL     1       4.122 -14.580   8.442  1.00  0.00     0.029 A 
ATOM     68  C   UNL     1       2.958 -14.340   7.710  1.00  0.00     0.049 A 
ATOM     69  H   UNL     1       1.095 -13.995   8.645  1.00  0.00     0.167 HD
ATOM     70  C   UNL     1       1.632 -13.768   5.683  1.00  0.00     0.074 A 
ATOM     71  C   UNL     1       0.666 -12.801   6.205  1.00  0.00     0.031 C 
ATOM     72  C   UNL     1       2.648 -14.445   6.302  1.00  0.00     0.037 A 
BRANCH  59  73
ATOM     73  C   UNL     1       1.062 -11.623  10.654  1.00  0.00     0.064 A 
ATOM     74  C   UNL     1       0.502 -12.623  11.471  1.00  0.00     0.173 A 
ATOM     75  C   UNL     1       0.196 -10.565  10.300  1.00  0.00     0.173 A 
ATOM     76  F   UNL     1       1.235 -13.680  11.853  1.00  0.00    -0.203 F 
ATOM     77  C   UNL     1      -0.844 -12.601  11.841  1.00  0.00     0.198 A 
ATOM     78  C   UNL     1      -1.131 -10.519  10.718  1.00  0.00     0.198 A 
ATOM     79  F   UNL     1       0.559  -9.600   9.447  1.00  0.00    -0.203 F 
ATOM     80  F   UNL     1      -1.365 -13.636  12.513  1.00  0.00    -0.200 F 
ATOM     81  C   UNL     1      -1.661 -11.553  11.459  1.00  0.00     0.200 A 
ATOM     82  F   UNL     1      -1.910  -9.502  10.322  1.00  0.00    -0.200 F 
ATOM     83  F   UNL     1      -2.966 -11.561  11.758  1.00  0.00    -0.200 F 
ENDBRANCH  59  73
BRANCH  60  84
ATOM     84  C   UNL     1       0.396 -10.797   2.179  1.00  0.00     0.064 A 
ATOM     85  C   UNL     1      -0.656 -11.502   1.574  1.00  0.00     0.173 A 
ATOM     86  C   UNL     1       0.352  -9.392   2.060  1.00  0.00     0.173 A 
ATOM     87  F   UNL     1      -0.721 -12.837   1.683  1.00  0.00    -0.203 F 
ATOM     88  C   UNL     1      -1.692 -10.841   0.899  1.00  0.00     0.198 A 
ATOM     89  C   UNL     1      -0.677  -8.734   1.385  1.00  0.00     0.198 A 
ATOM     90  F   UNL     1       1.261  -8.622   2.676  1.00  0.00    -0.203 F 
ATOM     91  F   UNL     1      -2.707 -11.544   0.376  1.00  0.00    -0.200 F 
ATOM     92  C   UNL     1      -1.705  -9.458   0.812  1.00  0.00     0.200 A 
ATOM     93  F   UNL     1      -0.698  -7.394   1.348  1.00  0.00    -0.200 F 
ATOM     94  F   UNL     1      -2.725  -8.823   0.217  1.00  0.00    -0.200 F 
ENDBRANCH  60  84
BRANCH  72  95
ATOM     95  C   UNL     1       3.656 -15.159   5.438  1.00  0.00     0.064 A 
ATOM     96  C   UNL     1       4.531 -14.507   4.549  1.00  0.00     0.173 A 
ATOM     97  C   UNL     1       3.865 -16.528   5.639  1.00  0.00     0.173 A 
ATOM     98  F   UNL     1       4.476 -13.184   4.378  1.00  0.00    -0.203 F 
ATOM     99  C   UNL     1       5.534 -15.197   3.867  1.00  0.00     0.198 A 
ATOM    100  C   UNL     1       4.888 -17.212   4.983  1.00  0.00     0.198 A 
ATOM    101  F   UNL     1       3.108 -17.198   6.522  1.00  0.00    -0.203 F 
ATOM    102  F   UNL     1       6.349 -14.542   3.026  1.00  0.00    -0.200 F 
ATOM    103  C   UNL     1       5.715 -16.549   4.090  1.00  0.00     0.200 A 
ATOM    104  F   UNL     1       5.092 -18.511   5.242  1.00  0.00    -0.200 F 
ATOM    105  F   UNL     1       6.703 -17.208   3.468  1.00  0.00    -0.200 F 
ENDBRANCH  72  95
ENDBRANCH  46  47
ENDBRANCH  38  41
ENDBRANCH  36  37
ENDBRANCH   1  36
TORSDOF 14
