REMARK SMILES O=C(NCCCNC(=O)[C@H]1C[C@H]2CCCC[C@@H]2[N@@H+]1CCn1ccnc1)c1ccc(-c2c3nc(c(-c4c(F)c(F)c(F)c(F)c4F)c4ccc([nH]4)c(-c4c(F)c(F)c(F)c(F)c4F)c4nc(c(-c5c(F)c(F)c(F)c(F)c5F)c5ccc2[nH]5)C=C4)C=C3)cc1
REMARK SMILES IDX 5 1 4 2 3 3 1 4 2 5 26 7 27 8 88 9 28 10 87 11 29 12 30 13
REMARK SMILES IDX 31 14 81 15 32 16 86 17 80 18 82 19 33 20 85 21 79 22 78 23
REMARK SMILES IDX 34 25 66 26 46 27 65 28 47 29 50 30 64 31 83 32 48 33 49 34
REMARK SMILES IDX 63 36 84 37 51 38 35 39 36 40 44 41 37 42 38 43 42 44 45 45
REMARK SMILES IDX 39 46 40 47 43 48 41 49 67 50 68 51 76 52 69 53 70 54 74 55
REMARK SMILES IDX 77 56 71 57 72 58 75 59 73 60 52 61 53 62 61 63 54 64 55 65
REMARK SMILES IDX 59 66 62 67 56 68 57 69 60 70 58 71 6 72 7 73 8 74 9 76
REMARK SMILES IDX 10 77 11 78 18 79 12 80 17 81 13 83 16 84 14 85 15 86 19 87
REMARK SMILES IDX 20 88 21 89 22 90 25 91 23 92 24 93
REMARK H PARENT 3 6 82 24 50 35 7 75 18 82
REMARK Flexibility Score: inf
ROOT
ATOM      1  C   UNL     1       4.118  -3.613   0.693  1.00  0.00     0.042 C 
ENDROOT
BRANCH   1   2
ATOM      2  C   UNL     1       4.502  -3.278   2.136  1.00  0.00     0.118 C 
BRANCH   2   3
ATOM      3  N   UNL     1       4.824  -1.883   2.368  1.00  0.00    -0.352 N 
ATOM      4  O   UNL     1       4.752   0.285   2.769  1.00  0.00    -0.269 OA
ATOM      5  C   UNL     1       4.106  -0.725   2.514  1.00  0.00     0.251 C 
ATOM      6  H   UNL     1       5.794  -1.731   2.438  1.00  0.00     0.163 HD
BRANCH   5   7
ATOM      7  C   UNL     1       2.630  -0.605   2.340  1.00  0.00     0.039 A 
ATOM      8  C   UNL     1       1.727  -1.665   2.264  1.00  0.00     0.014 A 
ATOM      9  C   UNL     1       2.128   0.709   2.260  1.00  0.00     0.014 A 
ATOM     10  C   UNL     1       0.370  -1.427   2.050  1.00  0.00     0.010 A 
ATOM     11  C   UNL     1       0.771   0.954   2.069  1.00  0.00     0.010 A 
ATOM     12  C   UNL     1      -0.107  -0.119   1.941  1.00  0.00    -0.014 A 
BRANCH  12  13
ATOM     13  C   UNL     1      -1.552   0.084   1.829  1.00  0.00     0.031 A 
ATOM     14  C   UNL     1      -2.362  -0.273   3.032  1.00  0.00     0.074 A 
ATOM     15  C   UNL     1      -2.133   0.721   0.793  1.00  0.00     0.049 A 
ATOM     16  N   UNL     1      -3.408  -1.034   3.106  1.00  0.00    -0.248 NA
ATOM     17  C   UNL     1      -1.927   0.271   4.328  1.00  0.00     0.031 C 
ATOM     18  C   UNL     1      -1.466   1.420  -0.306  1.00  0.00     0.029 A 
ATOM     19  N   UNL     1      -3.458   0.981   0.575  1.00  0.00    -0.354 N 
ATOM     20  C   UNL     1      -3.860  -0.945   4.424  1.00  0.00     0.074 A 
ATOM     21  C   UNL     1      -2.856  -0.216   5.152  1.00  0.00     0.031 C 
ATOM     22  C   UNL     1      -2.367   2.197  -0.946  1.00  0.00     0.029 A 
ATOM     23  C   UNL     1      -3.685   1.963  -0.378  1.00  0.00     0.049 A 
ATOM     24  H   UNL     1      -4.183   0.515   1.051  1.00  0.00     0.167 HD
ATOM     25  C   UNL     1      -5.127  -1.304   4.775  1.00  0.00     0.037 A 
ATOM     26  C   UNL     1      -4.854   2.597  -0.634  1.00  0.00     0.037 A 
ATOM     27  C   UNL     1      -5.708  -2.208   3.818  1.00  0.00     0.049 A 
ATOM     28  C   UNL     1      -5.959   1.780  -0.084  1.00  0.00     0.074 A 
ATOM     29  C   UNL     1      -5.384  -3.456   3.323  1.00  0.00     0.029 A 
ATOM     30  N   UNL     1      -6.703  -1.742   2.998  1.00  0.00    -0.354 N 
ATOM     31  N   UNL     1      -6.355   0.640  -0.575  1.00  0.00    -0.248 NA
ATOM     32  C   UNL     1      -6.441   2.083   1.255  1.00  0.00     0.031 C 
ATOM     33  C   UNL     1      -5.855  -3.461   1.976  1.00  0.00     0.029 A 
ATOM     34  C   UNL     1      -6.450  -2.222   1.744  1.00  0.00     0.049 A 
ATOM     35  H   UNL     1      -7.459  -1.170   3.264  1.00  0.00     0.167 HD
ATOM     36  C   UNL     1      -6.768  -0.090   0.527  1.00  0.00     0.074 A 
ATOM     37  C   UNL     1      -6.932   0.889   1.593  1.00  0.00     0.031 C 
ATOM     38  C   UNL     1      -6.658  -1.450   0.544  1.00  0.00     0.037 A 
BRANCH  25  39
ATOM     39  C   UNL     1      -5.980  -0.548   5.777  1.00  0.00     0.064 A 
ATOM     40  C   UNL     1      -7.266  -1.042   6.087  1.00  0.00     0.173 A 
ATOM     41  C   UNL     1      -5.738   0.787   6.166  1.00  0.00     0.173 A 
ATOM     42  F   UNL     1      -7.610  -2.301   5.775  1.00  0.00    -0.203 F 
ATOM     43  C   UNL     1      -8.268  -0.223   6.615  1.00  0.00     0.198 A 
ATOM     44  C   UNL     1      -6.725   1.586   6.744  1.00  0.00     0.198 A 
ATOM     45  F   UNL     1      -4.584   1.410   5.905  1.00  0.00    -0.203 F 
ATOM     46  F   UNL     1      -9.516  -0.694   6.738  1.00  0.00    -0.200 F 
ATOM     47  C   UNL     1      -8.001   1.096   6.927  1.00  0.00     0.200 A 
ATOM     48  F   UNL     1      -6.449   2.864   7.037  1.00  0.00    -0.200 F 
ATOM     49  F   UNL     1      -8.977   1.906   7.354  1.00  0.00    -0.200 F 
ENDBRANCH  25  39
BRANCH  26  50
ATOM     50  C   UNL     1      -5.066   3.980  -1.122  1.00  0.00     0.064 A 
ATOM     51  C   UNL     1      -6.297   4.377  -1.670  1.00  0.00     0.173 A 
ATOM     52  C   UNL     1      -4.152   5.010  -0.827  1.00  0.00     0.173 A 
ATOM     53  F   UNL     1      -7.244   3.466  -1.935  1.00  0.00    -0.203 F 
ATOM     54  C   UNL     1      -6.600   5.724  -1.892  1.00  0.00     0.198 A 
ATOM     55  C   UNL     1      -4.449   6.352  -1.064  1.00  0.00     0.198 A 
ATOM     56  F   UNL     1      -2.988   4.745  -0.216  1.00  0.00    -0.203 F 
ATOM     57  F   UNL     1      -7.809   6.069  -2.357  1.00  0.00    -0.200 F 
ATOM     58  C   UNL     1      -5.678   6.710  -1.583  1.00  0.00     0.200 A 
ATOM     59  F   UNL     1      -3.560   7.298  -0.729  1.00  0.00    -0.200 F 
ATOM     60  F   UNL     1      -5.987   8.004  -1.746  1.00  0.00    -0.200 F 
ENDBRANCH  26  50
BRANCH  38  61
ATOM     61  C   UNL     1      -6.451  -2.151  -0.762  1.00  0.00     0.064 A 
ATOM     62  C   UNL     1      -5.322  -1.971  -1.578  1.00  0.00     0.173 A 
ATOM     63  C   UNL     1      -7.375  -3.135  -1.139  1.00  0.00     0.173 A 
ATOM     64  F   UNL     1      -4.342  -1.127  -1.226  1.00  0.00    -0.203 F 
ATOM     65  C   UNL     1      -5.160  -2.704  -2.751  1.00  0.00     0.198 A 
ATOM     66  C   UNL     1      -7.191  -3.894  -2.290  1.00  0.00     0.198 A 
ATOM     67  F   UNL     1      -8.440  -3.391  -0.362  1.00  0.00    -0.203 F 
ATOM     68  F   UNL     1      -4.084  -2.502  -3.526  1.00  0.00    -0.200 F 
ATOM     69  C   UNL     1      -6.091  -3.668  -3.103  1.00  0.00     0.200 A 
ATOM     70  F   UNL     1      -8.066  -4.861  -2.599  1.00  0.00    -0.200 F 
ATOM     71  F   UNL     1      -5.914  -4.401  -4.211  1.00  0.00    -0.200 F 
ENDBRANCH  38  61
ENDBRANCH  12  13
ENDBRANCH   5   7
ENDBRANCH   2   3
ENDBRANCH   1   2
BRANCH   1  72
ATOM     72  C   UNL     1       5.192  -3.258  -0.334  1.00  0.00     0.118 C 
BRANCH  72  73
ATOM     73  N   UNL     1       6.414  -4.006  -0.131  1.00  0.00    -0.351 N 
ATOM     74  C   UNL     1       6.890  -5.108  -0.782  1.00  0.00     0.278 C 
ATOM     75  H   UNL     1       6.993  -3.668   0.589  1.00  0.00     0.163 HD
ATOM     76  O   UNL     1       7.945  -5.585  -0.356  1.00  0.00    -0.268 OA
BRANCH  74  77
ATOM     77  C   UNL     1       6.139  -5.677  -2.016  1.00  0.00     0.274 C 
ATOM     78  C   UNL     1       7.023  -6.702  -2.773  1.00  0.00     0.085 C 
ATOM     79  N   UNL     1       4.926  -6.428  -1.563  1.00  0.00    -0.321 N 
ATOM     80  C   UNL     1       6.187  -7.967  -2.798  1.00  0.00     0.054 C 
ATOM     81  C   UNL     1       5.344  -7.840  -1.543  1.00  0.00     0.188 C 
ATOM     82  H   UNL     1       4.628  -6.145  -0.629  1.00  0.00     0.349 HD
ATOM     83  C   UNL     1       6.901  -9.306  -2.866  1.00  0.00     0.010 C 
ATOM     84  C   UNL     1       4.307  -8.954  -1.416  1.00  0.00     0.065 C 
ATOM     85  C   UNL     1       5.850 -10.423  -2.837  1.00  0.00     0.001 C 
ATOM     86  C   UNL     1       4.945 -10.336  -1.603  1.00  0.00     0.006 C 
BRANCH  79  87
ATOM     87  C   UNL     1       3.671  -6.096  -2.266  1.00  0.00     0.285 C 
BRANCH  87  88
ATOM     88  C   UNL     1       3.548  -6.009  -3.810  1.00  0.00     0.184 C 
BRANCH  88  89
ATOM     89  N   UNL     1       3.293  -7.234  -4.536  1.00  0.00    -0.332 N 
ATOM     90  C   UNL     1       3.980  -7.670  -5.640  1.00  0.00     0.107 A 
ATOM     91  C   UNL     1       2.289  -8.131  -4.308  1.00  0.00     0.199 A 
ATOM     92  C   UNL     1       3.431  -8.893  -5.942  1.00  0.00     0.130 A 
ATOM     93  N   UNL     1       2.377  -9.167  -5.112  1.00  0.00    -0.245 NA
ENDBRANCH  88  89
ENDBRANCH  87  88
ENDBRANCH  79  87
ENDBRANCH  74  77
ENDBRANCH  72  73
ENDBRANCH   1  72
TORSDOF 13
