REMARK SMILES CC(C)[C@H](CO)NS(=O)(=O)c1ccc(Cl)c(C(=O)NCCCNC(=O)c2ccc(-c3c4nc(c(-c5c(F)c(F)c(F)c(F)c5F)c5ccc([nH]5)c(-c5c(F)c(F)c(F)c(F)c5F)c5nc(c(-c6c(F)c(F)c(F)c(F)c6F)c6ccc3[nH]6)C=C5)C=C4)cc2)c1
REMARK SMILES IDX 17 1 18 2 19 3 16 5 11 6 12 7 89 8 13 9 14 10 15 11 8 12
REMARK SMILES IDX 9 13 10 14 7 15 4 17 2 18 1 19 3 20 5 21 6 22 20 24 21 25
REMARK SMILES IDX 22 26 23 27 24 28 25 30 26 31 27 32 88 33 28 34 87 35 29 36
REMARK SMILES IDX 30 37 31 38 81 39 32 40 86 41 80 42 82 43 33 44 85 45 79 46
REMARK SMILES IDX 78 47 34 49 66 50 46 51 65 52 47 53 50 54 64 55 83 56 48 57
REMARK SMILES IDX 49 58 63 60 84 61 51 62 35 63 36 64 44 65 37 66 38 67 42 68
REMARK SMILES IDX 45 69 39 70 40 71 43 72 41 73 67 74 68 75 76 76 69 77 70 78
REMARK SMILES IDX 74 79 77 80 71 81 72 82 75 83 73 84 52 85 53 86 61 87 54 88
REMARK SMILES IDX 55 89 59 90 62 91 56 92 57 93 60 94 58 95
REMARK H PARENT 19 4 7 16 6 23 23 29 82 48 50 59
REMARK Flexibility Score: inf
ROOT
ATOM      1  C   UNL     1      -3.059  -4.810  -1.871  1.00  0.00     0.252 C 
ATOM      2  O   UNL     1      -2.070  -4.803  -2.606  1.00  0.00    -0.269 OA
ATOM      3  N   UNL     1      -3.642  -6.018  -1.579  1.00  0.00    -0.352 N 
ATOM      4  H   UNL     1      -3.262  -6.782  -2.069  1.00  0.00     0.163 HD
ENDROOT
BRANCH   1   5
ATOM      5  C   UNL     1      -3.608  -3.503  -1.431  1.00  0.00     0.059 A 
ATOM      6  C   UNL     1      -4.004  -1.189  -2.062  1.00  0.00     0.083 A 
ATOM      7  C   UNL     1      -4.628  -0.940  -0.842  1.00  0.00     0.023 A 
ATOM      8  C   UNL     1      -3.562  -2.474  -2.392  1.00  0.00     0.037 A 
ATOM      9  C   UNL     1      -4.631  -1.939   0.126  1.00  0.00     0.023 A 
ATOM     10  C   UNL     1      -4.036  -3.182  -0.135  1.00  0.00     0.053 A 
ATOM     11  Cl  UNL     1      -3.673  -4.141   1.258  1.00  0.00    -0.083 Cl
BRANCH   6  12
ATOM     12  S   UNL     1      -3.592   0.180  -3.119  1.00  0.00     0.240 S 
ATOM     13  O   UNL     1      -4.204   1.364  -2.562  1.00  0.00    -0.207 OA
ATOM     14  O   UNL     1      -3.835  -0.235  -4.482  1.00  0.00    -0.207 OA
BRANCH  12  15
ATOM     15  N   UNL     1      -1.931   0.298  -2.926  1.00  0.00    -0.206 NA
ATOM     16  H   UNL     1      -1.536  -0.495  -3.432  1.00  0.00     0.141 HD
BRANCH  15  17
ATOM     17  C   UNL     1      -1.250   0.313  -1.604  1.00  0.00     0.098 C 
BRANCH  17  18
ATOM     18  C   UNL     1      -1.553   1.582  -0.776  1.00  0.00     0.003 C 
ATOM     19  C   UNL     1      -0.745   1.620   0.528  1.00  0.00     0.009 C 
ATOM     20  C   UNL     1      -1.331   2.889  -1.542  1.00  0.00     0.009 C 
ENDBRANCH  17  18
BRANCH  17  21
ATOM     21  C   UNL     1       0.256   0.082  -1.870  1.00  0.00     0.176 C 
BRANCH  21  22
ATOM     22  O   UNL     1       0.426  -1.045  -2.738  1.00  0.00    -0.395 OA
ATOM     23  H   UNL     1       0.050  -1.835  -2.319  1.00  0.00     0.210 HD
ENDBRANCH  21  22
ENDBRANCH  17  21
ENDBRANCH  15  17
ENDBRANCH  12  15
ENDBRANCH   6  12
ENDBRANCH   1   5
BRANCH   3  24
ATOM     24  C   UNL     1      -4.723  -6.367  -0.671  1.00  0.00     0.118 C 
BRANCH  24  25
ATOM     25  C   UNL     1      -5.707  -7.396  -1.205  1.00  0.00     0.042 C 
BRANCH  25  26
ATOM     26  C   UNL     1      -5.109  -8.747  -1.567  1.00  0.00     0.118 C 
BRANCH  26  27
ATOM     27  N   UNL     1      -4.555  -9.475  -0.431  1.00  0.00    -0.352 N 
ATOM     28  C   UNL     1      -5.031 -10.534   0.306  1.00  0.00     0.251 C 
ATOM     29  H   UNL     1      -3.675  -9.146  -0.137  1.00  0.00     0.163 HD
ATOM     30  O   UNL     1      -4.413 -10.890   1.307  1.00  0.00    -0.269 OA
BRANCH  28  31
ATOM     31  C   UNL     1      -6.288 -11.232  -0.053  1.00  0.00     0.039 A 
ATOM     32  C   UNL     1      -7.136 -11.664   0.974  1.00  0.00     0.014 A 
ATOM     33  C   UNL     1      -6.627 -11.504  -1.376  1.00  0.00     0.014 A 
ATOM     34  C   UNL     1      -8.356 -12.277   0.668  1.00  0.00     0.010 A 
ATOM     35  C   UNL     1      -7.886 -12.012  -1.685  1.00  0.00     0.010 A 
ATOM     36  C   UNL     1      -8.766 -12.410  -0.668  1.00  0.00    -0.014 A 
BRANCH  36  37
ATOM     37  C   UNL     1     -10.089 -12.984  -1.035  1.00  0.00     0.031 A 
ATOM     38  C   UNL     1     -10.158 -14.220  -1.893  1.00  0.00     0.074 A 
ATOM     39  C   UNL     1     -11.223 -12.354  -0.669  1.00  0.00     0.049 A 
ATOM     40  N   UNL     1     -11.199 -14.793  -2.444  1.00  0.00    -0.248 NA
ATOM     41  C   UNL     1      -8.880 -14.882  -2.203  1.00  0.00     0.031 C 
ATOM     42  C   UNL     1     -11.295 -11.130   0.130  1.00  0.00     0.029 A 
ATOM     43  N   UNL     1     -12.538 -12.651  -0.936  1.00  0.00    -0.354 N 
ATOM     44  C   UNL     1     -10.699 -15.862  -3.176  1.00  0.00     0.074 A 
ATOM     45  C   UNL     1      -9.259 -15.824  -3.053  1.00  0.00     0.031 C 
ATOM     46  C   UNL     1     -12.583 -10.795   0.310  1.00  0.00     0.029 A 
ATOM     47  C   UNL     1     -13.427 -11.751  -0.399  1.00  0.00     0.049 A 
ATOM     48  H   UNL     1     -12.816 -13.434  -1.463  1.00  0.00     0.167 HD
ATOM     49  C   UNL     1     -11.379 -16.811  -3.863  1.00  0.00     0.037 A 
ATOM     50  C   UNL     1     -14.771 -11.699  -0.480  1.00  0.00     0.037 A 
ATOM     51  C   UNL     1     -12.813 -16.871  -3.956  1.00  0.00     0.049 A 
ATOM     52  C   UNL     1     -15.500 -12.758  -1.264  1.00  0.00     0.074 A 
ATOM     53  C   UNL     1     -13.600 -17.808  -4.603  1.00  0.00     0.029 A 
ATOM     54  N   UNL     1     -13.678 -15.958  -3.371  1.00  0.00    -0.354 N 
ATOM     55  N   UNL     1     -15.016 -13.786  -1.917  1.00  0.00    -0.248 NA
ATOM     56  C   UNL     1     -16.965 -12.651  -1.316  1.00  0.00     0.031 C 
ATOM     57  C   UNL     1     -14.940 -17.446  -4.434  1.00  0.00     0.029 A 
ATOM     58  C   UNL     1     -14.989 -16.308  -3.646  1.00  0.00     0.049 A 
ATOM     59  H   UNL     1     -13.401 -15.177  -2.840  1.00  0.00     0.167 HD
ATOM     60  C   UNL     1     -16.115 -14.467  -2.424  1.00  0.00     0.074 A 
ATOM     61  C   UNL     1     -17.291 -13.743  -1.993  1.00  0.00     0.031 C 
ATOM     62  C   UNL     1     -16.148 -15.591  -3.180  1.00  0.00     0.037 A 
BRANCH  49  63
ATOM     63  C   UNL     1     -10.578 -17.880  -4.549  1.00  0.00     0.064 A 
ATOM     64  C   UNL     1      -9.893 -18.862  -3.817  1.00  0.00     0.173 A 
ATOM     65  C   UNL     1     -10.524 -17.949  -5.949  1.00  0.00     0.173 A 
ATOM     66  F   UNL     1      -9.902 -18.833  -2.476  1.00  0.00    -0.203 F 
ATOM     67  C   UNL     1      -9.163 -19.858  -4.460  1.00  0.00     0.198 A 
ATOM     68  C   UNL     1      -9.817 -18.964  -6.590  1.00  0.00     0.198 A 
ATOM     69  F   UNL     1     -11.164 -17.038  -6.697  1.00  0.00    -0.203 F 
ATOM     70  F   UNL     1      -8.478 -20.756  -3.739  1.00  0.00    -0.200 F 
ATOM     71  C   UNL     1      -9.132 -19.913  -5.845  1.00  0.00     0.200 A 
ATOM     72  F   UNL     1      -9.799 -19.024  -7.928  1.00  0.00    -0.200 F 
ATOM     73  F   UNL     1      -8.436 -20.877  -6.463  1.00  0.00    -0.200 F 
ENDBRANCH  49  63
BRANCH  50  74
ATOM     74  C   UNL     1     -15.527 -10.623   0.216  1.00  0.00     0.064 A 
ATOM     75  C   UNL     1     -16.358 -10.922   1.305  1.00  0.00     0.173 A 
ATOM     76  C   UNL     1     -15.466  -9.288  -0.210  1.00  0.00     0.173 A 
ATOM     77  F   UNL     1     -16.466 -12.187   1.736  1.00  0.00    -0.203 F 
ATOM     78  C   UNL     1     -17.124  -9.934   1.921  1.00  0.00     0.198 A 
ATOM     79  C   UNL     1     -16.210  -8.296   0.426  1.00  0.00     0.198 A 
ATOM     80  F   UNL     1     -14.684  -8.947  -1.244  1.00  0.00    -0.203 F 
ATOM     81  F   UNL     1     -17.954 -10.260   2.921  1.00  0.00    -0.200 F 
ATOM     82  C   UNL     1     -17.047  -8.621   1.483  1.00  0.00     0.200 A 
ATOM     83  F   UNL     1     -16.122  -7.025   0.009  1.00  0.00    -0.200 F 
ATOM     84  F   UNL     1     -17.788  -7.672   2.071  1.00  0.00    -0.200 F 
ENDBRANCH  50  74
BRANCH  62  85
ATOM     85  C   UNL     1     -17.497 -16.141  -3.539  1.00  0.00     0.064 A 
ATOM     86  C   UNL     1     -18.322 -15.514  -4.483  1.00  0.00     0.173 A 
ATOM     87  C   UNL     1     -17.949 -17.335  -2.958  1.00  0.00     0.173 A 
ATOM     88  F   UNL     1     -17.940 -14.362  -5.054  1.00  0.00    -0.203 F 
ATOM     89  C   UNL     1     -19.563 -16.051  -4.815  1.00  0.00     0.198 A 
ATOM     90  C   UNL     1     -19.177 -17.885  -3.314  1.00  0.00     0.198 A 
ATOM     91  F   UNL     1     -17.193 -17.977  -2.054  1.00  0.00    -0.203 F 
ATOM     92  F   UNL     1     -20.356 -15.411  -5.686  1.00  0.00    -0.200 F 
ATOM     93  C   UNL     1     -19.985 -17.239  -4.236  1.00  0.00     0.200 A 
ATOM     94  F   UNL     1     -19.577 -19.039  -2.764  1.00  0.00    -0.200 F 
ATOM     95  F   UNL     1     -21.177 -17.758  -4.564  1.00  0.00    -0.200 F 
ENDBRANCH  62  85
ENDBRANCH  36  37
ENDBRANCH  28  31
ENDBRANCH  26  27
ENDBRANCH  25  26
ENDBRANCH  24  25
ENDBRANCH   3  24
TORSDOF 16
