REMARK SMILES CC(C)C[C@@H]([NH2+][C@H]1CCOC2(CCOCC2)C1)C(=O)NCCCNC(=O)c1ccc(-c2c3nc(c(-c4c(F)c(F)c(F)c(F)c4F)c4ccc([nH]4)c(-c4c(F)c(F)c(F)c(F)c4F)c4nc(c(-c5c(F)c(F)c(F)c(F)c5F)c5ccc2[nH]5)C=C4)C=C3)cc1
REMARK SMILES IDX 22 1 21 2 20 3 18 4 19 5 5 7 4 8 2 9 1 10 3 11 6 12 7 15
REMARK SMILES IDX 8 16 17 17 9 18 11 19 10 20 12 21 16 22 13 23 15 24 14 25
REMARK SMILES IDX 23 26 24 27 25 28 26 30 27 31 28 32 89 33 29 34 88 35 30 36
REMARK SMILES IDX 31 37 32 38 82 39 33 40 87 41 81 42 83 43 34 44 86 45 80 46
REMARK SMILES IDX 79 47 35 49 67 50 47 51 66 52 48 53 51 54 65 55 84 56 49 57
REMARK SMILES IDX 50 58 64 60 85 61 52 62 36 63 37 64 45 65 38 66 39 67 43 68
REMARK SMILES IDX 46 69 40 70 41 71 44 72 42 73 68 74 69 75 77 76 70 77 71 78
REMARK SMILES IDX 75 79 78 80 72 81 73 82 76 83 74 84 53 85 54 86 62 87 55 88
REMARK SMILES IDX 56 89 60 90 63 91 57 92 58 93 61 94 59 95
REMARK H PARENT 20 6 6 13 6 14 24 29 83 48 51 59
REMARK Flexibility Score: inf
ROOT
ATOM      1  C   UNL     1       0.125   6.810  -2.859  1.00  0.00     0.042 C 
ENDROOT
BRANCH   1   2
ATOM      2  C   UNL     1      -0.237   5.599  -2.005  1.00  0.00     0.118 C 
BRANCH   2   3
ATOM      3  N   UNL     1       0.776   5.356  -0.995  1.00  0.00    -0.351 N 
ATOM      4  C   UNL     1       0.755   5.595   0.344  1.00  0.00     0.278 C 
ATOM      5  O   UNL     1       1.813   5.425   0.960  1.00  0.00    -0.268 OA
ATOM      6  H   UNL     1       1.610   4.956  -1.332  1.00  0.00     0.163 HD
BRANCH   4   7
ATOM      7  C   UNL     1      -0.523   6.052   1.083  1.00  0.00     0.273 C 
BRANCH   7   8
ATOM      8  C   UNL     1      -0.855   7.521   0.744  1.00  0.00     0.078 C 
BRANCH   8   9
ATOM      9  C   UNL     1      -2.148   8.090   1.366  1.00  0.00    -0.011 C 
ATOM     10  C   UNL     1      -2.167   7.992   2.890  1.00  0.00     0.007 C 
ATOM     11  C   UNL     1      -2.333   9.548   0.934  1.00  0.00     0.007 C 
ENDBRANCH   8   9
ENDBRANCH   7   8
BRANCH   7  12
ATOM     12  N   UNL     1      -1.669   5.146   0.838  1.00  0.00    -0.333 N 
ATOM     13  H   UNL     1      -1.909   5.211  -0.151  1.00  0.00     0.347 HD
ATOM     14  H   UNL     1      -2.403   5.461   1.473  1.00  0.00     0.347 HD
BRANCH  12  15
ATOM     15  C   UNL     1      -1.461   3.719   1.158  1.00  0.00     0.188 C 
ATOM     16  C   UNL     1      -0.637   3.429   2.417  1.00  0.00     0.093 C 
ATOM     17  C   UNL     1      -2.853   3.075   1.314  1.00  0.00     0.100 C 
ATOM     18  C   UNL     1      -0.611   1.939   2.704  1.00  0.00     0.167 C 
ATOM     19  C   UNL     1      -2.796   1.592   1.728  1.00  0.00     0.078 C 
ATOM     20  O   UNL     1      -1.929   1.432   2.863  1.00  0.00    -0.374 OA
ATOM     21  C   UNL     1      -2.373   0.679   0.561  1.00  0.00     0.064 C 
ATOM     22  C   UNL     1      -4.192   1.143   2.204  1.00  0.00     0.064 C 
ATOM     23  C   UNL     1      -2.476  -0.788   0.964  1.00  0.00     0.163 C 
ATOM     24  C   UNL     1      -4.203  -0.349   2.516  1.00  0.00     0.163 C 
ATOM     25  O   UNL     1      -3.808  -1.101   1.369  1.00  0.00    -0.381 OA
ENDBRANCH  12  15
ENDBRANCH   7  12
ENDBRANCH   4   7
ENDBRANCH   2   3
ENDBRANCH   1   2
BRANCH   1  26
ATOM     26  C   UNL     1       1.406   6.631  -3.664  1.00  0.00     0.118 C 
BRANCH  26  27
ATOM     27  N   UNL     1       1.273   5.634  -4.718  1.00  0.00    -0.352 N 
ATOM     28  C   UNL     1       1.470   5.772  -6.070  1.00  0.00     0.251 C 
ATOM     29  H   UNL     1       1.005   4.736  -4.418  1.00  0.00     0.163 HD
ATOM     30  O   UNL     1       1.144   4.874  -6.840  1.00  0.00    -0.269 OA
BRANCH  28  31
ATOM     31  C   UNL     1       2.054   7.021  -6.597  1.00  0.00     0.039 A 
ATOM     32  C   UNL     1       1.444   7.653  -7.683  1.00  0.00     0.014 A 
ATOM     33  C   UNL     1       3.189   7.578  -6.002  1.00  0.00     0.014 A 
ATOM     34  C   UNL     1       1.926   8.887  -8.124  1.00  0.00     0.010 A 
ATOM     35  C   UNL     1       3.620   8.841  -6.392  1.00  0.00     0.010 A 
ATOM     36  C   UNL     1       2.992   9.510  -7.454  1.00  0.00    -0.014 A 
BRANCH  36  37
ATOM     37  C   UNL     1       3.477  10.860  -7.835  1.00  0.00     0.031 A 
ATOM     38  C   UNL     1       4.886  11.033  -8.326  1.00  0.00     0.074 A 
ATOM     39  C   UNL     1       2.689  11.935  -7.641  1.00  0.00     0.049 A 
ATOM     40  N   UNL     1       5.556  12.134  -8.554  1.00  0.00    -0.248 NA
ATOM     41  C   UNL     1       5.655   9.801  -8.562  1.00  0.00     0.031 C 
ATOM     42  C   UNL     1       1.315  11.899  -7.138  1.00  0.00     0.029 A 
ATOM     43  N   UNL     1       2.941  13.273  -7.820  1.00  0.00    -0.354 N 
ATOM     44  C   UNL     1       6.828  11.728  -8.933  1.00  0.00     0.074 A 
ATOM     45  C   UNL     1       6.852  10.283  -8.861  1.00  0.00     0.031 C 
ATOM     46  C   UNL     1       0.843  13.153  -7.058  1.00  0.00     0.029 A 
ATOM     47  C   UNL     1       1.894  14.085  -7.455  1.00  0.00     0.049 A 
ATOM     48  H   UNL     1       3.792  13.618  -8.176  1.00  0.00     0.167 HD
ATOM     49  C   UNL     1       7.876  12.492  -9.323  1.00  0.00     0.037 A 
ATOM     50  C   UNL     1       1.802  15.428  -7.425  1.00  0.00     0.037 A 
ATOM     51  C   UNL     1       7.836  13.927  -9.420  1.00  0.00     0.049 A 
ATOM     52  C   UNL     1       2.985  16.255  -7.851  1.00  0.00     0.074 A 
ATOM     53  C   UNL     1       8.826  14.790  -9.857  1.00  0.00     0.029 A 
ATOM     54  N   UNL     1       6.744  14.710  -9.075  1.00  0.00    -0.354 N 
ATOM     55  N   UNL     1       4.167  15.860  -8.257  1.00  0.00    -0.248 NA
ATOM     56  C   UNL     1       2.821  17.716  -7.818  1.00  0.00     0.031 C 
ATOM     57  C   UNL     1       8.350  16.099  -9.733  1.00  0.00     0.029 A 
ATOM     58  C   UNL     1       7.043  16.049  -9.272  1.00  0.00     0.049 A 
ATOM     59  H   UNL     1       5.885  14.367  -8.740  1.00  0.00     0.167 HD
ATOM     60  C   UNL     1       4.871  17.016  -8.565  1.00  0.00     0.074 A 
ATOM     61  C   UNL     1       3.985  18.129  -8.300  1.00  0.00     0.031 C 
ATOM     62  C   UNL     1       6.138  17.142  -9.029  1.00  0.00     0.037 A 
BRANCH  49  63
ATOM     63  C   UNL     1       9.156  11.791  -9.673  1.00  0.00     0.064 A 
ATOM     64  C   UNL     1       9.271  10.998 -10.825  1.00  0.00     0.173 A 
ATOM     65  C   UNL     1      10.295  11.944  -8.867  1.00  0.00     0.173 A 
ATOM     66  F   UNL     1       8.210  10.810 -11.624  1.00  0.00    -0.203 F 
ATOM     67  C   UNL     1      10.468  10.359 -11.140  1.00  0.00     0.198 A 
ATOM     68  C   UNL     1      11.499  11.330  -9.203  1.00  0.00     0.198 A 
ATOM     69  F   UNL     1      10.242  12.696  -7.758  1.00  0.00    -0.203 F 
ATOM     70  F   UNL     1      10.538   9.566 -12.218  1.00  0.00    -0.200 F 
ATOM     71  C   UNL     1      11.582  10.532 -10.333  1.00  0.00     0.200 A 
ATOM     72  F   UNL     1      12.579  11.510  -8.430  1.00  0.00    -0.200 F 
ATOM     73  F   UNL     1      12.736   9.924 -10.643  1.00  0.00    -0.200 F 
ENDBRANCH  49  63
BRANCH  50  74
ATOM     74  C   UNL     1       0.537  16.076  -6.989  1.00  0.00     0.064 A 
ATOM     75  C   UNL     1      -0.268  16.767  -7.905  1.00  0.00     0.173 A 
ATOM     76  C   UNL     1       0.107  16.022  -5.655  1.00  0.00     0.173 A 
ATOM     77  F   UNL     1       0.110  16.863  -9.188  1.00  0.00    -0.203 F 
ATOM     78  C   UNL     1      -1.443  17.397  -7.500  1.00  0.00     0.198 A 
ATOM     79  C   UNL     1      -1.083  16.627  -5.257  1.00  0.00     0.198 A 
ATOM     80  F   UNL     1       0.837  15.368  -4.739  1.00  0.00    -0.203 F 
ATOM     81  F   UNL     1      -2.170  18.089  -8.389  1.00  0.00    -0.200 F 
ATOM     82  C   UNL     1      -1.853  17.321  -6.178  1.00  0.00     0.200 A 
ATOM     83  F   UNL     1      -1.483  16.539  -3.981  1.00  0.00    -0.200 F 
ATOM     84  F   UNL     1      -2.985  17.923  -5.790  1.00  0.00    -0.200 F 
ENDBRANCH  50  74
BRANCH  62  85
ATOM     85  C   UNL     1       6.628  18.525  -9.345  1.00  0.00     0.064 A 
ATOM     86  C   UNL     1       6.959  19.441  -8.337  1.00  0.00     0.173 A 
ATOM     87  C   UNL     1       6.836  18.910 -10.679  1.00  0.00     0.173 A 
ATOM     88  F   UNL     1       6.764  19.126  -7.047  1.00  0.00    -0.203 F 
ATOM     89  C   UNL     1       7.467  20.698  -8.653  1.00  0.00     0.198 A 
ATOM     90  C   UNL     1       7.371  20.156 -10.990  1.00  0.00     0.198 A 
ATOM     91  F   UNL     1       6.541  18.066 -11.679  1.00  0.00    -0.203 F 
ATOM     92  F   UNL     1       7.744  21.572  -7.676  1.00  0.00    -0.200 F 
ATOM     93  C   UNL     1       7.682  21.051  -9.978  1.00  0.00     0.200 A 
ATOM     94  F   UNL     1       7.591  20.488 -12.270  1.00  0.00    -0.200 F 
ATOM     95  F   UNL     1       8.187  22.255 -10.279  1.00  0.00    -0.200 F 
ENDBRANCH  62  85
ENDBRANCH  36  37
ENDBRANCH  28  31
ENDBRANCH  26  27
ENDBRANCH   1  26
TORSDOF 14
