REMARK SMILES O=CN[C@H](C(=O)NCCCNC(=O)c1ccc(-c2c3nc(c(-c4c(F)c(F)c(F)c(F)c4F)c4ccc([nH]4)c(-c4c(F)c(F)c(F)c(F)c4F)c4nc(c(-c5c(F)c(F)c(F)c(F)c5F)c5ccc2[nH]5)C=C4)C=C3)cc1)[C@@H]1CCO[C@@]2(CCOC2)C1
REMARK SMILES IDX 9 1 8 2 7 3 5 4 6 5 4 7 3 8 1 9 2 10 77 12 78 13 86 14 79 15
REMARK SMILES IDX 81 16 80 17 82 18 85 19 83 20 84 21 10 22 11 23 12 24 13 26
REMARK SMILES IDX 14 27 15 28 76 29 16 30 75 31 17 32 18 33 19 34 69 35 20 36
REMARK SMILES IDX 74 37 68 38 70 39 21 40 73 41 67 42 66 43 22 45 54 46 34 47
REMARK SMILES IDX 53 48 35 49 38 50 52 51 71 52 36 53 37 54 51 56 72 57 39 58
REMARK SMILES IDX 23 59 24 60 32 61 25 62 26 63 30 64 33 65 27 66 28 67 31 68
REMARK SMILES IDX 29 69 55 70 56 71 64 72 57 73 58 74 62 75 65 76 59 77 60 78
REMARK SMILES IDX 63 79 61 80 40 81 41 82 49 83 42 84 43 85 47 86 50 87 44 88
REMARK SMILES IDX 45 89 48 90 46 91
REMARK H PARENT 7 6 3 11 11 25 70 44 38 55
REMARK Flexibility Score: inf
ROOT
ATOM      1  C   UNL     1       2.709   1.640  -2.623  1.00  0.00     0.042 C 
ENDROOT
BRANCH   1   2
ATOM      2  C   UNL     1       3.269   2.389  -1.412  1.00  0.00     0.117 C 
BRANCH   2   3
ATOM      3  N   UNL     1       2.857   1.786  -0.157  1.00  0.00    -0.354 N 
ATOM      4  C   UNL     1       3.431   0.609   0.257  1.00  0.00     0.242 C 
ATOM      5  O   UNL     1       2.898  -0.447  -0.069  1.00  0.00    -0.273 OA
ATOM      6  H   UNL     1       2.167   2.219   0.397  1.00  0.00     0.163 HD
BRANCH   4   7
ATOM      7  C   UNL     1       4.753   0.697   1.052  1.00  0.00     0.174 C 
BRANCH   7   8
ATOM      8  N   UNL     1       5.055   2.082   1.421  1.00  0.00    -0.347 N 
ATOM      9  O   UNL     1       5.979   4.099   0.941  1.00  0.00    -0.279 OA
ATOM     10  C   UNL     1       5.900   2.894   0.730  1.00  0.00     0.337 C 
ATOM     11  H   UNL     1       4.618   2.450   2.223  1.00  0.00     0.164 HD
ENDBRANCH   7   8
BRANCH   7  12
ATOM     12  C   UNL     1       4.863  -0.231   2.300  1.00  0.00     0.026 C 
ATOM     13  C   UNL     1       4.799  -1.734   1.990  1.00  0.00     0.035 C 
ATOM     14  C   UNL     1       3.994   0.111   3.536  1.00  0.00     0.044 C 
ATOM     15  C   UNL     1       3.424  -2.365   2.159  1.00  0.00     0.161 C 
ATOM     16  C   UNL     1       2.642  -0.624   3.634  1.00  0.00     0.094 C 
ATOM     17  O   UNL     1       2.830  -2.020   3.400  1.00  0.00    -0.372 OA
ATOM     18  C   UNL     1       2.042  -0.523   5.037  1.00  0.00     0.066 C 
ATOM     19  C   UNL     1       1.538   0.042   2.792  1.00  0.00     0.195 C 
ATOM     20  C   UNL     1       1.186   0.714   4.977  1.00  0.00     0.163 C 
ATOM     21  O   UNL     1       0.599   0.686   3.676  1.00  0.00    -0.378 OA
ENDBRANCH   7  12
ENDBRANCH   4   7
ENDBRANCH   2   3
ENDBRANCH   1   2
BRANCH   1  22
ATOM     22  C   UNL     1       1.187   1.520  -2.637  1.00  0.00     0.118 C 
BRANCH  22  23
ATOM     23  N   UNL     1       0.528   2.814  -2.733  1.00  0.00    -0.352 N 
ATOM     24  C   UNL     1      -0.114   3.403  -3.794  1.00  0.00     0.251 C 
ATOM     25  H   UNL     1       0.546   3.352  -1.908  1.00  0.00     0.163 HD
ATOM     26  O   UNL     1      -0.408   4.594  -3.745  1.00  0.00    -0.269 OA
BRANCH  24  27
ATOM     27  C   UNL     1      -0.435   2.619  -5.005  1.00  0.00     0.039 A 
ATOM     28  C   UNL     1      -0.218   3.196  -6.260  1.00  0.00     0.014 A 
ATOM     29  C   UNL     1      -0.975   1.335  -4.910  1.00  0.00     0.014 A 
ATOM     30  C   UNL     1      -0.478   2.458  -7.417  1.00  0.00     0.010 A 
ATOM     31  C   UNL     1      -1.152   0.570  -6.060  1.00  0.00     0.010 A 
ATOM     32  C   UNL     1      -0.910   1.125  -7.326  1.00  0.00    -0.014 A 
BRANCH  32  33
ATOM     33  C   UNL     1      -1.116   0.295  -8.540  1.00  0.00     0.031 A 
ATOM     34  C   UNL     1      -2.481  -0.244  -8.868  1.00  0.00     0.074 A 
ATOM     35  C   UNL     1      -0.058  -0.039  -9.306  1.00  0.00     0.049 A 
ATOM     36  N   UNL     1      -2.844  -1.052  -9.833  1.00  0.00    -0.248 NA
ATOM     37  C   UNL     1      -3.580   0.152  -7.974  1.00  0.00     0.031 C 
ATOM     38  C   UNL     1       1.325   0.371  -9.059  1.00  0.00     0.029 A 
ATOM     39  N   UNL     1       0.021  -0.812 -10.437  1.00  0.00    -0.354 N 
ATOM     40  C   UNL     1      -4.201  -1.278  -9.646  1.00  0.00     0.074 A 
ATOM     41  C   UNL     1      -4.588  -0.564  -8.450  1.00  0.00     0.031 C 
ATOM     42  C   UNL     1       2.113  -0.140 -10.019  1.00  0.00     0.029 A 
ATOM     43  C   UNL     1       1.298  -0.943 -10.926  1.00  0.00     0.049 A 
ATOM     44  H   UNL     1      -0.763  -1.234 -10.857  1.00  0.00     0.167 HD
ATOM     45  C   UNL     1      -5.051  -1.999 -10.416  1.00  0.00     0.037 A 
ATOM     46  C   UNL     1       1.761  -1.639 -11.982  1.00  0.00     0.037 A 
ATOM     47  C   UNL     1      -4.670  -2.678 -11.626  1.00  0.00     0.049 A 
ATOM     48  C   UNL     1       0.792  -2.413 -12.833  1.00  0.00     0.074 A 
ATOM     49  C   UNL     1      -5.472  -3.365 -12.520  1.00  0.00     0.029 A 
ATOM     50  N   UNL     1      -3.372  -2.757 -12.110  1.00  0.00    -0.354 N 
ATOM     51  N   UNL     1      -0.503  -2.554 -12.692  1.00  0.00    -0.248 NA
ATOM     52  C   UNL     1       1.350  -3.118 -13.996  1.00  0.00     0.031 C 
ATOM     53  C   UNL     1      -4.654  -3.899 -13.521  1.00  0.00     0.029 A 
ATOM     54  C   UNL     1      -3.348  -3.502 -13.279  1.00  0.00     0.049 A 
ATOM     55  H   UNL     1      -2.585  -2.345 -11.687  1.00  0.00     0.167 HD
ATOM     56  C   UNL     1      -0.920  -3.341 -13.757  1.00  0.00     0.074 A 
ATOM     57  C   UNL     1       0.259  -3.633 -14.546  1.00  0.00     0.031 C 
ATOM     58  C   UNL     1      -2.167  -3.782 -14.054  1.00  0.00     0.037 A 
BRANCH  45  59
ATOM     59  C   UNL     1      -6.484  -2.088  -9.973  1.00  0.00     0.064 A 
ATOM     60  C   UNL     1      -7.340  -0.977 -10.019  1.00  0.00     0.173 A 
ATOM     61  C   UNL     1      -7.016  -3.307  -9.528  1.00  0.00     0.173 A 
ATOM     62  F   UNL     1      -6.879   0.215 -10.427  1.00  0.00    -0.203 F 
ATOM     63  C   UNL     1      -8.666  -1.076  -9.605  1.00  0.00     0.198 A 
ATOM     64  C   UNL     1      -8.351  -3.410  -9.145  1.00  0.00     0.198 A 
ATOM     65  F   UNL     1      -6.244  -4.402  -9.471  1.00  0.00    -0.203 F 
ATOM     66  F   UNL     1      -9.450   0.011  -9.609  1.00  0.00    -0.200 F 
ATOM     67  C   UNL     1      -9.172  -2.293  -9.175  1.00  0.00     0.200 A 
ATOM     68  F   UNL     1      -8.842  -4.591  -8.742  1.00  0.00    -0.200 F 
ATOM     69  F   UNL     1     -10.450  -2.389  -8.783  1.00  0.00    -0.200 F 
ENDBRANCH  45  59
BRANCH  46  70
ATOM     70  C   UNL     1       3.211  -1.613 -12.304  1.00  0.00     0.064 A 
ATOM     71  C   UNL     1       3.685  -0.939 -13.437  1.00  0.00     0.173 A 
ATOM     72  C   UNL     1       4.152  -2.254 -11.484  1.00  0.00     0.173 A 
ATOM     73  F   UNL     1       2.822  -0.329 -14.262  1.00  0.00    -0.203 F 
ATOM     74  C   UNL     1       5.043  -0.921 -13.748  1.00  0.00     0.198 A 
ATOM     75  C   UNL     1       5.512  -2.211 -11.781  1.00  0.00     0.198 A 
ATOM     76  F   UNL     1       3.750  -2.907 -10.383  1.00  0.00    -0.203 F 
ATOM     77  F   UNL     1       5.465  -0.304 -14.861  1.00  0.00    -0.200 F 
ATOM     78  C   UNL     1       5.956  -1.551 -12.916  1.00  0.00     0.200 A 
ATOM     79  F   UNL     1       6.393  -2.808 -10.966  1.00  0.00    -0.200 F 
ATOM     80  F   UNL     1       7.263  -1.527 -13.212  1.00  0.00    -0.200 F 
ENDBRANCH  46  70
BRANCH  58  81
ATOM     81  C   UNL     1      -2.326  -4.605 -15.298  1.00  0.00     0.064 A 
ATOM     82  C   UNL     1      -1.858  -5.925 -15.372  1.00  0.00     0.173 A 
ATOM     83  C   UNL     1      -2.991  -4.080 -16.416  1.00  0.00     0.173 A 
ATOM     84  F   UNL     1      -1.202  -6.468 -14.335  1.00  0.00    -0.203 F 
ATOM     85  C   UNL     1      -2.030  -6.681 -16.529  1.00  0.00     0.198 A 
ATOM     86  C   UNL     1      -3.187  -4.848 -17.560  1.00  0.00     0.198 A 
ATOM     87  F   UNL     1      -3.463  -2.824 -16.394  1.00  0.00    -0.203 F 
ATOM     88  F   UNL     1      -1.534  -7.925 -16.594  1.00  0.00    -0.200 F 
ATOM     89  C   UNL     1      -2.700  -6.145 -17.618  1.00  0.00     0.200 A 
ATOM     90  F   UNL     1      -3.847  -4.333 -18.607  1.00  0.00    -0.200 F 
ATOM     91  F   UNL     1      -2.871  -6.877 -18.728  1.00  0.00    -0.200 F 
ENDBRANCH  58  81
ENDBRANCH  32  33
ENDBRANCH  24  27
ENDBRANCH  22  23
ENDBRANCH   1  22
TORSDOF 12
