REMARK SMILES C[C@](NC(=O)[C@](C)([NH3+])C(F)(F)F)(C(=O)NCCCNC(=O)c1ccc(-c2c3nc(c(-c4c(F)c(F)c(F)c(F)c4F)c4ccc([nH]4)c(-c4c(F)c(F)c(F)c(F)c4F)c4nc(c(-c5c(F)c(F)c(F)c(F)c5F)c5ccc2[nH]5)C=C4)C=C3)cc1)c1ccccc1
REMARK SMILES IDX 16 1 15 2 13 3 14 4 2 6 1 7 85 8 86 9 90 10 87 11 89 12
REMARK SMILES IDX 88 13 3 14 4 15 5 17 6 18 7 19 8 20 9 24 10 25 11 26 12 27
REMARK SMILES IDX 17 28 18 29 19 30 20 31 21 33 22 34 23 35 84 36 24 37 83 38
REMARK SMILES IDX 25 39 26 40 27 41 77 42 28 43 82 44 76 45 78 46 29 47 81 48
REMARK SMILES IDX 75 49 74 50 30 52 62 53 42 54 61 55 43 56 46 57 60 58 79 59
REMARK SMILES IDX 44 60 45 61 59 63 80 64 47 65 31 66 32 67 40 68 33 69 34 70
REMARK SMILES IDX 38 71 41 72 35 73 36 74 39 75 37 76 63 77 64 78 72 79 65 80
REMARK SMILES IDX 66 81 70 82 73 83 67 84 68 85 71 86 69 87 48 88 49 89 57 90
REMARK SMILES IDX 50 91 51 92 55 93 58 94 52 95 53 96 56 97 54 98
REMARK H PARENT 15 5 3 16 8 21 8 22 8 23 19 32 78 51 46 62
REMARK Flexibility Score: inf
ROOT
ATOM      1  C   UNL     1      -3.384  -3.565   2.766  1.00  0.00     0.117 C 
ENDROOT
BRANCH   1   2
ATOM      2  N   UNL     1      -3.502  -3.973   1.375  1.00  0.00    -0.354 N 
ATOM      3  C   UNL     1      -3.772  -3.273   0.231  1.00  0.00     0.250 C 
ATOM      4  O   UNL     1      -3.649  -3.913  -0.817  1.00  0.00    -0.272 OA
ATOM      5  H   UNL     1      -3.360  -4.936   1.228  1.00  0.00     0.163 HD
BRANCH   3   6
ATOM      6  C   UNL     1      -4.085  -1.723   0.262  1.00  0.00     0.142 C 
ATOM      7  C   UNL     1      -2.778  -1.050   0.723  1.00  0.00     0.051 C 
BRANCH   6   8
ATOM      8  C   UNL     1      -4.529  -1.280  -1.143  1.00  0.00    -0.013 A 
ATOM      9  C   UNL     1      -3.621  -0.700  -2.049  1.00  0.00     0.007 A 
ATOM     10  C   UNL     1      -5.870  -1.412  -1.554  1.00  0.00     0.007 A 
ATOM     11  C   UNL     1      -4.058  -0.151  -3.254  1.00  0.00     0.000 A 
ATOM     12  C   UNL     1      -6.306  -0.859  -2.760  1.00  0.00     0.000 A 
ATOM     13  C   UNL     1      -5.405  -0.207  -3.596  1.00  0.00     0.000 A 
ENDBRANCH   6   8
BRANCH   6  14
ATOM     14  N   UNL     1      -5.179  -1.513   1.251  1.00  0.00    -0.332 N 
ATOM     15  C   UNL     1      -5.877  -0.499   1.815  1.00  0.00     0.291 C 
ATOM     16  H   UNL     1      -5.491  -2.378   1.603  1.00  0.00     0.165 HD
ATOM     17  O   UNL     1      -6.724  -0.902   2.628  1.00  0.00    -0.267 OA
BRANCH  15  18
ATOM     18  C   UNL     1      -5.716   1.021   1.567  1.00  0.00     0.267 C 
ATOM     19  C   UNL     1      -7.053   1.704   1.940  1.00  0.00     0.100 C 
BRANCH  18  20
ATOM     20  N   UNL     1      -5.529   1.357   0.129  1.00  0.00    -0.337 N 
ATOM     21  H   UNL     1      -5.429   2.367   0.025  1.00  0.00     0.345 HD
ATOM     22  H   UNL     1      -6.339   1.039  -0.403  1.00  0.00     0.345 HD
ATOM     23  H   UNL     1      -4.689   0.895  -0.222  1.00  0.00     0.345 HD
ENDBRANCH  18  20
BRANCH  18  24
ATOM     24  C   UNL     1      -4.643   1.550   2.543  1.00  0.00     0.453 C 
ATOM     25  F   UNL     1      -4.592   2.906   2.533  1.00  0.00    -0.164 F 
ATOM     26  F   UNL     1      -4.871   1.175   3.821  1.00  0.00    -0.164 F 
ATOM     27  F   UNL     1      -3.403   1.122   2.222  1.00  0.00    -0.164 F 
ENDBRANCH  18  24
ENDBRANCH  15  18
ENDBRANCH   6  14
ENDBRANCH   3   6
ENDBRANCH   1   2
BRANCH   1  28
ATOM     28  C   UNL     1      -4.211  -4.453   3.685  1.00  0.00     0.042 C 
BRANCH  28  29
ATOM     29  C   UNL     1      -3.770  -5.911   3.707  1.00  0.00     0.118 C 
BRANCH  29  30
ATOM     30  N   UNL     1      -2.430  -6.095   4.245  1.00  0.00    -0.352 N 
ATOM     31  C   UNL     1      -2.004  -6.875   5.294  1.00  0.00     0.251 C 
ATOM     32  H   UNL     1      -1.723  -5.584   3.789  1.00  0.00     0.163 HD
ATOM     33  O   UNL     1      -0.854  -6.775   5.703  1.00  0.00    -0.269 OA
BRANCH  31  34
ATOM     34  C   UNL     1      -2.942  -7.813   5.948  1.00  0.00     0.039 A 
ATOM     35  C   UNL     1      -2.952  -7.890   7.343  1.00  0.00     0.014 A 
ATOM     36  C   UNL     1      -3.814  -8.604   5.197  1.00  0.00     0.014 A 
ATOM     37  C   UNL     1      -3.889  -8.703   7.982  1.00  0.00     0.010 A 
ATOM     38  C   UNL     1      -4.807  -9.340   5.836  1.00  0.00     0.010 A 
ATOM     39  C   UNL     1      -4.855  -9.399   7.236  1.00  0.00    -0.014 A 
BRANCH  39  40
ATOM     40  C   UNL     1      -5.928 -10.176   7.909  1.00  0.00     0.031 A 
ATOM     41  C   UNL     1      -6.039 -11.661   7.702  1.00  0.00     0.074 A 
ATOM     42  C   UNL     1      -6.837  -9.530   8.665  1.00  0.00     0.049 A 
ATOM     43  N   UNL     1      -6.922 -12.500   8.183  1.00  0.00    -0.248 NA
ATOM     44  C   UNL     1      -5.043 -12.284   6.816  1.00  0.00     0.031 C 
ATOM     45  C   UNL     1      -6.874  -8.084   8.892  1.00  0.00     0.029 A 
ATOM     46  N   UNL     1      -7.908 -10.004   9.380  1.00  0.00    -0.354 N 
ATOM     47  C   UNL     1      -6.594 -13.741   7.653  1.00  0.00     0.074 A 
ATOM     48  C   UNL     1      -5.471 -13.537   6.764  1.00  0.00     0.031 C 
ATOM     49  C   UNL     1      -7.891  -7.793   9.718  1.00  0.00     0.029 A 
ATOM     50  C   UNL     1      -8.603  -9.023  10.046  1.00  0.00     0.049 A 
ATOM     51  H   UNL     1      -8.155 -10.956   9.413  1.00  0.00     0.167 HD
ATOM     52  C   UNL     1      -7.160 -14.945   7.906  1.00  0.00     0.037 A 
ATOM     53  C   UNL     1      -9.694  -9.106  10.831  1.00  0.00     0.037 A 
ATOM     54  C   UNL     1      -8.268 -15.145   8.804  1.00  0.00     0.049 A 
ATOM     55  C   UNL     1     -10.306 -10.456  11.091  1.00  0.00     0.074 A 
ATOM     56  C   UNL     1      -8.877 -16.332   9.172  1.00  0.00     0.029 A 
ATOM     57  N   UNL     1      -8.938 -14.129   9.470  1.00  0.00    -0.354 N 
ATOM     58  N   UNL     1      -9.937 -11.633  10.647  1.00  0.00    -0.248 NA
ATOM     59  C   UNL     1     -11.482 -10.489  11.971  1.00  0.00     0.031 C 
ATOM     60  C   UNL     1      -9.950 -16.030  10.016  1.00  0.00     0.029 A 
ATOM     61  C   UNL     1      -9.971 -14.661  10.227  1.00  0.00     0.049 A 
ATOM     62  H   UNL     1      -8.713 -13.172   9.414  1.00  0.00     0.167 HD
ATOM     63  C   UNL     1     -10.813 -12.548  11.217  1.00  0.00     0.074 A 
ATOM     64  C   UNL     1     -11.719 -11.790  12.054  1.00  0.00     0.031 C 
ATOM     65  C   UNL     1     -10.864 -13.894  11.059  1.00  0.00     0.037 A 
BRANCH  52  66
ATOM     66  C   UNL     1      -6.588 -16.144   7.202  1.00  0.00     0.064 A 
ATOM     67  C   UNL     1      -5.305 -16.630   7.497  1.00  0.00     0.173 A 
ATOM     68  C   UNL     1      -7.347 -16.839   6.248  1.00  0.00     0.173 A 
ATOM     69  F   UNL     1      -4.532 -15.998   8.393  1.00  0.00    -0.203 F 
ATOM     70  C   UNL     1      -4.791 -17.746   6.842  1.00  0.00     0.198 A 
ATOM     71  C   UNL     1      -6.843 -17.975   5.619  1.00  0.00     0.198 A 
ATOM     72  F   UNL     1      -8.582 -16.422   5.930  1.00  0.00    -0.203 F 
ATOM     73  F   UNL     1      -3.543 -18.159   7.102  1.00  0.00    -0.200 F 
ATOM     74  C   UNL     1      -5.564 -18.423   5.910  1.00  0.00     0.200 A 
ATOM     75  F   UNL     1      -7.597 -18.637   4.730  1.00  0.00    -0.200 F 
ATOM     76  F   UNL     1      -5.072 -19.503   5.287  1.00  0.00    -0.200 F 
ENDBRANCH  52  66
BRANCH  53  77
ATOM     77  C   UNL     1     -10.261  -7.879  11.450  1.00  0.00     0.064 A 
ATOM     78  C   UNL     1     -10.203  -7.677  12.836  1.00  0.00     0.173 A 
ATOM     79  C   UNL     1     -10.880  -6.888  10.674  1.00  0.00     0.173 A 
ATOM     80  F   UNL     1      -9.639  -8.604  13.625  1.00  0.00    -0.203 F 
ATOM     81  C   UNL     1     -10.764  -6.546  13.425  1.00  0.00     0.198 A 
ATOM     82  C   UNL     1     -11.412  -5.742  11.259  1.00  0.00     0.198 A 
ATOM     83  F   UNL     1     -10.957  -7.029   9.342  1.00  0.00    -0.203 F 
ATOM     84  F   UNL     1     -10.742  -6.405  14.757  1.00  0.00    -0.200 F 
ATOM     85  C   UNL     1     -11.363  -5.576  12.635  1.00  0.00     0.200 A 
ATOM     86  F   UNL     1     -11.975  -4.799  10.491  1.00  0.00    -0.200 F 
ATOM     87  F   UNL     1     -11.900  -4.486  13.201  1.00  0.00    -0.200 F 
ENDBRANCH  53  77
BRANCH  65  88
ATOM     88  C   UNL     1     -11.910 -14.637  11.841  1.00  0.00     0.064 A 
ATOM     89  C   UNL     1     -13.277 -14.520  11.548  1.00  0.00     0.173 A 
ATOM     90  C   UNL     1     -11.536 -15.495  12.888  1.00  0.00     0.173 A 
ATOM     91  F   UNL     1     -13.689 -13.703  10.566  1.00  0.00    -0.203 F 
ATOM     92  C   UNL     1     -14.231 -15.204  12.297  1.00  0.00     0.198 A 
ATOM     93  C   UNL     1     -12.490 -16.205  13.610  1.00  0.00     0.198 A 
ATOM     94  F   UNL     1     -10.242 -15.651  13.205  1.00  0.00    -0.203 F 
ATOM     95  F   UNL     1     -15.534 -15.027  12.039  1.00  0.00    -0.200 F 
ATOM     96  C   UNL     1     -13.837 -16.050  13.322  1.00  0.00     0.200 A 
ATOM     97  F   UNL     1     -12.106 -17.035  14.589  1.00  0.00    -0.200 F 
ATOM     98  F   UNL     1     -14.757 -16.709  14.040  1.00  0.00    -0.200 F 
ENDBRANCH  65  88
ENDBRANCH  39  40
ENDBRANCH  31  34
ENDBRANCH  29  30
ENDBRANCH  28  29
ENDBRANCH   1  28
TORSDOF 15
