REMARK SMILES Cc1ccc(Cl)cc1NC(=O)N[C@@](C)(C(=O)NCCCNC(=O)c1ccc(-c2c3nc(c(-c4c(F)c(F)c(F)c(F)c4F)c4ccc([nH]4)c(-c4c(F)c(F)c(F)c(F)c4F)c4nc(c(-c5c(F)c(F)c(F)c(F)c5F)c5ccc2[nH]5)C=C4)C=C3)cc1)C(F)(F)F
REMARK SMILES IDX 19 1 18 2 17 3 15 4 16 5 13 7 14 8 12 9 9 10 10 11 11 13
REMARK SMILES IDX 8 15 1 16 2 17 3 18 4 19 7 20 5 21 6 22 87 23 88 24 89 25
REMARK SMILES IDX 90 26 20 27 21 28 22 29 23 31 24 32 25 33 86 34 26 35 85 36
REMARK SMILES IDX 27 37 28 38 29 39 79 40 30 41 84 42 78 43 80 44 31 45 83 46
REMARK SMILES IDX 77 47 76 48 32 50 64 51 44 52 63 53 45 54 48 55 62 56 81 57
REMARK SMILES IDX 46 58 47 59 61 61 82 62 49 63 33 64 34 65 42 66 35 67 36 68
REMARK SMILES IDX 40 69 43 70 37 71 38 72 41 73 39 74 65 75 66 76 74 77 67 78
REMARK SMILES IDX 68 79 72 80 75 81 69 82 70 83 73 84 71 85 50 86 51 87 59 88
REMARK SMILES IDX 52 89 53 90 57 91 60 92 54 93 55 94 58 95 56 96
REMARK H PARENT 17 6 9 12 12 14 21 30 80 49 48 60
REMARK Flexibility Score: inf
ROOT
ATOM      1  C   UNL     1      -3.005   6.219  -0.769  1.00  0.00     0.042 C 
ENDROOT
BRANCH   1   2
ATOM      2  C   UNL     1      -3.209   4.893  -0.044  1.00  0.00     0.117 C 
BRANCH   2   3
ATOM      3  N   UNL     1      -3.078   3.766  -0.950  1.00  0.00    -0.354 N 
ATOM      4  C   UNL     1      -1.835   3.375  -1.385  1.00  0.00     0.255 C 
ATOM      5  O   UNL     1      -1.382   3.929  -2.386  1.00  0.00    -0.272 OA
ATOM      6  H   UNL     1      -3.880   3.282  -1.252  1.00  0.00     0.163 HD
BRANCH   4   7
ATOM      7  C   UNL     1      -1.027   2.384  -0.505  1.00  0.00     0.213 C 
ATOM      8  C   UNL     1      -1.930   1.771   0.582  1.00  0.00     0.056 C 
BRANCH   7   9
ATOM      9  N   UNL     1       0.059   3.212   0.113  1.00  0.00    -0.316 N 
ATOM     10  N   UNL     1       1.903   1.927   0.946  1.00  0.00    -0.308 N 
ATOM     11  C   UNL     1       1.238   3.067   0.719  1.00  0.00     0.320 C 
ATOM     12  H   UNL     1       2.855   2.089   1.138  1.00  0.00     0.171 HD
ATOM     13  O   UNL     1       1.827   4.120   0.990  1.00  0.00    -0.248 OA
ATOM     14  H   UNL     1      -0.172   4.168   0.053  1.00  0.00     0.166 HD
BRANCH  10  15
ATOM     15  C   UNL     1       1.587   0.567   0.981  1.00  0.00     0.047 A 
ATOM     16  C   UNL     1       3.837  -0.007  -0.112  1.00  0.00     0.046 C 
ATOM     17  C   UNL     1       2.469  -0.366   0.400  1.00  0.00    -0.027 A 
ATOM     18  C   UNL     1       2.071  -1.713   0.305  1.00  0.00     0.007 A 
ATOM     19  C   UNL     1       0.849  -2.136   0.826  1.00  0.00     0.021 A 
ATOM     20  C   UNL     1       0.447   0.105   1.635  1.00  0.00     0.047 A 
ATOM     21  C   UNL     1       0.064  -1.233   1.529  1.00  0.00     0.043 A 
ATOM     22  Cl  UNL     1      -1.413  -1.758   2.241  1.00  0.00    -0.084 Cl
ENDBRANCH  10  15
ENDBRANCH   7   9
BRANCH   7  23
ATOM     23  C   UNL     1      -0.622   1.363  -1.596  1.00  0.00     0.420 C 
ATOM     24  F   UNL     1       0.289   1.849  -2.468  1.00  0.00    -0.168 F 
ATOM     25  F   UNL     1      -0.108   0.224  -1.096  1.00  0.00    -0.168 F 
ATOM     26  F   UNL     1      -1.709   0.971  -2.316  1.00  0.00    -0.168 F 
ENDBRANCH   7  23
ENDBRANCH   4   7
ENDBRANCH   2   3
ENDBRANCH   1   2
BRANCH   1  27
ATOM     27  C   UNL     1      -3.837   6.356  -2.039  1.00  0.00     0.118 C 
BRANCH  27  28
ATOM     28  N   UNL     1      -5.271   6.282  -1.785  1.00  0.00    -0.352 N 
ATOM     29  C   UNL     1      -6.234   7.221  -2.063  1.00  0.00     0.251 C 
ATOM     30  H   UNL     1      -5.590   5.453  -1.360  1.00  0.00     0.163 HD
ATOM     31  O   UNL     1      -7.382   7.094  -1.651  1.00  0.00    -0.269 OA
BRANCH  29  32
ATOM     32  C   UNL     1      -5.846   8.406  -2.847  1.00  0.00     0.039 A 
ATOM     33  C   UNL     1      -6.081   9.679  -2.325  1.00  0.00     0.014 A 
ATOM     34  C   UNL     1      -5.165   8.237  -4.054  1.00  0.00     0.014 A 
ATOM     35  C   UNL     1      -5.563  10.793  -2.986  1.00  0.00     0.010 A 
ATOM     36  C   UNL     1      -4.576   9.336  -4.659  1.00  0.00     0.010 A 
ATOM     37  C   UNL     1      -4.775  10.625  -4.136  1.00  0.00    -0.014 A 
BRANCH  37  38
ATOM     38  C   UNL     1      -4.172  11.773  -4.855  1.00  0.00     0.031 A 
ATOM     39  C   UNL     1      -4.573  12.022  -6.282  1.00  0.00     0.074 A 
ATOM     40  C   UNL     1      -3.200  12.505  -4.279  1.00  0.00     0.049 A 
ATOM     41  N   UNL     1      -4.035  12.814  -7.171  1.00  0.00    -0.248 NA
ATOM     42  C   UNL     1      -5.709  11.232  -6.789  1.00  0.00     0.031 C 
ATOM     43  C   UNL     1      -2.701  12.334  -2.914  1.00  0.00     0.029 A 
ATOM     44  N   UNL     1      -2.436  13.527  -4.786  1.00  0.00    -0.354 N 
ATOM     45  C   UNL     1      -4.733  12.583  -8.348  1.00  0.00     0.074 A 
ATOM     46  C   UNL     1      -5.705  11.548  -8.074  1.00  0.00     0.031 C 
ATOM     47  C   UNL     1      -1.721  13.225  -2.689  1.00  0.00     0.029 A 
ATOM     48  C   UNL     1      -1.490  13.997  -3.907  1.00  0.00     0.049 A 
ATOM     49  H   UNL     1      -2.555  13.889  -5.694  1.00  0.00     0.167 HD
ATOM     50  C   UNL     1      -4.587  13.194  -9.546  1.00  0.00     0.037 A 
ATOM     51  C   UNL     1      -0.534  14.930  -4.077  1.00  0.00     0.037 A 
ATOM     52  C   UNL     1      -3.659  14.264  -9.791  1.00  0.00     0.049 A 
ATOM     53  C   UNL     1      -0.415  15.620  -5.411  1.00  0.00     0.074 A 
ATOM     54  C   UNL     1      -3.475  14.999 -10.948  1.00  0.00     0.029 A 
ATOM     55  N   UNL     1      -2.765  14.758  -8.852  1.00  0.00    -0.354 N 
ATOM     56  N   UNL     1      -1.109  15.427  -6.506  1.00  0.00    -0.248 NA
ATOM     57  C   UNL     1       0.618  16.659  -5.532  1.00  0.00     0.031 C 
ATOM     58  C   UNL     1      -2.450  15.921 -10.719  1.00  0.00     0.029 A 
ATOM     59  C   UNL     1      -2.026  15.789  -9.406  1.00  0.00     0.049 A 
ATOM     60  H   UNL     1      -2.672  14.426  -7.930  1.00  0.00     0.167 HD
ATOM     61  C   UNL     1      -0.627  16.344  -7.431  1.00  0.00     0.074 A 
ATOM     62  C   UNL     1       0.420  17.094  -6.769  1.00  0.00     0.031 C 
ATOM     63  C   UNL     1      -1.018  16.547  -8.712  1.00  0.00     0.037 A 
BRANCH  50  64
ATOM     64  C   UNL     1      -5.455  12.729 -10.676  1.00  0.00     0.064 A 
ATOM     65  C   UNL     1      -6.836  12.976 -10.694  1.00  0.00     0.173 A 
ATOM     66  C   UNL     1      -4.895  12.053 -11.771  1.00  0.00     0.173 A 
ATOM     67  F   UNL     1      -7.423  13.606  -9.665  1.00  0.00    -0.203 F 
ATOM     68  C   UNL     1      -7.629  12.538 -11.752  1.00  0.00     0.198 A 
ATOM     69  C   UNL     1      -5.686  11.644 -12.842  1.00  0.00     0.198 A 
ATOM     70  F   UNL     1      -3.579  11.794 -11.806  1.00  0.00    -0.203 F 
ATOM     71  F   UNL     1      -8.953  12.741 -11.722  1.00  0.00    -0.200 F 
ATOM     72  C   UNL     1      -7.052  11.880 -12.828  1.00  0.00     0.200 A 
ATOM     73  F   UNL     1      -5.126  11.020 -13.887  1.00  0.00    -0.200 F 
ATOM     74  F   UNL     1      -7.816  11.467 -13.849  1.00  0.00    -0.200 F 
ENDBRANCH  50  64
BRANCH  51  75
ATOM     75  C   UNL     1       0.372  15.284  -2.954  1.00  0.00     0.064 A 
ATOM     76  C   UNL     1       0.274  16.531  -2.320  1.00  0.00     0.173 A 
ATOM     77  C   UNL     1       1.357  14.397  -2.497  1.00  0.00     0.173 A 
ATOM     78  F   UNL     1      -0.640  17.422  -2.734  1.00  0.00    -0.203 F 
ATOM     79  C   UNL     1       1.141  16.887  -1.289  1.00  0.00     0.198 A 
ATOM     80  C   UNL     1       2.207  14.743  -1.448  1.00  0.00     0.198 A 
ATOM     81  F   UNL     1       1.490  13.190  -3.065  1.00  0.00    -0.203 F 
ATOM     82  F   UNL     1       1.056  18.103  -0.734  1.00  0.00    -0.200 F 
ATOM     83  C   UNL     1       2.104  15.991  -0.850  1.00  0.00     0.200 A 
ATOM     84  F   UNL     1       3.128  13.870  -1.018  1.00  0.00    -0.200 F 
ATOM     85  F   UNL     1       2.938  16.333   0.141  1.00  0.00    -0.200 F 
ENDBRANCH  51  75
BRANCH  63  86
ATOM     86  C   UNL     1      -0.368  17.667  -9.467  1.00  0.00     0.064 A 
ATOM     87  C   UNL     1       0.934  17.558  -9.972  1.00  0.00     0.173 A 
ATOM     88  C   UNL     1      -1.098  18.828  -9.763  1.00  0.00     0.173 A 
ATOM     89  F   UNL     1       1.674  16.471  -9.703  1.00  0.00    -0.203 F 
ATOM     90  C   UNL     1       1.488  18.578 -10.740  1.00  0.00     0.198 A 
ATOM     91  C   UNL     1      -0.551  19.834 -10.553  1.00  0.00     0.198 A 
ATOM     92  F   UNL     1      -2.352  18.974  -9.308  1.00  0.00    -0.203 F 
ATOM     93  F   UNL     1       2.744  18.467 -11.193  1.00  0.00    -0.200 F 
ATOM     94  C   UNL     1       0.742  19.709 -11.039  1.00  0.00     0.200 A 
ATOM     95  F   UNL     1      -1.278  20.919 -10.852  1.00  0.00    -0.200 F 
ATOM     96  F   UNL     1       1.270  20.680 -11.796  1.00  0.00    -0.200 F 
ENDBRANCH  63  86
ENDBRANCH  37  38
ENDBRANCH  29  32
ENDBRANCH  27  28
ENDBRANCH   1  27
TORSDOF 13
