REMARK SMILES Cc1ccc(/C=C2/C[N@@H+](C)Cc3c2nc2ccccc2c3C(=O)NCCCNC(=O)c2ccc(-c3c4nc(c(-c5c(F)c(F)c(F)c(F)c5F)c5ccc([nH]5)c(-c5c(F)c(F)c(F)c(F)c5F)c5nc(c(-c6c(F)c(F)c(F)c(F)c6F)c6ccc3[nH]6)C=C5)C=C4)cc2)cc1
REMARK SMILES IDX 26 1 25 2 24 3 22 4 23 5 21 7 6 8 7 9 8 10 13 11 9 12 12 13
REMARK SMILES IDX 14 14 10 15 11 16 15 18 20 19 16 20 19 21 17 22 18 23 5 24
REMARK SMILES IDX 1 25 2 26 3 27 95 28 4 29 94 30 27 31 28 32 29 33 30 35
REMARK SMILES IDX 31 36 32 37 93 38 33 39 92 40 34 41 35 42 36 43 86 44 37 45
REMARK SMILES IDX 91 46 85 47 87 48 38 49 90 50 84 51 83 52 39 54 71 55 51 56
REMARK SMILES IDX 70 57 52 58 55 59 69 60 88 61 53 62 54 63 68 65 89 66 56 67
REMARK SMILES IDX 40 68 41 69 49 70 42 71 43 72 47 73 50 74 44 75 45 76 48 77
REMARK SMILES IDX 46 78 72 79 73 80 81 81 74 82 75 83 79 84 82 85 76 86 77 87
REMARK SMILES IDX 80 88 78 89 57 90 58 91 66 92 59 93 60 94 64 95 67 96 61 97
REMARK SMILES IDX 62 98 65 99 63 100
REMARK H PARENT 24 6 9 17 28 34 87 53 55 64
REMARK Flexibility Score: inf
ROOT
ATOM      1  C   UNL     1      -7.215  -5.673  -1.078  1.00  0.00     0.042 C 
ENDROOT
BRANCH   1   2
ATOM      2  C   UNL     1      -6.153  -5.321  -0.086  1.00  0.00     0.118 C 
BRANCH   2   3
ATOM      3  N   UNL     1      -5.157  -6.251   0.358  1.00  0.00    -0.352 N 
ATOM      4  C   UNL     1      -3.922  -5.865   0.868  1.00  0.00     0.252 C 
ATOM      5  O   UNL     1      -3.344  -6.626   1.644  1.00  0.00    -0.269 OA
ATOM      6  H   UNL     1      -5.357  -7.213   0.299  1.00  0.00     0.163 HD
BRANCH   4   7
ATOM      7  C   UNL     1      -3.243  -4.609   0.390  1.00  0.00     0.060 A 
ATOM      8  C   UNL     1      -2.866   0.208   0.175  1.00  0.00     0.020 C 
ATOM      9  C   UNL     1      -3.619  -0.901   0.022  1.00  0.00     0.033 C 
ATOM     10  C   UNL     1      -5.108  -0.856   0.144  1.00  0.00     0.301 C 
ATOM     11  C   UNL     1      -3.132  -2.284  -0.118  1.00  0.00     0.082 A 
ATOM     12  N   UNL     1      -5.439  -1.525   1.408  1.00  0.00    -0.330 N 
ATOM     13  C   UNL     1      -3.787  -3.306   0.554  1.00  0.00     0.046 A 
ATOM     14  N   UNL     1      -2.044  -2.466  -0.892  1.00  0.00    -0.247 NA
ATOM     15  C   UNL     1      -6.888  -1.430   1.642  1.00  0.00     0.333 C 
ATOM     16  C   UNL     1      -5.011  -2.941   1.378  1.00  0.00     0.302 C 
ATOM     17  H   UNL     1      -4.943  -1.064   2.170  1.00  0.00     0.348 HD
ATOM     18  C   UNL     1      -1.429  -3.646  -0.885  1.00  0.00     0.072 A 
ATOM     19  C   UNL     1      -1.969  -4.784  -0.262  1.00  0.00     0.013 A 
ATOM     20  C   UNL     1      -0.180  -3.697  -1.490  1.00  0.00     0.029 A 
ATOM     21  C   UNL     1      -1.183  -5.974  -0.317  1.00  0.00     0.011 A 
ATOM     22  C   UNL     1       0.598  -4.851  -1.482  1.00  0.00     0.002 A 
ATOM     23  C   UNL     1       0.092  -5.999  -0.896  1.00  0.00     0.001 A 
BRANCH   8  24
ATOM     24  C   UNL     1      -1.402   0.293   0.268  1.00  0.00    -0.025 A 
ATOM     25  C   UNL     1       2.895   0.415   0.095  1.00  0.00     0.044 C 
ATOM     26  C   UNL     1       1.406   0.430   0.248  1.00  0.00    -0.051 A 
ATOM     27  C   UNL     1       0.759  -0.629   0.885  1.00  0.00     0.004 A 
ATOM     28  C   UNL     1       0.640   1.456  -0.319  1.00  0.00     0.004 A 
ATOM     29  C   UNL     1      -0.632  -0.667   0.936  1.00  0.00     0.008 A 
ATOM     30  C   UNL     1      -0.755   1.387  -0.309  1.00  0.00     0.008 A 
ENDBRANCH   8  24
ENDBRANCH   4   7
ENDBRANCH   2   3
ENDBRANCH   1   2
BRANCH   1  31
ATOM     31  C   UNL     1      -8.554  -5.995  -0.442  1.00  0.00     0.118 C 
BRANCH  31  32
ATOM     32  N   UNL     1      -9.350  -4.880   0.104  1.00  0.00    -0.352 N 
ATOM     33  C   UNL     1     -10.722  -4.857   0.381  1.00  0.00     0.251 C 
ATOM     34  H   UNL     1      -8.856  -4.050   0.297  1.00  0.00     0.163 HD
ATOM     35  O   UNL     1     -11.241  -3.905   0.950  1.00  0.00    -0.269 OA
BRANCH  33  36
ATOM     36  C   UNL     1     -11.524  -6.075   0.082  1.00  0.00     0.039 A 
ATOM     37  C   UNL     1     -11.908  -6.835   1.190  1.00  0.00     0.014 A 
ATOM     38  C   UNL     1     -11.303  -6.680  -1.143  1.00  0.00     0.014 A 
ATOM     39  C   UNL     1     -11.637  -8.199   1.186  1.00  0.00     0.010 A 
ATOM     40  C   UNL     1     -10.884  -7.998  -1.098  1.00  0.00     0.010 A 
ATOM     41  C   UNL     1     -10.953  -8.728   0.098  1.00  0.00    -0.014 A 
BRANCH  41  42
ATOM     42  C   UNL     1     -10.236  -9.999   0.137  1.00  0.00     0.031 A 
ATOM     43  C   UNL     1     -10.760 -11.108  -0.683  1.00  0.00     0.074 A 
ATOM     44  C   UNL     1      -9.117 -10.201   0.876  1.00  0.00     0.049 A 
ATOM     45  N   UNL     1     -10.596 -12.353  -0.398  1.00  0.00    -0.248 NA
ATOM     46  C   UNL     1     -11.580 -10.895  -1.867  1.00  0.00     0.031 C 
ATOM     47  C   UNL     1      -8.223 -11.360   0.813  1.00  0.00     0.029 A 
ATOM     48  N   UNL     1      -8.643  -9.473   1.980  1.00  0.00    -0.354 N 
ATOM     49  C   UNL     1     -11.048 -13.091  -1.464  1.00  0.00     0.074 A 
ATOM     50  C   UNL     1     -11.711 -12.140  -2.321  1.00  0.00     0.031 C 
ATOM     51  C   UNL     1      -7.534 -11.451   1.960  1.00  0.00     0.029 A 
ATOM     52  C   UNL     1      -8.027 -10.419   2.846  1.00  0.00     0.049 A 
ATOM     53  H   UNL     1      -8.722  -8.503   2.126  1.00  0.00     0.167 HD
ATOM     54  C   UNL     1     -10.701 -14.406  -1.548  1.00  0.00     0.037 A 
ATOM     55  C   UNL     1      -8.452 -10.602   4.131  1.00  0.00     0.037 A 
ATOM     56  C   UNL     1      -9.926 -14.823  -0.374  1.00  0.00     0.049 A 
ATOM     57  C   UNL     1      -9.021 -11.980   4.399  1.00  0.00     0.074 A 
ATOM     58  C   UNL     1      -8.577 -15.017  -0.123  1.00  0.00     0.029 A 
ATOM     59  N   UNL     1     -10.536 -14.799   0.869  1.00  0.00    -0.354 N 
ATOM     60  N   UNL     1      -9.050 -12.950   3.528  1.00  0.00    -0.248 NA
ATOM     61  C   UNL     1      -9.724 -12.321   5.634  1.00  0.00     0.031 C 
ATOM     62  C   UNL     1      -8.397 -15.153   1.284  1.00  0.00     0.029 A 
ATOM     63  C   UNL     1      -9.636 -15.054   1.888  1.00  0.00     0.049 A 
ATOM     64  H   UNL     1     -11.494 -14.621   1.011  1.00  0.00     0.167 HD
ATOM     65  C   UNL     1      -9.827 -13.975   4.010  1.00  0.00     0.074 A 
ATOM     66  C   UNL     1     -10.233 -13.525   5.329  1.00  0.00     0.031 C 
ATOM     67  C   UNL     1     -10.122 -15.083   3.261  1.00  0.00     0.037 A 
BRANCH  54  68
ATOM     68  C   UNL     1     -10.843 -15.240  -2.804  1.00  0.00     0.064 A 
ATOM     69  C   UNL     1     -10.011 -16.359  -3.016  1.00  0.00     0.173 A 
ATOM     70  C   UNL     1     -11.730 -14.969  -3.864  1.00  0.00     0.173 A 
ATOM     71  F   UNL     1      -9.208 -16.827  -2.051  1.00  0.00    -0.203 F 
ATOM     72  C   UNL     1      -9.972 -17.048  -4.232  1.00  0.00     0.198 A 
ATOM     73  C   UNL     1     -11.648 -15.612  -5.103  1.00  0.00     0.198 A 
ATOM     74  F   UNL     1     -12.763 -14.132  -3.720  1.00  0.00    -0.203 F 
ATOM     75  F   UNL     1      -9.154 -18.100  -4.372  1.00  0.00    -0.200 F 
ATOM     76  C   UNL     1     -10.758 -16.645  -5.291  1.00  0.00     0.200 A 
ATOM     77  F   UNL     1     -12.448 -15.224  -6.106  1.00  0.00    -0.200 F 
ATOM     78  F   UNL     1     -10.685 -17.272  -6.472  1.00  0.00    -0.200 F 
ENDBRANCH  54  68
BRANCH  55  79
ATOM     79  C   UNL     1      -8.940  -9.326   4.724  1.00  0.00     0.064 A 
ATOM     80  C   UNL     1      -8.009  -8.269   4.791  1.00  0.00     0.173 A 
ATOM     81  C   UNL     1     -10.298  -9.000   4.679  1.00  0.00     0.173 A 
ATOM     82  F   UNL     1      -6.697  -8.537   4.883  1.00  0.00    -0.203 F 
ATOM     83  C   UNL     1      -8.406  -6.959   4.546  1.00  0.00     0.198 A 
ATOM     84  C   UNL     1     -10.694  -7.678   4.494  1.00  0.00     0.198 A 
ATOM     85  F   UNL     1     -11.230  -9.963   4.641  1.00  0.00    -0.203 F 
ATOM     86  F   UNL     1      -7.484  -6.002   4.373  1.00  0.00    -0.200 F 
ATOM     87  C   UNL     1      -9.746  -6.674   4.349  1.00  0.00     0.200 A 
ATOM     88  F   UNL     1     -11.994  -7.397   4.322  1.00  0.00    -0.200 F 
ATOM     89  F   UNL     1     -10.118  -5.449   3.954  1.00  0.00    -0.200 F 
ENDBRANCH  55  79
BRANCH  67  90
ATOM     90  C   UNL     1     -10.944 -16.265   3.739  1.00  0.00     0.064 A 
ATOM     91  C   UNL     1     -10.982 -16.692   5.077  1.00  0.00     0.173 A 
ATOM     92  C   UNL     1     -11.668 -17.083   2.836  1.00  0.00     0.173 A 
ATOM     93  F   UNL     1     -10.203 -16.125   6.009  1.00  0.00    -0.203 F 
ATOM     94  C   UNL     1     -11.788 -17.756   5.497  1.00  0.00     0.198 A 
ATOM     95  C   UNL     1     -12.428 -18.177   3.248  1.00  0.00     0.198 A 
ATOM     96  F   UNL     1     -11.675 -16.857   1.516  1.00  0.00    -0.203 F 
ATOM     97  F   UNL     1     -11.847 -18.069   6.799  1.00  0.00    -0.200 F 
ATOM     98  C   UNL     1     -12.515 -18.495   4.584  1.00  0.00     0.200 A 
ATOM     99  F   UNL     1     -13.079 -18.912   2.335  1.00  0.00    -0.200 F 
ATOM    100  F   UNL     1     -13.279 -19.518   4.986  1.00  0.00    -0.200 F 
ENDBRANCH  67  90
ENDBRANCH  41  42
ENDBRANCH  33  36
ENDBRANCH  31  32
ENDBRANCH   1  31
TORSDOF 11
