REMARK SMILES CC(C)[C@H](C(=O)NCCCNC(=O)c1ccc(-c2c3nc(c(-c4c(F)c(F)c(F)c(F)c4F)c4ccc([nH]4)c(-c4c(F)c(F)c(F)c(F)c4F)c4nc(c(-c5c(F)c(F)c(F)c(F)c5F)c5ccc2[nH]5)C=C4)C=C3)cc1)[C@H](C)[C@@H](C)O
REMARK SMILES IDX 8 1 7 2 5 3 6 4 4 6 2 7 1 8 3 9 77 10 78 11 79 12 80 13
REMARK SMILES IDX 81 14 9 16 10 17 11 18 12 19 13 21 14 22 15 23 76 24 16 25
REMARK SMILES IDX 75 26 17 27 18 28 19 29 69 30 20 31 74 32 68 33 70 34 21 35
REMARK SMILES IDX 73 36 67 37 66 38 22 40 54 41 34 42 53 43 35 44 38 45 52 46
REMARK SMILES IDX 71 47 36 48 37 49 51 51 72 52 39 53 23 54 24 55 32 56 25 57
REMARK SMILES IDX 26 58 30 59 33 60 27 61 28 62 31 63 29 64 55 65 56 66 64 67
REMARK SMILES IDX 57 68 58 69 62 70 65 71 59 72 60 73 63 74 61 75 40 76 41 77
REMARK SMILES IDX 49 78 42 79 43 80 47 81 50 82 44 83 45 84 48 85 46 86
REMARK H PARENT 7 5 81 15 11 20 70 39 38 50
REMARK Flexibility Score: inf
ROOT
ATOM      1  C   UNL     1       0.767  -3.398   5.377  1.00  0.00     0.117 C 
ENDROOT
BRANCH   1   2
ATOM      2  N   UNL     1      -0.638  -3.202   5.058  1.00  0.00    -0.356 N 
ATOM      3  C   UNL     1      -1.359  -2.358   4.289  1.00  0.00     0.223 C 
ATOM      4  O   UNL     1      -2.561  -2.323   4.612  1.00  0.00    -0.275 OA
ATOM      5  H   UNL     1      -1.213  -3.852   5.523  1.00  0.00     0.163 HD
BRANCH   3   6
ATOM      6  C   UNL     1      -0.909  -1.502   3.074  1.00  0.00     0.086 C 
BRANCH   6   7
ATOM      7  C   UNL     1       0.595  -1.140   2.913  1.00  0.00    -0.005 C 
ATOM      8  C   UNL     1       1.206  -0.463   4.146  1.00  0.00     0.008 C 
ATOM      9  C   UNL     1       1.438  -2.269   2.300  1.00  0.00     0.008 C 
ENDBRANCH   6   7
BRANCH   6  10
ATOM     10  C   UNL     1      -1.562  -1.997   1.704  1.00  0.00     0.027 C 
ATOM     11  C   UNL     1      -1.295  -0.987   0.566  1.00  0.00     0.011 C 
BRANCH  10  12
ATOM     12  C   UNL     1      -3.099  -2.272   1.783  1.00  0.00     0.115 C 
ATOM     13  C   UNL     1      -3.797  -2.436   0.432  1.00  0.00     0.038 C 
BRANCH  12  14
ATOM     14  O   UNL     1      -3.336  -3.499   2.473  1.00  0.00    -0.393 OA
ATOM     15  H   UNL     1      -2.952  -4.233   1.969  1.00  0.00     0.210 HD
ENDBRANCH  12  14
ENDBRANCH  10  12
ENDBRANCH   6  10
ENDBRANCH   3   6
ENDBRANCH   1   2
BRANCH   1  16
ATOM     16  C   UNL     1       1.145  -2.718   6.694  1.00  0.00     0.042 C 
BRANCH  16  17
ATOM     17  C   UNL     1       0.826  -3.559   7.923  1.00  0.00     0.118 C 
BRANCH  17  18
ATOM     18  N   UNL     1       1.784  -4.642   8.104  1.00  0.00    -0.352 N 
ATOM     19  C   UNL     1       2.842  -4.767   8.969  1.00  0.00     0.251 C 
ATOM     20  H   UNL     1       1.650  -5.412   7.506  1.00  0.00     0.163 HD
ATOM     21  O   UNL     1       3.676  -5.652   8.770  1.00  0.00    -0.269 OA
BRANCH  19  22
ATOM     22  C   UNL     1       3.010  -3.863  10.131  1.00  0.00     0.039 A 
ATOM     23  C   UNL     1       4.304  -3.497  10.522  1.00  0.00     0.014 A 
ATOM     24  C   UNL     1       1.919  -3.440  10.891  1.00  0.00     0.014 A 
ATOM     25  C   UNL     1       4.495  -2.675  11.638  1.00  0.00     0.010 A 
ATOM     26  C   UNL     1       2.102  -2.550  11.948  1.00  0.00     0.010 A 
ATOM     27  C   UNL     1       3.393  -2.173  12.347  1.00  0.00    -0.014 A 
BRANCH  27  28
ATOM     28  C   UNL     1       3.560  -1.293  13.533  1.00  0.00     0.031 A 
ATOM     29  C   UNL     1       3.068  -1.751  14.881  1.00  0.00     0.074 A 
ATOM     30  C   UNL     1       4.078  -0.058  13.389  1.00  0.00     0.049 A 
ATOM     31  N   UNL     1       2.996  -1.089  16.009  1.00  0.00    -0.248 NA
ATOM     32  C   UNL     1       2.553  -3.128  14.964  1.00  0.00     0.031 C 
ATOM     33  C   UNL     1       4.547   0.523  12.130  1.00  0.00     0.029 A 
ATOM     34  N   UNL     1       4.278   0.942  14.310  1.00  0.00    -0.354 N 
ATOM     35  C   UNL     1       2.396  -1.952  16.917  1.00  0.00     0.074 A 
ATOM     36  C   UNL     1       2.088  -3.172  16.203  1.00  0.00     0.031 C 
ATOM     37  C   UNL     1       4.990   1.770  12.359  1.00  0.00     0.029 A 
ATOM     38  C   UNL     1       4.805   2.090  13.771  1.00  0.00     0.049 A 
ATOM     39  H   UNL     1       4.064   0.844  15.266  1.00  0.00     0.167 HD
ATOM     40  C   UNL     1       2.143  -1.753  18.233  1.00  0.00     0.037 A 
ATOM     41  C   UNL     1       5.094   3.272  14.349  1.00  0.00     0.037 A 
ATOM     42  C   UNL     1       2.508  -0.564  18.955  1.00  0.00     0.049 A 
ATOM     43  C   UNL     1       4.846   3.449  15.823  1.00  0.00     0.074 A 
ATOM     44  C   UNL     1       2.372  -0.298  20.306  1.00  0.00     0.029 A 
ATOM     45  N   UNL     1       3.092   0.556  18.383  1.00  0.00    -0.354 N 
ATOM     46  N   UNL     1       4.333   2.603  16.682  1.00  0.00    -0.248 NA
ATOM     47  C   UNL     1       5.224   4.743  16.408  1.00  0.00     0.031 C 
ATOM     48  C   UNL     1       2.847   0.995  20.548  1.00  0.00     0.029 A 
ATOM     49  C   UNL     1       3.313   1.520  19.353  1.00  0.00     0.049 A 
ATOM     50  H   UNL     1       3.317   0.652  17.430  1.00  0.00     0.167 HD
ATOM     51  C   UNL     1       4.349   3.250  17.910  1.00  0.00     0.074 A 
ATOM     52  C   UNL     1       4.937   4.554  17.688  1.00  0.00     0.031 C 
ATOM     53  C   UNL     1       3.913   2.806  19.114  1.00  0.00     0.037 A 
BRANCH  40  54
ATOM     54  C   UNL     1       1.451  -2.850  18.986  1.00  0.00     0.064 A 
ATOM     55  C   UNL     1       2.103  -4.051  19.304  1.00  0.00     0.173 A 
ATOM     56  C   UNL     1       0.134  -2.679  19.442  1.00  0.00     0.173 A 
ATOM     57  F   UNL     1       3.358  -4.268  18.883  1.00  0.00    -0.203 F 
ATOM     58  C   UNL     1       1.456  -5.048  20.029  1.00  0.00     0.198 A 
ATOM     59  C   UNL     1      -0.500  -3.667  20.190  1.00  0.00     0.198 A 
ATOM     60  F   UNL     1      -0.533  -1.547  19.170  1.00  0.00    -0.203 F 
ATOM     61  F   UNL     1       2.086  -6.203  20.285  1.00  0.00    -0.200 F 
ATOM     62  C   UNL     1       0.159  -4.853  20.478  1.00  0.00     0.200 A 
ATOM     63  F   UNL     1      -1.750  -3.472  20.634  1.00  0.00    -0.200 F 
ATOM     64  F   UNL     1      -0.458  -5.809  21.185  1.00  0.00    -0.200 F 
ENDBRANCH  40  54
BRANCH  41  65
ATOM     65  C   UNL     1       5.671   4.375  13.538  1.00  0.00     0.064 A 
ATOM     66  C   UNL     1       7.005   4.770  13.709  1.00  0.00     0.173 A 
ATOM     67  C   UNL     1       4.903   5.063  12.588  1.00  0.00     0.173 A 
ATOM     68  F   UNL     1       7.773   4.156  14.621  1.00  0.00    -0.203 F 
ATOM     69  C   UNL     1       7.543   5.826  12.976  1.00  0.00     0.198 A 
ATOM     70  C   UNL     1       5.450   6.101  11.836  1.00  0.00     0.198 A 
ATOM     71  F   UNL     1       3.623   4.720  12.383  1.00  0.00    -0.203 F 
ATOM     72  F   UNL     1       8.807   6.213  13.193  1.00  0.00    -0.200 F 
ATOM     73  C   UNL     1       6.767   6.487  12.037  1.00  0.00     0.200 A 
ATOM     74  F   UNL     1       4.700   6.729  10.920  1.00  0.00    -0.200 F 
ATOM     75  F   UNL     1       7.285   7.502  11.331  1.00  0.00    -0.200 F 
ENDBRANCH  41  65
BRANCH  53  76
ATOM     76  C   UNL     1       4.086   3.722  20.288  1.00  0.00     0.064 A 
ATOM     77  C   UNL     1       3.273   4.850  20.463  1.00  0.00     0.173 A 
ATOM     78  C   UNL     1       5.046   3.441  21.271  1.00  0.00     0.173 A 
ATOM     79  F   UNL     1       2.351   5.167  19.541  1.00  0.00    -0.203 F 
ATOM     80  C   UNL     1       3.428   5.676  21.572  1.00  0.00     0.198 A 
ATOM     81  C   UNL     1       5.182   4.255  22.391  1.00  0.00     0.198 A 
ATOM     82  F   UNL     1       5.844   2.369  21.151  1.00  0.00    -0.203 F 
ATOM     83  F   UNL     1       2.667   6.772  21.700  1.00  0.00    -0.200 F 
ATOM     84  C   UNL     1       4.377   5.375  22.538  1.00  0.00     0.200 A 
ATOM     85  F   UNL     1       6.091   3.956  23.329  1.00  0.00    -0.200 F 
ATOM     86  F   UNL     1       4.520   6.168  23.608  1.00  0.00    -0.200 F 
ENDBRANCH  53  76
ENDBRANCH  27  28
ENDBRANCH  19  22
ENDBRANCH  17  18
ENDBRANCH  16  17
ENDBRANCH   1  16
TORSDOF 14
