REMARK SMILES O=C(CC1CCN(C(=O)NCc2ccccn2)CC1)NCCCNC(=O)c1ccc(-c2c3nc(c(-c4c(F)c(F)c(F)c(F)c4F)c4ccc([nH]4)c(-c4c(F)c(F)c(F)c(F)c4F)c4nc(c(-c5c(F)c(F)c(F)c(F)c5F)c5ccc2[nH]5)C=C4)C=C3)cc1
REMARK SMILES IDX 21 1 20 2 1 3 2 4 3 6 4 7 5 8 19 9 6 10 18 11 7 12 8 13 9 14
REMARK SMILES IDX 10 15 11 17 12 18 13 19 17 20 14 21 16 22 15 23 22 24 23 25
REMARK SMILES IDX 24 26 25 27 26 29 27 30 28 31 89 32 29 33 88 34 30 35 31 36
REMARK SMILES IDX 32 37 82 38 33 39 87 40 81 41 83 42 34 43 86 44 80 45 79 46
REMARK SMILES IDX 35 48 67 49 47 50 66 51 48 52 51 53 65 54 84 55 49 56 50 57
REMARK SMILES IDX 64 59 85 60 52 61 36 62 37 63 45 64 38 65 39 66 43 67 46 68
REMARK SMILES IDX 40 69 41 70 44 71 42 72 68 73 69 74 77 75 70 76 71 77 75 78
REMARK SMILES IDX 78 79 72 80 73 81 76 82 74 83 53 84 54 85 62 86 55 87 56 88
REMARK SMILES IDX 60 89 63 90 57 91 58 92 61 93 59 94
REMARK H PARENT 20 5 10 16 24 28 83 47 51 58
REMARK Flexibility Score: inf
ROOT
ATOM      1  C   UNL     1       2.114   0.649  -2.515  1.00  0.00     0.117 C 
ENDROOT
BRANCH   1   2
ATOM      2  N   UNL     1       2.710   0.198  -1.272  1.00  0.00    -0.356 N 
ATOM      3  O   UNL     1       0.714  -0.286  -0.259  1.00  0.00    -0.275 OA
ATOM      4  C   UNL     1       1.941  -0.253  -0.227  1.00  0.00     0.220 C 
ATOM      5  H   UNL     1       3.689   0.214  -1.175  1.00  0.00     0.163 HD
BRANCH   4   6
ATOM      6  C   UNL     1       2.696  -0.624   1.034  1.00  0.00     0.103 C 
BRANCH   6   7
ATOM      7  C   UNL     1       3.911  -1.562   0.898  1.00  0.00     0.002 C 
ATOM      8  C   UNL     1       3.669  -2.824   0.039  1.00  0.00     0.026 C 
ATOM      9  C   UNL     1       4.404  -1.960   2.313  1.00  0.00     0.026 C 
ATOM     10  C   UNL     1       2.917  -3.942   0.769  1.00  0.00     0.121 C 
ATOM     11  C   UNL     1       3.508  -3.035   2.933  1.00  0.00     0.121 C 
ATOM     12  N   UNL     1       3.539  -4.203   2.070  1.00  0.00    -0.325 N 
ATOM     13  C   UNL     1       4.161  -5.400   2.263  1.00  0.00     0.317 C 
ATOM     14  O   UNL     1       4.103  -6.305   1.423  1.00  0.00    -0.249 OA
ATOM     15  N   UNL     1       4.904  -5.700   3.337  1.00  0.00    -0.332 N 
ATOM     16  H   UNL     1       5.246  -6.622   3.284  1.00  0.00     0.165 HD
BRANCH  15  17
ATOM     17  C   UNL     1       5.349  -5.049   4.559  1.00  0.00     0.174 C 
BRANCH  17  18
ATOM     18  C   UNL     1       4.489  -5.387   5.760  1.00  0.00     0.060 A 
ATOM     19  C   UNL     1       4.351  -6.718   6.163  1.00  0.00     0.026 A 
ATOM     20  N   UNL     1       3.914  -4.364   6.444  1.00  0.00    -0.259 NA
ATOM     21  C   UNL     1       3.602  -7.011   7.300  1.00  0.00     0.004 A 
ATOM     22  C   UNL     1       3.185  -4.683   7.540  1.00  0.00     0.111 A 
ATOM     23  C   UNL     1       3.006  -5.975   8.005  1.00  0.00     0.020 A 
ENDBRANCH  17  18
ENDBRANCH  15  17
ENDBRANCH   6   7
ENDBRANCH   4   6
ENDBRANCH   1   2
BRANCH   1  24
ATOM     24  C   UNL     1       2.419   2.115  -2.804  1.00  0.00     0.042 C 
BRANCH  24  25
ATOM     25  C   UNL     1       3.899   2.420  -3.013  1.00  0.00     0.118 C 
BRANCH  25  26
ATOM     26  N   UNL     1       4.472   1.715  -4.151  1.00  0.00    -0.352 N 
ATOM     27  C   UNL     1       5.109   2.192  -5.269  1.00  0.00     0.251 C 
ATOM     28  H   UNL     1       4.390   0.734  -4.111  1.00  0.00     0.163 HD
ATOM     29  O   UNL     1       5.379   1.422  -6.186  1.00  0.00    -0.269 OA
BRANCH  27  30
ATOM     30  C   UNL     1       5.451   3.626  -5.396  1.00  0.00     0.039 A 
ATOM     31  C   UNL     1       5.257   4.252  -6.631  1.00  0.00     0.014 A 
ATOM     32  C   UNL     1       5.987   4.348  -4.327  1.00  0.00     0.014 A 
ATOM     33  C   UNL     1       5.533   5.614  -6.773  1.00  0.00     0.010 A 
ATOM     34  C   UNL     1       6.189   5.722  -4.447  1.00  0.00     0.010 A 
ATOM     35  C   UNL     1       5.964   6.370  -5.671  1.00  0.00    -0.014 A 
BRANCH  35  36
ATOM     36  C   UNL     1       6.169   7.838  -5.779  1.00  0.00     0.031 A 
ATOM     37  C   UNL     1       7.534   8.434  -5.575  1.00  0.00     0.074 A 
ATOM     38  C   UNL     1       5.111   8.642  -6.000  1.00  0.00     0.049 A 
ATOM     39  N   UNL     1       7.896   9.693  -5.562  1.00  0.00    -0.248 NA
ATOM     40  C   UNL     1       8.637   7.492  -5.329  1.00  0.00     0.031 C 
ATOM     41  C   UNL     1       3.729   8.192  -6.173  1.00  0.00     0.029 A 
ATOM     42  N   UNL     1       5.030  10.009  -6.107  1.00  0.00    -0.354 N 
ATOM     43  C   UNL     1       9.258   9.694  -5.296  1.00  0.00     0.074 A 
ATOM     44  C   UNL     1       9.650   8.314  -5.101  1.00  0.00     0.031 C 
ATOM     45  C   UNL     1       2.942   9.258  -6.385  1.00  0.00     0.029 A 
ATOM     46  C   UNL     1       3.753  10.470  -6.320  1.00  0.00     0.049 A 
ATOM     47  H   UNL     1       5.812  10.602  -6.037  1.00  0.00     0.167 HD
ATOM     48  C   UNL     1      10.110  10.746  -5.242  1.00  0.00     0.037 A 
ATOM     49  C   UNL     1       3.287  11.728  -6.438  1.00  0.00     0.037 A 
ATOM     50  C   UNL     1       9.720  12.116  -5.456  1.00  0.00     0.049 A 
ATOM     51  C   UNL     1       4.251  12.881  -6.351  1.00  0.00     0.074 A 
ATOM     52  C   UNL     1      10.519  13.246  -5.481  1.00  0.00     0.029 A 
ATOM     53  N   UNL     1       8.418  12.544  -5.675  1.00  0.00    -0.354 N 
ATOM     54  N   UNL     1       5.549  12.864  -6.170  1.00  0.00    -0.248 NA
ATOM     55  C   UNL     1       3.683  14.229  -6.491  1.00  0.00     0.031 C 
ATOM     56  C   UNL     1       9.695  14.362  -5.660  1.00  0.00     0.029 A 
ATOM     57  C   UNL     1       8.389  13.924  -5.806  1.00  0.00     0.049 A 
ATOM     58  H   UNL     1       7.632  11.954  -5.729  1.00  0.00     0.167 HD
ATOM     59  C   UNL     1       5.956  14.191  -6.200  1.00  0.00     0.074 A 
ATOM     60  C   UNL     1       4.769  14.986  -6.437  1.00  0.00     0.031 C 
ATOM     61  C   UNL     1       7.201  14.704  -6.045  1.00  0.00     0.037 A 
BRANCH  48  62
ATOM     62  C   UNL     1      11.553  10.460  -4.938  1.00  0.00     0.064 A 
ATOM     63  C   UNL     1      12.381   9.793  -5.854  1.00  0.00     0.173 A 
ATOM     64  C   UNL     1      12.126  10.892  -3.732  1.00  0.00     0.173 A 
ATOM     65  F   UNL     1      11.882   9.350  -7.018  1.00  0.00    -0.203 F 
ATOM     66  C   UNL     1      13.720   9.544  -5.562  1.00  0.00     0.198 A 
ATOM     67  C   UNL     1      13.473  10.670  -3.457  1.00  0.00     0.198 A 
ATOM     68  F   UNL     1      11.382  11.540  -2.823  1.00  0.00    -0.203 F 
ATOM     69  F   UNL     1      14.477   8.860  -6.431  1.00  0.00    -0.200 F 
ATOM     70  C   UNL     1      14.266   9.989  -4.368  1.00  0.00     0.200 A 
ATOM     71  F   UNL     1      14.003  11.114  -2.309  1.00  0.00    -0.200 F 
ATOM     72  F   UNL     1      15.556   9.754  -4.091  1.00  0.00    -0.200 F 
ENDBRANCH  48  62
BRANCH  49  73
ATOM     73  C   UNL     1       1.837  11.965  -6.665  1.00  0.00     0.064 A 
ATOM     74  C   UNL     1       1.373  12.477  -7.885  1.00  0.00     0.173 A 
ATOM     75  C   UNL     1       0.888  11.697  -5.668  1.00  0.00     0.173 A 
ATOM     76  F   UNL     1       2.244  12.770  -8.862  1.00  0.00    -0.203 F 
ATOM     77  C   UNL     1       0.019  12.734  -8.090  1.00  0.00     0.198 A 
ATOM     78  C   UNL     1      -0.470  11.924  -5.885  1.00  0.00     0.198 A 
ATOM     79  F   UNL     1       1.278  11.202  -4.484  1.00  0.00    -0.203 F 
ATOM     80  F   UNL     1      -0.390  13.272  -9.247  1.00  0.00    -0.200 F 
ATOM     81  C   UNL     1      -0.902  12.452  -7.093  1.00  0.00     0.200 A 
ATOM     82  F   UNL     1      -1.358  11.636  -4.924  1.00  0.00    -0.200 F 
ATOM     83  F   UNL     1      -2.204  12.696  -7.292  1.00  0.00    -0.200 F 
ENDBRANCH  49  73
BRANCH  61  84
ATOM     84  C   UNL     1       7.351  16.195  -6.158  1.00  0.00     0.064 A 
ATOM     85  C   UNL     1       6.861  17.062  -5.170  1.00  0.00     0.173 A 
ATOM     86  C   UNL     1       8.027  16.760  -7.251  1.00  0.00     0.173 A 
ATOM     87  F   UNL     1       6.195  16.574  -4.113  1.00  0.00    -0.203 F 
ATOM     88  C   UNL     1       7.017  18.441  -5.287  1.00  0.00     0.198 A 
ATOM     89  C   UNL     1       8.210  18.136  -7.347  1.00  0.00     0.198 A 
ATOM     90  F   UNL     1       8.521  15.975  -8.220  1.00  0.00    -0.203 F 
ATOM     91  F   UNL     1       6.495  19.253  -4.358  1.00  0.00    -0.200 F 
ATOM     92  C   UNL     1       7.698  18.976  -6.371  1.00  0.00     0.200 A 
ATOM     93  F   UNL     1       8.882  18.650  -8.387  1.00  0.00    -0.200 F 
ATOM     94  F   UNL     1       7.854  20.303  -6.477  1.00  0.00    -0.200 F 
ENDBRANCH  61  84
ENDBRANCH  35  36
ENDBRANCH  27  30
ENDBRANCH  25  26
ENDBRANCH  24  25
ENDBRANCH   1  24
TORSDOF 13
