REMARK SMILES C[C@@H](NC(=O)N1CC[N@@H+]2CCCC[C@H]2C1)C(=O)NCCCNC(=O)c1ccc(-c2c3nc(c(-c4c(F)c(F)c(F)c(F)c4F)c4ccc([nH]4)c(-c4c(F)c(F)c(F)c(F)c4F)c4nc(c(-c5c(F)c(F)c(F)c(F)c5F)c5ccc2[nH]5)C=C4)C=C3)cc1
REMARK SMILES IDX 20 1 19 2 18 3 16 4 17 5 2 7 1 8 3 9 4 10 5 12 6 13 7 14
REMARK SMILES IDX 15 15 8 16 14 17 9 18 13 19 10 20 12 22 11 23 21 24 22 25
REMARK SMILES IDX 23 26 24 28 25 29 26 30 87 31 27 32 86 33 28 34 29 35 30 36
REMARK SMILES IDX 80 37 31 38 85 39 79 40 81 41 32 42 84 43 78 44 77 45 33 47
REMARK SMILES IDX 65 48 45 49 64 50 46 51 49 52 63 53 82 54 47 55 48 56 62 58
REMARK SMILES IDX 83 59 50 60 34 61 35 62 43 63 36 64 37 65 41 66 44 67 38 68
REMARK SMILES IDX 39 69 42 70 40 71 66 72 67 73 75 74 68 75 69 76 73 77 76 78
REMARK SMILES IDX 70 79 71 80 74 81 72 82 51 83 52 84 60 85 53 86 54 87 58 88
REMARK SMILES IDX 61 89 55 90 56 91 59 92 57 93
REMARK H PARENT 18 6 3 11 9 21 22 27 81 46 49 57
REMARK Flexibility Score: inf
ROOT
ATOM      1  C   UNL     1      -0.613  -1.306   2.923  1.00  0.00     0.042 C 
ENDROOT
BRANCH   1   2
ATOM      2  C   UNL     1      -0.429  -1.497   1.423  1.00  0.00     0.117 C 
BRANCH   2   3
ATOM      3  N   UNL     1      -0.964  -0.385   0.660  1.00  0.00    -0.354 N 
ATOM      4  C   UNL     1      -0.657   0.014  -0.606  1.00  0.00     0.242 C 
ATOM      5  O   UNL     1      -1.179   1.060  -1.009  1.00  0.00    -0.273 OA
ATOM      6  H   UNL     1      -1.643   0.158   1.122  1.00  0.00     0.163 HD
BRANCH   4   7
ATOM      7  C   UNL     1       0.429  -0.680  -1.450  1.00  0.00     0.170 C 
ATOM      8  C   UNL     1       1.769  -0.072  -1.015  1.00  0.00     0.041 C 
BRANCH   7   9
ATOM      9  N   UNL     1       0.498  -2.136  -1.368  1.00  0.00    -0.326 N 
ATOM     10  C   UNL     1      -0.421  -3.117  -1.494  1.00  0.00     0.318 C 
ATOM     11  H   UNL     1       1.404  -2.473  -1.183  1.00  0.00     0.166 HD
ATOM     12  O   UNL     1      -0.018  -4.264  -1.289  1.00  0.00    -0.249 OA
BRANCH  10  13
ATOM     13  N   UNL     1      -1.743  -2.824  -1.628  1.00  0.00    -0.313 N 
ATOM     14  C   UNL     1      -2.352  -1.925  -2.607  1.00  0.00     0.183 C 
ATOM     15  C   UNL     1      -2.718  -3.709  -0.993  1.00  0.00     0.186 C 
ATOM     16  C   UNL     1      -3.554  -1.146  -2.022  1.00  0.00     0.284 C 
ATOM     17  C   UNL     1      -3.779  -2.851  -0.273  1.00  0.00     0.203 C 
ATOM     18  N   UNL     1      -4.498  -1.942  -1.200  1.00  0.00    -0.330 N 
ATOM     19  C   UNL     1      -4.788  -3.732   0.470  1.00  0.00     0.067 C 
ATOM     20  C   UNL     1      -5.380  -1.038  -0.440  1.00  0.00     0.262 C 
ATOM     21  H   UNL     1      -5.059  -2.518  -1.827  1.00  0.00     0.348 HD
ATOM     22  C   UNL     1      -5.734  -2.859   1.289  1.00  0.00     0.012 C 
ATOM     23  C   UNL     1      -6.396  -1.800   0.416  1.00  0.00     0.062 C 
ENDBRANCH  10  13
ENDBRANCH   7   9
ENDBRANCH   4   7
ENDBRANCH   2   3
ENDBRANCH   1   2
BRANCH   1  24
ATOM     24  C   UNL     1      -2.051  -1.499   3.390  1.00  0.00     0.118 C 
BRANCH  24  25
ATOM     25  N   UNL     1      -2.510  -2.877   3.309  1.00  0.00    -0.352 N 
ATOM     26  C   UNL     1      -3.479  -3.513   4.049  1.00  0.00     0.251 C 
ATOM     27  H   UNL     1      -2.064  -3.432   2.630  1.00  0.00     0.163 HD
ATOM     28  O   UNL     1      -3.689  -4.711   3.874  1.00  0.00    -0.269 OA
BRANCH  26  29
ATOM     29  C   UNL     1      -4.227  -2.782   5.098  1.00  0.00     0.039 A 
ATOM     30  C   UNL     1      -4.433  -3.429   6.320  1.00  0.00     0.014 A 
ATOM     31  C   UNL     1      -4.685  -1.474   4.916  1.00  0.00     0.014 A 
ATOM     32  C   UNL     1      -4.993  -2.729   7.387  1.00  0.00     0.010 A 
ATOM     33  C   UNL     1      -5.183  -0.753   5.998  1.00  0.00     0.010 A 
ATOM     34  C   UNL     1      -5.313  -1.369   7.249  1.00  0.00    -0.014 A 
BRANCH  34  35
ATOM     35  C   UNL     1      -5.672  -0.568   8.441  1.00  0.00     0.031 A 
ATOM     36  C   UNL     1      -7.050  -0.010   8.616  1.00  0.00     0.074 A 
ATOM     37  C   UNL     1      -4.708  -0.313   9.346  1.00  0.00     0.049 A 
ATOM     38  N   UNL     1      -7.551   0.636   9.638  1.00  0.00    -0.248 NA
ATOM     39  C   UNL     1      -7.981  -0.173   7.491  1.00  0.00     0.031 C 
ATOM     40  C   UNL     1      -3.307  -0.725   9.222  1.00  0.00     0.029 A 
ATOM     41  N   UNL     1      -4.754   0.343  10.549  1.00  0.00    -0.354 N 
ATOM     42  C   UNL     1      -8.857   0.946   9.285  1.00  0.00     0.074 A 
ATOM     43  C   UNL     1      -9.052   0.474   7.931  1.00  0.00     0.031 C 
ATOM     44  C   UNL     1      -2.638  -0.351  10.322  1.00  0.00     0.029 A 
ATOM     45  C   UNL     1      -3.557   0.339  11.221  1.00  0.00     0.049 A 
ATOM     46  H   UNL     1      -5.567   0.776  10.897  1.00  0.00     0.167 HD
ATOM     47  C   UNL     1      -9.810   1.546  10.038  1.00  0.00     0.037 A 
ATOM     48  C   UNL     1      -3.244   0.817  12.439  1.00  0.00     0.037 A 
ATOM     49  C   UNL     1      -9.597   2.012  11.384  1.00  0.00     0.049 A 
ATOM     50  C   UNL     1      -4.331   1.437  13.270  1.00  0.00     0.074 A 
ATOM     51  C   UNL     1     -10.504   2.586  12.257  1.00  0.00     0.029 A 
ATOM     52  N   UNL     1      -8.380   1.962  12.051  1.00  0.00    -0.354 N 
ATOM     53  N   UNL     1      -5.593   1.627  12.971  1.00  0.00    -0.248 NA
ATOM     54  C   UNL     1      -3.955   1.888  14.616  1.00  0.00     0.031 C 
ATOM     55  C   UNL     1      -9.827   2.921  13.436  1.00  0.00     0.029 A 
ATOM     56  C   UNL     1      -8.508   2.510  13.318  1.00  0.00     0.049 A 
ATOM     57  H   UNL     1      -7.547   1.591  11.679  1.00  0.00     0.167 HD
ATOM     58  C   UNL     1      -6.170   2.197  14.097  1.00  0.00     0.074 A 
ATOM     59  C   UNL     1      -5.122   2.298  15.093  1.00  0.00     0.031 C 
ATOM     60  C   UNL     1      -7.449   2.604  14.290  1.00  0.00     0.037 A 
BRANCH  47  61
ATOM     61  C   UNL     1     -11.168   1.721   9.424  1.00  0.00     0.064 A 
ATOM     62  C   UNL     1     -12.006   0.622   9.173  1.00  0.00     0.173 A 
ATOM     63  C   UNL     1     -11.655   2.998   9.109  1.00  0.00     0.173 A 
ATOM     64  F   UNL     1     -11.585  -0.623   9.445  1.00  0.00    -0.203 F 
ATOM     65  C   UNL     1     -13.265   0.793   8.604  1.00  0.00     0.198 A 
ATOM     66  C   UNL     1     -12.927   3.168   8.566  1.00  0.00     0.198 A 
ATOM     67  F   UNL     1     -10.899   4.084   9.331  1.00  0.00    -0.203 F 
ATOM     68  F   UNL     1     -14.025  -0.276   8.330  1.00  0.00    -0.200 F 
ATOM     69  C   UNL     1     -13.727   2.066   8.307  1.00  0.00     0.200 A 
ATOM     70  F   UNL     1     -13.377   4.400   8.290  1.00  0.00    -0.200 F 
ATOM     71  F   UNL     1     -14.942   2.229   7.764  1.00  0.00    -0.200 F 
ENDBRANCH  47  61
BRANCH  48  72
ATOM     72  C   UNL     1      -1.863   0.660  12.965  1.00  0.00     0.064 A 
ATOM     73  C   UNL     1      -1.589  -0.232  14.011  1.00  0.00     0.173 A 
ATOM     74  C   UNL     1      -0.790   1.383  12.425  1.00  0.00     0.173 A 
ATOM     75  F   UNL     1      -2.584  -0.937  14.568  1.00  0.00    -0.203 F 
ATOM     76  C   UNL     1      -0.297  -0.377  14.513  1.00  0.00     0.198 A 
ATOM     77  C   UNL     1       0.505   1.217  12.910  1.00  0.00     0.198 A 
ATOM     78  F   UNL     1      -0.998   2.239  11.414  1.00  0.00    -0.203 F 
ATOM     79  F   UNL     1      -0.070  -1.205  15.542  1.00  0.00    -0.200 F 
ATOM     80  C   UNL     1       0.750   0.343  13.959  1.00  0.00     0.200 A 
ATOM     81  F   UNL     1       1.517   1.902  12.360  1.00  0.00    -0.200 F 
ATOM     82  F   UNL     1       1.992   0.199  14.438  1.00  0.00    -0.200 F 
ENDBRANCH  48  72
BRANCH  60  83
ATOM     83  C   UNL     1      -7.779   3.174  15.638  1.00  0.00     0.064 A 
ATOM     84  C   UNL     1      -7.300   4.428  16.043  1.00  0.00     0.173 A 
ATOM     85  C   UNL     1      -8.588   2.457  16.533  1.00  0.00     0.173 A 
ATOM     86  F   UNL     1      -6.508   5.143  15.229  1.00  0.00    -0.203 F 
ATOM     87  C   UNL     1      -7.586   4.928  17.311  1.00  0.00     0.198 A 
ATOM     88  C   UNL     1      -8.899   2.974  17.787  1.00  0.00     0.198 A 
ATOM     89  F   UNL     1      -9.077   1.256  16.190  1.00  0.00    -0.203 F 
ATOM     90  F   UNL     1      -7.066   6.100  17.700  1.00  0.00    -0.200 F 
ATOM     91  C   UNL     1      -8.389   4.203  18.179  1.00  0.00     0.200 A 
ATOM     92  F   UNL     1      -9.684   2.279  18.621  1.00  0.00    -0.200 F 
ATOM     93  F   UNL     1      -8.661   4.684  19.400  1.00  0.00    -0.200 F 
ENDBRANCH  60  83
ENDBRANCH  34  35
ENDBRANCH  26  29
ENDBRANCH  24  25
ENDBRANCH   1  24
TORSDOF 12
