REMARK SMILES O=C(NCCCNC(=O)c1ccc(S(=O)(=O)Nc2ccccc2I)cc1)c1ccc(-c2c3nc(c(-c4c(F)c(F)c(F)c(F)c4F)c4ccc([nH]4)c(-c4c(F)c(F)c(F)c(F)c4F)c4nc(c(-c5c(F)c(F)c(F)c(F)c5F)c5ccc2[nH]5)C=C4)C=C3)cc1
REMARK SMILES IDX 5 1 4 2 3 3 1 4 2 5 27 7 28 8 89 9 29 10 88 11 30 12 31 13
REMARK SMILES IDX 32 14 82 15 33 16 87 17 81 18 83 19 34 20 86 21 80 22 79 23
REMARK SMILES IDX 35 25 67 26 47 27 66 28 48 29 51 30 65 31 84 32 49 33 50 34
REMARK SMILES IDX 64 36 85 37 52 38 36 39 37 40 45 41 38 42 39 43 43 44 46 45
REMARK SMILES IDX 40 46 41 47 44 48 42 49 68 50 69 51 77 52 70 53 71 54 75 55
REMARK SMILES IDX 78 56 72 57 73 58 76 59 74 60 53 61 54 62 62 63 55 64 56 65
REMARK SMILES IDX 60 66 63 67 57 68 58 69 61 70 59 71 6 72 7 73 8 74 9 76
REMARK SMILES IDX 10 77 11 78 26 79 12 80 25 81 13 82 14 83 15 84 16 85 17 86
REMARK SMILES IDX 18 88 19 89 23 90 20 91 22 92 24 93 21 94
REMARK H PARENT 3 6 83 24 51 35 7 75 17 87
REMARK Flexibility Score: inf
ROOT
ATOM      1  C   UNL     1       5.093  -1.616   1.536  1.00  0.00     0.042 C 
ENDROOT
BRANCH   1   2
ATOM      2  C   UNL     1       4.630  -1.399   0.110  1.00  0.00     0.118 C 
BRANCH   2   3
ATOM      3  N   UNL     1       3.187  -1.222   0.009  1.00  0.00    -0.352 N 
ATOM      4  O   UNL     1       1.214  -0.141  -0.021  1.00  0.00    -0.269 OA
ATOM      5  C   UNL     1       2.431  -0.088  -0.168  1.00  0.00     0.251 C 
ATOM      6  H   UNL     1       2.666  -2.054   0.080  1.00  0.00     0.163 HD
BRANCH   5   7
ATOM      7  C   UNL     1       3.075   1.201  -0.505  1.00  0.00     0.039 A 
ATOM      8  C   UNL     1       4.152   1.256  -1.388  1.00  0.00     0.014 A 
ATOM      9  C   UNL     1       2.574   2.383   0.050  1.00  0.00     0.014 A 
ATOM     10  C   UNL     1       4.850   2.442  -1.560  1.00  0.00     0.010 A 
ATOM     11  C   UNL     1       3.200   3.602  -0.226  1.00  0.00     0.010 A 
ATOM     12  C   UNL     1       4.368   3.635  -1.002  1.00  0.00    -0.014 A 
BRANCH  12  13
ATOM     13  C   UNL     1       5.069   4.908  -1.303  1.00  0.00     0.031 A 
ATOM     14  C   UNL     1       5.700   5.723  -0.211  1.00  0.00     0.074 A 
ATOM     15  C   UNL     1       5.155   5.309  -2.586  1.00  0.00     0.049 A 
ATOM     16  N   UNL     1       6.336   6.865  -0.297  1.00  0.00    -0.248 NA
ATOM     17  C   UNL     1       5.598   5.197   1.158  1.00  0.00     0.031 C 
ATOM     18  C   UNL     1       4.577   4.598  -3.730  1.00  0.00     0.029 A 
ATOM     19  N   UNL     1       5.771   6.396  -3.150  1.00  0.00    -0.354 N 
ATOM     20  C   UNL     1       6.685   7.205   1.002  1.00  0.00     0.074 A 
ATOM     21  C   UNL     1       6.172   6.162   1.864  1.00  0.00     0.031 C 
ATOM     22  C   UNL     1       4.905   5.240  -4.859  1.00  0.00     0.029 A 
ATOM     23  C   UNL     1       5.651   6.444  -4.516  1.00  0.00     0.049 A 
ATOM     24  H   UNL     1       6.253   7.075  -2.625  1.00  0.00     0.167 HD
ATOM     25  C   UNL     1       7.376   8.289   1.432  1.00  0.00     0.037 A 
ATOM     26  C   UNL     1       6.072   7.368  -5.398  1.00  0.00     0.037 A 
ATOM     27  C   UNL     1       7.902   9.311   0.564  1.00  0.00     0.049 A 
ATOM     28  C   UNL     1       6.816   8.568  -4.891  1.00  0.00     0.074 A 
ATOM     29  C   UNL     1       8.645  10.431   0.898  1.00  0.00     0.029 A 
ATOM     30  N   UNL     1       7.737   9.339  -0.814  1.00  0.00    -0.354 N 
ATOM     31  N   UNL     1       7.155   8.870  -3.662  1.00  0.00    -0.248 NA
ATOM     32  C   UNL     1       7.229   9.559  -5.892  1.00  0.00     0.031 C 
ATOM     33  C   UNL     1       8.891  11.158  -0.272  1.00  0.00     0.029 A 
ATOM     34  C   UNL     1       8.345  10.467  -1.342  1.00  0.00     0.049 A 
ATOM     35  H   UNL     1       7.259   8.658  -1.340  1.00  0.00     0.167 HD
ATOM     36  C   UNL     1       7.836  10.075  -3.740  1.00  0.00     0.074 A 
ATOM     37  C   UNL     1       7.876  10.440  -5.142  1.00  0.00     0.031 C 
ATOM     38  C   UNL     1       8.376  10.813  -2.740  1.00  0.00     0.037 A 
BRANCH  25  39
ATOM     39  C   UNL     1       7.584   8.440   2.912  1.00  0.00     0.064 A 
ATOM     40  C   UNL     1       8.464   7.611   3.624  1.00  0.00     0.173 A 
ATOM     41  C   UNL     1       6.920   9.453   3.621  1.00  0.00     0.173 A 
ATOM     42  F   UNL     1       9.114   6.620   2.997  1.00  0.00    -0.203 F 
ATOM     43  C   UNL     1       8.651   7.775   4.995  1.00  0.00     0.198 A 
ATOM     44  C   UNL     1       7.131   9.631   4.986  1.00  0.00     0.198 A 
ATOM     45  F   UNL     1       6.072  10.277   2.988  1.00  0.00    -0.203 F 
ATOM     46  F   UNL     1       9.462   6.942   5.663  1.00  0.00    -0.200 F 
ATOM     47  C   UNL     1       7.990   8.788   5.673  1.00  0.00     0.200 A 
ATOM     48  F   UNL     1       6.499  10.618   5.637  1.00  0.00    -0.200 F 
ATOM     49  F   UNL     1       8.175   8.946   6.991  1.00  0.00    -0.200 F 
ENDBRANCH  25  39
BRANCH  26  50
ATOM     50  C   UNL     1       5.785   7.185  -6.843  1.00  0.00     0.064 A 
ATOM     51  C   UNL     1       6.811   6.893  -7.750  1.00  0.00     0.173 A 
ATOM     52  C   UNL     1       4.475   7.263  -7.338  1.00  0.00     0.173 A 
ATOM     53  F   UNL     1       8.082   6.824  -7.326  1.00  0.00    -0.203 F 
ATOM     54  C   UNL     1       6.538   6.694  -9.102  1.00  0.00     0.198 A 
ATOM     55  C   UNL     1       4.200   7.035  -8.684  1.00  0.00     0.198 A 
ATOM     56  F   UNL     1       3.457   7.532  -6.507  1.00  0.00    -0.203 F 
ATOM     57  F   UNL     1       7.541   6.447  -9.956  1.00  0.00    -0.200 F 
ATOM     58  C   UNL     1       5.233   6.756  -9.566  1.00  0.00     0.200 A 
ATOM     59  F   UNL     1       2.935   7.077  -9.123  1.00  0.00    -0.200 F 
ATOM     60  F   UNL     1       4.970   6.550 -10.863  1.00  0.00    -0.200 F 
ENDBRANCH  26  50
BRANCH  38  61
ATOM     61  C   UNL     1       9.083  12.076  -3.134  1.00  0.00     0.064 A 
ATOM     62  C   UNL     1       8.377  13.212  -3.556  1.00  0.00     0.173 A 
ATOM     63  C   UNL     1      10.481  12.158  -3.058  1.00  0.00     0.173 A 
ATOM     64  F   UNL     1       7.041  13.175  -3.662  1.00  0.00    -0.203 F 
ATOM     65  C   UNL     1       9.049  14.378  -3.911  1.00  0.00     0.198 A 
ATOM     66  C   UNL     1      11.148  13.335  -3.386  1.00  0.00     0.198 A 
ATOM     67  F   UNL     1      11.200  11.099  -2.656  1.00  0.00    -0.203 F 
ATOM     68  F   UNL     1       8.359  15.438  -4.356  1.00  0.00    -0.200 F 
ATOM     69  C   UNL     1      10.432  14.441  -3.819  1.00  0.00     0.200 A 
ATOM     70  F   UNL     1      12.482  13.397  -3.287  1.00  0.00    -0.200 F 
ATOM     71  F   UNL     1      11.076  15.567  -4.156  1.00  0.00    -0.200 F 
ENDBRANCH  38  61
ENDBRANCH  12  13
ENDBRANCH   5   7
ENDBRANCH   2   3
ENDBRANCH   1   2
BRANCH   1  72
ATOM     72  C   UNL     1       4.631  -2.932   2.127  1.00  0.00     0.118 C 
BRANCH  72  73
ATOM     73  N   UNL     1       5.180  -4.100   1.442  1.00  0.00    -0.352 N 
ATOM     74  C   UNL     1       5.950  -5.146   1.902  1.00  0.00     0.251 C 
ATOM     75  H   UNL     1       4.961  -4.148   0.483  1.00  0.00     0.163 HD
ATOM     76  O   UNL     1       6.424  -5.942   1.096  1.00  0.00    -0.269 OA
BRANCH  74  77
ATOM     77  C   UNL     1       6.225  -5.310   3.348  1.00  0.00     0.039 A 
ATOM     78  C   UNL     1       7.451  -5.829   3.787  1.00  0.00     0.015 A 
ATOM     79  C   UNL     1       5.276  -4.927   4.287  1.00  0.00     0.015 A 
ATOM     80  C   UNL     1       7.733  -5.905   5.162  1.00  0.00     0.023 A 
ATOM     81  C   UNL     1       5.629  -4.830   5.620  1.00  0.00     0.023 A 
ATOM     82  C   UNL     1       6.815  -5.387   6.082  1.00  0.00     0.087 A 
BRANCH  82  83
ATOM     83  S   UNL     1       7.179  -5.340   7.821  1.00  0.00     0.261 S 
ATOM     84  O   UNL     1       8.307  -6.220   8.060  1.00  0.00    -0.201 OA
ATOM     85  O   UNL     1       7.247  -3.945   8.196  1.00  0.00    -0.201 OA
BRANCH  83  86
ATOM     86  N   UNL     1       5.870  -6.024   8.694  1.00  0.00    -0.279 N 
ATOM     87  H   UNL     1       6.038  -6.663   9.424  1.00  0.00     0.180 HD
BRANCH  86  88
ATOM     88  C   UNL     1       4.522  -5.651   8.345  1.00  0.00     0.062 A 
ATOM     89  C   UNL     1       4.042  -4.375   8.674  1.00  0.00     0.028 A 
ATOM     90  C   UNL     1       3.727  -6.502   7.555  1.00  0.00     0.037 A 
ATOM     91  C   UNL     1       2.809  -3.936   8.175  1.00  0.00     0.002 A 
ATOM     92  C   UNL     1       2.495  -6.057   7.059  1.00  0.00     0.017 A 
ATOM     93  I   UNL     1       4.341  -8.438   7.029  1.00  0.00    -0.042 I 
ATOM     94  C   UNL     1       2.045  -4.771   7.359  1.00  0.00     0.001 A 
ENDBRANCH  86  88
ENDBRANCH  83  86
ENDBRANCH  82  83
ENDBRANCH  74  77
ENDBRANCH  72  73
ENDBRANCH   1  72
TORSDOF 13
