REMARK SMILES CN(C)c1cc(C(F)(F)F)cc(-c2cccc(/C=C/C(=O)NCCCNC(=O)c3ccc(-c4c5nc(c(-c6c(F)c(F)c(F)c(F)c6F)c6ccc([nH]6)c(-c6c(F)c(F)c(F)c(F)c6F)c6nc(c(-c7c(F)c(F)c(F)c(F)c7F)c7ccc4[nH]7)C=C6)C=C5)cc3)c2)n1
REMARK SMILES IDX 23 1 22 2 20 3 21 4 19 6 18 7 17 8 13 9 14 10 92 11 15 12
REMARK SMILES IDX 16 13 12 14 4 15 5 16 93 17 6 18 11 19 2 20 1 21 3 22 7 23
REMARK SMILES IDX 8 24 9 25 10 26 24 27 25 28 26 29 27 30 28 32 29 33 30 34
REMARK SMILES IDX 91 35 31 36 90 37 32 38 33 39 34 40 84 41 35 42 89 43 83 44
REMARK SMILES IDX 85 45 36 46 88 47 82 48 81 49 37 51 69 52 49 53 68 54 50 55
REMARK SMILES IDX 53 56 67 57 86 58 51 59 52 60 66 62 87 63 54 64 38 65 39 66
REMARK SMILES IDX 47 67 40 68 41 69 45 70 48 71 42 72 43 73 46 74 44 75 70 76
REMARK SMILES IDX 71 77 79 78 72 79 73 80 77 81 80 82 74 83 75 84 78 85 76 86
REMARK SMILES IDX 55 87 56 88 64 89 57 90 58 91 62 92 65 93 59 94 60 95 63 96
REMARK SMILES IDX 61 97
REMARK H PARENT 22 5 26 31 85 50 53 61
REMARK Flexibility Score: inf
ROOT
ATOM      1  C   UNL     1       0.188  -1.098  11.078  1.00  0.00     0.118 C 
ENDROOT
BRANCH   1   2
ATOM      2  N   UNL     1      -1.142  -1.078  11.664  1.00  0.00    -0.352 N 
ATOM      3  C   UNL     1      -2.330  -1.531  11.181  1.00  0.00     0.244 C 
ATOM      4  O   UNL     1      -3.324  -1.517  11.903  1.00  0.00    -0.270 OA
ATOM      5  H   UNL     1      -1.191  -0.668  12.558  1.00  0.00     0.163 HD
BRANCH   3   6
ATOM      6  C   UNL     1      -2.424  -2.118   9.827  1.00  0.00     0.072 C 
ATOM      7  C   UNL     1      -1.925  -1.532   8.730  1.00  0.00     0.014 C 
BRANCH   7   8
ATOM      8  C   UNL     1      -2.014  -2.087   7.374  1.00  0.00    -0.025 A 
ATOM      9  C   UNL     1      -0.985  -2.304   5.162  1.00  0.00     0.001 A 
ATOM     10  C   UNL     1      -2.149  -2.938   4.707  1.00  0.00     0.010 A 
ATOM     11  C   UNL     1      -0.934  -1.885   6.502  1.00  0.00     0.018 A 
ATOM     12  C   UNL     1      -3.226  -3.157   5.569  1.00  0.00     0.001 A 
ATOM     13  C   UNL     1      -3.161  -2.728   6.895  1.00  0.00     0.008 A 
BRANCH   9  14
ATOM     14  C   UNL     1       0.134  -2.036   4.256  1.00  0.00     0.073 A 
ATOM     15  C   UNL     1       0.869  -0.759   2.439  1.00  0.00     0.129 A 
ATOM     16  C   UNL     1       2.122  -1.360   2.516  1.00  0.00     0.060 A 
ATOM     17  N   UNL     1      -0.105  -1.100   3.308  1.00  0.00    -0.231 NA
ATOM     18  C   UNL     1       2.388  -2.314   3.506  1.00  0.00     0.061 A 
ATOM     19  C   UNL     1       1.364  -2.661   4.389  1.00  0.00     0.042 A 
BRANCH  15  20
ATOM     20  N   UNL     1       0.611   0.236   1.502  1.00  0.00    -0.363 N 
ATOM     21  C   UNL     1       0.975  -0.013   0.117  1.00  0.00     0.144 C 
ATOM     22  C   UNL     1      -0.554   1.069   1.764  1.00  0.00     0.144 C 
ENDBRANCH  15  20
BRANCH  18  23
ATOM     23  C   UNL     1       3.755  -2.920   3.655  1.00  0.00     0.416 C 
ATOM     24  F   UNL     1       4.344  -2.574   4.833  1.00  0.00    -0.166 F 
ATOM     25  F   UNL     1       3.729  -4.281   3.636  1.00  0.00    -0.166 F 
ATOM     26  F   UNL     1       4.628  -2.549   2.679  1.00  0.00    -0.166 F 
ENDBRANCH  18  23
ENDBRANCH   9  14
ENDBRANCH   7   8
ENDBRANCH   3   6
ENDBRANCH   1   2
BRANCH   1  27
ATOM     27  C   UNL     1       0.649   0.303  10.682  1.00  0.00     0.042 C 
BRANCH  27  28
ATOM     28  C   UNL     1       1.014   1.185  11.874  1.00  0.00     0.118 C 
BRANCH  28  29
ATOM     29  N   UNL     1       2.221   0.727  12.547  1.00  0.00    -0.352 N 
ATOM     30  C   UNL     1       3.402   1.383  12.791  1.00  0.00     0.251 C 
ATOM     31  H   UNL     1       2.185  -0.199  12.878  1.00  0.00     0.163 HD
ATOM     32  O   UNL     1       4.376   0.749  13.184  1.00  0.00    -0.269 OA
BRANCH  30  33
ATOM     33  C   UNL     1       3.515   2.843  12.581  1.00  0.00     0.039 A 
ATOM     34  C   UNL     1       4.693   3.352  12.024  1.00  0.00     0.014 A 
ATOM     35  C   UNL     1       2.498   3.714  12.978  1.00  0.00     0.014 A 
ATOM     36  C   UNL     1       4.830   4.727  11.820  1.00  0.00     0.010 A 
ATOM     37  C   UNL     1       2.607   5.077  12.712  1.00  0.00     0.010 A 
ATOM     38  C   UNL     1       3.776   5.598  12.137  1.00  0.00    -0.014 A 
BRANCH  38  39
ATOM     39  C   UNL     1       3.876   7.058  11.887  1.00  0.00     0.031 A 
ATOM     40  C   UNL     1       3.857   8.023  13.039  1.00  0.00     0.074 A 
ATOM     41  C   UNL     1       3.908   7.516  10.621  1.00  0.00     0.049 A 
ATOM     42  N   UNL     1       3.825   9.332  13.025  1.00  0.00    -0.248 NA
ATOM     43  C   UNL     1       3.844   7.438  14.389  1.00  0.00     0.031 C 
ATOM     44  C   UNL     1       3.895   6.681   9.420  1.00  0.00     0.029 A 
ATOM     45  N   UNL     1       3.939   8.799  10.134  1.00  0.00    -0.354 N 
ATOM     46  C   UNL     1       3.764   9.723  14.356  1.00  0.00     0.074 A 
ATOM     47  C   UNL     1       3.720   8.514  15.150  1.00  0.00     0.031 C 
ATOM     48  C   UNL     1       3.934   7.471   8.335  1.00  0.00     0.029 A 
ATOM     49  C   UNL     1       3.933   8.867   8.762  1.00  0.00     0.049 A 
ATOM     50  H   UNL     1       3.965   9.595  10.713  1.00  0.00     0.167 HD
ATOM     51  C   UNL     1       3.763  10.977  14.869  1.00  0.00     0.037 A 
ATOM     52  C   UNL     1       3.915   9.935   7.943  1.00  0.00     0.037 A 
ATOM     53  C   UNL     1       3.838  12.176  14.075  1.00  0.00     0.049 A 
ATOM     54  C   UNL     1       3.911  11.317   8.538  1.00  0.00     0.074 A 
ATOM     55  C   UNL     1       3.908  13.491  14.500  1.00  0.00     0.029 A 
ATOM     56  N   UNL     1       3.852  12.203  12.688  1.00  0.00    -0.354 N 
ATOM     57  N   UNL     1       3.912  11.675   9.799  1.00  0.00    -0.248 NA
ATOM     58  C   UNL     1       3.907  12.443   7.594  1.00  0.00     0.031 C 
ATOM     59  C   UNL     1       3.919  14.316  13.371  1.00  0.00     0.029 A 
ATOM     60  C   UNL     1       3.908  13.514  12.241  1.00  0.00     0.049 A 
ATOM     61  H   UNL     1       3.826  11.409  12.106  1.00  0.00     0.167 HD
ATOM     62  C   UNL     1       3.940  13.063   9.801  1.00  0.00     0.074 A 
ATOM     63  C   UNL     1       3.966  13.482   8.415  1.00  0.00     0.031 C 
ATOM     64  C   UNL     1       3.943  13.913  10.857  1.00  0.00     0.037 A 
BRANCH  51  65
ATOM     65  C   UNL     1       3.676  11.118  16.362  1.00  0.00     0.064 A 
ATOM     66  C   UNL     1       4.740  10.752  17.200  1.00  0.00     0.173 A 
ATOM     67  C   UNL     1       2.527  11.657  16.960  1.00  0.00     0.173 A 
ATOM     68  F   UNL     1       5.858  10.221  16.680  1.00  0.00    -0.203 F 
ATOM     69  C   UNL     1       4.645  10.890  18.583  1.00  0.00     0.198 A 
ATOM     70  C   UNL     1       2.447  11.823  18.340  1.00  0.00     0.198 A 
ATOM     71  F   UNL     1       1.483  12.031  16.205  1.00  0.00    -0.203 F 
ATOM     72  F   UNL     1       5.654  10.485  19.366  1.00  0.00    -0.200 F 
ATOM     73  C   UNL     1       3.502  11.432  19.151  1.00  0.00     0.200 A 
ATOM     74  F   UNL     1       1.347  12.360  18.887  1.00  0.00    -0.200 F 
ATOM     75  F   UNL     1       3.414  11.570  20.481  1.00  0.00    -0.200 F 
ENDBRANCH  51  65
BRANCH  52  76
ATOM     76  C   UNL     1       3.924   9.739   6.470  1.00  0.00     0.064 A 
ATOM     77  C   UNL     1       5.055  10.069   5.711  1.00  0.00     0.173 A 
ATOM     78  C   UNL     1       2.812   9.217   5.793  1.00  0.00     0.173 A 
ATOM     79  F   UNL     1       6.135  10.591   6.311  1.00  0.00    -0.203 F 
ATOM     80  C   UNL     1       5.067   9.903   4.328  1.00  0.00     0.198 A 
ATOM     81  C   UNL     1       2.836   9.025   4.413  1.00  0.00     0.198 A 
ATOM     82  F   UNL     1       1.708   8.880   6.475  1.00  0.00    -0.203 F 
ATOM     83  F   UNL     1       6.146  10.267   3.621  1.00  0.00    -0.200 F 
ATOM     84  C   UNL     1       3.960   9.375   3.681  1.00  0.00     0.200 A 
ATOM     85  F   UNL     1       1.769   8.501   3.793  1.00  0.00    -0.200 F 
ATOM     86  F   UNL     1       3.974   9.210   2.351  1.00  0.00    -0.200 F 
ENDBRANCH  52  76
BRANCH  64  87
ATOM     87  C   UNL     1       4.018  15.382  10.556  1.00  0.00     0.064 A 
ATOM     88  C   UNL     1       2.926  16.081  10.022  1.00  0.00     0.173 A 
ATOM     89  C   UNL     1       5.185  16.105  10.845  1.00  0.00     0.173 A 
ATOM     90  F   UNL     1       1.794  15.431   9.714  1.00  0.00    -0.203 F 
ATOM     91  C   UNL     1       3.009  17.447   9.766  1.00  0.00     0.198 A 
ATOM     92  C   UNL     1       5.253  17.476  10.616  1.00  0.00     0.198 A 
ATOM     93  F   UNL     1       6.255  15.484  11.363  1.00  0.00    -0.203 F 
ATOM     94  F   UNL     1       1.969  18.087   9.212  1.00  0.00    -0.200 F 
ATOM     95  C   UNL     1       4.168  18.145  10.070  1.00  0.00     0.200 A 
ATOM     96  F   UNL     1       6.370  18.151  10.923  1.00  0.00    -0.200 F 
ATOM     97  F   UNL     1       4.243  19.461   9.830  1.00  0.00    -0.200 F 
ENDBRANCH  64  87
ENDBRANCH  38  39
ENDBRANCH  30  33
ENDBRANCH  28  29
ENDBRANCH  27  28
ENDBRANCH   1  27
TORSDOF 14
