REMARK SMILES COC(CNS(=O)(=O)c1ccc(Cl)c(C(=O)NCCCNC(=O)c2ccc(-c3c4nc(c(-c5c(F)c(F)c(F)c(F)c5F)c5ccc([nH]5)c(-c5c(F)c(F)c(F)c(F)c5F)c5nc(c(-c6c(F)c(F)c(F)c(F)c6F)c6ccc3[nH]6)C=C5)C=C4)cc2)c1Cl)OC
REMARK SMILES IDX 15 1 16 2 17 3 14 5 9 6 10 7 87 8 11 9 88 10 12 11 13 12
REMARK SMILES IDX 6 13 7 14 8 15 5 16 4 18 3 19 2 20 1 21 89 22 90 23 18 24
REMARK SMILES IDX 19 25 20 26 21 27 22 28 23 30 24 31 25 32 86 33 26 34 85 35
REMARK SMILES IDX 27 36 28 37 29 38 79 39 30 40 84 41 78 42 80 43 31 44 83 45
REMARK SMILES IDX 77 46 76 47 32 49 64 50 44 51 63 52 45 53 48 54 62 55 81 56
REMARK SMILES IDX 46 57 47 58 61 60 82 61 49 62 33 63 34 64 42 65 35 66 36 67
REMARK SMILES IDX 40 68 43 69 37 70 38 71 41 72 39 73 65 74 66 75 74 76 67 77
REMARK SMILES IDX 68 78 72 79 75 80 69 81 70 82 73 83 71 84 50 85 51 86 59 87
REMARK SMILES IDX 52 88 53 89 57 90 60 91 54 92 55 93 58 94 56 95
REMARK H PARENT 17 4 5 17 21 29 80 48 48 59
REMARK Flexibility Score: inf
ROOT
ATOM      1  C   UNL     1       2.290   2.262  -6.955  1.00  0.00     0.254 C 
ATOM      2  O   UNL     1       2.303   1.115  -6.493  1.00  0.00    -0.269 OA
ATOM      3  N   UNL     1       2.378   2.239  -8.316  1.00  0.00    -0.352 N 
ATOM      4  H   UNL     1       2.541   1.324  -8.642  1.00  0.00     0.163 HD
ENDROOT
BRANCH   1   5
ATOM      5  C   UNL     1       2.037   3.416  -6.015  1.00  0.00     0.078 A 
ATOM      6  C   UNL     1       1.006   3.807  -3.818  1.00  0.00     0.101 A 
ATOM      7  C   UNL     1       0.603   5.077  -4.237  1.00  0.00     0.025 A 
ATOM      8  C   UNL     1       1.821   3.040  -4.654  1.00  0.00     0.075 A 
ATOM      9  C   UNL     1       1.069   5.576  -5.444  1.00  0.00     0.023 A 
ATOM     10  Cl  UNL     1       2.984   1.952  -3.934  1.00  0.00    -0.082 Cl
ATOM     11  C   UNL     1       1.796   4.759  -6.326  1.00  0.00     0.055 A 
ATOM     12  Cl  UNL     1       2.579   5.653  -7.573  1.00  0.00    -0.083 Cl
BRANCH   6  13
ATOM     13  S   UNL     1       0.346   3.301  -2.255  1.00  0.00     0.242 S 
ATOM     14  O   UNL     1      -1.081   3.146  -2.445  1.00  0.00    -0.207 OA
ATOM     15  O   UNL     1       0.873   4.232  -1.282  1.00  0.00    -0.207 OA
BRANCH  13  16
ATOM     16  N   UNL     1       0.953   1.821  -1.801  1.00  0.00    -0.206 NA
ATOM     17  H   UNL     1       1.925   1.794  -2.110  1.00  0.00     0.141 HD
BRANCH  16  18
ATOM     18  C   UNL     1       0.315   0.579  -2.288  1.00  0.00     0.161 C 
BRANCH  18  19
ATOM     19  C   UNL     1       1.026  -0.727  -1.818  1.00  0.00     0.263 C 
BRANCH  19  20
ATOM     20  O   UNL     1       0.724  -1.218  -0.510  1.00  0.00    -0.355 OA
ATOM     21  C   UNL     1       0.605  -0.278   0.538  1.00  0.00     0.198 C 
ENDBRANCH  19  20
BRANCH  19  22
ATOM     22  O   UNL     1       2.404  -0.821  -2.185  1.00  0.00    -0.355 OA
ATOM     23  C   UNL     1       3.344  -0.303  -1.266  1.00  0.00     0.198 C 
ENDBRANCH  19  22
ENDBRANCH  18  19
ENDBRANCH  16  18
ENDBRANCH  13  16
ENDBRANCH   6  13
ENDBRANCH   1   5
BRANCH   3  24
ATOM     24  C   UNL     1       2.301   3.172  -9.419  1.00  0.00     0.118 C 
BRANCH  24  25
ATOM     25  C   UNL     1       3.691   3.656  -9.825  1.00  0.00     0.042 C 
BRANCH  25  26
ATOM     26  C   UNL     1       4.480   2.620 -10.623  1.00  0.00     0.118 C 
BRANCH  26  27
ATOM     27  N   UNL     1       3.965   2.474 -11.976  1.00  0.00    -0.352 N 
ATOM     28  C   UNL     1       4.487   2.893 -13.174  1.00  0.00     0.251 C 
ATOM     29  H   UNL     1       3.105   1.998 -12.043  1.00  0.00     0.163 HD
ATOM     30  O   UNL     1       3.769   2.920 -14.170  1.00  0.00    -0.269 OA
BRANCH  28  31
ATOM     31  C   UNL     1       5.903   3.311 -13.284  1.00  0.00     0.039 A 
ATOM     32  C   UNL     1       6.226   4.387 -14.118  1.00  0.00     0.014 A 
ATOM     33  C   UNL     1       6.921   2.600 -12.643  1.00  0.00     0.014 A 
ATOM     34  C   UNL     1       7.559   4.776 -14.274  1.00  0.00     0.010 A 
ATOM     35  C   UNL     1       8.243   3.030 -12.743  1.00  0.00     0.010 A 
ATOM     36  C   UNL     1       8.576   4.112 -13.571  1.00  0.00    -0.014 A 
BRANCH  36  37
ATOM     37  C   UNL     1      10.001   4.507 -13.715  1.00  0.00     0.031 A 
ATOM     38  C   UNL     1      10.983   3.556 -14.341  1.00  0.00     0.074 A 
ATOM     39  C   UNL     1      10.420   5.691 -13.229  1.00  0.00     0.049 A 
ATOM     40  N   UNL     1      12.282   3.662 -14.459  1.00  0.00    -0.248 NA
ATOM     41  C   UNL     1      10.432   2.304 -14.885  1.00  0.00     0.031 C 
ATOM     42  C   UNL     1       9.571   6.683 -12.568  1.00  0.00     0.029 A 
ATOM     43  N   UNL     1      11.672   6.253 -13.201  1.00  0.00    -0.354 N 
ATOM     44  C   UNL     1      12.703   2.489 -15.073  1.00  0.00     0.074 A 
ATOM     45  C   UNL     1      11.530   1.664 -15.260  1.00  0.00     0.031 C 
ATOM     46  C   UNL     1      10.324   7.735 -12.208  1.00  0.00     0.029 A 
ATOM     47  C   UNL     1      11.712   7.478 -12.582  1.00  0.00     0.049 A 
ATOM     48  H   UNL     1      12.466   5.819 -13.589  1.00  0.00     0.167 HD
ATOM     49  C   UNL     1      13.952   2.142 -15.465  1.00  0.00     0.037 A 
ATOM     50  C   UNL     1      12.753   8.294 -12.334  1.00  0.00     0.037 A 
ATOM     51  C   UNL     1      15.114   2.975 -15.302  1.00  0.00     0.049 A 
ATOM     52  C   UNL     1      14.128   7.889 -12.792  1.00  0.00     0.074 A 
ATOM     53  C   UNL     1      16.420   2.725 -15.687  1.00  0.00     0.029 A 
ATOM     54  N   UNL     1      15.104   4.229 -14.711  1.00  0.00    -0.354 N 
ATOM     55  N   UNL     1      14.508   6.793 -13.401  1.00  0.00    -0.248 NA
ATOM     56  C   UNL     1      15.219   8.840 -12.534  1.00  0.00     0.031 C 
ATOM     57  C   UNL     1      17.205   3.820 -15.308  1.00  0.00     0.029 A 
ATOM     58  C   UNL     1      16.381   4.766 -14.720  1.00  0.00     0.049 A 
ATOM     59  H   UNL     1      14.307   4.673 -14.340  1.00  0.00     0.167 HD
ATOM     60  C   UNL     1      15.871   6.931 -13.622  1.00  0.00     0.074 A 
ATOM     61  C   UNL     1      16.250   8.225 -13.095  1.00  0.00     0.031 C 
ATOM     62  C   UNL     1      16.733   6.063 -14.205  1.00  0.00     0.037 A 
BRANCH  49  63
ATOM     63  C   UNL     1      14.123   0.806 -16.127  1.00  0.00     0.064 A 
ATOM     64  C   UNL     1      13.650   0.570 -17.427  1.00  0.00     0.173 A 
ATOM     65  C   UNL     1      14.798  -0.237 -15.474  1.00  0.00     0.173 A 
ATOM     66  F   UNL     1      12.988   1.530 -18.088  1.00  0.00    -0.203 F 
ATOM     67  C   UNL     1      13.825  -0.668 -18.039  1.00  0.00     0.198 A 
ATOM     68  C   UNL     1      14.994  -1.465 -16.100  1.00  0.00     0.198 A 
ATOM     69  F   UNL     1      15.275  -0.061 -14.233  1.00  0.00    -0.203 F 
ATOM     70  F   UNL     1      13.326  -0.884 -19.264  1.00  0.00    -0.200 F 
ATOM     71  C   UNL     1      14.502  -1.682 -17.378  1.00  0.00     0.200 A 
ATOM     72  F   UNL     1      15.659  -2.441 -15.465  1.00  0.00    -0.200 F 
ATOM     73  F   UNL     1      14.675  -2.871 -17.972  1.00  0.00    -0.200 F 
ENDBRANCH  49  63
BRANCH  50  74
ATOM     74  C   UNL     1      12.535   9.586 -11.635  1.00  0.00     0.064 A 
ATOM     75  C   UNL     1      12.658  10.804 -12.318  1.00  0.00     0.173 A 
ATOM     76  C   UNL     1      12.213   9.632 -10.271  1.00  0.00     0.173 A 
ATOM     77  F   UNL     1      12.986  10.811 -13.619  1.00  0.00    -0.203 F 
ATOM     78  C   UNL     1      12.490  12.020 -11.659  1.00  0.00     0.198 A 
ATOM     79  C   UNL     1      12.019  10.848  -9.619  1.00  0.00     0.198 A 
ATOM     80  F   UNL     1      12.079   8.495  -9.573  1.00  0.00    -0.203 F 
ATOM     81  F   UNL     1      12.660  13.169 -12.325  1.00  0.00    -0.200 F 
ATOM     82  C   UNL     1      12.166  12.041 -10.311  1.00  0.00     0.200 A 
ATOM     83  F   UNL     1      11.694  10.864  -8.319  1.00  0.00    -0.200 F 
ATOM     84  F   UNL     1      12.005  13.210  -9.677  1.00  0.00    -0.200 F 
ENDBRANCH  50  74
BRANCH  62  85
ATOM     85  C   UNL     1      18.160   6.502 -14.338  1.00  0.00     0.064 A 
ATOM     86  C   UNL     1      19.021   6.538 -13.232  1.00  0.00     0.173 A 
ATOM     87  C   UNL     1      18.679   6.853 -15.592  1.00  0.00     0.173 A 
ATOM     88  F   UNL     1      18.564   6.226 -12.010  1.00  0.00    -0.203 F 
ATOM     89  C   UNL     1      20.348   6.933 -13.375  1.00  0.00     0.198 A 
ATOM     90  C   UNL     1      20.013   7.223 -15.735  1.00  0.00     0.198 A 
ATOM     91  F   UNL     1      17.895   6.829 -16.680  1.00  0.00    -0.203 F 
ATOM     92  F   UNL     1      21.144   7.001 -12.299  1.00  0.00    -0.200 F 
ATOM     93  C   UNL     1      20.845   7.269 -14.626  1.00  0.00     0.200 A 
ATOM     94  F   UNL     1      20.494   7.539 -16.946  1.00  0.00    -0.200 F 
ATOM     95  F   UNL     1      22.124   7.645 -14.761  1.00  0.00    -0.200 F 
ENDBRANCH  62  85
ENDBRANCH  36  37
ENDBRANCH  28  31
ENDBRANCH  26  27
ENDBRANCH  25  26
ENDBRANCH  24  25
ENDBRANCH   3  24
TORSDOF 16
