REMARK SMILES Cc1ccccc1NC(=O)NC[C@@H]1CC[C@@H](C(=O)NCCCNC(=O)c2ccc(-c3c4nc(c(-c5c(F)c(F)c(F)c(F)c5F)c5ccc([nH]5)c(-c5c(F)c(F)c(F)c(F)c5F)c5nc(c(-c6c(F)c(F)c(F)c(F)c6F)c6ccc3[nH]6)C=C5)C=C4)cc2)O1
REMARK SMILES IDX 20 1 19 2 17 3 18 4 16 6 13 7 14 8 89 9 15 10 12 11 11 12
REMARK SMILES IDX 8 13 9 14 10 16 7 18 1 19 2 20 3 21 4 22 6 23 5 24 21 25
REMARK SMILES IDX 22 26 23 27 24 28 25 30 26 31 27 32 88 33 28 34 87 35 29 36
REMARK SMILES IDX 30 37 31 38 81 39 32 40 86 41 80 42 82 43 33 44 85 45 79 46
REMARK SMILES IDX 78 47 34 49 66 50 46 51 65 52 47 53 50 54 64 55 83 56 48 57
REMARK SMILES IDX 49 58 63 60 84 61 51 62 35 63 36 64 44 65 37 66 38 67 42 68
REMARK SMILES IDX 45 69 39 70 40 71 43 72 41 73 67 74 68 75 76 76 69 77 70 78
REMARK SMILES IDX 74 79 77 80 71 81 72 82 75 83 73 84 52 85 53 86 61 87 54 88
REMARK SMILES IDX 55 89 59 90 62 91 56 92 57 93 60 94 58 95
REMARK H PARENT 19 5 8 15 11 17 23 29 82 48 50 59
REMARK Flexibility Score: inf
ROOT
ATOM      1  C   UNL     1      -7.701   2.246   3.138  1.00  0.00     0.117 C 
ENDROOT
BRANCH   1   2
ATOM      2  N   UNL     1      -6.880   3.422   3.397  1.00  0.00    -0.354 N 
ATOM      3  C   UNL     1      -5.824   3.951   2.698  1.00  0.00     0.249 C 
ATOM      4  O   UNL     1      -5.313   4.974   3.160  1.00  0.00    -0.272 OA
ATOM      5  H   UNL     1      -7.125   3.921   4.209  1.00  0.00     0.163 HD
BRANCH   3   6
ATOM      6  C   UNL     1      -5.341   3.312   1.370  1.00  0.00     0.207 C 
ATOM      7  C   UNL     1      -3.132   2.865   0.704  1.00  0.00     0.138 C 
ATOM      8  C   UNL     1      -3.962   1.623   0.465  1.00  0.00     0.037 C 
ATOM      9  O   UNL     1      -4.129   3.906   0.827  1.00  0.00    -0.363 OA
ATOM     10  C   UNL     1      -5.034   1.829   1.492  1.00  0.00     0.045 C 
BRANCH   7  11
ATOM     11  C   UNL     1      -2.089   3.123  -0.401  1.00  0.00     0.149 C 
BRANCH  11  12
ATOM     12  N   UNL     1      -0.870   3.709   0.151  1.00  0.00    -0.335 N 
ATOM     13  N   UNL     1       0.969   2.151   0.155  1.00  0.00    -0.308 N 
ATOM     14  C   UNL     1       0.409   3.360   0.302  1.00  0.00     0.319 C 
ATOM     15  H   UNL     1       1.946   2.236   0.062  1.00  0.00     0.171 HD
ATOM     16  O   UNL     1       1.190   4.286   0.565  1.00  0.00    -0.249 OA
ATOM     17  H   UNL     1      -1.038   4.609   0.511  1.00  0.00     0.165 HD
BRANCH  13  18
ATOM     18  C   UNL     1       0.590   0.798   0.092  1.00  0.00     0.045 A 
ATOM     19  C   UNL     1       3.013   0.054  -0.408  1.00  0.00     0.046 C 
ATOM     20  C   UNL     1       1.534  -0.194  -0.262  1.00  0.00    -0.027 A 
ATOM     21  C   UNL     1       1.119  -1.539  -0.387  1.00  0.00     0.005 A 
ATOM     22  C   UNL     1      -0.198  -1.912  -0.148  1.00  0.00     0.000 A 
ATOM     23  C   UNL     1      -0.680   0.370   0.452  1.00  0.00     0.026 A 
ATOM     24  C   UNL     1      -1.094  -0.957   0.299  1.00  0.00     0.002 A 
ENDBRANCH  13  18
ENDBRANCH  11  12
ENDBRANCH   7  11
ENDBRANCH   3   6
ENDBRANCH   1   2
BRANCH   1  25
ATOM     25  C   UNL     1      -7.147   0.987   3.814  1.00  0.00     0.042 C 
BRANCH  25  26
ATOM     26  C   UNL     1      -7.577   0.817   5.264  1.00  0.00     0.118 C 
BRANCH  26  27
ATOM     27  N   UNL     1      -8.563  -0.243   5.477  1.00  0.00    -0.352 N 
ATOM     28  C   UNL     1      -9.158  -0.609   6.673  1.00  0.00     0.251 C 
ATOM     29  H   UNL     1      -8.834  -0.753   4.680  1.00  0.00     0.163 HD
ATOM     30  O   UNL     1      -9.991  -1.505   6.729  1.00  0.00    -0.269 OA
BRANCH  28  31
ATOM     31  C   UNL     1      -8.832   0.196   7.867  1.00  0.00     0.039 A 
ATOM     32  C   UNL     1      -9.844   0.993   8.408  1.00  0.00     0.014 A 
ATOM     33  C   UNL     1      -7.494   0.400   8.201  1.00  0.00     0.014 A 
ATOM     34  C   UNL     1      -9.490   2.158   9.081  1.00  0.00     0.010 A 
ATOM     35  C   UNL     1      -7.144   1.599   8.791  1.00  0.00     0.010 A 
ATOM     36  C   UNL     1      -8.142   2.515   9.151  1.00  0.00    -0.014 A 
BRANCH  36  37
ATOM     37  C   UNL     1      -7.704   3.878   9.446  1.00  0.00     0.031 A 
ATOM     38  C   UNL     1      -7.082   4.206  10.744  1.00  0.00     0.074 A 
ATOM     39  C   UNL     1      -7.825   4.838   8.502  1.00  0.00     0.049 A 
ATOM     40  N   UNL     1      -6.983   5.398  11.230  1.00  0.00    -0.248 NA
ATOM     41  C   UNL     1      -6.588   3.176  11.646  1.00  0.00     0.031 C 
ATOM     42  C   UNL     1      -7.227   6.171   8.512  1.00  0.00     0.029 A 
ATOM     43  N   UNL     1      -8.726   4.871   7.422  1.00  0.00    -0.354 N 
ATOM     44  C   UNL     1      -6.197   5.336  12.358  1.00  0.00     0.074 A 
ATOM     45  C   UNL     1      -6.071   3.923  12.625  1.00  0.00     0.031 C 
ATOM     46  C   UNL     1      -7.973   6.981   7.746  1.00  0.00     0.029 A 
ATOM     47  C   UNL     1      -9.140   6.224   7.330  1.00  0.00     0.049 A 
ATOM     48  H   UNL     1      -9.008   4.118   6.854  1.00  0.00     0.167 HD
ATOM     49  C   UNL     1      -5.658   6.492  12.850  1.00  0.00     0.037 A 
ATOM     50  C   UNL     1     -10.437   6.584   7.550  1.00  0.00     0.037 A 
ATOM     51  C   UNL     1      -6.264   7.668  12.213  1.00  0.00     0.049 A 
ATOM     52  C   UNL     1     -10.643   7.552   8.695  1.00  0.00     0.074 A 
ATOM     53  C   UNL     1      -5.871   8.560  11.228  1.00  0.00     0.029 A 
ATOM     54  N   UNL     1      -7.613   7.908  12.424  1.00  0.00    -0.354 N 
ATOM     55  N   UNL     1      -9.698   7.946   9.501  1.00  0.00    -0.248 NA
ATOM     56  C   UNL     1     -11.960   8.062   9.087  1.00  0.00     0.031 C 
ATOM     57  C   UNL     1      -7.015   9.308  10.823  1.00  0.00     0.029 A 
ATOM     58  C   UNL     1      -8.098   8.873  11.563  1.00  0.00     0.049 A 
ATOM     59  H   UNL     1      -8.157   7.447  13.102  1.00  0.00     0.167 HD
ATOM     60  C   UNL     1     -10.250   8.683  10.512  1.00  0.00     0.074 A 
ATOM     61  C   UNL     1     -11.667   8.735  10.212  1.00  0.00     0.031 C 
ATOM     62  C   UNL     1      -9.520   9.165  11.555  1.00  0.00     0.037 A 
BRANCH  49  63
ATOM     63  C   UNL     1      -4.431   6.585  13.750  1.00  0.00     0.064 A 
ATOM     64  C   UNL     1      -3.714   7.800  13.854  1.00  0.00     0.173 A 
ATOM     65  C   UNL     1      -3.847   5.519  14.463  1.00  0.00     0.173 A 
ATOM     66  F   UNL     1      -4.177   8.936  13.315  1.00  0.00    -0.203 F 
ATOM     67  C   UNL     1      -2.484   7.904  14.516  1.00  0.00     0.198 A 
ATOM     68  C   UNL     1      -2.606   5.614  15.103  1.00  0.00     0.198 A 
ATOM     69  F   UNL     1      -4.458   4.348  14.627  1.00  0.00    -0.203 F 
ATOM     70  F   UNL     1      -1.847   9.082  14.555  1.00  0.00    -0.200 F 
ATOM     71  C   UNL     1      -1.915   6.802  15.117  1.00  0.00     0.200 A 
ATOM     72  F   UNL     1      -2.092   4.532  15.708  1.00  0.00    -0.200 F 
ATOM     73  F   UNL     1      -0.726   6.889  15.726  1.00  0.00    -0.200 F 
ENDBRANCH  49  63
BRANCH  50  74
ATOM     74  C   UNL     1     -11.408   5.536   7.141  1.00  0.00     0.064 A 
ATOM     75  C   UNL     1     -11.433   5.134   5.792  1.00  0.00     0.173 A 
ATOM     76  C   UNL     1     -12.028   4.703   8.078  1.00  0.00     0.173 A 
ATOM     77  F   UNL     1     -10.847   5.894   4.853  1.00  0.00    -0.203 F 
ATOM     78  C   UNL     1     -11.944   3.895   5.416  1.00  0.00     0.198 A 
ATOM     79  C   UNL     1     -12.560   3.472   7.694  1.00  0.00     0.198 A 
ATOM     80  F   UNL     1     -12.016   5.017   9.381  1.00  0.00    -0.203 F 
ATOM     81  F   UNL     1     -11.836   3.485   4.144  1.00  0.00    -0.200 F 
ATOM     82  C   UNL     1     -12.485   3.054   6.373  1.00  0.00     0.200 A 
ATOM     83  F   UNL     1     -13.055   2.643   8.624  1.00  0.00    -0.200 F 
ATOM     84  F   UNL     1     -12.890   1.823   6.032  1.00  0.00    -0.200 F 
ENDBRANCH  50  74
BRANCH  62  85
ATOM     85  C   UNL     1     -10.128   9.970  12.655  1.00  0.00     0.064 A 
ATOM     86  C   UNL     1     -10.884  11.123  12.395  1.00  0.00     0.173 A 
ATOM     87  C   UNL     1      -9.867   9.671  14.005  1.00  0.00     0.173 A 
ATOM     88  F   UNL     1     -11.159  11.488  11.134  1.00  0.00    -0.203 F 
ATOM     89  C   UNL     1     -11.364  11.925  13.431  1.00  0.00     0.198 A 
ATOM     90  C   UNL     1     -10.312  10.495  15.035  1.00  0.00     0.198 A 
ATOM     91  F   UNL     1      -9.194   8.562  14.348  1.00  0.00    -0.203 F 
ATOM     92  F   UNL     1     -12.114  12.999  13.149  1.00  0.00    -0.200 F 
ATOM     93  C   UNL     1     -11.064  11.619  14.749  1.00  0.00     0.200 A 
ATOM     94  F   UNL     1     -10.010  10.194  16.306  1.00  0.00    -0.200 F 
ATOM     95  F   UNL     1     -11.505  12.404  15.741  1.00  0.00    -0.200 F 
ENDBRANCH  62  85
ENDBRANCH  36  37
ENDBRANCH  28  31
ENDBRANCH  26  27
ENDBRANCH  25  26
ENDBRANCH   1  25
TORSDOF 13
