REMARK SMILES CCOC(=O)c1ccc(-c2ccc(C(=O)NCCCNC(=O)c3ccc(-c4c5nc(c(-c6c(F)c(F)c(F)c(F)c6F)c6ccc([nH]6)c(-c6c(F)c(F)c(F)c(F)c6F)c6nc(c(-c7c(F)c(F)c(F)c(F)c7F)c7ccc4[nH]7)C=C6)C=C5)cc3)o2)cc1
REMARK SMILES IDX 17 1 16 2 14 3 15 4 13 6 10 7 11 8 86 9 12 10 9 11 6 12 7 13
REMARK SMILES IDX 88 14 8 15 87 16 4 17 5 18 3 19 2 20 1 21 18 22 19 23 20 24
REMARK SMILES IDX 21 25 22 27 23 28 24 29 85 30 25 31 84 32 26 33 27 34 28 35
REMARK SMILES IDX 78 36 29 37 83 38 77 39 79 40 30 41 82 42 76 43 75 44 31 46
REMARK SMILES IDX 63 47 43 48 62 49 44 50 47 51 61 52 80 53 45 54 46 55 60 57
REMARK SMILES IDX 81 58 48 59 32 60 33 61 41 62 34 63 35 64 39 65 42 66 36 67
REMARK SMILES IDX 37 68 40 69 38 70 64 71 65 72 73 73 66 74 67 75 71 76 74 77
REMARK SMILES IDX 68 78 69 79 72 80 70 81 49 82 50 83 58 84 51 85 52 86 56 87
REMARK SMILES IDX 59 88 53 89 54 90 57 91 55 92
REMARK H PARENT 16 5 20 26 79 45 47 56
REMARK Flexibility Score: inf
ROOT
ATOM      1  C   UNL     1       4.685  12.585  -1.917  1.00  0.00     0.118 C 
ENDROOT
BRANCH   1   2
ATOM      2  N   UNL     1       4.622  11.691  -3.057  1.00  0.00    -0.349 N 
ATOM      3  C   UNL     1       4.513  10.319  -3.121  1.00  0.00     0.287 C 
ATOM      4  O   UNL     1       4.333   9.849  -4.246  1.00  0.00    -0.266 OA
ATOM      5  H   UNL     1       4.663  12.140  -3.932  1.00  0.00     0.163 HD
BRANCH   3   6
ATOM      6  C   UNL     1       4.597   9.503  -1.923  1.00  0.00     0.192 A 
ATOM      7  C   UNL     1       4.193   7.665  -0.762  1.00  0.00     0.135 A 
ATOM      8  C   UNL     1       4.883   8.504   0.080  1.00  0.00     0.052 A 
ATOM      9  O   UNL     1       4.027   8.250  -1.978  1.00  0.00    -0.451 OA
ATOM     10  C   UNL     1       5.169   9.668  -0.672  1.00  0.00     0.057 A 
BRANCH   7  11
ATOM     11  C   UNL     1       3.659   6.329  -0.600  1.00  0.00     0.017 A 
ATOM     12  C   UNL     1       2.809   3.719  -0.044  1.00  0.00     0.060 A 
ATOM     13  C   UNL     1       3.905   3.933  -0.887  1.00  0.00     0.016 A 
ATOM     14  C   UNL     1       2.113   4.808   0.493  1.00  0.00     0.016 A 
ATOM     15  C   UNL     1       4.318   5.237  -1.176  1.00  0.00     0.013 A 
ATOM     16  C   UNL     1       2.545   6.110   0.220  1.00  0.00     0.013 A 
BRANCH  12  17
ATOM     17  C   UNL     1       2.477   2.331   0.344  1.00  0.00     0.338 C 
ATOM     18  O   UNL     1       3.322   1.470   0.524  1.00  0.00    -0.246 OA
BRANCH  17  19
ATOM     19  O   UNL     1       1.134   2.188   0.451  1.00  0.00    -0.462 OA
BRANCH  19  20
ATOM     20  C   UNL     1       0.682   0.907   0.916  1.00  0.00     0.230 C 
ATOM     21  C   UNL     1       0.800  -0.165  -0.154  1.00  0.00     0.049 C 
ENDBRANCH  19  20
ENDBRANCH  17  19
ENDBRANCH  12  17
ENDBRANCH   7  11
ENDBRANCH   3   6
ENDBRANCH   1   2
BRANCH   1  22
ATOM     22  C   UNL     1       6.113  13.046  -1.628  1.00  0.00     0.042 C 
BRANCH  22  23
ATOM     23  C   UNL     1       6.631  14.094  -2.612  1.00  0.00     0.118 C 
BRANCH  23  24
ATOM     24  N   UNL     1       5.962  15.378  -2.451  1.00  0.00    -0.352 N 
ATOM     25  C   UNL     1       6.473  16.623  -2.184  1.00  0.00     0.251 C 
ATOM     26  H   UNL     1       4.983  15.347  -2.550  1.00  0.00     0.163 HD
ATOM     27  O   UNL     1       5.705  17.534  -1.887  1.00  0.00    -0.269 OA
BRANCH  25  28
ATOM     28  C   UNL     1       7.928  16.888  -2.238  1.00  0.00     0.039 A 
ATOM     29  C   UNL     1       8.487  17.741  -1.280  1.00  0.00     0.014 A 
ATOM     30  C   UNL     1       8.731  16.371  -3.258  1.00  0.00     0.014 A 
ATOM     31  C   UNL     1       9.853  18.035  -1.313  1.00  0.00     0.010 A 
ATOM     32  C   UNL     1      10.104  16.619  -3.260  1.00  0.00     0.010 A 
ATOM     33  C   UNL     1      10.678  17.456  -2.289  1.00  0.00    -0.014 A 
BRANCH  33  34
ATOM     34  C   UNL     1      12.139  17.718  -2.315  1.00  0.00     0.031 A 
ATOM     35  C   UNL     1      12.752  18.487  -3.452  1.00  0.00     0.074 A 
ATOM     36  C   UNL     1      12.924  17.211  -1.345  1.00  0.00     0.049 A 
ATOM     37  N   UNL     1      14.014  18.728  -3.704  1.00  0.00    -0.248 NA
ATOM     38  C   UNL     1      11.824  19.042  -4.449  1.00  0.00     0.031 C 
ATOM     39  C   UNL     1      12.455  16.419  -0.207  1.00  0.00     0.029 A 
ATOM     40  N   UNL     1      14.284  17.271  -1.171  1.00  0.00    -0.354 N 
ATOM     41  C   UNL     1      14.032  19.446  -4.893  1.00  0.00     0.074 A 
ATOM     42  C   UNL     1      12.659  19.571  -5.332  1.00  0.00     0.031 C 
ATOM     43  C   UNL     1      13.509  16.070   0.549  1.00  0.00     0.029 A 
ATOM     44  C   UNL     1      14.728  16.586  -0.067  1.00  0.00     0.049 A 
ATOM     45  H   UNL     1      14.884  17.759  -1.780  1.00  0.00     0.167 HD
ATOM     46  C   UNL     1      15.097  19.968  -5.549  1.00  0.00     0.037 A 
ATOM     47  C   UNL     1      15.979  16.384   0.390  1.00  0.00     0.037 A 
ATOM     48  C   UNL     1      16.460  19.866  -5.100  1.00  0.00     0.049 A 
ATOM     49  C   UNL     1      17.141  16.986  -0.351  1.00  0.00     0.074 A 
ATOM     50  C   UNL     1      17.603  20.388  -5.681  1.00  0.00     0.029 A 
ATOM     51  N   UNL     1      16.864  19.200  -3.953  1.00  0.00    -0.354 N 
ATOM     52  N   UNL     1      17.141  17.693  -1.454  1.00  0.00    -0.248 NA
ATOM     53  C   UNL     1      18.477  16.769   0.223  1.00  0.00     0.031 C 
ATOM     54  C   UNL     1      18.702  20.018  -4.898  1.00  0.00     0.029 A 
ATOM     55  C   UNL     1      18.239  19.295  -3.811  1.00  0.00     0.049 A 
ATOM     56  H   UNL     1      16.263  18.730  -3.331  1.00  0.00     0.167 HD
ATOM     57  C   UNL     1      18.467  18.022  -1.696  1.00  0.00     0.074 A 
ATOM     58  C   UNL     1      19.244  17.452  -0.616  1.00  0.00     0.031 C 
ATOM     59  C   UNL     1      18.994  18.731  -2.723  1.00  0.00     0.037 A 
BRANCH  46  60
ATOM     60  C   UNL     1      14.829  20.709  -6.825  1.00  0.00     0.064 A 
ATOM     61  C   UNL     1      14.243  21.984  -6.819  1.00  0.00     0.173 A 
ATOM     62  C   UNL     1      15.205  20.164  -8.061  1.00  0.00     0.173 A 
ATOM     63  F   UNL     1      13.855  22.542  -5.662  1.00  0.00    -0.203 F 
ATOM     64  C   UNL     1      14.025  22.677  -8.006  1.00  0.00     0.198 A 
ATOM     65  C   UNL     1      15.008  20.871  -9.245  1.00  0.00     0.198 A 
ATOM     66  F   UNL     1      15.774  18.951  -8.120  1.00  0.00    -0.203 F 
ATOM     67  F   UNL     1      13.430  23.878  -7.979  1.00  0.00    -0.200 F 
ATOM     68  C   UNL     1      14.414  22.124  -9.217  1.00  0.00     0.200 A 
ATOM     69  F   UNL     1      15.394  20.339 -10.413  1.00  0.00    -0.200 F 
ATOM     70  F   UNL     1      14.211  22.796 -10.358  1.00  0.00    -0.200 F 
ENDBRANCH  46  60
BRANCH  47  71
ATOM     71  C   UNL     1      16.197  15.584   1.621  1.00  0.00     0.064 A 
ATOM     72  C   UNL     1      16.605  16.196   2.814  1.00  0.00     0.173 A 
ATOM     73  C   UNL     1      16.009  14.194   1.629  1.00  0.00     0.173 A 
ATOM     74  F   UNL     1      16.818  17.520   2.848  1.00  0.00    -0.203 F 
ATOM     75  C   UNL     1      16.837  15.445   3.964  1.00  0.00     0.198 A 
ATOM     76  C   UNL     1      16.217  13.448   2.786  1.00  0.00     0.198 A 
ATOM     77  F   UNL     1      15.614  13.564   0.513  1.00  0.00    -0.203 F 
ATOM     78  F   UNL     1      17.268  16.049   5.080  1.00  0.00    -0.200 F 
ATOM     79  C   UNL     1      16.638  14.072   3.951  1.00  0.00     0.200 A 
ATOM     80  F   UNL     1      16.012  12.124   2.773  1.00  0.00    -0.200 F 
ATOM     81  F   UNL     1      16.859  13.351   5.058  1.00  0.00    -0.200 F 
ENDBRANCH  47  71
BRANCH  59  82
ATOM     82  C   UNL     1      20.476  18.957  -2.710  1.00  0.00     0.064 A 
ATOM     83  C   UNL     1      21.376  17.932  -3.031  1.00  0.00     0.173 A 
ATOM     84  C   UNL     1      20.998  20.224  -2.409  1.00  0.00     0.173 A 
ATOM     85  F   UNL     1      20.924  16.700  -3.310  1.00  0.00    -0.203 F 
ATOM     86  C   UNL     1      22.749  18.161  -3.031  1.00  0.00     0.198 A 
ATOM     87  C   UNL     1      22.370  20.456  -2.432  1.00  0.00     0.198 A 
ATOM     88  F   UNL     1      20.176  21.238  -2.099  1.00  0.00    -0.203 F 
ATOM     89  F   UNL     1      23.595  17.157  -3.302  1.00  0.00    -0.200 F 
ATOM     90  C   UNL     1      23.244  19.424  -2.738  1.00  0.00     0.200 A 
ATOM     91  F   UNL     1      22.847  21.678  -2.157  1.00  0.00    -0.200 F 
ATOM     92  F   UNL     1      24.566  19.643  -2.743  1.00  0.00    -0.200 F 
ENDBRANCH  59  82
ENDBRANCH  33  34
ENDBRANCH  25  28
ENDBRANCH  23  24
ENDBRANCH  22  23
ENDBRANCH   1  22
TORSDOF 14
