REMARK SMILES O=C(NCCCNC(=O)[C@]1([NH2+]C2CC2)CCC[C@H](SC[C@H](O)CO)C1)c1ccc(-c2c3nc(c(-c4c(F)c(F)c(F)c(F)c4F)c4ccc([nH]4)c(-c4c(F)c(F)c(F)c(F)c4F)c4nc(c(-c5c(F)c(F)c(F)c(F)c5F)c5ccc2[nH]5)C=C4)C=C3)cc1
REMARK SMILES IDX 7 1 8 2 9 3 6 5 5 6 4 7 3 8 1 9 2 10 26 12 27 13 88 14 28 15
REMARK SMILES IDX 87 16 29 17 30 18 31 19 81 20 32 21 86 22 80 23 82 24 33 25
REMARK SMILES IDX 85 26 79 27 78 28 34 30 66 31 46 32 65 33 47 34 50 35 64 36
REMARK SMILES IDX 83 37 48 38 49 39 63 41 84 42 51 43 35 44 36 45 44 46 37 47
REMARK SMILES IDX 38 48 42 49 45 50 39 51 40 52 43 53 41 54 67 55 68 56 76 57
REMARK SMILES IDX 69 58 70 59 74 60 77 61 71 62 72 63 75 64 73 65 52 66 53 67
REMARK SMILES IDX 61 68 54 69 55 70 59 71 62 72 56 73 57 74 60 75 58 76 10 77
REMARK SMILES IDX 15 78 25 79 16 80 18 81 17 82 11 83 12 86 13 87 14 88 19 89
REMARK SMILES IDX 20 90 21 91 23 92 24 93 22 95
REMARK H PARENT 7 4 3 11 82 29 50 40 11 84 11 85 24 94 22 96
REMARK Flexibility Score: inf
ROOT
ATOM      1  N   UNL     1       2.832  -2.124  -8.189  1.00  0.00    -0.351 N 
ATOM      2  C   UNL     1       3.097  -2.766  -7.027  1.00  0.00     0.281 C 
ATOM      3  O   UNL     1       2.620  -2.194  -6.033  1.00  0.00    -0.268 OA
ATOM      4  H   UNL     1       2.175  -1.398  -8.079  1.00  0.00     0.163 HD
ENDROOT
BRANCH   1   5
ATOM      5  C   UNL     1       3.289  -2.258  -9.556  1.00  0.00     0.118 C 
BRANCH   5   6
ATOM      6  C   UNL     1       2.153  -2.618 -10.494  1.00  0.00     0.042 C 
BRANCH   6   7
ATOM      7  C   UNL     1       1.096  -1.523 -10.559  1.00  0.00     0.118 C 
BRANCH   7   8
ATOM      8  N   UNL     1       1.594  -0.301 -11.186  1.00  0.00    -0.352 N 
ATOM      9  O   UNL     1       2.240   1.076 -12.846  1.00  0.00    -0.269 OA
ATOM     10  C   UNL     1       1.547   0.131 -12.492  1.00  0.00     0.251 C 
ATOM     11  H   UNL     1       2.040   0.321 -10.568  1.00  0.00     0.163 HD
BRANCH  10  12
ATOM     12  C   UNL     1       0.685  -0.559 -13.476  1.00  0.00     0.039 A 
ATOM     13  C   UNL     1      -0.572  -1.028 -13.108  1.00  0.00     0.014 A 
ATOM     14  C   UNL     1       1.124  -0.717 -14.795  1.00  0.00     0.014 A 
ATOM     15  C   UNL     1      -1.284  -1.845 -13.971  1.00  0.00     0.010 A 
ATOM     16  C   UNL     1       0.333  -1.419 -15.713  1.00  0.00     0.010 A 
ATOM     17  C   UNL     1      -0.856  -2.033 -15.295  1.00  0.00    -0.014 A 
BRANCH  17  18
ATOM     18  C   UNL     1      -1.712  -2.838 -16.206  1.00  0.00     0.031 A 
ATOM     19  C   UNL     1      -1.204  -4.102 -16.842  1.00  0.00     0.074 A 
ATOM     20  C   UNL     1      -2.991  -2.453 -16.389  1.00  0.00     0.049 A 
ATOM     21  N   UNL     1      -1.846  -4.957 -17.599  1.00  0.00    -0.248 NA
ATOM     22  C   UNL     1       0.206  -4.451 -16.613  1.00  0.00     0.031 C 
ATOM     23  C   UNL     1      -3.591  -1.236 -15.834  1.00  0.00     0.029 A 
ATOM     24  N   UNL     1      -4.030  -3.061 -17.045  1.00  0.00    -0.354 N 
ATOM     25  C   UNL     1      -0.913  -5.918 -17.967  1.00  0.00     0.074 A 
ATOM     26  C   UNL     1       0.345  -5.535 -17.363  1.00  0.00     0.031 C 
ATOM     27  C   UNL     1      -4.905  -1.235 -16.090  1.00  0.00     0.029 A 
ATOM     28  C   UNL     1      -5.228  -2.404 -16.898  1.00  0.00     0.049 A 
ATOM     29  H   UNL     1      -3.928  -3.887 -17.571  1.00  0.00     0.167 HD
ATOM     30  C   UNL     1      -1.095  -7.019 -18.735  1.00  0.00     0.037 A 
ATOM     31  C   UNL     1      -6.453  -2.704 -17.365  1.00  0.00     0.037 A 
ATOM     32  C   UNL     1      -2.360  -7.415 -19.298  1.00  0.00     0.049 A 
ATOM     33  C   UNL     1      -6.625  -3.940 -18.198  1.00  0.00     0.074 A 
ATOM     34  C   UNL     1      -2.656  -8.535 -20.056  1.00  0.00     0.029 A 
ATOM     35  N   UNL     1      -3.544  -6.703 -19.160  1.00  0.00    -0.354 N 
ATOM     36  N   UNL     1      -5.738  -4.848 -18.521  1.00  0.00    -0.248 NA
ATOM     37  C   UNL     1      -7.967  -4.186 -18.740  1.00  0.00     0.031 C 
ATOM     38  C   UNL     1      -4.009  -8.480 -20.411  1.00  0.00     0.029 A 
ATOM     39  C   UNL     1      -4.567  -7.351 -19.834  1.00  0.00     0.049 A 
ATOM     40  H   UNL     1      -3.642  -5.862 -18.657  1.00  0.00     0.167 HD
ATOM     41  C   UNL     1      -6.413  -5.780 -19.294  1.00  0.00     0.074 A 
ATOM     42  C   UNL     1      -7.792  -5.340 -19.369  1.00  0.00     0.031 C 
ATOM     43  C   UNL     1      -5.933  -6.897 -19.894  1.00  0.00     0.037 A 
BRANCH  30  44
ATOM     44  C   UNL     1       0.109  -7.866 -19.037  1.00  0.00     0.064 A 
ATOM     45  C   UNL     1       0.711  -8.675 -18.063  1.00  0.00     0.173 A 
ATOM     46  C   UNL     1       0.642  -7.896 -20.335  1.00  0.00     0.173 A 
ATOM     47  F   UNL     1       0.250  -8.674 -16.803  1.00  0.00    -0.203 F 
ATOM     48  C   UNL     1       1.817  -9.465 -18.372  1.00  0.00     0.198 A 
ATOM     49  C   UNL     1       1.730  -8.707 -20.647  1.00  0.00     0.198 A 
ATOM     50  F   UNL     1       0.101  -7.145 -21.306  1.00  0.00    -0.203 F 
ATOM     51  F   UNL     1       2.403 -10.197 -17.414  1.00  0.00    -0.200 F 
ATOM     52  C   UNL     1       2.321  -9.486 -19.663  1.00  0.00     0.200 A 
ATOM     53  F   UNL     1       2.209  -8.734 -21.898  1.00  0.00    -0.200 F 
ATOM     54  F   UNL     1       3.381 -10.251 -19.959  1.00  0.00    -0.200 F 
ENDBRANCH  30  44
BRANCH  31  55
ATOM     55  C   UNL     1      -7.603  -1.819 -17.048  1.00  0.00     0.064 A 
ATOM     56  C   UNL     1      -8.637  -2.253 -16.207  1.00  0.00     0.173 A 
ATOM     57  C   UNL     1      -7.682  -0.516 -17.561  1.00  0.00     0.173 A 
ATOM     58  F   UNL     1      -8.615  -3.497 -15.707  1.00  0.00    -0.203 F 
ATOM     59  C   UNL     1      -9.711  -1.421 -15.901  1.00  0.00     0.198 A 
ATOM     60  C   UNL     1      -8.741   0.326 -17.229  1.00  0.00     0.198 A 
ATOM     61  F   UNL     1      -6.715  -0.051 -18.366  1.00  0.00    -0.203 F 
ATOM     62  F   UNL     1     -10.706  -1.873 -15.125  1.00  0.00    -0.200 F 
ATOM     63  C   UNL     1      -9.758  -0.129 -16.404  1.00  0.00     0.200 A 
ATOM     64  F   UNL     1      -8.771   1.579 -17.703  1.00  0.00    -0.200 F 
ATOM     65  F   UNL     1     -10.786   0.674 -16.100  1.00  0.00    -0.200 F 
ENDBRANCH  31  55
BRANCH  43  66
ATOM     66  C   UNL     1      -6.919  -7.730 -20.657  1.00  0.00     0.064 A 
ATOM     67  C   UNL     1      -7.442  -7.307 -21.887  1.00  0.00     0.173 A 
ATOM     68  C   UNL     1      -7.336  -8.972 -20.154  1.00  0.00     0.173 A 
ATOM     69  F   UNL     1      -7.086  -6.119 -22.399  1.00  0.00    -0.203 F 
ATOM     70  C   UNL     1      -8.371  -8.084 -22.573  1.00  0.00     0.198 A 
ATOM     71  C   UNL     1      -8.244  -9.758 -20.857  1.00  0.00     0.198 A 
ATOM     72  F   UNL     1      -6.861  -9.422 -18.983  1.00  0.00    -0.203 F 
ATOM     73  F   UNL     1      -8.899  -7.636 -23.721  1.00  0.00    -0.200 F 
ATOM     74  C   UNL     1      -8.768  -9.310 -22.060  1.00  0.00     0.200 A 
ATOM     75  F   UNL     1      -8.619 -10.947 -20.365  1.00  0.00    -0.200 F 
ATOM     76  F   UNL     1      -9.663 -10.056 -22.721  1.00  0.00    -0.200 F 
ENDBRANCH  43  66
ENDBRANCH  17  18
ENDBRANCH  10  12
ENDBRANCH   7   8
ENDBRANCH   6   7
ENDBRANCH   5   6
ENDBRANCH   1   5
BRANCH   2  77
ATOM     77  C   UNL     1       4.004  -4.040  -6.874  1.00  0.00     0.176 C 
ATOM     78  C   UNL     1       3.967  -5.137  -7.964  1.00  0.00     0.079 C 
ATOM     79  C   UNL     1       3.609  -4.711  -5.506  1.00  0.00     0.093 C 
ATOM     80  C   UNL     1       2.686  -5.962  -8.003  1.00  0.00     0.008 C 
ATOM     81  C   UNL     1       2.344  -5.602  -5.520  1.00  0.00     0.053 C 
ATOM     82  C   UNL     1       2.431  -6.626  -6.654  1.00  0.00     0.015 C 
BRANCH  77  83
ATOM     83  N   UNL     1       5.421  -3.563  -6.699  1.00  0.00    -0.331 N 
ATOM     84  H   UNL     1       6.005  -4.384  -6.539  1.00  0.00     0.347 HD
ATOM     85  H   UNL     1       5.387  -2.904  -5.921  1.00  0.00     0.347 HD
BRANCH  83  86
ATOM     86  C   UNL     1       6.011  -2.810  -7.813  1.00  0.00     0.183 C 
ATOM     87  C   UNL     1       5.991  -1.305  -7.762  1.00  0.00     0.071 C 
ATOM     88  C   UNL     1       7.284  -2.040  -7.595  1.00  0.00     0.071 C 
ENDBRANCH  83  86
ENDBRANCH  77  83
BRANCH  81  89
ATOM     89  S   UNL     1       0.730  -4.742  -5.716  1.00  0.00    -0.156 SA
BRANCH  89  90
ATOM     90  C   UNL     1       0.307  -4.401  -3.971  1.00  0.00     0.104 C 
BRANCH  90  91
ATOM     91  C   UNL     1      -1.128  -3.862  -3.850  1.00  0.00     0.149 C 
BRANCH  91  92
ATOM     92  C   UNL     1      -1.364  -2.518  -4.550  1.00  0.00     0.188 C 
BRANCH  92  93
ATOM     93  O   UNL     1      -2.712  -2.097  -4.316  1.00  0.00    -0.394 OA
ATOM     94  H   UNL     1      -3.324  -2.762  -4.668  1.00  0.00     0.210 HD
ENDBRANCH  92  93
ENDBRANCH  91  92
BRANCH  91  95
ATOM     95  O   UNL     1      -2.071  -4.816  -4.379  1.00  0.00    -0.390 OA
ATOM     96  H   UNL     1      -1.912  -4.935  -5.328  1.00  0.00     0.211 HD
ENDBRANCH  91  95
ENDBRANCH  90  91
ENDBRANCH  89  90
ENDBRANCH  81  89
ENDBRANCH   2  77
TORSDOF 18
