REMARK SMILES Cc1cccc(C[N@@H+](C)C[C@]2(C(=O)NCCCNC(=O)c3ccc(-c4c5nc(c(-c6c(F)c(F)c(F)c(F)c6F)c6ccc([nH]6)c(-c6c(F)c(F)c(F)c(F)c6F)c6nc(c(-c7c(F)c(F)c(F)c(F)c7F)c7ccc4[nH]7)C=C6)C=C5)cc3)CCC[C@H](C)C2)n1
REMARK SMILES IDX 15 1 14 2 12 3 13 4 11 6 84 7 89 8 85 9 87 10 86 11 88 12
REMARK SMILES IDX 10 13 8 14 9 15 7 17 6 18 1 19 2 20 3 21 90 22 4 23 5 24
REMARK SMILES IDX 16 25 17 26 18 27 19 28 20 30 21 31 22 32 83 33 23 34 82 35
REMARK SMILES IDX 24 36 25 37 26 38 76 39 27 40 81 41 75 42 77 43 28 44 80 45
REMARK SMILES IDX 74 46 73 47 29 49 61 50 41 51 60 52 42 53 45 54 59 55 78 56
REMARK SMILES IDX 43 57 44 58 58 60 79 61 46 62 30 63 31 64 39 65 32 66 33 67
REMARK SMILES IDX 37 68 40 69 34 70 35 71 38 72 36 73 62 74 63 75 71 76 64 77
REMARK SMILES IDX 65 78 69 79 72 80 66 81 67 82 70 83 68 84 47 85 48 86 56 87
REMARK SMILES IDX 49 88 50 89 54 90 57 91 51 92 52 93 55 94 53 95
REMARK H PARENT 14 5 8 16 18 29 77 48 45 59
REMARK Flexibility Score: inf
ROOT
ATOM      1  C   UNL     1       0.630   4.433   1.123  1.00  0.00     0.117 C 
ENDROOT
BRANCH   1   2
ATOM      2  N   UNL     1       1.203   3.531   2.096  1.00  0.00    -0.355 N 
ATOM      3  C   UNL     1       0.596   2.790   3.063  1.00  0.00     0.231 C 
ATOM      4  O   UNL     1       1.291   1.887   3.545  1.00  0.00    -0.274 OA
ATOM      5  H   UNL     1       2.182   3.439   2.053  1.00  0.00     0.163 HD
BRANCH   3   6
ATOM      6  C   UNL     1      -0.850   3.065   3.570  1.00  0.00     0.098 C 
ATOM      7  C   UNL     1      -1.063   2.222   4.878  1.00  0.00     0.023 C 
ATOM      8  C   UNL     1      -1.079   4.547   3.967  1.00  0.00     0.026 C 
ATOM      9  C   UNL     1      -0.238   2.689   6.082  1.00  0.00     0.002 C 
ATOM     10  C   UNL     1      -0.182   5.019   5.127  1.00  0.00    -0.013 C 
ATOM     11  C   UNL     1      -0.432   4.170   6.373  1.00  0.00     0.003 C 
ATOM     12  C   UNL     1      -0.427   6.498   5.429  1.00  0.00     0.007 C 
BRANCH   6  13
ATOM     13  C   UNL     1      -1.903   2.501   2.533  1.00  0.00     0.279 C 
BRANCH  13  14
ATOM     14  N   UNL     1      -1.970   3.144   1.215  1.00  0.00    -0.331 N 
ATOM     15  C   UNL     1      -2.943   4.234   1.137  1.00  0.00     0.333 C 
ATOM     16  H   UNL     1      -1.026   3.526   1.153  1.00  0.00     0.348 HD
BRANCH  14  17
ATOM     17  C   UNL     1      -2.112   2.263   0.037  1.00  0.00     0.319 C 
BRANCH  17  18
ATOM     18  C   UNL     1      -1.274   0.992   0.001  1.00  0.00     0.095 A 
ATOM     19  C   UNL     1       2.297   0.074  -0.005  1.00  0.00     0.067 C 
ATOM     20  C   UNL     1       0.803  -0.057  -0.017  1.00  0.00     0.038 A 
ATOM     21  C   UNL     1       0.211  -1.316   0.000  1.00  0.00     0.023 A 
ATOM     22  N   UNL     1       0.081   1.093  -0.032  1.00  0.00    -0.252 NA
ATOM     23  C   UNL     1      -1.175  -1.405   0.006  1.00  0.00     0.004 A 
ATOM     24  C   UNL     1      -1.929  -0.240   0.009  1.00  0.00     0.030 A 
ENDBRANCH  17  18
ENDBRANCH  14  17
ENDBRANCH  13  14
ENDBRANCH   6  13
ENDBRANCH   3   6
ENDBRANCH   1   2
BRANCH   1  25
ATOM     25  C   UNL     1       1.344   5.759   1.026  1.00  0.00     0.042 C 
BRANCH  25  26
ATOM     26  C   UNL     1       2.694   5.644   0.356  1.00  0.00     0.118 C 
BRANCH  26  27
ATOM     27  N   UNL     1       2.597   5.236  -1.043  1.00  0.00    -0.352 N 
ATOM     28  C   UNL     1       2.817   5.943  -2.202  1.00  0.00     0.251 C 
ATOM     29  H   UNL     1       2.329   4.299  -1.179  1.00  0.00     0.163 HD
ATOM     30  O   UNL     1       2.493   5.473  -3.284  1.00  0.00    -0.269 OA
BRANCH  28  31
ATOM     31  C   UNL     1       3.421   7.290  -2.137  1.00  0.00     0.039 A 
ATOM     32  C   UNL     1       2.958   8.292  -2.994  1.00  0.00     0.014 A 
ATOM     33  C   UNL     1       4.436   7.570  -1.224  1.00  0.00     0.014 A 
ATOM     34  C   UNL     1       3.458   9.590  -2.870  1.00  0.00     0.010 A 
ATOM     35  C   UNL     1       4.821   8.882  -1.001  1.00  0.00     0.010 A 
ATOM     36  C   UNL     1       4.358   9.905  -1.839  1.00  0.00    -0.014 A 
BRANCH  36  37
ATOM     37  C   UNL     1       4.873  11.281  -1.638  1.00  0.00     0.031 A 
ATOM     38  C   UNL     1       6.356  11.535  -1.701  1.00  0.00     0.074 A 
ATOM     39  C   UNL     1       4.024  12.278  -1.323  1.00  0.00     0.049 A 
ATOM     40  N   UNL     1       7.021  12.635  -1.455  1.00  0.00    -0.248 NA
ATOM     41  C   UNL     1       7.212  10.387  -2.046  1.00  0.00     0.031 C 
ATOM     42  C   UNL     1       2.574  12.142  -1.174  1.00  0.00     0.029 A 
ATOM     43  N   UNL     1       4.261  13.604  -1.060  1.00  0.00    -0.354 N 
ATOM     44  C   UNL     1       8.363  12.302  -1.591  1.00  0.00     0.074 A 
ATOM     45  C   UNL     1       8.425  10.885  -1.865  1.00  0.00     0.031 C 
ATOM     46  C   UNL     1       2.048  13.342  -0.881  1.00  0.00     0.029 A 
ATOM     47  C   UNL     1       3.125  14.320  -0.775  1.00  0.00     0.049 A 
ATOM     48  H   UNL     1       5.161  14.003  -1.075  1.00  0.00     0.167 HD
ATOM     49  C   UNL     1       9.445  13.111  -1.528  1.00  0.00     0.037 A 
ATOM     50  C   UNL     1       2.974  15.620  -0.457  1.00  0.00     0.037 A 
ATOM     51  C   UNL     1       9.373  14.528  -1.293  1.00  0.00     0.049 A 
ATOM     52  C   UNL     1       4.194  16.500  -0.394  1.00  0.00     0.074 A 
ATOM     53  C   UNL     1      10.400  15.453  -1.276  1.00  0.00     0.029 A 
ATOM     54  N   UNL     1       8.200  15.224  -1.035  1.00  0.00    -0.354 N 
ATOM     55  N   UNL     1       5.452  16.190  -0.598  1.00  0.00    -0.248 NA
ATOM     56  C   UNL     1       3.972  17.914  -0.064  1.00  0.00     0.031 C 
ATOM     57  C   UNL     1       9.857  16.700  -0.954  1.00  0.00     0.029 A 
ATOM     58  C   UNL     1       8.483  16.564  -0.833  1.00  0.00     0.049 A 
ATOM     59  H   UNL     1       7.301  14.824  -1.001  1.00  0.00     0.167 HD
ATOM     60  C   UNL     1       6.166  17.372  -0.454  1.00  0.00     0.074 A 
ATOM     61  C   UNL     1       5.198  18.409  -0.161  1.00  0.00     0.031 C 
ATOM     62  C   UNL     1       7.502  17.582  -0.554  1.00  0.00     0.037 A 
BRANCH  49  63
ATOM     63  C   UNL     1      10.796  12.483  -1.727  1.00  0.00     0.064 A 
ATOM     64  C   UNL     1      11.188  11.952  -2.966  1.00  0.00     0.173 A 
ATOM     65  C   UNL     1      11.719  12.433  -0.672  1.00  0.00     0.173 A 
ATOM     66  F   UNL     1      10.340  11.961  -4.005  1.00  0.00    -0.203 F 
ATOM     67  C   UNL     1      12.439  11.362  -3.130  1.00  0.00     0.198 A 
ATOM     68  C   UNL     1      12.983  11.876  -0.850  1.00  0.00     0.198 A 
ATOM     69  F   UNL     1      11.399  12.929   0.533  1.00  0.00    -0.203 F 
ATOM     70  F   UNL     1      12.767  10.808  -4.306  1.00  0.00    -0.200 F 
ATOM     71  C   UNL     1      13.338  11.332  -2.075  1.00  0.00     0.200 A 
ATOM     72  F   UNL     1      13.856  11.861   0.166  1.00  0.00    -0.200 F 
ATOM     73  F   UNL     1      14.545  10.772  -2.237  1.00  0.00    -0.200 F 
ENDBRANCH  49  63
BRANCH  50  74
ATOM     74  C   UNL     1       1.618  16.174  -0.202  1.00  0.00     0.064 A 
ATOM     75  C   UNL     1       1.040  17.096  -1.086  1.00  0.00     0.173 A 
ATOM     76  C   UNL     1       0.876  15.804   0.929  1.00  0.00     0.173 A 
ATOM     77  F   UNL     1       1.716  17.495  -2.173  1.00  0.00    -0.203 F 
ATOM     78  C   UNL     1      -0.215  17.646  -0.836  1.00  0.00     0.198 A 
ATOM     79  C   UNL     1      -0.393  16.331   1.162  1.00  0.00     0.198 A 
ATOM     80  F   UNL     1       1.378  14.920   1.803  1.00  0.00    -0.203 F 
ATOM     81  F   UNL     1      -0.720  18.565  -1.670  1.00  0.00    -0.200 F 
ATOM     82  C   UNL     1      -0.933  17.259   0.286  1.00  0.00     0.200 A 
ATOM     83  F   UNL     1      -1.091  15.941   2.238  1.00  0.00    -0.200 F 
ATOM     84  F   UNL     1      -2.141  17.787   0.525  1.00  0.00    -0.200 F 
ENDBRANCH  50  74
BRANCH  62  85
ATOM     85  C   UNL     1       7.992  18.992  -0.391  1.00  0.00     0.064 A 
ATOM     86  C   UNL     1       7.977  19.640   0.852  1.00  0.00     0.173 A 
ATOM     87  C   UNL     1       8.527  19.685  -1.488  1.00  0.00     0.173 A 
ATOM     88  F   UNL     1       7.464  19.026   1.929  1.00  0.00    -0.203 F 
ATOM     89  C   UNL     1       8.453  20.942   0.985  1.00  0.00     0.198 A 
ATOM     90  C   UNL     1       9.034  20.973  -1.344  1.00  0.00     0.198 A 
ATOM     91  F   UNL     1       8.572  19.107  -2.698  1.00  0.00    -0.203 F 
ATOM     92  F   UNL     1       8.381  21.561   2.171  1.00  0.00    -0.200 F 
ATOM     93  C   UNL     1       8.989  21.603  -0.110  1.00  0.00     0.200 A 
ATOM     94  F   UNL     1       9.567  21.603  -2.400  1.00  0.00    -0.200 F 
ATOM     95  F   UNL     1       9.456  22.852   0.022  1.00  0.00    -0.200 F 
ENDBRANCH  62  85
ENDBRANCH  36  37
ENDBRANCH  28  31
ENDBRANCH  26  27
ENDBRANCH  25  26
ENDBRANCH   1  25
TORSDOF 14
