REMARK SMILES O=C1CCCC2=C1[C@H](c1ccc([N+](=O)[O-])cc1)CC(=O)N2c1ccccc1C(=O)NCCCNC(=O)c1ccc(-c2c3nc(c(-c4c(F)c(F)c(F)c(F)c4F)c4ccc([nH]4)c(-c4c(F)c(F)c(F)c(F)c4F)c4nc(c(-c5c(F)c(F)c(F)c(F)c5F)c5ccc2[nH]5)C=C4)C=C3)cc1
REMARK SMILES IDX 31 1 30 2 28 3 29 4 27 6 22 7 23 8 24 9 26 10 25 11 21 12
REMARK SMILES IDX 1 13 2 14 3 15 7 16 4 17 6 18 8 19 5 20 18 21 19 22 20 23
REMARK SMILES IDX 9 24 10 25 17 26 11 27 16 28 12 29 13 30 14 31 15 32 32 33
REMARK SMILES IDX 33 34 34 35 35 36 36 38 37 39 38 40 99 41 39 42 98 43 40 44
REMARK SMILES IDX 41 45 42 46 92 47 43 48 97 49 91 50 93 51 44 52 96 53 90 54
REMARK SMILES IDX 89 55 45 57 77 58 57 59 76 60 58 61 61 62 75 63 94 64 59 65
REMARK SMILES IDX 60 66 74 68 95 69 62 70 46 71 47 72 55 73 48 74 49 75 53 76
REMARK SMILES IDX 56 77 50 78 51 79 54 80 52 81 78 82 79 83 87 84 80 85 81 86
REMARK SMILES IDX 85 87 88 88 82 89 83 90 86 91 84 92 63 93 64 94 72 95 65 96
REMARK SMILES IDX 66 97 70 98 73 99 67 100 68 101 71 102 69 103
REMARK H PARENT 30 5 34 37 93 56 61 67
REMARK Flexibility Score: inf
ROOT
ATOM      1  C   UNL     1       4.772  -0.843   1.705  1.00  0.00     0.118 C 
ENDROOT
BRANCH   1   2
ATOM      2  N   UNL     1       6.197  -0.605   1.801  1.00  0.00    -0.352 N 
ATOM      3  C   UNL     1       7.310  -0.794   1.019  1.00  0.00     0.253 C 
ATOM      4  O   UNL     1       8.290  -0.218   1.522  1.00  0.00    -0.269 OA
ATOM      5  H   UNL     1       6.433  -0.194   2.664  1.00  0.00     0.163 HD
BRANCH   3   6
ATOM      6  C   UNL     1       7.553  -1.539  -0.295  1.00  0.00     0.063 A 
ATOM      7  C   UNL     1       6.741  -2.230  -1.225  1.00  0.00     0.061 A 
ATOM      8  C   UNL     1       7.340  -2.824  -2.384  1.00  0.00     0.027 A 
ATOM      9  C   UNL     1       8.702  -2.813  -2.633  1.00  0.00     0.002 A 
ATOM     10  C   UNL     1       8.954  -1.561  -0.604  1.00  0.00     0.016 A 
ATOM     11  C   UNL     1       9.519  -2.182  -1.728  1.00  0.00     0.001 A 
BRANCH   7  12
ATOM     12  N   UNL     1       5.327  -2.458  -1.186  1.00  0.00    -0.284 N 
ATOM     13  O   UNL     1       0.874  -0.916  -0.927  1.00  0.00    -0.294 OA
ATOM     14  C   UNL     1       2.075  -0.647  -0.961  1.00  0.00     0.161 C 
ATOM     15  C   UNL     1       2.574   0.783  -0.915  1.00  0.00     0.081 C 
ATOM     16  C   UNL     1       3.080  -1.750  -0.972  1.00  0.00     0.023 C 
ATOM     17  C   UNL     1       3.743   0.983  -1.855  1.00  0.00     0.015 C 
ATOM     18  C   UNL     1       4.369  -1.438  -1.248  1.00  0.00     0.033 C 
ATOM     19  C   UNL     1       2.610  -3.196  -0.771  1.00  0.00     0.064 C 
ATOM     20  C   UNL     1       4.847  -0.047  -1.633  1.00  0.00     0.055 C 
ATOM     21  C   UNL     1       3.492  -4.052  -1.660  1.00  0.00     0.114 C 
ATOM     22  C   UNL     1       4.938  -3.819  -1.287  1.00  0.00     0.232 C 
ATOM     23  O   UNL     1       5.691  -4.785  -1.152  1.00  0.00    -0.274 OA
BRANCH  19  24
ATOM     24  C   UNL     1       2.574  -3.704   0.681  1.00  0.00    -0.039 A 
ATOM     25  C   UNL     1       3.405  -4.720   1.222  1.00  0.00     0.011 A 
ATOM     26  C   UNL     1       1.643  -3.140   1.541  1.00  0.00     0.011 A 
ATOM     27  C   UNL     1       3.435  -5.033   2.592  1.00  0.00     0.086 A 
ATOM     28  C   UNL     1       1.660  -3.474   2.894  1.00  0.00     0.086 A 
ATOM     29  C   UNL     1       2.587  -4.350   3.436  1.00  0.00     0.269 A 
BRANCH  29  30
ATOM     30  N   UNL     1       2.753  -4.399   4.888  1.00  0.00     0.062 N 
ATOM     31  O   UNL     1       3.100  -5.473   5.393  1.00  0.00    -0.258 OA
ATOM     32  O   UNL     1       2.572  -3.341   5.514  1.00  0.00    -0.258 OA
ENDBRANCH  29  30
ENDBRANCH  19  24
ENDBRANCH   7  12
ENDBRANCH   3   6
ENDBRANCH   1   2
BRANCH   1  33
ATOM     33  C   UNL     1       4.030  -0.956   3.045  1.00  0.00     0.042 C 
BRANCH  33  34
ATOM     34  C   UNL     1       2.942   0.067   3.458  1.00  0.00     0.118 C 
BRANCH  34  35
ATOM     35  N   UNL     1       1.817   0.373   2.562  1.00  0.00    -0.352 N 
ATOM     36  C   UNL     1       0.445   0.170   2.538  1.00  0.00     0.251 C 
ATOM     37  H   UNL     1       2.121   0.855   1.759  1.00  0.00     0.163 HD
ATOM     38  O   UNL     1      -0.198   0.834   1.721  1.00  0.00    -0.269 OA
BRANCH  36  39
ATOM     39  C   UNL     1      -0.307  -0.831   3.350  1.00  0.00     0.039 A 
ATOM     40  C   UNL     1      -1.345  -1.573   2.737  1.00  0.00     0.014 A 
ATOM     41  C   UNL     1       0.011  -1.138   4.662  1.00  0.00     0.014 A 
ATOM     42  C   UNL     1      -1.972  -2.668   3.388  1.00  0.00     0.010 A 
ATOM     43  C   UNL     1      -0.536  -2.294   5.258  1.00  0.00     0.010 A 
ATOM     44  C   UNL     1      -1.552  -3.081   4.658  1.00  0.00    -0.014 A 
BRANCH  44  45
ATOM     45  C   UNL     1      -2.188  -4.215   5.447  1.00  0.00     0.031 A 
ATOM     46  C   UNL     1      -2.525  -3.963   6.910  1.00  0.00     0.074 A 
ATOM     47  C   UNL     1      -2.399  -5.476   4.995  1.00  0.00     0.049 A 
ATOM     48  N   UNL     1      -2.797  -4.809   7.876  1.00  0.00    -0.248 NA
ATOM     49  C   UNL     1      -2.421  -2.568   7.367  1.00  0.00     0.031 C 
ATOM     50  C   UNL     1      -2.085  -5.996   3.664  1.00  0.00     0.029 A 
ATOM     51  N   UNL     1      -2.925  -6.579   5.650  1.00  0.00    -0.354 N 
ATOM     52  C   UNL     1      -2.768  -4.050   9.040  1.00  0.00     0.074 A 
ATOM     53  C   UNL     1      -2.285  -2.740   8.669  1.00  0.00     0.031 C 
ATOM     54  C   UNL     1      -2.443  -7.295   3.596  1.00  0.00     0.029 A 
ATOM     55  C   UNL     1      -2.999  -7.721   4.881  1.00  0.00     0.049 A 
ATOM     56  H   UNL     1      -3.221  -6.550   6.588  1.00  0.00     0.167 HD
ATOM     57  C   UNL     1      -3.199  -4.345  10.291  1.00  0.00     0.037 A 
ATOM     58  C   UNL     1      -3.469  -8.958   5.170  1.00  0.00     0.037 A 
ATOM     59  C   UNL     1      -3.839  -5.573  10.659  1.00  0.00     0.049 A 
ATOM     60  C   UNL     1      -4.047  -9.262   6.540  1.00  0.00     0.074 A 
ATOM     61  C   UNL     1      -4.420  -5.917  11.867  1.00  0.00     0.029 A 
ATOM     62  N   UNL     1      -4.021  -6.647   9.804  1.00  0.00    -0.354 N 
ATOM     63  N   UNL     1      -4.106  -8.504   7.607  1.00  0.00    -0.248 NA
ATOM     64  C   UNL     1      -4.650 -10.594   6.734  1.00  0.00     0.031 C 
ATOM     65  C   UNL     1      -4.941  -7.210  11.748  1.00  0.00     0.029 A 
ATOM     66  C   UNL     1      -4.721  -7.649  10.453  1.00  0.00     0.049 A 
ATOM     67  H   UNL     1      -3.700  -6.691   8.875  1.00  0.00     0.167 HD
ATOM     68  C   UNL     1      -4.795  -9.239   8.568  1.00  0.00     0.074 A 
ATOM     69  C   UNL     1      -5.138 -10.505   7.963  1.00  0.00     0.031 C 
ATOM     70  C   UNL     1      -5.116  -8.889   9.838  1.00  0.00     0.037 A 
BRANCH  57  71
ATOM     71  C   UNL     1      -3.061  -3.263  11.328  1.00  0.00     0.064 A 
ATOM     72  C   UNL     1      -3.753  -2.045  11.215  1.00  0.00     0.173 A 
ATOM     73  C   UNL     1      -2.202  -3.427  12.424  1.00  0.00     0.173 A 
ATOM     74  F   UNL     1      -4.586  -1.833  10.183  1.00  0.00    -0.203 F 
ATOM     75  C   UNL     1      -3.520  -1.001  12.103  1.00  0.00     0.198 A 
ATOM     76  C   UNL     1      -2.015  -2.399  13.345  1.00  0.00     0.198 A 
ATOM     77  F   UNL     1      -1.534  -4.577  12.598  1.00  0.00    -0.203 F 
ATOM     78  F   UNL     1      -4.101   0.189  11.900  1.00  0.00    -0.200 F 
ATOM     79  C   UNL     1      -2.655  -1.180  13.170  1.00  0.00     0.200 A 
ATOM     80  F   UNL     1      -1.199  -2.579  14.392  1.00  0.00    -0.200 F 
ATOM     81  F   UNL     1      -2.426  -0.172  14.023  1.00  0.00    -0.200 F 
ENDBRANCH  57  71
BRANCH  58  82
ATOM     82  C   UNL     1      -3.502 -10.025   4.124  1.00  0.00     0.064 A 
ATOM     83  C   UNL     1      -4.723 -10.448   3.574  1.00  0.00     0.173 A 
ATOM     84  C   UNL     1      -2.342 -10.693   3.709  1.00  0.00     0.173 A 
ATOM     85  F   UNL     1      -5.869  -9.872   3.969  1.00  0.00    -0.203 F 
ATOM     86  C   UNL     1      -4.786 -11.512   2.675  1.00  0.00     0.198 A 
ATOM     87  C   UNL     1      -2.403 -11.741   2.787  1.00  0.00     0.198 A 
ATOM     88  F   UNL     1      -1.149 -10.342   4.209  1.00  0.00    -0.203 F 
ATOM     89  F   UNL     1      -5.974 -11.934   2.220  1.00  0.00    -0.200 F 
ATOM     90  C   UNL     1      -3.625 -12.155   2.278  1.00  0.00     0.200 A 
ATOM     91  F   UNL     1      -1.278 -12.360   2.403  1.00  0.00    -0.200 F 
ATOM     92  F   UNL     1      -3.685 -13.182   1.419  1.00  0.00    -0.200 F 
ENDBRANCH  58  82
BRANCH  70  93
ATOM     93  C   UNL     1      -5.964  -9.828  10.651  1.00  0.00     0.064 A 
ATOM     94  C   UNL     1      -5.473 -11.045  11.144  1.00  0.00     0.173 A 
ATOM     95  C   UNL     1      -7.275  -9.463  11.001  1.00  0.00     0.173 A 
ATOM     96  F   UNL     1      -4.229 -11.445  10.837  1.00  0.00    -0.203 F 
ATOM     97  C   UNL     1      -6.269 -11.872  11.934  1.00  0.00     0.198 A 
ATOM     98  C   UNL     1      -8.057 -10.277  11.816  1.00  0.00     0.198 A 
ATOM     99  F   UNL     1      -7.793  -8.303  10.568  1.00  0.00    -0.203 F 
ATOM    100  F   UNL     1      -5.791 -13.050  12.360  1.00  0.00    -0.200 F 
ATOM    101  C   UNL     1      -7.556 -11.485  12.276  1.00  0.00     0.200 A 
ATOM    102  F   UNL     1      -9.293  -9.890  12.160  1.00  0.00    -0.200 F 
ATOM    103  F   UNL     1      -8.314 -12.276  13.047  1.00  0.00    -0.200 F 
ENDBRANCH  70  93
ENDBRANCH  44  45
ENDBRANCH  36  39
ENDBRANCH  34  35
ENDBRANCH  33  34
ENDBRANCH   1  33
TORSDOF 13
