REMARK SMILES O=C(NCCCNC(=O)c1cc(S(=O)(=O)NNC(=O)[C@H]2C=C(c3ccccc3)N=N2)ccc1F)c1ccc(-c2c3nc(c(-c4c(F)c(F)c(F)c(F)c4F)c4ccc([nH]4)c(-c4c(F)c(F)c(F)c(F)c4F)c4nc(c(-c5c(F)c(F)c(F)c(F)c5F)c5ccc2[nH]5)C=C4)C=C3)cc1
REMARK SMILES IDX 7 1 8 2 9 3 6 5 5 6 4 7 3 8 1 9 2 10 35 12 36 13 97 14 37 15
REMARK SMILES IDX 96 16 38 17 39 18 40 19 90 20 41 21 95 22 89 23 91 24 42 25
REMARK SMILES IDX 94 26 88 27 87 28 43 30 75 31 55 32 74 33 56 34 59 35 73 36
REMARK SMILES IDX 92 37 57 38 58 39 72 41 93 42 60 43 44 44 45 45 53 46 46 47
REMARK SMILES IDX 47 48 51 49 54 50 48 51 49 52 52 53 50 54 76 55 77 56 85 57
REMARK SMILES IDX 78 58 79 59 83 60 86 61 80 62 81 63 84 64 82 65 61 66 62 67
REMARK SMILES IDX 70 68 63 69 64 70 68 71 71 72 65 73 66 74 69 75 67 76 10 77
REMARK SMILES IDX 11 78 33 79 12 80 32 81 34 82 31 83 13 84 14 85 15 86 16 87
REMARK SMILES IDX 17 89 18 90 19 92 20 93 21 94 30 95 22 96 29 97 23 98 24 99
REMARK SMILES IDX 28 100 25 101 27 102 26 103
REMARK H PARENT 7 4 3 11 91 29 59 40 16 88 17 91
REMARK Flexibility Score: inf
ROOT
ATOM      1  N   UNL     1      10.320  12.420   1.368  1.00  0.00    -0.352 N 
ATOM      2  C   UNL     1       9.870  11.484   0.475  1.00  0.00     0.254 C 
ATOM      3  O   UNL     1       8.805  10.908   0.685  1.00  0.00    -0.269 OA
ATOM      4  H   UNL     1       9.759  12.530   2.170  1.00  0.00     0.163 HD
ENDROOT
BRANCH   1   5
ATOM      5  C   UNL     1      11.492  13.277   1.322  1.00  0.00     0.118 C 
BRANCH   5   6
ATOM      6  C   UNL     1      11.154  14.765   1.350  1.00  0.00     0.042 C 
BRANCH   6   7
ATOM      7  C   UNL     1      10.422  15.241   2.603  1.00  0.00     0.118 C 
BRANCH   7   8
ATOM      8  N   UNL     1      11.062  14.868   3.848  1.00  0.00    -0.352 N 
ATOM      9  O   UNL     1      12.263  14.793   5.691  1.00  0.00    -0.269 OA
ATOM     10  C   UNL     1      12.074  15.370   4.617  1.00  0.00     0.251 C 
ATOM     11  H   UNL     1      10.672  14.052   4.236  1.00  0.00     0.163 HD
BRANCH  10  12
ATOM     12  C   UNL     1      12.966  16.510   4.258  1.00  0.00     0.039 A 
ATOM     13  C   UNL     1      12.879  17.294   3.107  1.00  0.00     0.014 A 
ATOM     14  C   UNL     1      13.999  16.793   5.173  1.00  0.00     0.014 A 
ATOM     15  C   UNL     1      13.822  18.295   2.854  1.00  0.00     0.010 A 
ATOM     16  C   UNL     1      14.930  17.803   4.935  1.00  0.00     0.010 A 
ATOM     17  C   UNL     1      14.859  18.544   3.758  1.00  0.00    -0.014 A 
BRANCH  17  18
ATOM     18  C   UNL     1      15.792  19.637   3.468  1.00  0.00     0.031 A 
ATOM     19  C   UNL     1      15.233  21.026   3.445  1.00  0.00     0.074 A 
ATOM     20  C   UNL     1      17.130  19.487   3.392  1.00  0.00     0.049 A 
ATOM     21  N   UNL     1      15.326  21.925   2.514  1.00  0.00    -0.248 NA
ATOM     22  C   UNL     1      14.473  21.466   4.624  1.00  0.00     0.031 C 
ATOM     23  C   UNL     1      17.932  18.308   3.723  1.00  0.00     0.029 A 
ATOM     24  N   UNL     1      18.070  20.431   3.087  1.00  0.00    -0.354 N 
ATOM     25  C   UNL     1      14.745  23.085   3.030  1.00  0.00     0.074 A 
ATOM     26  C   UNL     1      14.187  22.730   4.310  1.00  0.00     0.031 C 
ATOM     27  C   UNL     1      19.234  18.665   3.797  1.00  0.00     0.029 A 
ATOM     28  C   UNL     1      19.367  20.053   3.384  1.00  0.00     0.049 A 
ATOM     29  H   UNL     1      17.844  21.303   2.690  1.00  0.00     0.167 HD
ATOM     30  C   UNL     1      14.858  24.305   2.432  1.00  0.00     0.037 A 
ATOM     31  C   UNL     1      20.465  20.843   3.353  1.00  0.00     0.037 A 
ATOM     32  C   UNL     1      15.256  24.206   1.058  1.00  0.00     0.049 A 
ATOM     33  C   UNL     1      20.170  22.015   2.495  1.00  0.00     0.074 A 
ATOM     34  C   UNL     1      14.695  23.671  -0.084  1.00  0.00     0.029 A 
ATOM     35  N   UNL     1      16.550  24.506   0.725  1.00  0.00    -0.354 N 
ATOM     36  N   UNL     1      20.001  21.970   1.203  1.00  0.00    -0.248 NA
ATOM     37  C   UNL     1      19.754  23.252   3.138  1.00  0.00     0.031 C 
ATOM     38  C   UNL     1      15.798  23.245  -0.879  1.00  0.00     0.029 A 
ATOM     39  C   UNL     1      16.958  23.548  -0.164  1.00  0.00     0.049 A 
ATOM     40  H   UNL     1      17.083  25.264   1.060  1.00  0.00     0.167 HD
ATOM     41  C   UNL     1      19.113  22.996   0.928  1.00  0.00     0.074 A 
ATOM     42  C   UNL     1      19.107  23.827   2.123  1.00  0.00     0.031 C 
ATOM     43  C   UNL     1      18.259  22.923  -0.133  1.00  0.00     0.037 A 
BRANCH  30  44
ATOM     44  C   UNL     1      14.822  25.628   3.150  1.00  0.00     0.064 A 
ATOM     45  C   UNL     1      15.238  25.783   4.488  1.00  0.00     0.173 A 
ATOM     46  C   UNL     1      14.634  26.824   2.426  1.00  0.00     0.173 A 
ATOM     47  F   UNL     1      15.564  24.727   5.245  1.00  0.00    -0.203 F 
ATOM     48  C   UNL     1      15.435  27.039   5.065  1.00  0.00     0.198 A 
ATOM     49  C   UNL     1      14.880  28.078   2.991  1.00  0.00     0.198 A 
ATOM     50  F   UNL     1      14.279  26.791   1.132  1.00  0.00    -0.203 F 
ATOM     51  F   UNL     1      15.845  27.124   6.338  1.00  0.00    -0.200 F 
ATOM     52  C   UNL     1      15.279  28.185   4.311  1.00  0.00     0.200 A 
ATOM     53  F   UNL     1      14.785  29.181   2.236  1.00  0.00    -0.200 F 
ATOM     54  F   UNL     1      15.558  29.383   4.842  1.00  0.00    -0.200 F 
ENDBRANCH  30  44
BRANCH  31  55
ATOM     55  C   UNL     1      21.658  20.792   4.229  1.00  0.00     0.064 A 
ATOM     56  C   UNL     1      21.564  20.348   5.562  1.00  0.00     0.173 A 
ATOM     57  C   UNL     1      22.851  21.437   3.866  1.00  0.00     0.173 A 
ATOM     58  F   UNL     1      20.433  19.796   6.026  1.00  0.00    -0.203 F 
ATOM     59  C   UNL     1      22.594  20.550   6.481  1.00  0.00     0.198 A 
ATOM     60  C   UNL     1      23.878  21.649   4.791  1.00  0.00     0.198 A 
ATOM     61  F   UNL     1      23.003  21.930   2.629  1.00  0.00    -0.203 F 
ATOM     62  F   UNL     1      22.437  20.155   7.752  1.00  0.00    -0.200 F 
ATOM     63  C   UNL     1      23.745  21.214   6.099  1.00  0.00     0.200 A 
ATOM     64  F   UNL     1      24.975  22.328   4.426  1.00  0.00    -0.200 F 
ATOM     65  F   UNL     1      24.703  21.471   7.000  1.00  0.00    -0.200 F 
ENDBRANCH  31  55
BRANCH  43  66
ATOM     66  C   UNL     1      18.525  21.886  -1.183  1.00  0.00     0.064 A 
ATOM     67  C   UNL     1      18.694  22.307  -2.509  1.00  0.00     0.173 A 
ATOM     68  C   UNL     1      18.430  20.505  -0.945  1.00  0.00     0.173 A 
ATOM     69  F   UNL     1      18.729  23.617  -2.800  1.00  0.00    -0.203 F 
ATOM     70  C   UNL     1      18.760  21.388  -3.553  1.00  0.00     0.198 A 
ATOM     71  C   UNL     1      18.532  19.586  -1.988  1.00  0.00     0.198 A 
ATOM     72  F   UNL     1      18.166  20.034   0.281  1.00  0.00    -0.203 F 
ATOM     73  F   UNL     1      18.855  21.821  -4.818  1.00  0.00    -0.200 F 
ATOM     74  C   UNL     1      18.685  20.029  -3.291  1.00  0.00     0.200 A 
ATOM     75  F   UNL     1      18.431  18.272  -1.738  1.00  0.00    -0.200 F 
ATOM     76  F   UNL     1      18.724  19.147  -4.300  1.00  0.00    -0.200 F 
ENDBRANCH  43  66
ENDBRANCH  17  18
ENDBRANCH  10  12
ENDBRANCH   7   8
ENDBRANCH   6   7
ENDBRANCH   5   6
ENDBRANCH   1   5
BRANCH   2  77
ATOM     77  C   UNL     1      10.591  11.207  -0.778  1.00  0.00     0.076 A 
ATOM     78  C   UNL     1       9.848  11.191  -1.962  1.00  0.00     0.038 A 
ATOM     79  C   UNL     1      11.948  10.896  -0.819  1.00  0.00     0.136 A 
ATOM     80  C   UNL     1      10.486  10.936  -3.182  1.00  0.00     0.085 A 
ATOM     81  C   UNL     1      12.592  10.680  -2.038  1.00  0.00     0.041 A 
ATOM     82  F   UNL     1      12.668  10.800   0.308  1.00  0.00    -0.206 F 
ATOM     83  C   UNL     1      11.865  10.717  -3.232  1.00  0.00     0.025 A 
BRANCH  80  84
ATOM     84  S   UNL     1       9.439  10.826  -4.601  1.00  0.00     0.257 S 
ATOM     85  O   UNL     1       8.482   9.767  -4.348  1.00  0.00    -0.205 OA
ATOM     86  O   UNL     1       9.037  12.169  -4.938  1.00  0.00    -0.205 OA
BRANCH  84  87
ATOM     87  N   UNL     1      10.408  10.308  -5.881  1.00  0.00    -0.123 NA
ATOM     88  H   UNL     1      11.211  10.937  -5.904  1.00  0.00     0.167 HD
BRANCH  87  89
ATOM     89  N   UNL     1      10.939   8.974  -5.941  1.00  0.00    -0.275 N 
ATOM     90  C   UNL     1      11.272   8.284  -7.088  1.00  0.00     0.265 C 
ATOM     91  H   UNL     1      11.079   8.510  -5.084  1.00  0.00     0.186 HD
ATOM     92  O   UNL     1      11.972   7.276  -6.966  1.00  0.00    -0.271 OA
BRANCH  90  93
ATOM     93  C   UNL     1      10.629   8.726  -8.415  1.00  0.00     0.244 C 
ATOM     94  C   UNL     1      11.063  10.038  -8.942  1.00  0.00     0.042 C 
ATOM     95  N   UNL     1      11.074   7.797  -9.502  1.00  0.00    -0.171 NA
ATOM     96  C   UNL     1      11.647   9.780 -10.111  1.00  0.00     0.091 C 
ATOM     97  N   UNL     1      11.633   8.452 -10.432  1.00  0.00    -0.155 NA
BRANCH  96  98
ATOM     98  C   UNL     1      12.164  10.842 -10.965  1.00  0.00     0.002 A 
ATOM     99  C   UNL     1      11.602  11.092 -12.221  1.00  0.00     0.010 A 
ATOM    100  C   UNL     1      13.175  11.687 -10.483  1.00  0.00     0.010 A 
ATOM    101  C   UNL     1      12.031  12.188 -12.973  1.00  0.00     0.001 A 
ATOM    102  C   UNL     1      13.605  12.777 -11.237  1.00  0.00     0.001 A 
ATOM    103  C   UNL     1      13.027  13.031 -12.479  1.00  0.00     0.000 A 
ENDBRANCH  96  98
ENDBRANCH  90  93
ENDBRANCH  87  89
ENDBRANCH  84  87
ENDBRANCH  80  84
ENDBRANCH   2  77
TORSDOF 15
