REMARK SMILES O=C(C[C@H]1CN(S(=O)(=O)c2cc(F)cc(F)c2)CCO1)NCCCNC(=O)c1ccc(-c2c3nc(c(-c4c(F)c(F)c(F)c(F)c4F)c4ccc([nH]4)c(-c4c(F)c(F)c(F)c(F)c4F)c4nc(c(-c5c(F)c(F)c(F)c(F)c5F)c5ccc2[nH]5)C=C4)C=C3)cc1
REMARK SMILES IDX 22 1 21 2 1 3 2 4 3 6 4 7 5 8 20 9 6 10 19 11 18 12 7 13
REMARK SMILES IDX 8 14 9 15 10 16 11 17 17 18 12 19 15 20 13 21 14 22 16 23
REMARK SMILES IDX 23 24 24 25 25 26 26 27 27 29 28 30 29 31 90 32 30 33 89 34
REMARK SMILES IDX 31 35 32 36 33 37 83 38 34 39 88 40 82 41 84 42 35 43 87 44
REMARK SMILES IDX 81 45 80 46 36 48 68 49 48 50 67 51 49 52 52 53 66 54 85 55
REMARK SMILES IDX 50 56 51 57 65 59 86 60 53 61 37 62 38 63 46 64 39 65 40 66
REMARK SMILES IDX 44 67 47 68 41 69 42 70 45 71 43 72 69 73 70 74 78 75 71 76
REMARK SMILES IDX 72 77 76 78 79 79 73 80 74 81 77 82 75 83 54 84 55 85 63 86
REMARK SMILES IDX 56 87 57 88 61 89 64 90 58 91 59 92 62 93 60 94
REMARK H PARENT 21 5 25 28 84 47 52 58
REMARK Flexibility Score: inf
ROOT
ATOM      1  C   UNL     1       6.379   1.364   3.205  1.00  0.00     0.117 C 
ENDROOT
BRANCH   1   2
ATOM      2  N   UNL     1       5.901   1.376   1.830  1.00  0.00    -0.356 N 
ATOM      3  O   UNL     1       4.592  -0.503   1.703  1.00  0.00    -0.275 OA
ATOM      4  C   UNL     1       4.950   0.565   1.221  1.00  0.00     0.222 C 
ATOM      5  H   UNL     1       6.309   2.056   1.248  1.00  0.00     0.163 HD
BRANCH   4   6
ATOM      6  C   UNL     1       4.383   1.077  -0.143  1.00  0.00     0.133 C 
BRANCH   6   7
ATOM      7  C   UNL     1       3.810   2.504  -0.110  1.00  0.00     0.142 C 
ATOM      8  C   UNL     1       4.558   3.382   0.848  1.00  0.00     0.135 C 
ATOM      9  O   UNL     1       3.700   3.150  -1.394  1.00  0.00    -0.375 OA
ATOM     10  N   UNL     1       5.930   3.837   0.278  1.00  0.00    -0.193 NA
ATOM     11  C   UNL     1       4.441   4.372  -1.668  1.00  0.00     0.177 C 
ATOM     12  C   UNL     1       5.410   4.960  -0.603  1.00  0.00     0.131 C 
BRANCH  10  13
ATOM     13  S   UNL     1       7.216   3.033  -0.722  1.00  0.00     0.243 S 
ATOM     14  O   UNL     1       6.604   2.452  -1.897  1.00  0.00    -0.207 OA
ATOM     15  O   UNL     1       8.197   4.087  -0.883  1.00  0.00    -0.207 OA
BRANCH  13  16
ATOM     16  C   UNL     1       8.165   1.693   0.055  1.00  0.00     0.088 A 
ATOM     17  C   UNL     1       7.808   0.342  -0.098  1.00  0.00     0.061 A 
ATOM     18  C   UNL     1       9.425   1.964   0.610  1.00  0.00     0.061 A 
ATOM     19  C   UNL     1       8.571  -0.671   0.498  1.00  0.00     0.127 A 
ATOM     20  C   UNL     1      10.199   0.925   1.151  1.00  0.00     0.127 A 
ATOM     21  F   UNL     1       8.144  -1.940   0.442  1.00  0.00    -0.207 F 
ATOM     22  C   UNL     1       9.761  -0.389   1.143  1.00  0.00     0.078 A 
ATOM     23  F   UNL     1      11.382   1.211   1.711  1.00  0.00    -0.207 F 
ENDBRANCH  13  16
ENDBRANCH  10  13
ENDBRANCH   6   7
ENDBRANCH   4   6
ENDBRANCH   1   2
BRANCH   1  24
ATOM     24  C   UNL     1       7.522   2.392   3.505  1.00  0.00     0.042 C 
BRANCH  24  25
ATOM     25  C   UNL     1       7.366   3.927   3.280  1.00  0.00     0.118 C 
BRANCH  25  26
ATOM     26  N   UNL     1       6.835   4.647   4.423  1.00  0.00    -0.352 N 
ATOM     27  C   UNL     1       7.145   5.859   4.999  1.00  0.00     0.251 C 
ATOM     28  H   UNL     1       6.104   4.172   4.879  1.00  0.00     0.163 HD
ATOM     29  O   UNL     1       6.531   6.157   6.027  1.00  0.00    -0.269 OA
BRANCH  27  30
ATOM     30  C   UNL     1       8.170   6.836   4.513  1.00  0.00     0.039 A 
ATOM     31  C   UNL     1       8.999   7.417   5.488  1.00  0.00     0.014 A 
ATOM     32  C   UNL     1       8.207   7.375   3.223  1.00  0.00     0.014 A 
ATOM     33  C   UNL     1       9.858   8.491   5.186  1.00  0.00     0.010 A 
ATOM     34  C   UNL     1       9.084   8.454   2.916  1.00  0.00     0.010 A 
ATOM     35  C   UNL     1       9.925   9.028   3.891  1.00  0.00    -0.014 A 
BRANCH  35  36
ATOM     36  C   UNL     1      10.916  10.118   3.579  1.00  0.00     0.031 A 
ATOM     37  C   UNL     1      10.505  11.549   3.307  1.00  0.00     0.074 A 
ATOM     38  C   UNL     1      12.237   9.833   3.567  1.00  0.00     0.049 A 
ATOM     39  N   UNL     1      11.258  12.593   3.035  1.00  0.00    -0.248 NA
ATOM     40  C   UNL     1       9.069  11.848   3.344  1.00  0.00     0.031 C 
ATOM     41  C   UNL     1      12.808   8.513   3.824  1.00  0.00     0.029 A 
ATOM     42  N   UNL     1      13.338  10.630   3.335  1.00  0.00    -0.354 N 
ATOM     43  C   UNL     1      10.391  13.669   2.867  1.00  0.00     0.074 A 
ATOM     44  C   UNL     1       9.051  13.142   3.042  1.00  0.00     0.031 C 
ATOM     45  C   UNL     1      14.146   8.589   3.750  1.00  0.00     0.029 A 
ATOM     46  C   UNL     1      14.535   9.956   3.404  1.00  0.00     0.049 A 
ATOM     47  H   UNL     1      13.274  11.592   3.138  1.00  0.00     0.167 HD
ATOM     48  C   UNL     1      10.679  14.971   2.604  1.00  0.00     0.037 A 
ATOM     49  C   UNL     1      15.804  10.368   3.205  1.00  0.00     0.037 A 
ATOM     50  C   UNL     1      12.006  15.519   2.438  1.00  0.00     0.049 A 
ATOM     51  C   UNL     1      16.095  11.807   2.868  1.00  0.00     0.074 A 
ATOM     52  C   UNL     1      12.371  16.837   2.202  1.00  0.00     0.029 A 
ATOM     53  N   UNL     1      13.184  14.790   2.486  1.00  0.00    -0.354 N 
ATOM     54  N   UNL     1      15.263  12.810   2.745  1.00  0.00    -0.248 NA
ATOM     55  C   UNL     1      17.504  12.171   2.648  1.00  0.00     0.031 C 
ATOM     56  C   UNL     1      13.760  16.896   2.055  1.00  0.00     0.029 A 
ATOM     57  C   UNL     1      14.270  15.626   2.259  1.00  0.00     0.049 A 
ATOM     58  H   UNL     1      13.242  13.823   2.656  1.00  0.00     0.167 HD
ATOM     59  C   UNL     1      16.045  13.924   2.463  1.00  0.00     0.074 A 
ATOM     60  C   UNL     1      17.421  13.478   2.442  1.00  0.00     0.031 C 
ATOM     61  C   UNL     1      15.646  15.200   2.245  1.00  0.00     0.037 A 
BRANCH  48  62
ATOM     62  C   UNL     1       9.531  15.937   2.470  1.00  0.00     0.064 A 
ATOM     63  C   UNL     1       9.232  16.523   1.228  1.00  0.00     0.173 A 
ATOM     64  C   UNL     1       8.802  16.368   3.587  1.00  0.00     0.173 A 
ATOM     65  F   UNL     1       9.914  16.166   0.130  1.00  0.00    -0.203 F 
ATOM     66  C   UNL     1       8.254  17.509   1.115  1.00  0.00     0.198 A 
ATOM     67  C   UNL     1       7.805  17.335   3.465  1.00  0.00     0.198 A 
ATOM     68  F   UNL     1       9.051  15.847   4.798  1.00  0.00    -0.203 F 
ATOM     69  F   UNL     1       8.014  18.081  -0.074  1.00  0.00    -0.200 F 
ATOM     70  C   UNL     1       7.538  17.911   2.232  1.00  0.00     0.200 A 
ATOM     71  F   UNL     1       7.104  17.712   4.543  1.00  0.00    -0.200 F 
ATOM     72  F   UNL     1       6.592  18.854   2.121  1.00  0.00    -0.200 F 
ENDBRANCH  48  62
BRANCH  49  73
ATOM     73  C   UNL     1      16.918   9.391   3.337  1.00  0.00     0.064 A 
ATOM     74  C   UNL     1      17.096   8.359   2.404  1.00  0.00     0.173 A 
ATOM     75  C   UNL     1      17.817   9.462   4.410  1.00  0.00     0.173 A 
ATOM     76  F   UNL     1      16.265   8.250   1.357  1.00  0.00    -0.203 F 
ATOM     77  C   UNL     1      18.113   7.419   2.555  1.00  0.00     0.198 A 
ATOM     78  C   UNL     1      18.852   8.539   4.544  1.00  0.00     0.198 A 
ATOM     79  F   UNL     1      17.707  10.450   5.311  1.00  0.00    -0.203 F 
ATOM     80  F   UNL     1      18.237   6.421   1.669  1.00  0.00    -0.200 F 
ATOM     81  C   UNL     1      18.993   7.512   3.622  1.00  0.00     0.200 A 
ATOM     82  F   UNL     1      19.718   8.649   5.561  1.00  0.00    -0.200 F 
ATOM     83  F   UNL     1      19.979   6.615   3.761  1.00  0.00    -0.200 F 
ENDBRANCH  49  73
BRANCH  61  84
ATOM     84  C   UNL     1      16.705  16.238   1.995  1.00  0.00     0.064 A 
ATOM     85  C   UNL     1      16.960  17.238   2.948  1.00  0.00     0.173 A 
ATOM     86  C   UNL     1      17.421  16.288   0.789  1.00  0.00     0.173 A 
ATOM     87  F   UNL     1      16.302  17.242   4.116  1.00  0.00    -0.203 F 
ATOM     88  C   UNL     1      17.881  18.253   2.697  1.00  0.00     0.198 A 
ATOM     89  C   UNL     1      18.361  17.290   0.553  1.00  0.00     0.198 A 
ATOM     90  F   UNL     1      17.226  15.351  -0.150  1.00  0.00    -0.203 F 
ATOM     91  F   UNL     1      18.084  19.213   3.611  1.00  0.00    -0.200 F 
ATOM     92  C   UNL     1      18.583  18.276   1.502  1.00  0.00     0.200 A 
ATOM     93  F   UNL     1      19.056  17.297  -0.593  1.00  0.00    -0.200 F 
ATOM     94  F   UNL     1      19.476  19.248   1.266  1.00  0.00    -0.200 F 
ENDBRANCH  61  84
ENDBRANCH  35  36
ENDBRANCH  27  30
ENDBRANCH  25  26
ENDBRANCH  24  25
ENDBRANCH   1  24
TORSDOF 13
