REMARK SMILES O=C(Cn1nc(C(=O)NCCCNC(=O)c2ccc(-c3c4nc(c(-c5c(F)c(F)c(F)c(F)c5F)c5ccc([nH]5)c(-c5c(F)c(F)c(F)c(F)c5F)c5nc(c(-c6c(F)c(F)c(F)c(F)c6F)c6ccc3[nH]6)C=C5)C=C4)cc2)c2ccccc2c1=O)NCc1ccc(F)cc1
REMARK SMILES IDX 10 1 9 2 7 3 8 4 6 6 4 7 5 8 85 9 84 10 86 11 79 12 83 13
REMARK SMILES IDX 80 14 82 15 81 16 3 17 2 18 1 19 87 20 88 22 89 23 90 24
REMARK SMILES IDX 95 25 91 26 94 27 92 28 93 29 11 30 12 31 13 32 14 33 15 35
REMARK SMILES IDX 16 36 17 37 78 38 18 39 77 40 19 41 20 42 21 43 71 44 22 45
REMARK SMILES IDX 76 46 70 47 72 48 23 49 75 50 69 51 68 52 24 54 56 55 36 56
REMARK SMILES IDX 55 57 37 58 40 59 54 60 73 61 38 62 39 63 53 65 74 66 41 67
REMARK SMILES IDX 25 68 26 69 34 70 27 71 28 72 32 73 35 74 29 75 30 76 33 77
REMARK SMILES IDX 31 78 57 79 58 80 66 81 59 82 60 83 64 84 67 85 61 86 62 87
REMARK SMILES IDX 65 88 63 89 42 90 43 91 51 92 44 93 45 94 49 95 52 96 46 97
REMARK SMILES IDX 47 98 50 99 48 100
REMARK H PARENT 9 5 87 21 13 34 72 53 40 64
REMARK Flexibility Score: inf
ROOT
ATOM      1  C   UNL     1       0.909  -3.551   1.402  1.00  0.00     0.118 C 
ENDROOT
BRANCH   1   2
ATOM      2  N   UNL     1       1.890  -4.608   1.608  1.00  0.00    -0.351 N 
ATOM      3  C   UNL     1       3.266  -4.598   1.660  1.00  0.00     0.272 C 
ATOM      4  O   UNL     1       3.831  -5.683   1.726  1.00  0.00    -0.267 OA
ATOM      5  H   UNL     1       1.494  -5.501   1.734  1.00  0.00     0.163 HD
BRANCH   3   6
ATOM      6  C   UNL     1       4.072  -3.281   1.650  1.00  0.00     0.156 A 
ATOM      7  N   UNL     1       4.005  -0.972   1.401  1.00  0.00    -0.219 N 
ATOM      8  N   UNL     1       3.413  -2.203   1.355  1.00  0.00    -0.163 NA
ATOM      9  C   UNL     1       5.319  -0.767   1.784  1.00  0.00     0.275 A 
ATOM     10  C   UNL     1       6.115  -1.980   2.058  1.00  0.00     0.051 A 
ATOM     11  O   UNL     1       5.836   0.343   1.889  1.00  0.00    -0.267 OA
ATOM     12  C   UNL     1       5.522  -3.242   1.980  1.00  0.00     0.020 A 
ATOM     13  C   UNL     1       7.475  -1.842   2.380  1.00  0.00     0.014 A 
ATOM     14  C   UNL     1       6.324  -4.370   2.199  1.00  0.00     0.011 A 
ATOM     15  C   UNL     1       8.258  -2.971   2.601  1.00  0.00     0.001 A 
ATOM     16  C   UNL     1       7.683  -4.234   2.502  1.00  0.00     0.001 A 
BRANCH   7  17
ATOM     17  C   UNL     1       3.107   0.168   1.197  1.00  0.00     0.248 C 
BRANCH  17  18
ATOM     18  C   UNL     1       2.256   0.012  -0.061  1.00  0.00     0.242 C 
ATOM     19  O   UNL     1       1.059   0.296  -0.077  1.00  0.00    -0.273 OA
ATOM     20  N   UNL     1       2.956  -0.318  -1.202  1.00  0.00    -0.350 N 
ATOM     21  H   UNL     1       3.934  -0.417  -1.147  1.00  0.00     0.163 HD
BRANCH  20  22
ATOM     22  C   UNL     1       2.306  -0.524  -2.475  1.00  0.00     0.151 C 
BRANCH  22  23
ATOM     23  C   UNL     1       2.538   0.598  -3.458  1.00  0.00    -0.029 A 
ATOM     24  C   UNL     1       2.550   1.944  -3.056  1.00  0.00     0.008 A 
ATOM     25  C   UNL     1       2.653   0.302  -4.828  1.00  0.00     0.008 A 
ATOM     26  C   UNL     1       2.712   2.966  -3.994  1.00  0.00     0.039 A 
ATOM     27  C   UNL     1       2.809   1.325  -5.765  1.00  0.00     0.039 A 
ATOM     28  C   UNL     1       2.844   2.647  -5.339  1.00  0.00     0.123 A 
ATOM     29  F   UNL     1       2.993   3.628  -6.238  1.00  0.00    -0.207 F 
ENDBRANCH  22  23
ENDBRANCH  20  22
ENDBRANCH  17  18
ENDBRANCH   7  17
ENDBRANCH   3   6
ENDBRANCH   1   2
BRANCH   1  30
ATOM     30  C   UNL     1       0.490  -3.460  -0.062  1.00  0.00     0.042 C 
BRANCH  30  31
ATOM     31  C   UNL     1      -0.300  -4.679  -0.536  1.00  0.00     0.118 C 
BRANCH  31  32
ATOM     32  N   UNL     1      -1.573  -4.841   0.163  1.00  0.00    -0.352 N 
ATOM     33  C   UNL     1      -2.859  -4.843  -0.319  1.00  0.00     0.251 C 
ATOM     34  H   UNL     1      -1.496  -4.968   1.136  1.00  0.00     0.163 HD
ATOM     35  O   UNL     1      -3.808  -4.816   0.459  1.00  0.00    -0.269 OA
BRANCH  33  36
ATOM     36  C   UNL     1      -3.100  -4.856  -1.775  1.00  0.00     0.039 A 
ATOM     37  C   UNL     1      -2.355  -5.691  -2.606  1.00  0.00     0.014 A 
ATOM     38  C   UNL     1      -4.072  -4.010  -2.316  1.00  0.00     0.014 A 
ATOM     39  C   UNL     1      -2.438  -5.538  -3.983  1.00  0.00     0.010 A 
ATOM     40  C   UNL     1      -4.227  -3.932  -3.703  1.00  0.00     0.010 A 
ATOM     41  C   UNL     1      -3.369  -4.652  -4.549  1.00  0.00    -0.014 A 
BRANCH  41  42
ATOM     42  C   UNL     1      -3.409  -4.483  -6.025  1.00  0.00     0.031 A 
ATOM     43  C   UNL     1      -3.078  -3.155  -6.653  1.00  0.00     0.074 A 
ATOM     44  C   UNL     1      -3.676  -5.550  -6.803  1.00  0.00     0.049 A 
ATOM     45  N   UNL     1      -3.046  -2.828  -7.921  1.00  0.00    -0.248 NA
ATOM     46  C   UNL     1      -2.739  -2.048  -5.744  1.00  0.00     0.031 C 
ATOM     47  C   UNL     1      -3.986  -6.893  -6.310  1.00  0.00     0.029 A 
ATOM     48  N   UNL     1      -3.700  -5.684  -8.168  1.00  0.00    -0.354 N 
ATOM     49  C   UNL     1      -2.704  -1.482  -7.960  1.00  0.00     0.074 A 
ATOM     50  C   UNL     1      -2.569  -1.041  -6.589  1.00  0.00     0.031 C 
ATOM     51  C   UNL     1      -4.111  -7.726  -7.353  1.00  0.00     0.029 A 
ATOM     52  C   UNL     1      -3.965  -6.965  -8.589  1.00  0.00     0.049 A 
ATOM     53  H   UNL     1      -3.544  -4.935  -8.787  1.00  0.00     0.167 HD
ATOM     54  C   UNL     1      -2.504  -0.694  -9.042  1.00  0.00     0.037 A 
ATOM     55  C   UNL     1      -4.094  -7.469  -9.830  1.00  0.00     0.037 A 
ATOM     56  C   UNL     1      -2.615  -1.144 -10.405  1.00  0.00     0.049 A 
ATOM     57  C   UNL     1      -3.930  -6.553 -11.010  1.00  0.00     0.074 A 
ATOM     58  C   UNL     1      -2.414  -0.421 -11.569  1.00  0.00     0.029 A 
ATOM     59  N   UNL     1      -2.955  -2.433 -10.789  1.00  0.00    -0.354 N 
ATOM     60  N   UNL     1      -3.600  -5.285 -11.033  1.00  0.00    -0.248 NA
ATOM     61  C   UNL     1      -4.166  -7.137 -12.338  1.00  0.00     0.031 C 
ATOM     62  C   UNL     1      -2.681  -1.259 -12.655  1.00  0.00     0.029 A 
ATOM     63  C   UNL     1      -2.993  -2.519 -12.172  1.00  0.00     0.049 A 
ATOM     64  H   UNL     1      -3.142  -3.176 -10.171  1.00  0.00     0.167 HD
ATOM     65  C   UNL     1      -3.573  -4.922 -12.371  1.00  0.00     0.074 A 
ATOM     66  C   UNL     1      -3.896  -6.111 -13.133  1.00  0.00     0.031 C 
ATOM     67  C   UNL     1      -3.310  -3.710 -12.918  1.00  0.00     0.037 A 
BRANCH  54  68
ATOM     68  C   UNL     1      -2.145   0.746  -8.809  1.00  0.00     0.064 A 
ATOM     69  C   UNL     1      -0.877   1.120  -8.341  1.00  0.00     0.173 A 
ATOM     70  C   UNL     1      -3.047   1.767  -9.145  1.00  0.00     0.173 A 
ATOM     71  F   UNL     1       0.021   0.183  -7.999  1.00  0.00    -0.203 F 
ATOM     72  C   UNL     1      -0.531   2.462  -8.209  1.00  0.00     0.198 A 
ATOM     73  C   UNL     1      -2.689   3.108  -9.035  1.00  0.00     0.198 A 
ATOM     74  F   UNL     1      -4.269   1.464  -9.611  1.00  0.00    -0.203 F 
ATOM     75  F   UNL     1       0.681   2.796  -7.747  1.00  0.00    -0.200 F 
ATOM     76  C   UNL     1      -1.432   3.455  -8.564  1.00  0.00     0.200 A 
ATOM     77  F   UNL     1      -3.554   4.065  -9.400  1.00  0.00    -0.200 F 
ATOM     78  F   UNL     1      -1.088   4.745  -8.456  1.00  0.00    -0.200 F 
ENDBRANCH  54  68
BRANCH  55  79
ATOM     79  C   UNL     1      -4.392  -8.914 -10.011  1.00  0.00     0.064 A 
ATOM     80  C   UNL     1      -3.445  -9.778 -10.577  1.00  0.00     0.173 A 
ATOM     81  C   UNL     1      -5.615  -9.465  -9.600  1.00  0.00     0.173 A 
ATOM     82  F   UNL     1      -2.269  -9.295 -11.004  1.00  0.00    -0.203 F 
ATOM     83  C   UNL     1      -3.713 -11.136 -10.732  1.00  0.00     0.198 A 
ATOM     84  C   UNL     1      -5.869 -10.829  -9.725  1.00  0.00     0.198 A 
ATOM     85  F   UNL     1      -6.554  -8.682  -9.050  1.00  0.00    -0.203 F 
ATOM     86  F   UNL     1      -2.804 -11.934 -11.309  1.00  0.00    -0.200 F 
ATOM     87  C   UNL     1      -4.920 -11.662 -10.296  1.00  0.00     0.200 A 
ATOM     88  F   UNL     1      -7.029 -11.335  -9.285  1.00  0.00    -0.200 F 
ATOM     89  F   UNL     1      -5.170 -12.972 -10.431  1.00  0.00    -0.200 F 
ENDBRANCH  55  79
BRANCH  67  90
ATOM     90  C   UNL     1      -3.339  -3.603 -14.415  1.00  0.00     0.064 A 
ATOM     91  C   UNL     1      -4.545  -3.649 -15.129  1.00  0.00     0.173 A 
ATOM     92  C   UNL     1      -2.156  -3.380 -15.136  1.00  0.00     0.173 A 
ATOM     93  F   UNL     1      -5.702  -3.874 -14.488  1.00  0.00    -0.203 F 
ATOM     94  C   UNL     1      -4.564  -3.490 -16.512  1.00  0.00     0.198 A 
ATOM     95  C   UNL     1      -2.182  -3.189 -16.514  1.00  0.00     0.198 A 
ATOM     96  F   UNL     1      -0.977  -3.320 -14.499  1.00  0.00    -0.203 F 
ATOM     97  F   UNL     1      -5.723  -3.575 -17.179  1.00  0.00    -0.200 F 
ATOM     98  C   UNL     1      -3.384  -3.249 -17.202  1.00  0.00     0.200 A 
ATOM     99  F   UNL     1      -1.044  -2.940 -17.176  1.00  0.00    -0.200 F 
ATOM    100  F   UNL     1      -3.407  -3.079 -18.530  1.00  0.00    -0.200 F 
ENDBRANCH  67  90
ENDBRANCH  41  42
ENDBRANCH  33  36
ENDBRANCH  31  32
ENDBRANCH  30  31
ENDBRANCH   1  30
TORSDOF 14
