REMARK SMILES CC(C)[C@@H](NC(=O)[C@@H]1CC[C@H]2CCCC[C@@H]2[NH2+]1)C(=O)NCCCNC(=O)c1ccc(-c2c3nc(c(-c4c(F)c(F)c(F)c(F)c4F)c4ccc([nH]4)c(-c4c(F)c(F)c(F)c(F)c4F)c4nc(c(-c5c(F)c(F)c(F)c(F)c5F)c5ccc2[nH]5)C=C4)C=C3)cc1
REMARK SMILES IDX 22 1 21 2 20 3 18 4 19 5 4 7 2 8 1 9 3 10 5 11 6 12 7 14
REMARK SMILES IDX 8 15 9 16 17 17 10 18 16 19 11 22 15 23 12 24 14 25 13 26
REMARK SMILES IDX 23 27 24 28 25 29 26 31 27 32 28 33 89 34 29 35 88 36 30 37
REMARK SMILES IDX 31 38 32 39 82 40 33 41 87 42 81 43 83 44 34 45 86 46 80 47
REMARK SMILES IDX 79 48 35 50 67 51 47 52 66 53 48 54 51 55 65 56 84 57 49 58
REMARK SMILES IDX 50 59 64 61 85 62 52 63 36 64 37 65 45 66 38 67 39 68 43 69
REMARK SMILES IDX 46 70 40 71 41 72 44 73 42 74 68 75 69 76 77 77 70 78 71 79
REMARK SMILES IDX 75 80 78 81 72 82 73 83 76 84 74 85 53 86 54 87 62 88 55 89
REMARK SMILES IDX 56 90 60 91 63 92 57 93 58 94 61 95 59 96
REMARK H PARENT 20 6 5 13 17 20 17 21 24 30 83 49 51 60
REMARK Flexibility Score: inf
ROOT
ATOM      1  C   UNL     1      -3.374   1.585  -3.093  1.00  0.00     0.042 C 
ENDROOT
BRANCH   1   2
ATOM      2  C   UNL     1      -3.560   0.099  -2.886  1.00  0.00     0.117 C 
BRANCH   2   3
ATOM      3  N   UNL     1      -3.777  -0.205  -1.484  1.00  0.00    -0.354 N 
ATOM      4  C   UNL     1      -4.678  -1.050  -0.912  1.00  0.00     0.242 C 
ATOM      5  O   UNL     1      -4.770  -1.021   0.319  1.00  0.00    -0.273 OA
ATOM      6  H   UNL     1      -3.186   0.268  -0.855  1.00  0.00     0.163 HD
BRANCH   4   7
ATOM      7  C   UNL     1      -5.666  -1.847  -1.785  1.00  0.00     0.174 C 
BRANCH   7   8
ATOM      8  C   UNL     1      -6.821  -0.869  -2.203  1.00  0.00     0.015 C 
ATOM      9  C   UNL     1      -7.932  -1.556  -3.005  1.00  0.00     0.010 C 
ATOM     10  C   UNL     1      -7.464  -0.162  -0.999  1.00  0.00     0.010 C 
ENDBRANCH   7   8
BRANCH   7  11
ATOM     11  N   UNL     1      -5.046  -2.479  -2.976  1.00  0.00    -0.339 N 
ATOM     12  C   UNL     1      -3.968  -3.318  -3.103  1.00  0.00     0.278 C 
ATOM     13  H   UNL     1      -5.488  -2.258  -3.827  1.00  0.00     0.164 HD
ATOM     14  O   UNL     1      -3.903  -3.958  -4.157  1.00  0.00    -0.268 OA
BRANCH  12  15
ATOM     15  C   UNL     1      -2.807  -3.329  -2.068  1.00  0.00     0.272 C 
ATOM     16  C   UNL     1      -1.616  -4.238  -2.445  1.00  0.00     0.076 C 
ATOM     17  N   UNL     1      -3.300  -3.567  -0.709  1.00  0.00    -0.333 N 
ATOM     18  C   UNL     1      -1.693  -5.654  -1.861  1.00  0.00     0.016 C 
ATOM     19  C   UNL     1      -3.586  -4.965  -0.393  1.00  0.00     0.186 C 
ATOM     20  H   UNL     1      -4.160  -3.033  -0.586  1.00  0.00     0.347 HD
ATOM     21  H   UNL     1      -2.551  -3.280  -0.079  1.00  0.00     0.347 HD
ATOM     22  C   UNL     1      -3.124  -5.974  -1.457  1.00  0.00     0.048 C 
ATOM     23  C   UNL     1      -5.081  -5.149  -0.125  1.00  0.00     0.065 C 
ATOM     24  C   UNL     1      -3.315  -7.393  -0.919  1.00  0.00     0.010 C 
ATOM     25  C   UNL     1      -5.375  -6.575   0.338  1.00  0.00     0.006 C 
ATOM     26  C   UNL     1      -4.796  -7.630  -0.607  1.00  0.00     0.001 C 
ENDBRANCH  12  15
ENDBRANCH   7  11
ENDBRANCH   4   7
ENDBRANCH   2   3
ENDBRANCH   1   2
BRANCH   1  27
ATOM     27  C   UNL     1      -2.147   2.124  -2.384  1.00  0.00     0.118 C 
BRANCH  27  28
ATOM     28  N   UNL     1      -0.899   1.555  -2.881  1.00  0.00    -0.352 N 
ATOM     29  C   UNL     1       0.230   2.226  -3.282  1.00  0.00     0.251 C 
ATOM     30  H   UNL     1      -0.863   0.573  -2.937  1.00  0.00     0.163 HD
ATOM     31  O   UNL     1       1.169   1.643  -3.811  1.00  0.00    -0.269 OA
BRANCH  29  32
ATOM     32  C   UNL     1       0.259   3.685  -3.087  1.00  0.00     0.039 A 
ATOM     33  C   UNL     1       0.464   4.514  -4.189  1.00  0.00     0.014 A 
ATOM     34  C   UNL     1      -0.070   4.211  -1.835  1.00  0.00     0.014 A 
ATOM     35  C   UNL     1       0.264   5.886  -4.048  1.00  0.00     0.010 A 
ATOM     36  C   UNL     1      -0.371   5.559  -1.727  1.00  0.00     0.010 A 
ATOM     37  C   UNL     1      -0.197   6.410  -2.829  1.00  0.00    -0.014 A 
BRANCH  37  38
ATOM     38  C   UNL     1      -0.481   7.855  -2.665  1.00  0.00     0.031 A 
ATOM     39  C   UNL     1       0.304   8.647  -1.658  1.00  0.00     0.074 A 
ATOM     40  C   UNL     1      -1.487   8.427  -3.353  1.00  0.00     0.049 A 
ATOM     41  N   UNL     1       0.154   9.891  -1.283  1.00  0.00    -0.248 NA
ATOM     42  C   UNL     1       1.374   7.931  -0.943  1.00  0.00     0.031 C 
ATOM     43  C   UNL     1      -2.361   7.743  -4.308  1.00  0.00     0.029 A 
ATOM     44  N   UNL     1      -1.951   9.718  -3.346  1.00  0.00    -0.354 N 
ATOM     45  C   UNL     1       1.087  10.092  -0.275  1.00  0.00     0.074 A 
ATOM     46  C   UNL     1       1.753   8.830  -0.050  1.00  0.00     0.031 C 
ATOM     47  C   UNL     1      -3.235   8.627  -4.816  1.00  0.00     0.029 A 
ATOM     48  C   UNL     1      -3.005   9.930  -4.201  1.00  0.00     0.049 A 
ATOM     49  H   UNL     1      -1.564  10.427  -2.782  1.00  0.00     0.167 HD
ATOM     50  C   UNL     1       1.384  11.237   0.382  1.00  0.00     0.037 A 
ATOM     51  C   UNL     1      -3.703  11.053  -4.455  1.00  0.00     0.037 A 
ATOM     52  C   UNL     1       0.754  12.501   0.116  1.00  0.00     0.049 A 
ATOM     53  C   UNL     1      -3.327  12.322  -3.739  1.00  0.00     0.074 A 
ATOM     54  C   UNL     1       1.032  13.738   0.668  1.00  0.00     0.029 A 
ATOM     55  N   UNL     1      -0.279  12.687  -0.792  1.00  0.00    -0.354 N 
ATOM     56  N   UNL     1      -2.395  12.519  -2.839  1.00  0.00    -0.248 NA
ATOM     57  C   UNL     1      -4.095  13.527  -4.081  1.00  0.00     0.031 C 
ATOM     58  C   UNL     1       0.144  14.668   0.117  1.00  0.00     0.029 A 
ATOM     59  C   UNL     1      -0.658  14.018  -0.807  1.00  0.00     0.049 A 
ATOM     60  H   UNL     1      -0.682  11.977  -1.343  1.00  0.00     0.167 HD
ATOM     61  C   UNL     1      -2.445  13.870  -2.526  1.00  0.00     0.074 A 
ATOM     62  C   UNL     1      -3.491  14.449  -3.344  1.00  0.00     0.031 C 
ATOM     63  C   UNL     1      -1.694  14.570  -1.641  1.00  0.00     0.037 A 
BRANCH  50  64
ATOM     64  C   UNL     1       2.449  11.171   1.436  1.00  0.00     0.064 A 
ATOM     65  C   UNL     1       3.798  10.970   1.106  1.00  0.00     0.173 A 
ATOM     66  C   UNL     1       2.121  11.323   2.791  1.00  0.00     0.173 A 
ATOM     67  F   UNL     1       4.162  10.801  -0.174  1.00  0.00    -0.203 F 
ATOM     68  C   UNL     1       4.774  10.892   2.095  1.00  0.00     0.198 A 
ATOM     69  C   UNL     1       3.104  11.275   3.776  1.00  0.00     0.198 A 
ATOM     70  F   UNL     1       0.846  11.517   3.161  1.00  0.00    -0.203 F 
ATOM     71  F   UNL     1       6.048  10.643   1.759  1.00  0.00    -0.200 F 
ATOM     72  C   UNL     1       4.428  11.051   3.428  1.00  0.00     0.200 A 
ATOM     73  F   UNL     1       2.770  11.438   5.063  1.00  0.00    -0.200 F 
ATOM     74  F   UNL     1       5.369  10.979   4.379  1.00  0.00    -0.200 F 
ENDBRANCH  50  64
BRANCH  51  75
ATOM     75  C   UNL     1      -4.797  11.038  -5.460  1.00  0.00     0.064 A 
ATOM     76  C   UNL     1      -4.644  11.684  -6.695  1.00  0.00     0.173 A 
ATOM     77  C   UNL     1      -6.012  10.383  -5.212  1.00  0.00     0.173 A 
ATOM     78  F   UNL     1      -3.507  12.339  -6.970  1.00  0.00    -0.203 F 
ATOM     79  C   UNL     1      -5.672  11.693  -7.635  1.00  0.00     0.198 A 
ATOM     80  C   UNL     1      -7.030  10.372  -6.163  1.00  0.00     0.198 A 
ATOM     81  F   UNL     1      -6.205   9.744  -4.049  1.00  0.00    -0.203 F 
ATOM     82  F   UNL     1      -5.515  12.354  -8.790  1.00  0.00    -0.200 F 
ATOM     83  C   UNL     1      -6.863  11.033  -7.371  1.00  0.00     0.200 A 
ATOM     84  F   UNL     1      -8.174   9.721  -5.910  1.00  0.00    -0.200 F 
ATOM     85  F   UNL     1      -7.850  11.040  -8.276  1.00  0.00    -0.200 F 
ENDBRANCH  51  75
BRANCH  63  86
ATOM     86  C   UNL     1      -1.954  16.043  -1.536  1.00  0.00     0.064 A 
ATOM     87  C   UNL     1      -3.099  16.542  -0.900  1.00  0.00     0.173 A 
ATOM     88  C   UNL     1      -1.020  16.963  -2.035  1.00  0.00     0.173 A 
ATOM     89  F   UNL     1      -4.027  15.699  -0.421  1.00  0.00    -0.203 F 
ATOM     90  C   UNL     1      -3.311  17.913  -0.786  1.00  0.00     0.198 A 
ATOM     91  C   UNL     1      -1.222  18.332  -1.895  1.00  0.00     0.198 A 
ATOM     92  F   UNL     1       0.094  16.533  -2.645  1.00  0.00    -0.203 F 
ATOM     93  F   UNL     1      -4.432  18.370  -0.211  1.00  0.00    -0.200 F 
ATOM     94  C   UNL     1      -2.369  18.806  -1.276  1.00  0.00     0.200 A 
ATOM     95  F   UNL     1      -0.306  19.194  -2.357  1.00  0.00    -0.200 F 
ATOM     96  F   UNL     1      -2.571  20.125  -1.157  1.00  0.00    -0.200 F 
ENDBRANCH  63  86
ENDBRANCH  37  38
ENDBRANCH  29  32
ENDBRANCH  27  28
ENDBRANCH   1  27
TORSDOF 13
