REMARK SMILES CCC[NH2+][C@@]1(C(=O)NCCCNC(=O)c2ccc(-c3c4nc(c(-c5c(F)c(F)c(F)c(F)c5F)c5ccc([nH]5)c(-c5c(F)c(F)c(F)c(F)c5F)c5nc(c(-c6c(F)c(F)c(F)c(F)c6F)c6ccc3[nH]6)C=C5)C=C4)cc2)CCC[C@H](n2nc(C)c(C)c2C)C1
REMARK SMILES IDX 9 1 8 2 6 3 7 4 5 6 78 7 90 8 79 9 81 10 80 11 4 12 3 15
REMARK SMILES IDX 2 16 1 17 82 18 83 19 88 20 84 21 86 22 89 23 85 24 87 25
REMARK SMILES IDX 10 26 11 27 12 28 13 29 14 31 15 32 16 33 77 34 17 35 76 36
REMARK SMILES IDX 18 37 19 38 20 39 70 40 21 41 75 42 69 43 71 44 22 45 74 46
REMARK SMILES IDX 68 47 67 48 23 50 55 51 35 52 54 53 36 54 39 55 53 56 72 57
REMARK SMILES IDX 37 58 38 59 52 61 73 62 40 63 24 64 25 65 33 66 26 67 27 68
REMARK SMILES IDX 31 69 34 70 28 71 29 72 32 73 30 74 56 75 57 76 65 77 58 78
REMARK SMILES IDX 59 79 63 80 66 81 60 82 61 83 64 84 62 85 41 86 42 87 50 88
REMARK SMILES IDX 43 89 44 90 48 91 51 92 45 93 46 94 49 95 47 96
REMARK H PARENT 8 5 4 13 4 14 12 30 71 49 39 60
REMARK Flexibility Score: inf
ROOT
ATOM      1  C   UNL     1       1.753  -0.108  -7.659  1.00  0.00     0.118 C 
ENDROOT
BRANCH   1   2
ATOM      2  N   UNL     1       0.609  -0.110  -6.738  1.00  0.00    -0.351 N 
ATOM      3  C   UNL     1       0.420  -0.052  -5.379  1.00  0.00     0.281 C 
ATOM      4  O   UNL     1      -0.580   0.618  -5.069  1.00  0.00    -0.268 OA
ATOM      5  H   UNL     1      -0.247  -0.169  -7.222  1.00  0.00     0.163 HD
BRANCH   3   6
ATOM      6  C   UNL     1       1.265  -0.822  -4.245  1.00  0.00     0.177 C 
ATOM      7  C   UNL     1       2.762  -0.784  -4.507  1.00  0.00     0.079 C 
ATOM      8  C   UNL     1       0.918  -2.309  -3.960  1.00  0.00     0.106 C 
ATOM      9  C   UNL     1       3.270  -1.955  -5.380  1.00  0.00     0.009 C 
ATOM     10  C   UNL     1       0.869  -3.192  -5.174  1.00  0.00     0.114 C 
ATOM     11  C   UNL     1       2.334  -3.165  -5.718  1.00  0.00     0.028 C 
BRANCH   6  12
ATOM     12  N   UNL     1       0.892  -0.312  -2.890  1.00  0.00    -0.334 N 
ATOM     13  H   UNL     1      -0.113  -0.460  -2.799  1.00  0.00     0.347 HD
ATOM     14  H   UNL     1       1.533  -0.830  -2.289  1.00  0.00     0.347 HD
BRANCH  12  15
ATOM     15  C   UNL     1       1.135   1.049  -2.477  1.00  0.00     0.261 C 
BRANCH  15  16
ATOM     16  C   UNL     1       0.469   1.255  -1.096  1.00  0.00     0.058 C 
ATOM     17  C   UNL     1       0.933   0.287  -0.004  1.00  0.00     0.010 C 
ENDBRANCH  15  16
ENDBRANCH  12  15
ENDBRANCH   6  12
BRANCH  10  18
ATOM     18  N   UNL     1      -0.314  -2.945  -6.008  1.00  0.00    -0.266 N 
ATOM     19  N   UNL     1      -0.371  -3.435  -7.275  1.00  0.00    -0.178 NA
ATOM     20  C   UNL     1      -1.552  -2.400  -5.657  1.00  0.00     0.039 A 
ATOM     21  C   UNL     1      -1.508  -2.919  -7.769  1.00  0.00     0.063 A 
ATOM     22  C   UNL     1      -2.153  -2.071  -6.854  1.00  0.00    -0.007 A 
ATOM     23  C   UNL     1      -2.130  -2.151  -4.308  1.00  0.00     0.066 C 
ATOM     24  C   UNL     1      -2.018  -3.249  -9.116  1.00  0.00     0.069 C 
ATOM     25  C   UNL     1      -3.312  -1.174  -7.085  1.00  0.00     0.048 C 
ENDBRANCH  10  18
ENDBRANCH   3   6
ENDBRANCH   1   2
BRANCH   1  26
ATOM     26  C   UNL     1       1.896  -1.325  -8.591  1.00  0.00     0.042 C 
BRANCH  26  27
ATOM     27  C   UNL     1       0.934  -1.464  -9.777  1.00  0.00     0.118 C 
BRANCH  27  28
ATOM     28  N   UNL     1       1.541  -1.117 -11.061  1.00  0.00    -0.352 N 
ATOM     29  C   UNL     1       1.697  -1.859 -12.209  1.00  0.00     0.251 C 
ATOM     30  H   UNL     1       1.896  -0.201 -11.113  1.00  0.00     0.163 HD
ATOM     31  O   UNL     1       2.398  -1.391 -13.124  1.00  0.00    -0.269 OA
BRANCH  29  32
ATOM     32  C   UNL     1       1.074  -3.192 -12.417  1.00  0.00     0.039 A 
ATOM     33  C   UNL     1       1.786  -4.193 -13.088  1.00  0.00     0.014 A 
ATOM     34  C   UNL     1      -0.251  -3.447 -12.069  1.00  0.00     0.014 A 
ATOM     35  C   UNL     1       1.196  -5.441 -13.353  1.00  0.00     0.010 A 
ATOM     36  C   UNL     1      -0.813  -4.720 -12.255  1.00  0.00     0.010 A 
ATOM     37  C   UNL     1      -0.107  -5.736 -12.917  1.00  0.00    -0.014 A 
BRANCH  37  38
ATOM     38  C   UNL     1      -0.741  -7.067 -13.190  1.00  0.00     0.031 A 
ATOM     39  C   UNL     1      -2.009  -7.169 -14.009  1.00  0.00     0.074 A 
ATOM     40  C   UNL     1      -0.201  -8.200 -12.691  1.00  0.00     0.049 A 
ATOM     41  N   UNL     1      -2.705  -8.232 -14.341  1.00  0.00    -0.248 NA
ATOM     42  C   UNL     1      -2.587  -5.909 -14.501  1.00  0.00     0.031 C 
ATOM     43  C   UNL     1       0.987  -8.266 -11.840  1.00  0.00     0.029 A 
ATOM     44  N   UNL     1      -0.581  -9.517 -12.827  1.00  0.00    -0.354 N 
ATOM     45  C   UNL     1      -3.798  -7.766 -15.064  1.00  0.00     0.074 A 
ATOM     46  C   UNL     1      -3.712  -6.322 -15.067  1.00  0.00     0.031 C 
ATOM     47  C   UNL     1       1.260  -9.552 -11.561  1.00  0.00     0.029 A 
ATOM     48  C   UNL     1       0.249 -10.404 -12.181  1.00  0.00     0.049 A 
ATOM     49  H   UNL     1      -1.373  -9.798 -13.339  1.00  0.00     0.167 HD
ATOM     50  C   UNL     1      -4.768  -8.469 -15.700  1.00  0.00     0.037 A 
ATOM     51  C   UNL     1       0.205 -11.750 -12.094  1.00  0.00     0.037 A 
ATOM     52  C   UNL     1      -4.848  -9.906 -15.734  1.00  0.00     0.049 A 
ATOM     53  C   UNL     1      -0.888 -12.509 -12.802  1.00  0.00     0.074 A 
ATOM     54  C   UNL     1      -5.766 -10.704 -16.397  1.00  0.00     0.029 A 
ATOM     55  N   UNL     1      -3.978 -10.762 -15.078  1.00  0.00    -0.354 N 
ATOM     56  N   UNL     1      -1.868 -12.053 -13.543  1.00  0.00    -0.248 NA
ATOM     57  C   UNL     1      -0.874 -13.974 -12.669  1.00  0.00     0.031 C 
ATOM     58  C   UNL     1      -5.479 -12.041 -16.106  1.00  0.00     0.029 A 
ATOM     59  C   UNL     1      -4.347 -12.079 -15.309  1.00  0.00     0.049 A 
ATOM     60  H   UNL     1      -3.211 -10.478 -14.530  1.00  0.00     0.167 HD
ATOM     61  C   UNL     1      -2.557 -13.171 -13.996  1.00  0.00     0.074 A 
ATOM     62  C   UNL     1      -1.880 -14.330 -13.455  1.00  0.00     0.031 C 
ATOM     63  C   UNL     1      -3.652 -13.230 -14.792  1.00  0.00     0.037 A 
BRANCH  50  64
ATOM     64  C   UNL     1      -5.824  -7.693 -16.440  1.00  0.00     0.064 A 
ATOM     65  C   UNL     1      -5.524  -6.980 -17.611  1.00  0.00     0.173 A 
ATOM     66  C   UNL     1      -7.160  -7.708 -16.008  1.00  0.00     0.173 A 
ATOM     67  F   UNL     1      -4.263  -6.928 -18.066  1.00  0.00    -0.203 F 
ATOM     68  C   UNL     1      -6.514  -6.287 -18.304  1.00  0.00     0.198 A 
ATOM     69  C   UNL     1      -8.153  -7.042 -16.723  1.00  0.00     0.198 A 
ATOM     70  F   UNL     1      -7.506  -8.385 -14.903  1.00  0.00    -0.203 F 
ATOM     71  F   UNL     1      -6.193  -5.573 -19.392  1.00  0.00    -0.200 F 
ATOM     72  C   UNL     1      -7.828  -6.325 -17.864  1.00  0.00     0.200 A 
ATOM     73  F   UNL     1      -9.426  -7.096 -16.307  1.00  0.00    -0.200 F 
ATOM     74  F   UNL     1      -8.781  -5.668 -18.539  1.00  0.00    -0.200 F 
ENDBRANCH  50  64
BRANCH  51  75
ATOM     75  C   UNL     1       1.250 -12.486 -11.329  1.00  0.00     0.064 A 
ATOM     76  C   UNL     1       2.172 -13.316 -11.983  1.00  0.00     0.173 A 
ATOM     77  C   UNL     1       1.329 -12.403  -9.931  1.00  0.00     0.173 A 
ATOM     78  F   UNL     1       2.122 -13.451 -13.317  1.00  0.00    -0.203 F 
ATOM     79  C   UNL     1       3.114 -14.055 -11.269  1.00  0.00     0.198 A 
ATOM     80  C   UNL     1       2.293 -13.116  -9.220  1.00  0.00     0.198 A 
ATOM     81  F   UNL     1       0.472 -11.625  -9.255  1.00  0.00    -0.203 F 
ATOM     82  F   UNL     1       3.943 -14.885 -11.916  1.00  0.00    -0.200 F 
ATOM     83  C   UNL     1       3.177 -13.950  -9.888  1.00  0.00     0.200 A 
ATOM     84  F   UNL     1       2.358 -13.003  -7.886  1.00  0.00    -0.200 F 
ATOM     85  F   UNL     1       4.081 -14.661  -9.200  1.00  0.00    -0.200 F 
ENDBRANCH  51  75
BRANCH  63  86
ATOM     86  C   UNL     1      -4.160 -14.588 -15.187  1.00  0.00     0.064 A 
ATOM     87  C   UNL     1      -4.799 -15.436 -14.272  1.00  0.00     0.173 A 
ATOM     88  C   UNL     1      -4.050 -15.022 -16.517  1.00  0.00     0.173 A 
ATOM     89  F   UNL     1      -4.919 -15.074 -12.986  1.00  0.00    -0.203 F 
ATOM     90  C   UNL     1      -5.289 -16.678 -14.669  1.00  0.00     0.198 A 
ATOM     91  C   UNL     1      -4.568 -16.251 -16.917  1.00  0.00     0.198 A 
ATOM     92  F   UNL     1      -3.454 -14.246 -17.436  1.00  0.00    -0.203 F 
ATOM     93  F   UNL     1      -5.857 -17.492 -13.767  1.00  0.00    -0.200 F 
ATOM     94  C   UNL     1      -5.181 -17.081 -15.992  1.00  0.00     0.200 A 
ATOM     95  F   UNL     1      -4.476 -16.630 -18.200  1.00  0.00    -0.200 F 
ATOM     96  F   UNL     1      -5.663 -18.271 -16.373  1.00  0.00    -0.200 F 
ENDBRANCH  63  86
ENDBRANCH  37  38
ENDBRANCH  29  32
ENDBRANCH  27  28
ENDBRANCH  26  27
ENDBRANCH   1  26
TORSDOF 14
