REMARK SMILES COC[C@H](O)CC1(C(=O)NCCCNC(=O)c2ccc(-c3c4nc(c(-c5c(F)c(F)c(F)c(F)c5F)c5ccc([nH]5)c(-c5c(F)c(F)c(F)c(F)c5F)c5nc(c(-c6c(F)c(F)c(F)c(F)c6F)c6ccc3[nH]6)C=C5)C=C4)cc2)CC1
REMARK SMILES IDX 11 1 10 2 8 3 9 4 7 6 80 7 81 8 6 9 4 10 3 11 2 12 1 13 5 14
REMARK SMILES IDX 12 16 13 17 14 18 15 19 16 21 17 22 18 23 79 24 19 25 78 26
REMARK SMILES IDX 20 27 21 28 22 29 72 30 23 31 77 32 71 33 73 34 24 35 76 36
REMARK SMILES IDX 70 37 69 38 25 40 57 41 37 42 56 43 38 44 41 45 55 46 74 47
REMARK SMILES IDX 39 48 40 49 54 51 75 52 42 53 26 54 27 55 35 56 28 57 29 58
REMARK SMILES IDX 33 59 36 60 30 61 31 62 34 63 32 64 58 65 59 66 67 67 60 68
REMARK SMILES IDX 61 69 65 70 68 71 62 72 63 73 66 74 64 75 43 76 44 77 52 78
REMARK SMILES IDX 45 79 46 80 50 81 53 82 47 83 48 84 51 85 49 86
REMARK H PARENT 10 5 5 15 14 20 73 39 41 50
REMARK Flexibility Score: inf
ROOT
ATOM      1  C   UNL     1      -0.694  -6.659   1.046  1.00  0.00     0.117 C 
ENDROOT
BRANCH   1   2
ATOM      2  N   UNL     1      -0.220  -5.292   1.007  1.00  0.00    -0.356 N 
ATOM      3  C   UNL     1       0.627  -4.686   0.127  1.00  0.00     0.226 C 
ATOM      4  O   UNL     1       1.477  -3.930   0.604  1.00  0.00    -0.274 OA
ATOM      5  H   UNL     1      -0.561  -4.712   1.726  1.00  0.00     0.163 HD
BRANCH   3   6
ATOM      6  C   UNL     1       0.473  -4.746  -1.375  1.00  0.00     0.052 C 
ATOM      7  C   UNL     1      -0.717  -5.392  -2.058  1.00  0.00     0.018 C 
ATOM      8  C   UNL     1       0.613  -6.091  -2.070  1.00  0.00     0.018 C 
BRANCH   6   9
ATOM      9  C   UNL     1       1.066  -3.530  -2.113  1.00  0.00     0.051 C 
BRANCH   9  10
ATOM     10  C   UNL     1       0.290  -2.219  -1.863  1.00  0.00     0.141 C 
BRANCH  10  11
ATOM     11  C   UNL     1       1.019  -0.990  -2.441  1.00  0.00     0.191 C 
BRANCH  11  12
ATOM     12  O   UNL     1       2.424  -0.945  -2.164  1.00  0.00    -0.382 OA
ATOM     13  C   UNL     1       2.744  -0.614  -0.819  1.00  0.00     0.195 C 
ENDBRANCH  11  12
ENDBRANCH  10  11
BRANCH  10  14
ATOM     14  O   UNL     1       0.013  -1.974  -0.480  1.00  0.00    -0.391 OA
ATOM     15  H   UNL     1       0.847  -1.844  -0.002  1.00  0.00     0.211 HD
ENDBRANCH  10  14
ENDBRANCH   9  10
ENDBRANCH   6   9
ENDBRANCH   3   6
ENDBRANCH   1   2
BRANCH   1  16
ATOM     16  C   UNL     1       0.338  -7.588   1.687  1.00  0.00     0.042 C 
BRANCH  16  17
ATOM     17  C   UNL     1       0.846  -7.138   3.057  1.00  0.00     0.118 C 
BRANCH  17  18
ATOM     18  N   UNL     1      -0.213  -7.011   4.046  1.00  0.00    -0.352 N 
ATOM     19  C   UNL     1      -0.394  -7.652   5.245  1.00  0.00     0.251 C 
ATOM     20  H   UNL     1      -0.914  -6.359   3.818  1.00  0.00     0.163 HD
ATOM     21  O   UNL     1      -1.446  -7.502   5.861  1.00  0.00    -0.269 OA
BRANCH  19  22
ATOM     22  C   UNL     1       0.649  -8.545   5.795  1.00  0.00     0.039 A 
ATOM     23  C   UNL     1       0.254  -9.767   6.348  1.00  0.00     0.014 A 
ATOM     24  C   UNL     1       1.997  -8.178   5.804  1.00  0.00     0.014 A 
ATOM     25  C   UNL     1       1.214 -10.649   6.848  1.00  0.00     0.010 A 
ATOM     26  C   UNL     1       2.961  -9.084   6.247  1.00  0.00     0.010 A 
ATOM     27  C   UNL     1       2.578 -10.328   6.771  1.00  0.00    -0.014 A 
BRANCH  27  28
ATOM     28  C   UNL     1       3.613 -11.293   7.216  1.00  0.00     0.031 A 
ATOM     29  C   UNL     1       4.478 -10.992   8.406  1.00  0.00     0.074 A 
ATOM     30  C   UNL     1       3.822 -12.414   6.502  1.00  0.00     0.049 A 
ATOM     31  N   UNL     1       5.464 -11.690   8.910  1.00  0.00    -0.248 NA
ATOM     32  C   UNL     1       4.217  -9.726   9.106  1.00  0.00     0.031 C 
ATOM     33  C   UNL     1       3.093 -12.790   5.289  1.00  0.00     0.029 A 
ATOM     34  N   UNL     1       4.719 -13.436   6.682  1.00  0.00    -0.354 N 
ATOM     35  C   UNL     1       5.954 -10.941   9.971  1.00  0.00     0.074 A 
ATOM     36  C   UNL     1       5.182  -9.717  10.014  1.00  0.00     0.031 C 
ATOM     37  C   UNL     1       3.566 -13.962   4.839  1.00  0.00     0.029 A 
ATOM     38  C   UNL     1       4.644 -14.409   5.717  1.00  0.00     0.049 A 
ATOM     39  H   UNL     1       5.356 -13.469   7.432  1.00  0.00     0.167 HD
ATOM     40  C   UNL     1       6.944 -11.254  10.841  1.00  0.00     0.037 A 
ATOM     41  C   UNL     1       5.366 -15.534   5.553  1.00  0.00     0.037 A 
ATOM     42  C   UNL     1       7.690 -12.485  10.817  1.00  0.00     0.049 A 
ATOM     43  C   UNL     1       6.433 -15.879   6.552  1.00  0.00     0.074 A 
ATOM     44  C   UNL     1       8.649 -12.932  11.709  1.00  0.00     0.029 A 
ATOM     45  N   UNL     1       7.561 -13.466   9.845  1.00  0.00    -0.354 N 
ATOM     46  N   UNL     1       6.832 -15.202   7.600  1.00  0.00    -0.248 NA
ATOM     47  C   UNL     1       7.142 -17.150   6.350  1.00  0.00     0.031 C 
ATOM     48  C   UNL     1       9.126 -14.169  11.257  1.00  0.00     0.029 A 
ATOM     49  C   UNL     1       8.439 -14.507  10.102  1.00  0.00     0.049 A 
ATOM     50  H   UNL     1       6.938 -13.428   9.084  1.00  0.00     0.167 HD
ATOM     51  C   UNL     1       7.831 -15.964   8.189  1.00  0.00     0.074 A 
ATOM     52  C   UNL     1       7.964 -17.166   7.391  1.00  0.00     0.031 C 
ATOM     53  C   UNL     1       8.570 -15.690   9.291  1.00  0.00     0.037 A 
BRANCH  40  54
ATOM     54  C   UNL     1       7.275 -10.241  11.896  1.00  0.00     0.064 A 
ATOM     55  C   UNL     1       6.410  -9.992  12.973  1.00  0.00     0.173 A 
ATOM     56  C   UNL     1       8.476  -9.519  11.837  1.00  0.00     0.173 A 
ATOM     57  F   UNL     1       5.244 -10.649  13.067  1.00  0.00    -0.203 F 
ATOM     58  C   UNL     1       6.721  -9.033  13.933  1.00  0.00     0.198 A 
ATOM     59  C   UNL     1       8.795  -8.579  12.813  1.00  0.00     0.198 A 
ATOM     60  F   UNL     1       9.339  -9.723  10.831  1.00  0.00    -0.203 F 
ATOM     61  F   UNL     1       5.856  -8.776  14.924  1.00  0.00    -0.200 F 
ATOM     62  C   UNL     1       7.913  -8.330  13.855  1.00  0.00     0.200 A 
ATOM     63  F   UNL     1       9.952  -7.906  12.742  1.00  0.00    -0.200 F 
ATOM     64  F   UNL     1       8.209  -7.406  14.779  1.00  0.00    -0.200 F 
ENDBRANCH  40  54
BRANCH  41  65
ATOM     65  C   UNL     1       5.072 -16.424   4.405  1.00  0.00     0.064 A 
ATOM     66  C   UNL     1       4.379 -17.628   4.589  1.00  0.00     0.173 A 
ATOM     67  C   UNL     1       5.439 -16.070   3.099  1.00  0.00     0.173 A 
ATOM     68  F   UNL     1       4.024 -18.013   5.824  1.00  0.00    -0.203 F 
ATOM     69  C   UNL     1       4.067 -18.448   3.508  1.00  0.00     0.198 A 
ATOM     70  C   UNL     1       5.110 -16.882   2.017  1.00  0.00     0.198 A 
ATOM     71  F   UNL     1       6.098 -14.924   2.874  1.00  0.00    -0.203 F 
ATOM     72  F   UNL     1       3.422 -19.605   3.712  1.00  0.00    -0.200 F 
ATOM     73  C   UNL     1       4.426 -18.072   2.222  1.00  0.00     0.200 A 
ATOM     74  F   UNL     1       5.446 -16.509   0.774  1.00  0.00    -0.200 F 
ATOM     75  F   UNL     1       4.114 -18.855   1.181  1.00  0.00    -0.200 F 
ENDBRANCH  41  65
BRANCH  53  76
ATOM     76  C   UNL     1       9.590 -16.711   9.698  1.00  0.00     0.064 A 
ATOM     77  C   UNL     1      10.793 -16.862   8.992  1.00  0.00     0.173 A 
ATOM     78  C   UNL     1       9.378 -17.524  10.821  1.00  0.00     0.173 A 
ATOM     79  F   UNL     1      11.032 -16.118   7.902  1.00  0.00    -0.203 F 
ATOM     80  C   UNL     1      11.738 -17.805   9.385  1.00  0.00     0.198 A 
ATOM     81  C   UNL     1      10.335 -18.451  11.224  1.00  0.00     0.198 A 
ATOM     82  F   UNL     1       8.244 -17.415  11.530  1.00  0.00    -0.203 F 
ATOM     83  F   UNL     1      12.863 -17.959   8.674  1.00  0.00    -0.200 F 
ATOM     84  C   UNL     1      11.512 -18.594  10.503  1.00  0.00     0.200 A 
ATOM     85  F   UNL     1      10.118 -19.208  12.308  1.00  0.00    -0.200 F 
ATOM     86  F   UNL     1      12.424 -19.499  10.882  1.00  0.00    -0.200 F 
ENDBRANCH  53  76
ENDBRANCH  27  28
ENDBRANCH  19  22
ENDBRANCH  17  18
ENDBRANCH  16  17
ENDBRANCH   1  16
TORSDOF 15
