REMARK SMILES Cc1cccc(N2C(=O)/C(=C/c3cccn3-c3cccc(C(=O)NCCCNC(=O)c4ccc(-c5c6nc(c(-c7c(F)c(F)c(F)c(F)c7F)c7ccc([nH]7)c(-c7c(F)c(F)c(F)c(F)c7F)c7nc(c(-c8c(F)c(F)c(F)c(F)c8F)c8ccc5[nH]8)C=C7)C=C6)cc4)c3)C(O)=NC2=S)c1C
REMARK SMILES IDX 25 1 24 2 22 3 23 4 21 6 17 7 18 8 94 9 19 10 20 11 16 12
REMARK SMILES IDX 12 13 13 14 14 15 15 16 11 17 7 18 8 19 98 20 9 21 10 22
REMARK SMILES IDX 97 23 99 24 95 25 6 26 1 27 2 28 3 29 100 30 4 31 101 32
REMARK SMILES IDX 5 33 96 34 26 36 27 37 28 38 29 39 30 41 31 42 32 43 93 44
REMARK SMILES IDX 33 45 92 46 34 47 35 48 36 49 86 50 37 51 91 52 85 53 87 54
REMARK SMILES IDX 38 55 90 56 84 57 83 58 39 60 71 61 51 62 70 63 52 64 55 65
REMARK SMILES IDX 69 66 88 67 53 68 54 69 68 71 89 72 56 73 40 74 41 75 49 76
REMARK SMILES IDX 42 77 43 78 47 79 50 80 44 81 45 82 48 83 46 84 72 85 73 86
REMARK SMILES IDX 81 87 74 88 75 89 79 90 82 91 76 92 77 93 80 94 78 95 57 96
REMARK SMILES IDX 58 97 66 98 59 99 60 100 64 101 67 102 61 103 62 104 65 105
REMARK SMILES IDX 63 106
REMARK H PARENT 24 5 96 35 28 40 87 59 55 70
REMARK Flexibility Score: inf
ROOT
ATOM      1  C   UNL     1       2.346  -5.137  -2.325  1.00  0.00     0.118 C 
ENDROOT
BRANCH   1   2
ATOM      2  N   UNL     1       2.764  -4.978  -3.708  1.00  0.00    -0.352 N 
ATOM      3  C   UNL     1       2.257  -5.301  -4.943  1.00  0.00     0.251 C 
ATOM      4  O   UNL     1       2.918  -4.931  -5.916  1.00  0.00    -0.269 OA
ATOM      5  H   UNL     1       3.634  -4.522  -3.777  1.00  0.00     0.163 HD
BRANCH   3   6
ATOM      6  C   UNL     1       1.029  -6.113  -5.185  1.00  0.00     0.041 A 
ATOM      7  C   UNL     1      -0.968  -7.289  -4.427  1.00  0.00     0.046 A 
ATOM      8  C   UNL     1      -1.077  -7.916  -5.673  1.00  0.00     0.026 A 
ATOM      9  C   UNL     1       0.042  -6.342  -4.231  1.00  0.00     0.040 A 
ATOM     10  C   UNL     1      -0.176  -7.598  -6.691  1.00  0.00     0.003 A 
ATOM     11  C   UNL     1       0.883  -6.722  -6.440  1.00  0.00     0.014 A 
BRANCH   7  12
ATOM     12  N   UNL     1      -1.757  -7.726  -3.313  1.00  0.00    -0.317 N 
ATOM     13  C   UNL     1      -2.119  -7.048  -2.133  1.00  0.00     0.047 A 
ATOM     14  C   UNL     1      -2.711  -7.968  -1.280  1.00  0.00     0.028 A 
ATOM     15  C   UNL     1      -2.667  -9.232  -1.896  1.00  0.00     0.020 A 
ATOM     16  C   UNL     1      -2.119  -9.054  -3.143  1.00  0.00     0.092 A 
BRANCH  13  17
ATOM     17  C   UNL     1      -1.957  -5.642  -1.980  1.00  0.00     0.046 C 
ATOM     18  N   UNL     1      -0.702  -2.866   0.039  1.00  0.00    -0.251 N 
ATOM     19  C   UNL     1      -1.226  -3.518  -1.080  1.00  0.00     0.270 C 
ATOM     20  C   UNL     1      -0.314  -3.550   1.207  1.00  0.00     0.210 C 
ATOM     21  O   UNL     1      -1.609  -2.954  -2.106  1.00  0.00    -0.268 OA
ATOM     22  C   UNL     1      -1.282  -5.017  -0.988  1.00  0.00     0.104 C 
ATOM     23  N   UNL     1      -0.042  -4.893   1.107  1.00  0.00    -0.184 NA
ATOM     24  S   UNL     1      -0.201  -2.832   2.742  1.00  0.00    -0.038 S 
ATOM     25  C   UNL     1      -0.507  -5.572   0.127  1.00  0.00     0.226 C 
BRANCH  18  26
ATOM     26  C   UNL     1      -0.648  -1.430  -0.015  1.00  0.00     0.055 A 
ATOM     27  C   UNL     1       1.825   1.516  -0.007  1.00  0.00     0.044 C 
ATOM     28  C   UNL     1       0.565   0.691  -0.017  1.00  0.00    -0.046 A 
ATOM     29  C   UNL     1      -0.668   1.365  -0.019  1.00  0.00     0.004 A 
ATOM     30  C   UNL     1       0.586  -0.726  -0.034  1.00  0.00    -0.024 A 
ATOM     31  C   UNL     1      -1.870   0.664  -0.043  1.00  0.00     0.002 A 
ATOM     32  C   UNL     1       1.893  -1.476  -0.111  1.00  0.00     0.047 C 
ATOM     33  C   UNL     1      -1.862  -0.726  -0.047  1.00  0.00     0.027 A 
ENDBRANCH  18  26
BRANCH  25  34
ATOM     34  O   UNL     1      -0.157  -6.864   0.108  1.00  0.00    -0.493 OA
ATOM     35  H   UNL     1      -0.462  -7.422  -0.580  1.00  0.00     0.295 HD
ENDBRANCH  25  34
ENDBRANCH  13  17
ENDBRANCH   7  12
ENDBRANCH   3   6
ENDBRANCH   1   2
BRANCH   1  36
ATOM     36  C   UNL     1       2.873  -6.401  -1.644  1.00  0.00     0.042 C 
BRANCH  36  37
ATOM     37  C   UNL     1       4.037  -6.070  -0.717  1.00  0.00     0.118 C 
BRANCH  37  38
ATOM     38  N   UNL     1       3.629  -5.134   0.327  1.00  0.00    -0.352 N 
ATOM     39  C   UNL     1       4.378  -4.340   1.162  1.00  0.00     0.251 C 
ATOM     40  H   UNL     1       2.655  -5.060   0.454  1.00  0.00     0.163 HD
ATOM     41  O   UNL     1       3.845  -3.734   2.074  1.00  0.00    -0.269 OA
BRANCH  39  42
ATOM     42  C   UNL     1       5.839  -4.256   0.997  1.00  0.00     0.039 A 
ATOM     43  C   UNL     1       6.623  -4.322   2.155  1.00  0.00     0.014 A 
ATOM     44  C   UNL     1       6.428  -4.095  -0.259  1.00  0.00     0.014 A 
ATOM     45  C   UNL     1       8.005  -4.309   2.042  1.00  0.00     0.010 A 
ATOM     46  C   UNL     1       7.803  -4.159  -0.385  1.00  0.00     0.010 A 
ATOM     47  C   UNL     1       8.585  -4.263   0.769  1.00  0.00    -0.014 A 
BRANCH  47  48
ATOM     48  C   UNL     1      10.047  -4.407   0.655  1.00  0.00     0.031 A 
ATOM     49  C   UNL     1      10.493  -5.862   0.925  1.00  0.00     0.074 A 
ATOM     50  C   UNL     1      10.712  -3.248   0.365  1.00  0.00     0.049 A 
ATOM     51  N   UNL     1      11.577  -6.337   1.463  1.00  0.00    -0.248 NA
ATOM     52  C   UNL     1       9.537  -6.961   0.604  1.00  0.00     0.031 C 
ATOM     53  C   UNL     1      10.063  -1.948   0.062  1.00  0.00     0.029 A 
ATOM     54  N   UNL     1      12.041  -2.907   0.264  1.00  0.00    -0.354 N 
ATOM     55  C   UNL     1      11.517  -7.751   1.378  1.00  0.00     0.074 A 
ATOM     56  C   UNL     1      10.188  -8.072   0.954  1.00  0.00     0.031 C 
ATOM     57  C   UNL     1      10.978  -0.972  -0.110  1.00  0.00     0.029 A 
ATOM     58  C   UNL     1      12.301  -1.521   0.084  1.00  0.00     0.049 A 
ATOM     59  H   UNL     1      12.762  -3.576   0.313  1.00  0.00     0.167 HD
ATOM     60  C   UNL     1      12.611  -8.560   1.520  1.00  0.00     0.037 A 
ATOM     61  C   UNL     1      13.493  -0.854   0.170  1.00  0.00     0.037 A 
ATOM     62  C   UNL     1      13.764  -7.770   1.784  1.00  0.00     0.049 A 
ATOM     63  C   UNL     1      14.475  -1.913   0.432  1.00  0.00     0.074 A 
ATOM     64  C   UNL     1      14.278  -7.192   2.911  1.00  0.00     0.029 A 
ATOM     65  N   UNL     1      14.422  -7.269   0.691  1.00  0.00    -0.354 N 
ATOM     66  N   UNL     1      14.900  -2.759  -0.456  1.00  0.00    -0.248 NA
ATOM     67  C   UNL     1      14.889  -2.152   1.817  1.00  0.00     0.031 C 
ATOM     68  C   UNL     1      14.963  -6.052   2.433  1.00  0.00     0.029 A 
ATOM     69  C   UNL     1      14.928  -6.040   1.035  1.00  0.00     0.049 A 
ATOM     70  H   UNL     1      14.514  -7.711  -0.184  1.00  0.00     0.167 HD
ATOM     71  C   UNL     1      15.374  -3.793   0.316  1.00  0.00     0.074 A 
ATOM     72  C   UNL     1      15.614  -3.251   1.634  1.00  0.00     0.031 C 
ATOM     73  C   UNL     1      15.105  -5.078  -0.027  1.00  0.00     0.037 A 
BRANCH  60  74
ATOM     74  C   UNL     1      12.872 -10.014   1.197  1.00  0.00     0.064 A 
ATOM     75  C   UNL     1      14.024 -10.627   1.761  1.00  0.00     0.173 A 
ATOM     76  C   UNL     1      12.299 -10.683   0.108  1.00  0.00     0.173 A 
ATOM     77  F   UNL     1      14.611 -10.113   2.853  1.00  0.00    -0.203 F 
ATOM     78  C   UNL     1      14.650 -11.724   1.170  1.00  0.00     0.198 A 
ATOM     79  C   UNL     1      12.900 -11.819  -0.449  1.00  0.00     0.198 A 
ATOM     80  F   UNL     1      11.208 -10.203  -0.502  1.00  0.00    -0.203 F 
ATOM     81  F   UNL     1      15.822 -12.165   1.649  1.00  0.00    -0.200 F 
ATOM     82  C   UNL     1      14.098 -12.306   0.048  1.00  0.00     0.200 A 
ATOM     83  F   UNL     1      12.352 -12.396  -1.528  1.00  0.00    -0.200 F 
ATOM     84  F   UNL     1      14.732 -13.312  -0.571  1.00  0.00    -0.200 F 
ENDBRANCH  60  74
BRANCH  61  85
ATOM     85  C   UNL     1      13.985   0.575   0.215  1.00  0.00     0.064 A 
ATOM     86  C   UNL     1      13.272   1.709  -0.197  1.00  0.00     0.173 A 
ATOM     87  C   UNL     1      15.275   0.866   0.746  1.00  0.00     0.173 A 
ATOM     88  F   UNL     1      12.109   1.593  -0.847  1.00  0.00    -0.203 F 
ATOM     89  C   UNL     1      13.754   3.015   0.021  1.00  0.00     0.198 A 
ATOM     90  C   UNL     1      15.738   2.157   0.997  1.00  0.00     0.198 A 
ATOM     91  F   UNL     1      16.148  -0.104   1.045  1.00  0.00    -0.203 F 
ATOM     92  F   UNL     1      13.027   4.069  -0.379  1.00  0.00    -0.200 F 
ATOM     93  C   UNL     1      14.966   3.238   0.651  1.00  0.00     0.200 A 
ATOM     94  F   UNL     1      16.928   2.331   1.589  1.00  0.00    -0.200 F 
ATOM     95  F   UNL     1      15.397   4.481   0.906  1.00  0.00    -0.200 F 
ENDBRANCH  61  85
BRANCH  73  96
ATOM     96  C   UNL     1      14.623  -5.228  -1.465  1.00  0.00     0.064 A 
ATOM     97  C   UNL     1      15.476  -4.915  -2.533  1.00  0.00     0.173 A 
ATOM     98  C   UNL     1      13.294  -5.525  -1.815  1.00  0.00     0.173 A 
ATOM     99  F   UNL     1      16.766  -4.634  -2.295  1.00  0.00    -0.203 F 
ATOM    100  C   UNL     1      15.017  -4.877  -3.854  1.00  0.00     0.198 A 
ATOM    101  C   UNL     1      12.831  -5.495  -3.131  1.00  0.00     0.198 A 
ATOM    102  F   UNL     1      12.409  -5.863  -0.883  1.00  0.00    -0.203 F 
ATOM    103  F   UNL     1      15.863  -4.564  -4.845  1.00  0.00    -0.200 F 
ATOM    104  C   UNL     1      13.694  -5.162  -4.153  1.00  0.00     0.200 A 
ATOM    105  F   UNL     1      11.550  -5.795  -3.400  1.00  0.00    -0.200 F 
ATOM    106  F   UNL     1      13.257  -5.130  -5.420  1.00  0.00    -0.200 F 
ENDBRANCH  73  96
ENDBRANCH  47  48
ENDBRANCH  39  42
ENDBRANCH  37  38
ENDBRANCH  36  37
ENDBRANCH   1  36
TORSDOF 14
