REMARK SMILES COc1ccc([C@H](C)[N@H+]2CC[C@H](C(=O)NCCCNC(=O)c3ccc(-c4c5nc(c(-c6c(F)c(F)c(F)c(F)c6F)c6ccc([nH]6)c(-c6c(F)c(F)c(F)c(F)c6F)c6nc(c(-c7c(F)c(F)c(F)c(F)c7F)c7ccc4[nH]7)C=C6)C=C5)cc3)[C@@H]2C)cc1
REMARK SMILES IDX 16 1 15 2 13 3 14 4 12 6 9 7 10 8 85 9 11 11 86 12 7 13 8 14
REMARK SMILES IDX 6 15 3 16 4 17 88 18 5 19 87 20 2 21 1 22 17 23 18 24 19 25
REMARK SMILES IDX 20 26 21 28 22 29 23 30 84 31 24 32 83 33 25 34 26 35 27 36
REMARK SMILES IDX 77 37 28 38 82 39 76 40 78 41 29 42 81 43 75 44 74 45 30 47
REMARK SMILES IDX 62 48 42 49 61 50 43 51 46 52 60 53 79 54 44 55 45 56 59 58
REMARK SMILES IDX 80 59 47 60 31 61 32 62 40 63 33 64 34 65 38 66 41 67 35 68
REMARK SMILES IDX 36 69 39 70 37 71 63 72 64 73 72 74 65 75 66 76 70 77 73 78
REMARK SMILES IDX 67 79 68 80 71 81 69 82 48 83 49 84 57 85 50 86 51 87 55 88
REMARK SMILES IDX 58 89 52 90 53 91 56 92 54 93
REMARK H PARENT 15 5 9 10 19 27 78 46 46 57
REMARK Flexibility Score: inf
ROOT
ATOM      1  C   UNL     1      -1.444   8.595  -2.807  1.00  0.00     0.117 C 
ENDROOT
BRANCH   1   2
ATOM      2  N   UNL     1      -1.350   8.428  -1.372  1.00  0.00    -0.356 N 
ATOM      3  C   UNL     1      -0.743   7.490  -0.606  1.00  0.00     0.229 C 
ATOM      4  O   UNL     1      -0.750   7.704   0.613  1.00  0.00    -0.275 OA
ATOM      5  H   UNL     1      -1.813   9.127  -0.856  1.00  0.00     0.163 HD
BRANCH   3   6
ATOM      6  C   UNL     1      -0.057   6.229  -1.129  1.00  0.00     0.142 C 
ATOM      7  N   UNL     1       1.179   5.982  -3.183  1.00  0.00    -0.326 N 
ATOM      8  C   UNL     1      -0.178   5.486  -3.424  1.00  0.00     0.264 C 
ATOM      9  C   UNL     1       1.331   6.352  -1.765  1.00  0.00     0.194 C 
ATOM     10  H   UNL     1       1.311   6.841  -3.718  1.00  0.00     0.348 HD
ATOM     11  C   UNL     1      -0.842   5.341  -2.073  1.00  0.00     0.081 C 
ATOM     12  C   UNL     1       2.020   7.703  -1.599  1.00  0.00     0.076 C 
BRANCH   7  13
ATOM     13  C   UNL     1       2.245   5.123  -3.748  1.00  0.00     0.212 C 
ATOM     14  C   UNL     1       2.311   3.718  -3.114  1.00  0.00     0.081 C 
BRANCH  13  15
ATOM     15  C   UNL     1       2.113   5.113  -5.276  1.00  0.00     0.009 A 
ATOM     16  C   UNL     1       1.546   5.317  -8.030  1.00  0.00     0.118 A 
ATOM     17  C   UNL     1       2.134   6.385  -7.356  1.00  0.00     0.047 A 
ATOM     18  C   UNL     1       1.313   4.121  -7.355  1.00  0.00     0.047 A 
ATOM     19  C   UNL     1       2.406   6.289  -5.989  1.00  0.00     0.013 A 
ATOM     20  C   UNL     1       1.596   4.020  -5.990  1.00  0.00     0.013 A 
BRANCH  16  21
ATOM     21  O   UNL     1       1.262   5.516  -9.353  1.00  0.00    -0.497 OA
ATOM     22  C   UNL     1       0.009   4.970  -9.762  1.00  0.00     0.278 C 
ENDBRANCH  16  21
ENDBRANCH  13  15
ENDBRANCH   7  13
ENDBRANCH   3   6
ENDBRANCH   1   2
BRANCH   1  23
ATOM     23  C   UNL     1      -2.732   8.012  -3.381  1.00  0.00     0.042 C 
BRANCH  23  24
ATOM     24  C   UNL     1      -3.935   8.938  -3.263  1.00  0.00     0.118 C 
BRANCH  24  25
ATOM     25  N   UNL     1      -3.855  10.063  -4.183  1.00  0.00    -0.352 N 
ATOM     26  C   UNL     1      -4.714  10.455  -5.180  1.00  0.00     0.251 C 
ATOM     27  H   UNL     1      -3.060  10.633  -4.073  1.00  0.00     0.163 HD
ATOM     28  O   UNL     1      -4.360  11.316  -5.979  1.00  0.00    -0.269 OA
BRANCH  26  29
ATOM     29  C   UNL     1      -6.056   9.843  -5.312  1.00  0.00     0.039 A 
ATOM     30  C   UNL     1      -6.565   9.611  -6.593  1.00  0.00     0.014 A 
ATOM     31  C   UNL     1      -6.830   9.534  -4.191  1.00  0.00     0.014 A 
ATOM     32  C   UNL     1      -7.825   9.029  -6.748  1.00  0.00     0.010 A 
ATOM     33  C   UNL     1      -8.042   8.868  -4.343  1.00  0.00     0.010 A 
ATOM     34  C   UNL     1      -8.561   8.625  -5.623  1.00  0.00    -0.014 A 
BRANCH  34  35
ATOM     35  C   UNL     1      -9.885   7.969  -5.764  1.00  0.00     0.031 A 
ATOM     36  C   UNL     1     -11.117   8.624  -5.203  1.00  0.00     0.074 A 
ATOM     37  C   UNL     1      -9.967   6.752  -6.334  1.00  0.00     0.049 A 
ATOM     38  N   UNL     1     -12.350   8.184  -5.168  1.00  0.00    -0.248 NA
ATOM     39  C   UNL     1     -10.931   9.934  -4.560  1.00  0.00     0.031 C 
ATOM     40  C   UNL     1      -8.835   5.989  -6.857  1.00  0.00     0.029 A 
ATOM     41  N   UNL     1     -11.049   5.938  -6.555  1.00  0.00    -0.354 N 
ATOM     42  C   UNL     1     -13.076   9.149  -4.484  1.00  0.00     0.074 A 
ATOM     43  C   UNL     1     -12.136  10.165  -4.064  1.00  0.00     0.031 C 
ATOM     44  C   UNL     1      -9.282   4.827  -7.357  1.00  0.00     0.029 A 
ATOM     45  C   UNL     1     -10.726   4.746  -7.155  1.00  0.00     0.049 A 
ATOM     46  H   UNL     1     -11.970   6.184  -6.307  1.00  0.00     0.167 HD
ATOM     47  C   UNL     1     -14.410   9.198  -4.250  1.00  0.00     0.037 A 
ATOM     48  C   UNL     1     -11.504   3.702  -7.497  1.00  0.00     0.037 A 
ATOM     49  C   UNL     1     -15.339   8.191  -4.692  1.00  0.00     0.049 A 
ATOM     50  C   UNL     1     -12.984   3.780  -7.243  1.00  0.00     0.074 A 
ATOM     51  C   UNL     1     -16.718   8.177  -4.578  1.00  0.00     0.029 A 
ATOM     52  N   UNL     1     -14.979   7.009  -5.325  1.00  0.00    -0.354 N 
ATOM     53  N   UNL     1     -13.675   4.737  -6.673  1.00  0.00    -0.248 NA
ATOM     54  C   UNL     1     -13.792   2.638  -7.689  1.00  0.00     0.031 C 
ATOM     55  C   UNL     1     -17.186   6.961  -5.089  1.00  0.00     0.029 A 
ATOM     56  C   UNL     1     -16.106   6.243  -5.579  1.00  0.00     0.049 A 
ATOM     57  H   UNL     1     -14.057   6.753  -5.560  1.00  0.00     0.167 HD
ATOM     58  C   UNL     1     -15.000   4.325  -6.707  1.00  0.00     0.074 A 
ATOM     59  C   UNL     1     -15.017   3.038  -7.372  1.00  0.00     0.031 C 
ATOM     60  C   UNL     1     -16.103   4.957  -6.233  1.00  0.00     0.037 A 
BRANCH  47  61
ATOM     61  C   UNL     1     -14.931  10.374  -3.470  1.00  0.00     0.064 A 
ATOM     62  C   UNL     1     -14.887  11.682  -3.980  1.00  0.00     0.173 A 
ATOM     63  C   UNL     1     -15.473  10.193  -2.188  1.00  0.00     0.173 A 
ATOM     64  F   UNL     1     -14.370  11.915  -5.197  1.00  0.00    -0.203 F 
ATOM     65  C   UNL     1     -15.313  12.766  -3.217  1.00  0.00     0.198 A 
ATOM     66  C   UNL     1     -15.935  11.276  -1.444  1.00  0.00     0.198 A 
ATOM     67  F   UNL     1     -15.550   8.966  -1.652  1.00  0.00    -0.203 F 
ATOM     68  F   UNL     1     -15.188  14.011  -3.697  1.00  0.00    -0.200 F 
ATOM     69  C   UNL     1     -15.841  12.562  -1.952  1.00  0.00     0.200 A 
ATOM     70  F   UNL     1     -16.459  11.075  -0.227  1.00  0.00    -0.200 F 
ATOM     71  F   UNL     1     -16.246  13.607  -1.217  1.00  0.00    -0.200 F 
ENDBRANCH  47  61
BRANCH  48  72
ATOM     72  C   UNL     1     -10.887   2.515  -8.143  1.00  0.00     0.064 A 
ATOM     73  C   UNL     1     -11.094   2.243  -9.502  1.00  0.00     0.173 A 
ATOM     74  C   UNL     1     -10.037   1.658  -7.428  1.00  0.00     0.173 A 
ATOM     75  F   UNL     1     -11.911   3.024 -10.224  1.00  0.00    -0.203 F 
ATOM     76  C   UNL     1     -10.479   1.156 -10.120  1.00  0.00     0.198 A 
ATOM     77  C   UNL     1      -9.401   0.588  -8.053  1.00  0.00     0.198 A 
ATOM     78  F   UNL     1      -9.798   1.881  -6.127  1.00  0.00    -0.203 F 
ATOM     79  F   UNL     1     -10.714   0.903 -11.415  1.00  0.00    -0.200 F 
ATOM     80  C   UNL     1      -9.625   0.336  -9.398  1.00  0.00     0.200 A 
ATOM     81  F   UNL     1      -8.561  -0.189  -7.357  1.00  0.00    -0.200 F 
ATOM     82  F   UNL     1      -9.018  -0.697  -9.998  1.00  0.00    -0.200 F 
ENDBRANCH  48  72
BRANCH  60  83
ATOM     83  C   UNL     1     -17.425   4.274  -6.432  1.00  0.00     0.064 A 
ATOM     84  C   UNL     1     -17.772   3.117  -5.719  1.00  0.00     0.173 A 
ATOM     85  C   UNL     1     -18.374   4.808  -7.319  1.00  0.00     0.173 A 
ATOM     86  F   UNL     1     -16.896   2.558  -4.870  1.00  0.00    -0.203 F 
ATOM     87  C   UNL     1     -19.010   2.506  -5.904  1.00  0.00     0.198 A 
ATOM     88  C   UNL     1     -19.622   4.213  -7.476  1.00  0.00     0.198 A 
ATOM     89  F   UNL     1     -18.095   5.916  -8.021  1.00  0.00    -0.203 F 
ATOM     90  F   UNL     1     -19.300   1.373  -5.249  1.00  0.00    -0.200 F 
ATOM     91  C   UNL     1     -19.936   3.059  -6.776  1.00  0.00     0.200 A 
ATOM     92  F   UNL     1     -20.522   4.758  -8.307  1.00  0.00    -0.200 F 
ATOM     93  F   UNL     1     -21.130   2.474  -6.946  1.00  0.00    -0.200 F 
ENDBRANCH  60  83
ENDBRANCH  34  35
ENDBRANCH  26  29
ENDBRANCH  24  25
ENDBRANCH  23  24
ENDBRANCH   1  23
TORSDOF 13
