REMARK SMILES C[C@@H]([NH2+][C@H]1CCOC2(CCOCC2)C1)C(=O)NCCCNC(=O)c1ccc(-c2c3nc(c(-c4c(F)c(F)c(F)c(F)c4F)c4ccc([nH]4)c(-c4c(F)c(F)c(F)c(F)c4F)c4nc(c(-c5c(F)c(F)c(F)c(F)c5F)c5ccc2[nH]5)C=C4)C=C3)cc1
REMARK SMILES IDX 19 1 18 2 17 3 15 4 16 5 2 7 1 8 3 9 4 12 5 13 14 14 6 15
REMARK SMILES IDX 8 16 7 17 9 18 13 19 10 20 12 21 11 22 20 23 21 24 22 25
REMARK SMILES IDX 23 27 24 28 25 29 86 30 26 31 85 32 27 33 28 34 29 35 79 36
REMARK SMILES IDX 30 37 84 38 78 39 80 40 31 41 83 42 77 43 76 44 32 46 64 47
REMARK SMILES IDX 44 48 63 49 45 50 48 51 62 52 81 53 46 54 47 55 61 57 82 58
REMARK SMILES IDX 49 59 33 60 34 61 42 62 35 63 36 64 40 65 43 66 37 67 38 68
REMARK SMILES IDX 41 69 39 70 65 71 66 72 74 73 67 74 68 75 72 76 75 77 69 78
REMARK SMILES IDX 70 79 73 80 71 81 50 82 51 83 59 84 52 85 53 86 57 87 60 88
REMARK SMILES IDX 54 89 55 90 58 91 56 92
REMARK H PARENT 17 6 3 10 3 11 21 26 80 45 48 56
REMARK Flexibility Score: inf
ROOT
ATOM      1  C   UNL     1       4.128   4.834  -3.356  1.00  0.00     0.042 C 
ENDROOT
BRANCH   1   2
ATOM      2  C   UNL     1       3.059   4.178  -2.491  1.00  0.00     0.118 C 
BRANCH   2   3
ATOM      3  N   UNL     1       3.590   3.860  -1.180  1.00  0.00    -0.351 N 
ATOM      4  C   UNL     1       3.370   4.468   0.018  1.00  0.00     0.277 C 
ATOM      5  O   UNL     1       4.000   4.049   0.993  1.00  0.00    -0.268 OA
ATOM      6  H   UNL     1       4.201   3.088  -1.152  1.00  0.00     0.163 HD
BRANCH   4   7
ATOM      7  C   UNL     1       2.327   5.595   0.177  1.00  0.00     0.269 C 
ATOM      8  C   UNL     1       2.740   6.876  -0.541  1.00  0.00     0.086 C 
BRANCH   7   9
ATOM      9  N   UNL     1       0.963   5.144  -0.212  1.00  0.00    -0.334 N 
ATOM     10  H   UNL     1       0.954   4.972  -1.218  1.00  0.00     0.347 HD
ATOM     11  H   UNL     1       0.312   5.881   0.056  1.00  0.00     0.347 HD
BRANCH   9  12
ATOM     12  C   UNL     1       0.538   3.907   0.481  1.00  0.00     0.188 C 
ATOM     13  C   UNL     1       0.570   4.031   2.009  1.00  0.00     0.093 C 
ATOM     14  C   UNL     1      -0.879   3.498   0.035  1.00  0.00     0.100 C 
ATOM     15  C   UNL     1       0.067   2.756   2.657  1.00  0.00     0.167 C 
ATOM     16  C   UNL     1      -1.362   2.230   0.778  1.00  0.00     0.078 C 
ATOM     17  O   UNL     1      -1.237   2.434   2.197  1.00  0.00    -0.374 OA
ATOM     18  C   UNL     1      -0.614   0.960   0.318  1.00  0.00     0.064 C 
ATOM     19  C   UNL     1      -2.865   1.996   0.532  1.00  0.00     0.064 C 
ATOM     20  C   UNL     1      -1.177  -0.275   1.010  1.00  0.00     0.163 C 
ATOM     21  C   UNL     1      -3.319   0.705   1.213  1.00  0.00     0.163 C 
ATOM     22  O   UNL     1      -2.569  -0.410   0.728  1.00  0.00    -0.381 OA
ENDBRANCH   9  12
ENDBRANCH   7   9
ENDBRANCH   4   7
ENDBRANCH   2   3
ENDBRANCH   1   2
BRANCH   1  23
ATOM     23  C   UNL     1       5.283   3.899  -3.692  1.00  0.00     0.118 C 
BRANCH  23  24
ATOM     24  N   UNL     1       4.876   2.804  -4.563  1.00  0.00    -0.352 N 
ATOM     25  C   UNL     1       5.343   2.459  -5.805  1.00  0.00     0.251 C 
ATOM     26  H   UNL     1       4.162   2.228  -4.208  1.00  0.00     0.163 HD
ATOM     27  O   UNL     1       4.744   1.625  -6.480  1.00  0.00    -0.269 OA
BRANCH  25  28
ATOM     28  C   UNL     1       6.558   3.104  -6.341  1.00  0.00     0.039 A 
ATOM     29  C   UNL     1       6.572   3.528  -7.672  1.00  0.00     0.014 A 
ATOM     30  C   UNL     1       7.683   3.287  -5.533  1.00  0.00     0.014 A 
ATOM     31  C   UNL     1       7.693   4.192  -8.175  1.00  0.00     0.010 A 
ATOM     32  C   UNL     1       8.762   4.023  -6.008  1.00  0.00     0.010 A 
ATOM     33  C   UNL     1       8.783   4.475  -7.336  1.00  0.00    -0.014 A 
BRANCH  33  34
ATOM     34  C   UNL     1       9.967   5.224  -7.824  1.00  0.00     0.031 A 
ATOM     35  C   UNL     1      11.317   4.561  -7.834  1.00  0.00     0.074 A 
ATOM     36  C   UNL     1       9.845   6.517  -8.181  1.00  0.00     0.049 A 
ATOM     37  N   UNL     1      12.491   5.072  -8.107  1.00  0.00    -0.248 NA
ATOM     38  C   UNL     1      11.355   3.139  -7.457  1.00  0.00     0.031 C 
ATOM     39  C   UNL     1       8.597   7.281  -8.180  1.00  0.00     0.029 A 
ATOM     40  N   UNL     1      10.788   7.423  -8.597  1.00  0.00    -0.354 N 
ATOM     41  C   UNL     1      13.403   4.043  -7.913  1.00  0.00     0.074 A 
ATOM     42  C   UNL     1      12.657   2.896  -7.446  1.00  0.00     0.031 C 
ATOM     43  C   UNL     1       8.848   8.534  -8.592  1.00  0.00     0.029 A 
ATOM     44  C   UNL     1      10.279   8.675  -8.840  1.00  0.00     0.049 A 
ATOM     45  H   UNL     1      11.739   7.196  -8.711  1.00  0.00     0.167 HD
ATOM     46  C   UNL     1      14.741   4.048  -8.128  1.00  0.00     0.037 A 
ATOM     47  C   UNL     1      10.901   9.813  -9.206  1.00  0.00     0.037 A 
ATOM     48  C   UNL     1      15.474   5.187  -8.615  1.00  0.00     0.049 A 
ATOM     49  C   UNL     1      12.391   9.797  -9.418  1.00  0.00     0.074 A 
ATOM     50  C   UNL     1      16.821   5.280  -8.918  1.00  0.00     0.029 A 
ATOM     51  N   UNL     1      14.920   6.434  -8.868  1.00  0.00    -0.354 N 
ATOM     52  N   UNL     1      13.237   8.804  -9.290  1.00  0.00    -0.248 NA
ATOM     53  C   UNL     1      13.014  11.063  -9.831  1.00  0.00     0.031 C 
ATOM     54  C   UNL     1      17.093   6.597  -9.301  1.00  0.00     0.029 A 
ATOM     55  C   UNL     1      15.904   7.309  -9.300  1.00  0.00     0.049 A 
ATOM     56  H   UNL     1      13.969   6.662  -8.758  1.00  0.00     0.167 HD
ATOM     57  C   UNL     1      14.481   9.312  -9.640  1.00  0.00     0.074 A 
ATOM     58  C   UNL     1      14.277  10.701  -9.997  1.00  0.00     0.031 C 
ATOM     59  C   UNL     1      15.683   8.685  -9.666  1.00  0.00     0.037 A 
BRANCH  46  60
ATOM     60  C   UNL     1      15.497   2.784  -7.835  1.00  0.00     0.064 A 
ATOM     61  C   UNL     1      15.329   1.626  -8.609  1.00  0.00     0.173 A 
ATOM     62  C   UNL     1      16.427   2.739  -6.785  1.00  0.00     0.173 A 
ATOM     63  F   UNL     1      14.445   1.610  -9.618  1.00  0.00    -0.203 F 
ATOM     64  C   UNL     1      16.037   0.461  -8.322  1.00  0.00     0.198 A 
ATOM     65  C   UNL     1      17.159   1.584  -6.523  1.00  0.00     0.198 A 
ATOM     66  F   UNL     1      16.633   3.819  -6.015  1.00  0.00    -0.203 F 
ATOM     67  F   UNL     1      15.816  -0.649  -9.041  1.00  0.00    -0.200 F 
ATOM     68  C   UNL     1      16.957   0.443  -7.285  1.00  0.00     0.200 A 
ATOM     69  F   UNL     1      18.059   1.573  -5.530  1.00  0.00    -0.200 F 
ATOM     70  F   UNL     1      17.643  -0.675  -7.016  1.00  0.00    -0.200 F 
ENDBRANCH  46  60
BRANCH  47  71
ATOM     71  C   UNL     1      10.115  11.059  -9.410  1.00  0.00     0.064 A 
ATOM     72  C   UNL     1       9.969  11.616 -10.689  1.00  0.00     0.173 A 
ATOM     73  C   UNL     1       9.506  11.725  -8.337  1.00  0.00     0.173 A 
ATOM     74  F   UNL     1      10.549  11.027 -11.745  1.00  0.00    -0.203 F 
ATOM     75  C   UNL     1       9.267  12.803 -10.882  1.00  0.00     0.198 A 
ATOM     76  C   UNL     1       8.777  12.896  -8.536  1.00  0.00     0.198 A 
ATOM     77  F   UNL     1       9.610  11.232  -7.094  1.00  0.00    -0.203 F 
ATOM     78  F   UNL     1       9.188  13.341 -12.107  1.00  0.00    -0.200 F 
ATOM     79  C   UNL     1       8.666  13.439  -9.806  1.00  0.00     0.200 A 
ATOM     80  F   UNL     1       8.184  13.498  -7.496  1.00  0.00    -0.200 F 
ATOM     81  F   UNL     1       7.989  14.580  -9.993  1.00  0.00    -0.200 F 
ENDBRANCH  47  71
BRANCH  59  82
ATOM     82  C   UNL     1      16.866   9.477 -10.144  1.00  0.00     0.064 A 
ATOM     83  C   UNL     1      17.421  10.514  -9.381  1.00  0.00     0.173 A 
ATOM     84  C   UNL     1      17.480   9.160 -11.366  1.00  0.00     0.173 A 
ATOM     85  F   UNL     1      16.864  10.867  -8.213  1.00  0.00    -0.203 F 
ATOM     86  C   UNL     1      18.531  11.222  -9.836  1.00  0.00     0.198 A 
ATOM     87  C   UNL     1      18.610   9.846 -11.801  1.00  0.00     0.198 A 
ATOM     88  F   UNL     1      16.994   8.171 -12.131  1.00  0.00    -0.203 F 
ATOM     89  F   UNL     1      19.014  12.243  -9.114  1.00  0.00    -0.200 F 
ATOM     90  C   UNL     1      19.130  10.882 -11.040  1.00  0.00     0.200 A 
ATOM     91  F   UNL     1      19.197   9.504 -12.956  1.00  0.00    -0.200 F 
ATOM     92  F   UNL     1      20.204  11.557 -11.470  1.00  0.00    -0.200 F 
ENDBRANCH  59  82
ENDBRANCH  33  34
ENDBRANCH  25  28
ENDBRANCH  23  24
ENDBRANCH   1  23
TORSDOF 12
