REMARK SMILES O=C(NCCCNC(=O)c1cccc(S(=O)(=O)Nc2ccccc2N2CCOCC2)c1)c1ccc(-c2c3nc(c(-c4c(F)c(F)c(F)c(F)c4F)c4ccc([nH]4)c(-c4c(F)c(F)c(F)c(F)c4F)c4nc(c(-c5c(F)c(F)c(F)c(F)c5F)c5ccc2[nH]5)C=C4)C=C3)cc1
REMARK SMILES IDX 6 1 5 2 4 3 3 4 1 5 2 6 32 8 33 9 94 10 34 11 93 12 35 13
REMARK SMILES IDX 36 14 37 15 87 16 38 17 92 18 86 19 88 20 39 21 91 22 85 23
REMARK SMILES IDX 84 24 40 26 72 27 52 28 71 29 53 30 56 31 70 32 89 33 54 34
REMARK SMILES IDX 55 35 69 37 90 38 57 39 41 40 42 41 50 42 43 43 44 44 48 45
REMARK SMILES IDX 51 46 45 47 46 48 49 49 47 50 73 51 74 52 82 53 75 54 76 55
REMARK SMILES IDX 80 56 83 57 77 58 78 59 81 60 79 61 58 62 59 63 67 64 60 65
REMARK SMILES IDX 61 66 65 67 68 68 62 69 63 70 66 71 64 72 7 73 8 74 9 76
REMARK SMILES IDX 10 77 11 78 31 79 12 80 14 81 13 82 15 83 16 84 17 85 18 86
REMARK SMILES IDX 19 88 20 89 24 90 21 91 23 92 22 93 25 94 26 95 30 96 27 97
REMARK SMILES IDX 29 98 28 99
REMARK H PARENT 3 7 88 25 56 36 7 75 18 87
REMARK Flexibility Score: inf
ROOT
ATOM      1  C   UNL     1       5.146  -1.941  -2.495  1.00  0.00     0.118 C 
ENDROOT
BRANCH   1   2
ATOM      2  C   UNL     1       5.310  -1.145  -1.214  1.00  0.00     0.042 C 
BRANCH   2   3
ATOM      3  C   UNL     1       4.660   0.228  -1.303  1.00  0.00     0.118 C 
BRANCH   3   4
ATOM      4  N   UNL     1       3.216   0.190  -1.106  1.00  0.00    -0.352 N 
ATOM      5  O   UNL     1       1.256  -0.020  -0.020  1.00  0.00    -0.269 OA
ATOM      6  C   UNL     1       2.463   0.193   0.045  1.00  0.00     0.251 C 
ATOM      7  H   UNL     1       2.691   0.157  -1.938  1.00  0.00     0.163 HD
BRANCH   6   8
ATOM      8  C   UNL     1       3.104   0.404   1.363  1.00  0.00     0.039 A 
ATOM      9  C   UNL     1       4.128   1.332   1.515  1.00  0.00     0.014 A 
ATOM     10  C   UNL     1       2.668  -0.325   2.474  1.00  0.00     0.014 A 
ATOM     11  C   UNL     1       4.867   1.364   2.686  1.00  0.00     0.010 A 
ATOM     12  C   UNL     1       3.314  -0.175   3.708  1.00  0.00     0.010 A 
ATOM     13  C   UNL     1       4.451   0.640   3.813  1.00  0.00    -0.014 A 
BRANCH  13  14
ATOM     14  C   UNL     1       5.197   0.828   5.086  1.00  0.00     0.031 A 
ATOM     15  C   UNL     1       5.880  -0.321   5.773  1.00  0.00     0.074 A 
ATOM     16  C   UNL     1       5.317   2.079   5.577  1.00  0.00     0.049 A 
ATOM     17  N   UNL     1       6.607  -0.310   6.863  1.00  0.00    -0.248 NA
ATOM     18  C   UNL     1       5.721  -1.655   5.175  1.00  0.00     0.031 C 
ATOM     19  C   UNL     1       4.686   3.271   5.003  1.00  0.00     0.029 A 
ATOM     20  N   UNL     1       6.044   2.570   6.631  1.00  0.00    -0.354 N 
ATOM     21  C   UNL     1       6.957  -1.633   7.101  1.00  0.00     0.074 A 
ATOM     22  C   UNL     1       6.356  -2.424   6.049  1.00  0.00     0.031 C 
ATOM     23  C   UNL     1       5.127   4.359   5.646  1.00  0.00     0.029 A 
ATOM     24  C   UNL     1       5.998   3.939   6.736  1.00  0.00     0.049 A 
ATOM     25  H   UNL     1       6.550   1.997   7.252  1.00  0.00     0.167 HD
ATOM     26  C   UNL     1       7.713  -2.135   8.107  1.00  0.00     0.037 A 
ATOM     27  C   UNL     1       6.579   4.770   7.620  1.00  0.00     0.037 A 
ATOM     28  C   UNL     1       8.342  -1.336   9.128  1.00  0.00     0.049 A 
ATOM     29  C   UNL     1       7.427   4.185   8.709  1.00  0.00     0.074 A 
ATOM     30  C   UNL     1       9.148  -1.749  10.175  1.00  0.00     0.029 A 
ATOM     31  N   UNL     1       8.240   0.045   9.224  1.00  0.00    -0.354 N 
ATOM     32  N   UNL     1       7.743   2.932   8.923  1.00  0.00    -0.248 NA
ATOM     33  C   UNL     1       7.983   5.126   9.688  1.00  0.00     0.031 C 
ATOM     34  C   UNL     1       9.507  -0.623  10.923  1.00  0.00     0.029 A 
ATOM     35  C   UNL     1       8.957   0.497  10.321  1.00  0.00     0.049 A 
ATOM     36  H   UNL     1       7.733   0.618   8.605  1.00  0.00     0.167 HD
ATOM     37  C   UNL     1       8.532   2.930  10.062  1.00  0.00     0.074 A 
ATOM     38  C   UNL     1       8.674   4.312  10.474  1.00  0.00     0.031 C 
ATOM     39  C   UNL     1       9.079   1.877  10.716  1.00  0.00     0.037 A 
BRANCH  26  40
ATOM     40  C   UNL     1       7.888  -3.625   8.172  1.00  0.00     0.064 A 
ATOM     41  C   UNL     1       8.717  -4.313   7.275  1.00  0.00     0.173 A 
ATOM     42  C   UNL     1       7.252  -4.367   9.179  1.00  0.00     0.173 A 
ATOM     43  F   UNL     1       9.337  -3.651   6.286  1.00  0.00    -0.203 F 
ATOM     44  C   UNL     1       8.890  -5.692   7.373  1.00  0.00     0.198 A 
ATOM     45  C   UNL     1       7.446  -5.742   9.289  1.00  0.00     0.198 A 
ATOM     46  F   UNL     1       6.452  -3.757  10.066  1.00  0.00    -0.203 F 
ATOM     47  F   UNL     1       9.660  -6.334   6.483  1.00  0.00    -0.200 F 
ATOM     48  C   UNL     1       8.261  -6.404   8.383  1.00  0.00     0.200 A 
ATOM     49  F   UNL     1       6.846  -6.426  10.273  1.00  0.00    -0.200 F 
ATOM     50  F   UNL     1       8.436  -7.729   8.481  1.00  0.00    -0.200 F 
ENDBRANCH  26  40
BRANCH  27  51
ATOM     51  C   UNL     1       6.359   6.234   7.508  1.00  0.00     0.064 A 
ATOM     52  C   UNL     1       7.398   7.094   7.130  1.00  0.00     0.173 A 
ATOM     53  C   UNL     1       5.095   6.798   7.739  1.00  0.00     0.173 A 
ATOM     54  F   UNL     1       8.628   6.605   6.916  1.00  0.00    -0.203 F 
ATOM     55  C   UNL     1       7.183   8.464   6.993  1.00  0.00     0.198 A 
ATOM     56  C   UNL     1       4.874   8.163   7.571  1.00  0.00     0.198 A 
ATOM     57  F   UNL     1       4.066   6.016   8.095  1.00  0.00    -0.203 F 
ATOM     58  F   UNL     1       8.201   9.270   6.661  1.00  0.00    -0.200 F 
ATOM     59  C   UNL     1       5.919   8.996   7.204  1.00  0.00     0.200 A 
ATOM     60  F   UNL     1       3.646   8.667   7.756  1.00  0.00    -0.200 F 
ATOM     61  F   UNL     1       5.709  10.310   7.055  1.00  0.00    -0.200 F 
ENDBRANCH  27  51
BRANCH  39  62
ATOM     62  C   UNL     1       9.886   2.189  11.938  1.00  0.00     0.064 A 
ATOM     63  C   UNL     1       9.271   2.571  13.139  1.00  0.00     0.173 A 
ATOM     64  C   UNL     1      11.284   2.092  11.913  1.00  0.00     0.173 A 
ATOM     65  F   UNL     1       7.936   2.696  13.204  1.00  0.00    -0.203 F 
ATOM     66  C   UNL     1      10.030   2.870  14.266  1.00  0.00     0.198 A 
ATOM     67  C   UNL     1      12.039   2.369  13.048  1.00  0.00     0.198 A 
ATOM     68  F   UNL     1      11.916   1.729  10.787  1.00  0.00    -0.203 F 
ATOM     69  F   UNL     1       9.426   3.280  15.390  1.00  0.00    -0.200 F 
ATOM     70  C   UNL     1      11.413   2.764  14.221  1.00  0.00     0.200 A 
ATOM     71  F   UNL     1      13.374   2.259  13.006  1.00  0.00    -0.200 F 
ATOM     72  F   UNL     1      12.143   3.054  15.306  1.00  0.00    -0.200 F 
ENDBRANCH  39  62
ENDBRANCH  13  14
ENDBRANCH   6   8
ENDBRANCH   3   4
ENDBRANCH   2   3
ENDBRANCH   1   2
BRANCH   1  73
ATOM     73  N   UNL     1       5.821  -1.303  -3.622  1.00  0.00    -0.352 N 
ATOM     74  C   UNL     1       6.658  -1.828  -4.570  1.00  0.00     0.251 C 
ATOM     75  H   UNL     1       5.646  -0.339  -3.715  1.00  0.00     0.163 HD
ATOM     76  O   UNL     1       7.260  -1.072  -5.328  1.00  0.00    -0.269 OA
BRANCH  74  77
ATOM     77  C   UNL     1       6.800  -3.289  -4.733  1.00  0.00     0.041 A 
ATOM     78  C   UNL     1       8.005  -3.834  -5.179  1.00  0.00     0.014 A 
ATOM     79  C   UNL     1       5.694  -4.116  -4.569  1.00  0.00     0.036 A 
ATOM     80  C   UNL     1       8.095  -5.208  -5.426  1.00  0.00     0.002 A 
ATOM     81  C   UNL     1       5.765  -5.476  -4.847  1.00  0.00     0.088 A 
ATOM     82  C   UNL     1       6.974  -6.035  -5.261  1.00  0.00     0.022 A 
BRANCH  81  83
ATOM     83  S   UNL     1       4.329  -6.460  -4.510  1.00  0.00     0.261 S 
ATOM     84  O   UNL     1       4.622  -7.818  -4.926  1.00  0.00    -0.201 OA
ATOM     85  O   UNL     1       3.938  -6.186  -3.143  1.00  0.00    -0.201 OA
BRANCH  83  86
ATOM     86  N   UNL     1       3.089  -5.930  -5.540  1.00  0.00    -0.278 N 
ATOM     87  H   UNL     1       2.690  -6.545  -6.198  1.00  0.00     0.180 HD
BRANCH  86  88
ATOM     88  C   UNL     1       2.629  -4.568  -5.439  1.00  0.00     0.072 A 
ATOM     89  C   UNL     1       1.862  -4.170  -4.338  1.00  0.00     0.029 A 
ATOM     90  C   UNL     1       3.065  -3.624  -6.407  1.00  0.00     0.061 A 
ATOM     91  C   UNL     1       1.542  -2.823  -4.165  1.00  0.00     0.002 A 
ATOM     92  C   UNL     1       2.746  -2.276  -6.193  1.00  0.00     0.028 A 
ATOM     93  C   UNL     1       1.989  -1.878  -5.086  1.00  0.00     0.002 A 
BRANCH  90  94
ATOM     94  N   UNL     1       3.811  -4.027  -7.502  1.00  0.00    -0.365 N 
ATOM     95  C   UNL     1       3.182  -4.939  -8.469  1.00  0.00     0.145 C 
ATOM     96  C   UNL     1       4.918  -3.243  -8.058  1.00  0.00     0.145 C 
ATOM     97  C   UNL     1       4.264  -5.845  -9.070  1.00  0.00     0.181 C 
ATOM     98  C   UNL     1       5.933  -4.213  -8.695  1.00  0.00     0.181 C 
ATOM     99  O   UNL     1       5.315  -5.069  -9.675  1.00  0.00    -0.378 OA
ENDBRANCH  90  94
ENDBRANCH  86  88
ENDBRANCH  83  86
ENDBRANCH  81  83
ENDBRANCH  74  77
ENDBRANCH   1  73
TORSDOF 14
