REMARK SMILES CC(=O)[C@@H]1CCCC[N@H+]1CC(C)(C)C(=O)NCCCNC(=O)c1ccc(-c2c3nc(c(-c4c(F)c(F)c(F)c(F)c4F)c4ccc([nH]4)c(-c4c(F)c(F)c(F)c(F)c4F)c4nc(c(-c5c(F)c(F)c(F)c(F)c5F)c5ccc2[nH]5)C=C4)C=C3)cc1
REMARK SMILES IDX 17 1 16 2 14 3 15 4 11 6 12 7 13 8 10 9 9 10 4 11 5 12 6 13
REMARK SMILES IDX 8 14 7 16 2 17 1 18 3 19 18 20 19 21 20 22 21 23 22 25 23 26
REMARK SMILES IDX 24 27 85 28 25 29 84 30 26 31 27 32 28 33 78 34 29 35 83 36
REMARK SMILES IDX 77 37 79 38 30 39 82 40 76 41 75 42 31 44 63 45 43 46 62 47
REMARK SMILES IDX 44 48 47 49 61 50 80 51 45 52 46 53 60 55 81 56 48 57 32 58
REMARK SMILES IDX 33 59 41 60 34 61 35 62 39 63 42 64 36 65 37 66 40 67 38 68
REMARK SMILES IDX 64 69 65 70 73 71 66 72 67 73 71 74 74 75 68 76 69 77 72 78
REMARK SMILES IDX 70 79 49 80 50 81 58 82 51 83 52 84 56 85 59 86 53 87 54 88
REMARK SMILES IDX 57 89 55 90
REMARK H PARENT 16 5 9 15 20 24 79 43 47 54
REMARK Flexibility Score: inf
ROOT
ATOM      1  C   UNL     1       3.926   0.660   6.213  1.00  0.00     0.117 C 
ENDROOT
BRANCH   1   2
ATOM      2  N   UNL     1       2.798  -0.243   6.291  1.00  0.00    -0.355 N 
ATOM      3  C   UNL     1       1.517  -0.098   5.872  1.00  0.00     0.231 C 
ATOM      4  O   UNL     1       0.677  -0.683   6.564  1.00  0.00    -0.274 OA
ATOM      5  H   UNL     1       2.994  -1.108   6.720  1.00  0.00     0.163 HD
BRANCH   3   6
ATOM      6  C   UNL     1       1.119   0.774   4.669  1.00  0.00     0.092 C 
ATOM      7  C   UNL     1       2.205   0.963   3.600  1.00  0.00     0.027 C 
ATOM      8  C   UNL     1       0.776   2.163   5.254  1.00  0.00     0.027 C 
BRANCH   6   9
ATOM      9  C   UNL     1      -0.188   0.178   4.017  1.00  0.00     0.279 C 
BRANCH   9  10
ATOM     10  N   UNL     1      -0.220  -1.126   3.294  1.00  0.00    -0.325 N 
ATOM     11  C   UNL     1       0.562  -1.245   2.042  1.00  0.00     0.251 C 
ATOM     12  C   UNL     1       0.424  -2.638   1.392  1.00  0.00     0.074 C 
ATOM     13  C   UNL     1       0.690  -3.766   2.375  1.00  0.00     0.012 C 
ATOM     14  C   UNL     1      -0.035  -2.257   4.214  1.00  0.00     0.262 C 
ATOM     15  H   UNL     1      -1.169  -1.160   2.922  1.00  0.00     0.348 HD
ATOM     16  C   UNL     1      -0.243  -3.618   3.559  1.00  0.00     0.062 C 
BRANCH  11  17
ATOM     17  C   UNL     1       0.152  -0.199   0.970  1.00  0.00     0.186 C 
ATOM     18  C   UNL     1       0.987  -0.169  -0.290  1.00  0.00     0.094 C 
ATOM     19  O   UNL     1      -0.793   0.585   1.076  1.00  0.00    -0.293 OA
ENDBRANCH  11  17
ENDBRANCH   9  10
ENDBRANCH   6   9
ENDBRANCH   3   6
ENDBRANCH   1   2
BRANCH   1  20
ATOM     20  C   UNL     1       4.100   1.413   7.524  1.00  0.00     0.042 C 
BRANCH  20  21
ATOM     21  C   UNL     1       4.413   0.501   8.700  1.00  0.00     0.118 C 
BRANCH  21  22
ATOM     22  N   UNL     1       5.670  -0.215   8.524  1.00  0.00    -0.352 N 
ATOM     23  C   UNL     1       6.850  -0.096   9.214  1.00  0.00     0.251 C 
ATOM     24  H   UNL     1       5.673  -0.885   7.802  1.00  0.00     0.163 HD
ATOM     25  O   UNL     1       7.875  -0.600   8.773  1.00  0.00    -0.269 OA
BRANCH  23  26
ATOM     26  C   UNL     1       6.878   0.659  10.483  1.00  0.00     0.039 A 
ATOM     27  C   UNL     1       7.951   1.511  10.745  1.00  0.00     0.014 A 
ATOM     28  C   UNL     1       5.842   0.525  11.411  1.00  0.00     0.014 A 
ATOM     29  C   UNL     1       7.951   2.277  11.912  1.00  0.00     0.010 A 
ATOM     30  C   UNL     1       5.788   1.368  12.512  1.00  0.00     0.010 A 
ATOM     31  C   UNL     1       6.851   2.239  12.785  1.00  0.00    -0.014 A 
BRANCH  31  32
ATOM     32  C   UNL     1       6.805   3.087  14.001  1.00  0.00     0.031 A 
ATOM     33  C   UNL     1       6.724   2.449  15.361  1.00  0.00     0.074 A 
ATOM     34  C   UNL     1       6.778   4.428  13.878  1.00  0.00     0.049 A 
ATOM     35  N   UNL     1       6.631   3.015  16.538  1.00  0.00    -0.248 NA
ATOM     36  C   UNL     1       6.713   0.977  15.404  1.00  0.00     0.031 C 
ATOM     37  C   UNL     1       6.784   5.161  12.610  1.00  0.00     0.029 A 
ATOM     38  N   UNL     1       6.733   5.414  14.830  1.00  0.00    -0.354 N 
ATOM     39  C   UNL     1       6.541   1.973  17.451  1.00  0.00     0.074 A 
ATOM     40  C   UNL     1       6.513   0.743  16.692  1.00  0.00     0.031 C 
ATOM     41  C   UNL     1       6.777   6.479  12.864  1.00  0.00     0.029 A 
ATOM     42  C   UNL     1       6.724   6.684  14.308  1.00  0.00     0.049 A 
ATOM     43  H   UNL     1       6.709   5.229  15.797  1.00  0.00     0.167 HD
ATOM     44  C   UNL     1       6.518   2.034  18.803  1.00  0.00     0.037 A 
ATOM     45  C   UNL     1       6.674   7.879  14.926  1.00  0.00     0.037 A 
ATOM     46  C   UNL     1       6.566   3.260  19.553  1.00  0.00     0.049 A 
ATOM     47  C   UNL     1       6.645   7.921  16.430  1.00  0.00     0.074 A 
ATOM     48  C   UNL     1       6.604   3.433  20.925  1.00  0.00     0.029 A 
ATOM     49  N   UNL     1       6.577   4.529  18.989  1.00  0.00    -0.354 N 
ATOM     50  N   UNL     1       6.641   6.929  17.287  1.00  0.00    -0.248 NA
ATOM     51  C   UNL     1       6.623   9.251  17.054  1.00  0.00     0.031 C 
ATOM     52  C   UNL     1       6.583   4.805  21.193  1.00  0.00     0.029 A 
ATOM     53  C   UNL     1       6.596   5.489  19.987  1.00  0.00     0.049 A 
ATOM     54  H   UNL     1       6.572   4.718  18.023  1.00  0.00     0.167 HD
ATOM     55  C   UNL     1       6.644   7.510  18.547  1.00  0.00     0.074 A 
ATOM     56  C   UNL     1       6.670   8.944  18.343  1.00  0.00     0.031 C 
ATOM     57  C   UNL     1       6.626   6.913  19.764  1.00  0.00     0.037 A 
BRANCH  44  58
ATOM     58  C   UNL     1       6.445   0.735  19.555  1.00  0.00     0.064 A 
ATOM     59  C   UNL     1       7.511  -0.180  19.551  1.00  0.00     0.173 A 
ATOM     60  C   UNL     1       5.309   0.409  20.311  1.00  0.00     0.173 A 
ATOM     61  F   UNL     1       8.617   0.075  18.835  1.00  0.00    -0.203 F 
ATOM     62  C   UNL     1       7.427  -1.384  20.244  1.00  0.00     0.198 A 
ATOM     63  C   UNL     1       5.243  -0.780  21.032  1.00  0.00     0.198 A 
ATOM     64  F   UNL     1       4.263   1.248  20.355  1.00  0.00    -0.203 F 
ATOM     65  F   UNL     1       8.434  -2.266  20.175  1.00  0.00    -0.200 F 
ATOM     66  C   UNL     1       6.297  -1.680  20.990  1.00  0.00     0.200 A 
ATOM     67  F   UNL     1       4.156  -1.058  21.765  1.00  0.00    -0.200 F 
ATOM     68  F   UNL     1       6.221  -2.837  21.663  1.00  0.00    -0.200 F 
ENDBRANCH  44  58
BRANCH  45  69
ATOM     69  C   UNL     1       6.673   9.131  14.123  1.00  0.00     0.064 A 
ATOM     70  C   UNL     1       7.770  10.003  14.143  1.00  0.00     0.173 A 
ATOM     71  C   UNL     1       5.578   9.480  13.319  1.00  0.00     0.173 A 
ATOM     72  F   UNL     1       8.835   9.722  14.908  1.00  0.00    -0.203 F 
ATOM     73  C   UNL     1       7.762  11.188  13.409  1.00  0.00     0.198 A 
ATOM     74  C   UNL     1       5.584  10.649  12.561  1.00  0.00     0.198 A 
ATOM     75  F   UNL     1       4.506   8.676  13.257  1.00  0.00    -0.203 F 
ATOM     76  F   UNL     1       8.804  12.027  13.485  1.00  0.00    -0.200 F 
ATOM     77  C   UNL     1       6.672  11.507  12.614  1.00  0.00     0.200 A 
ATOM     78  F   UNL     1       4.537  10.944  11.779  1.00  0.00    -0.200 F 
ATOM     79  F   UNL     1       6.667  12.643  11.904  1.00  0.00    -0.200 F 
ENDBRANCH  45  69
BRANCH  57  80
ATOM     80  C   UNL     1       6.668   7.806  20.971  1.00  0.00     0.064 A 
ATOM     81  C   UNL     1       5.577   8.609  21.334  1.00  0.00     0.173 A 
ATOM     82  C   UNL     1       7.802   7.825  21.798  1.00  0.00     0.173 A 
ATOM     83  F   UNL     1       4.475   8.638  20.569  1.00  0.00    -0.203 F 
ATOM     84  C   UNL     1       5.631   9.421  22.464  1.00  0.00     0.198 A 
ATOM     85  C   UNL     1       7.838   8.611  22.946  1.00  0.00     0.198 A 
ATOM     86  F   UNL     1       8.870   7.070  21.501  1.00  0.00    -0.203 F 
ATOM     87  F   UNL     1       4.597  10.220  22.761  1.00  0.00    -0.200 F 
ATOM     88  C   UNL     1       6.757   9.415  23.273  1.00  0.00     0.200 A 
ATOM     89  F   UNL     1       8.920   8.590  23.737  1.00  0.00    -0.200 F 
ATOM     90  F   UNL     1       6.803  10.189  24.366  1.00  0.00    -0.200 F 
ENDBRANCH  57  80
ENDBRANCH  31  32
ENDBRANCH  23  26
ENDBRANCH  21  22
ENDBRANCH  20  21
ENDBRANCH   1  20
TORSDOF 13
