REMARK SMILES CCc1nn2c(nnc3c(=O)n([C@H](C(=O)NCCCNC(=O)c4ccc(-c5c6nc(c(-c7c(F)c(F)c(F)c(F)c7F)c7ccc([nH]7)c(-c7c(F)c(F)c(F)c(F)c7F)c7nc(c(-c8c(F)c(F)c(F)c(F)c8F)c8ccc5[nH]8)C=C7)C=C6)cc4)C(C)C)ccc32)c1-c1ccc(Cl)cc1
REMARK SMILES IDX 18 1 17 2 16 3 14 4 15 5 13 7 12 8 3 9 4 10 92 11 5 12 6 13
REMARK SMILES IDX 91 14 7 15 9 16 90 17 8 18 10 19 89 20 11 21 2 22 1 23 93 24
REMARK SMILES IDX 94 25 99 26 95 27 98 28 96 29 97 30 86 31 87 32 88 33 19 34
REMARK SMILES IDX 20 35 21 36 22 38 23 39 24 40 85 41 25 42 84 43 26 44 27 45
REMARK SMILES IDX 28 46 78 47 29 48 83 49 77 50 79 51 30 52 82 53 76 54 75 55
REMARK SMILES IDX 31 57 63 58 43 59 62 60 44 61 47 62 61 63 80 64 45 65 46 66
REMARK SMILES IDX 60 68 81 69 48 70 32 71 33 72 41 73 34 74 35 75 39 76 42 77
REMARK SMILES IDX 36 78 37 79 40 80 38 81 64 82 65 83 73 84 66 85 67 86 71 87
REMARK SMILES IDX 74 88 68 89 69 90 72 91 70 92 49 93 50 94 58 95 51 96 52 97
REMARK SMILES IDX 56 98 59 99 53 100 54 101 57 102 55 103
REMARK H PARENT 16 6 20 37 79 56 47 67
REMARK Flexibility Score: inf
ROOT
ATOM      1  C   UNL     1       5.740  -0.768  -6.611  1.00  0.00     0.042 C 
ENDROOT
BRANCH   1   2
ATOM      2  C   UNL     1       4.407  -0.661  -7.351  1.00  0.00     0.117 C 
BRANCH   2   3
ATOM      3  N   UNL     1       3.638   0.521  -6.989  1.00  0.00    -0.354 N 
ATOM      4  C   UNL     1       3.224   1.584  -7.747  1.00  0.00     0.243 C 
ATOM      5  O   UNL     1       2.463   2.381  -7.196  1.00  0.00    -0.273 OA
ATOM      6  H   UNL     1       3.371   0.563  -6.043  1.00  0.00     0.163 HD
BRANCH   4   7
ATOM      7  C   UNL     1       3.706   1.725  -9.212  1.00  0.00     0.182 C 
BRANCH   7   8
ATOM      8  N   UNL     1       2.567   2.177 -10.053  1.00  0.00    -0.301 N 
ATOM      9  C   UNL     1      -2.121   3.670 -13.989  1.00  0.00     0.073 A 
ATOM     10  N   UNL     1      -1.305   2.749 -13.450  1.00  0.00    -0.170 NA
ATOM     11  C   UNL     1      -1.905   4.949 -13.425  1.00  0.00     0.052 A 
ATOM     12  N   UNL     1      -0.560   3.432 -12.531  1.00  0.00    -0.210 N 
ATOM     13  C   UNL     1      -0.901   4.775 -12.503  1.00  0.00     0.186 A 
ATOM     14  C   UNL     1       0.454   2.974 -11.687  1.00  0.00     0.102 A 
ATOM     15  N   UNL     1      -0.269   5.641 -11.662  1.00  0.00    -0.129 NA
ATOM     16  C   UNL     1       1.032   3.906 -10.905  1.00  0.00     0.177 A 
ATOM     17  C   UNL     1       0.889   1.597 -11.640  1.00  0.00     0.049 A 
ATOM     18  N   UNL     1       0.650   5.233 -10.910  1.00  0.00    -0.141 NA
ATOM     19  C   UNL     1       2.167   3.521 -10.006  1.00  0.00     0.281 A 
ATOM     20  C   UNL     1       1.905   1.246 -10.843  1.00  0.00     0.092 A 
ATOM     21  O   UNL     1       2.710   4.384  -9.320  1.00  0.00    -0.267 OA
BRANCH   9  22
ATOM     22  C   UNL     1      -3.084   3.334 -15.087  1.00  0.00     0.055 C 
ATOM     23  C   UNL     1      -3.390   1.855 -15.263  1.00  0.00     0.011 C 
ENDBRANCH   9  22
BRANCH  11  24
ATOM     24  C   UNL     1      -2.514   6.240 -13.648  1.00  0.00    -0.013 A 
ATOM     25  C   UNL     1      -3.796   6.501 -13.155  1.00  0.00     0.010 A 
ATOM     26  C   UNL     1      -1.771   7.266 -14.245  1.00  0.00     0.010 A 
ATOM     27  C   UNL     1      -4.324   7.791 -13.242  1.00  0.00     0.021 A 
ATOM     28  C   UNL     1      -2.301   8.554 -14.332  1.00  0.00     0.021 A 
ATOM     29  C   UNL     1      -3.573   8.812 -13.823  1.00  0.00     0.041 A 
ATOM     30  Cl  UNL     1      -4.210  10.408 -13.892  1.00  0.00    -0.084 Cl
ENDBRANCH  11  24
ENDBRANCH   7   8
BRANCH   7  31
ATOM     31  C   UNL     1       5.000   2.570  -9.393  1.00  0.00     0.015 C 
ATOM     32  C   UNL     1       6.133   2.179  -8.448  1.00  0.00     0.010 C 
ATOM     33  C   UNL     1       5.508   2.447 -10.835  1.00  0.00     0.010 C 
ENDBRANCH   7  31
ENDBRANCH   4   7
ENDBRANCH   2   3
ENDBRANCH   1   2
BRANCH   1  34
ATOM     34  C   UNL     1       5.557  -1.032  -5.137  1.00  0.00     0.118 C 
BRANCH  34  35
ATOM     35  N   UNL     1       5.068  -2.381  -4.853  1.00  0.00    -0.352 N 
ATOM     36  C   UNL     1       5.089  -3.030  -3.638  1.00  0.00     0.251 C 
ATOM     37  H   UNL     1       4.683  -2.878  -5.610  1.00  0.00     0.163 HD
ATOM     38  O   UNL     1       4.931  -4.250  -3.560  1.00  0.00    -0.269 OA
BRANCH  36  39
ATOM     39  C   UNL     1       5.272  -2.221  -2.426  1.00  0.00     0.039 A 
ATOM     40  C   UNL     1       6.021  -2.657  -1.331  1.00  0.00     0.014 A 
ATOM     41  C   UNL     1       4.661  -0.969  -2.422  1.00  0.00     0.014 A 
ATOM     42  C   UNL     1       6.132  -1.812  -0.232  1.00  0.00     0.010 A 
ATOM     43  C   UNL     1       4.985  -0.054  -1.472  1.00  0.00     0.010 A 
ATOM     44  C   UNL     1       5.585  -0.525  -0.319  1.00  0.00    -0.014 A 
BRANCH  44  45
ATOM     45  C   UNL     1       5.559   0.402   0.790  1.00  0.00     0.031 A 
ATOM     46  C   UNL     1       6.871   0.982   1.145  1.00  0.00     0.074 A 
ATOM     47  C   UNL     1       4.379   0.882   1.243  1.00  0.00     0.049 A 
ATOM     48  N   UNL     1       7.521   0.824   2.248  1.00  0.00    -0.248 NA
ATOM     49  C   UNL     1       7.616   1.713   0.108  1.00  0.00     0.031 C 
ATOM     50  C   UNL     1       3.017   0.632   0.745  1.00  0.00     0.029 A 
ATOM     51  N   UNL     1       4.169   1.790   2.227  1.00  0.00    -0.354 N 
ATOM     52  C   UNL     1       8.687   1.569   2.115  1.00  0.00     0.074 A 
ATOM     53  C   UNL     1       8.774   1.947   0.728  1.00  0.00     0.031 C 
ATOM     54  C   UNL     1       2.159   1.520   1.299  1.00  0.00     0.029 A 
ATOM     55  C   UNL     1       2.874   2.289   2.298  1.00  0.00     0.049 A 
ATOM     56  H   UNL     1       4.881   2.074   2.845  1.00  0.00     0.167 HD
ATOM     57  C   UNL     1       9.382   1.989   3.207  1.00  0.00     0.037 A 
ATOM     58  C   UNL     1       2.460   3.292   3.113  1.00  0.00     0.037 A 
ATOM     59  C   UNL     1       8.959   1.289   4.393  1.00  0.00     0.049 A 
ATOM     60  C   UNL     1       3.467   3.396   4.205  1.00  0.00     0.074 A 
ATOM     61  C   UNL     1       9.010  -0.033   4.793  1.00  0.00     0.029 A 
ATOM     62  N   UNL     1       7.997   1.877   5.181  1.00  0.00    -0.354 N 
ATOM     63  N   UNL     1       3.655   2.460   5.097  1.00  0.00    -0.248 NA
ATOM     64  C   UNL     1       4.596   4.291   3.990  1.00  0.00     0.031 C 
ATOM     65  C   UNL     1       7.756  -0.276   5.430  1.00  0.00     0.029 A 
ATOM     66  C   UNL     1       7.045   0.924   5.456  1.00  0.00     0.049 A 
ATOM     67  H   UNL     1       7.992   2.811   5.492  1.00  0.00     0.167 HD
ATOM     68  C   UNL     1       5.033   2.383   5.249  1.00  0.00     0.074 A 
ATOM     69  C   UNL     1       5.557   3.577   4.586  1.00  0.00     0.031 C 
ATOM     70  C   UNL     1       5.639   1.218   5.628  1.00  0.00     0.037 A 
BRANCH  57  71
ATOM     71  C   UNL     1      10.227   3.231   3.250  1.00  0.00     0.064 A 
ATOM     72  C   UNL     1      11.110   3.436   4.327  1.00  0.00     0.173 A 
ATOM     73  C   UNL     1      10.023   4.344   2.406  1.00  0.00     0.173 A 
ATOM     74  F   UNL     1      11.353   2.453   5.207  1.00  0.00    -0.203 F 
ATOM     75  C   UNL     1      11.706   4.677   4.564  1.00  0.00     0.198 A 
ATOM     76  C   UNL     1      10.664   5.564   2.613  1.00  0.00     0.198 A 
ATOM     77  F   UNL     1       9.120   4.330   1.419  1.00  0.00    -0.203 F 
ATOM     78  F   UNL     1      12.456   4.857   5.660  1.00  0.00    -0.200 F 
ATOM     79  C   UNL     1      11.484   5.740   3.706  1.00  0.00     0.200 A 
ATOM     80  F   UNL     1      10.419   6.586   1.780  1.00  0.00    -0.200 F 
ATOM     81  F   UNL     1      12.018   6.942   3.957  1.00  0.00    -0.200 F 
ENDBRANCH  57  71
BRANCH  58  82
ATOM     82  C   UNL     1       1.484   4.369   2.820  1.00  0.00     0.064 A 
ATOM     83  C   UNL     1       0.956   5.170   3.846  1.00  0.00     0.173 A 
ATOM     84  C   UNL     1       1.278   4.826   1.503  1.00  0.00     0.173 A 
ATOM     85  F   UNL     1       1.143   4.830   5.129  1.00  0.00    -0.203 F 
ATOM     86  C   UNL     1       0.292   6.372   3.572  1.00  0.00     0.198 A 
ATOM     87  C   UNL     1       0.614   6.023   1.231  1.00  0.00     0.198 A 
ATOM     88  F   UNL     1       1.803   4.169   0.459  1.00  0.00    -0.203 F 
ATOM     89  F   UNL     1      -0.143   7.142   4.580  1.00  0.00    -0.200 F 
ATOM     90  C   UNL     1       0.134   6.804   2.266  1.00  0.00     0.200 A 
ATOM     91  F   UNL     1       0.501   6.448  -0.036  1.00  0.00    -0.200 F 
ATOM     92  F   UNL     1      -0.440   7.988   2.006  1.00  0.00    -0.200 F 
ENDBRANCH  58  82
BRANCH  70  93
ATOM     93  C   UNL     1       4.744   0.076   6.046  1.00  0.00     0.064 A 
ATOM     94  C   UNL     1       3.834  -0.565   5.184  1.00  0.00     0.173 A 
ATOM     95  C   UNL     1       4.904  -0.479   7.320  1.00  0.00     0.173 A 
ATOM     96  F   UNL     1       3.698  -0.174   3.914  1.00  0.00    -0.203 F 
ATOM     97  C   UNL     1       3.085  -1.667   5.594  1.00  0.00     0.198 A 
ATOM     98  C   UNL     1       4.183  -1.604   7.717  1.00  0.00     0.198 A 
ATOM     99  F   UNL     1       5.803   0.042   8.169  1.00  0.00    -0.203 F 
ATOM    100  F   UNL     1       2.216  -2.243   4.748  1.00  0.00    -0.200 F 
ATOM    101  C   UNL     1       3.264  -2.189   6.861  1.00  0.00     0.200 A 
ATOM    102  F   UNL     1       4.399  -2.139   8.927  1.00  0.00    -0.200 F 
ATOM    103  F   UNL     1       2.573  -3.271   7.247  1.00  0.00    -0.200 F 
ENDBRANCH  70  93
ENDBRANCH  44  45
ENDBRANCH  36  39
ENDBRANCH  34  35
ENDBRANCH   1  34
TORSDOF 14
