REMARK SMILES CCN(CCC(=O)NCCCNC(=O)c1ccc(-c2c3nc(c(-c4c(F)c(F)c(F)c(F)c4F)c4ccc([nH]4)c(-c4c(F)c(F)c(F)c(F)c4F)c4nc(c(-c5c(F)c(F)c(F)c(F)c5F)c5ccc2[nH]5)C=C4)C=C3)cc1)C(=O)N1C[C@H](C(=O)OC)[C@@H](C)C1
REMARK SMILES IDX 6 1 7 2 8 3 5 5 4 6 3 7 2 8 1 9 78 10 79 11 80 12 81 13
REMARK SMILES IDX 89 14 82 15 87 16 88 17 83 18 84 19 85 20 86 21 9 22 10 23
REMARK SMILES IDX 11 24 12 25 13 26 14 28 15 29 16 30 77 31 17 32 76 33 18 34
REMARK SMILES IDX 19 35 20 36 70 37 21 38 75 39 69 40 71 41 22 42 74 43 68 44
REMARK SMILES IDX 67 45 23 47 55 48 35 49 54 50 36 51 39 52 53 53 72 54 37 55
REMARK SMILES IDX 38 56 52 58 73 59 40 60 24 61 25 62 33 63 26 64 27 65 31 66
REMARK SMILES IDX 34 67 28 68 29 69 32 70 30 71 56 72 57 73 65 74 58 75 59 76
REMARK SMILES IDX 63 77 66 78 60 79 61 80 64 81 62 82 41 83 42 84 50 85 43 86
REMARK SMILES IDX 44 87 48 88 51 89 45 90 46 91 49 92 47 93
REMARK H PARENT 8 4 12 27 71 46 39 57
REMARK Flexibility Score: inf
ROOT
ATOM      1  C   UNL     1       1.265   4.003   3.425  1.00  0.00     0.221 C 
ATOM      2  O   UNL     1       1.256   5.198   3.735  1.00  0.00    -0.275 OA
ATOM      3  N   UNL     1       2.431   3.311   3.569  1.00  0.00    -0.356 N 
ATOM      4  H   UNL     1       3.243   3.866   3.611  1.00  0.00     0.163 HD
ENDROOT
BRANCH   1   5
ATOM      5  C   UNL     1       0.026   3.362   2.851  1.00  0.00     0.121 C 
BRANCH   5   6
ATOM      6  C   UNL     1      -0.102   3.558   1.338  1.00  0.00     0.131 C 
BRANCH   6   7
ATOM      7  N   UNL     1       0.752   2.686   0.520  1.00  0.00    -0.324 N 
BRANCH   7   8
ATOM      8  C   UNL     1       0.293   1.270   0.562  1.00  0.00     0.118 C 
ATOM      9  C   UNL     1       0.797   0.231  -0.430  1.00  0.00     0.027 C 
ENDBRANCH   7   8
BRANCH   7  10
ATOM     10  C   UNL     1       1.939   3.017  -0.117  1.00  0.00     0.320 C 
ATOM     11  O   UNL     1       2.535   2.178  -0.803  1.00  0.00    -0.248 OA
BRANCH  10  12
ATOM     12  N   UNL     1       2.561   4.235   0.038  1.00  0.00    -0.323 N 
ATOM     13  C   UNL     1       2.136   5.527   0.569  1.00  0.00     0.137 C 
ATOM     14  C   UNL     1       3.912   4.363  -0.508  1.00  0.00     0.125 C 
ATOM     15  C   UNL     1       3.177   6.551   0.121  1.00  0.00     0.123 C 
ATOM     16  C   UNL     1       4.448   5.726  -0.064  1.00  0.00     0.021 C 
ATOM     17  C   UNL     1       5.235   5.625   1.250  1.00  0.00     0.010 C 
BRANCH  15  18
ATOM     18  C   UNL     1       2.622   7.238  -1.109  1.00  0.00     0.310 C 
ATOM     19  O   UNL     1       2.161   8.366  -1.093  1.00  0.00    -0.252 OA
BRANCH  18  20
ATOM     20  O   UNL     1       2.541   6.380  -2.160  1.00  0.00    -0.469 OA
ATOM     21  C   UNL     1       1.558   6.733  -3.131  1.00  0.00     0.282 C 
ENDBRANCH  18  20
ENDBRANCH  15  18
ENDBRANCH  10  12
ENDBRANCH   7  10
ENDBRANCH   6   7
ENDBRANCH   5   6
ENDBRANCH   1   5
BRANCH   3  22
ATOM     22  C   UNL     1       2.659   1.877   3.671  1.00  0.00     0.117 C 
BRANCH  22  23
ATOM     23  C   UNL     1       3.356   1.223   2.479  1.00  0.00     0.042 C 
BRANCH  23  24
ATOM     24  C   UNL     1       4.740   1.750   2.116  1.00  0.00     0.118 C 
BRANCH  24  25
ATOM     25  N   UNL     1       5.791   1.181   2.941  1.00  0.00    -0.352 N 
ATOM     26  C   UNL     1       6.757   0.249   2.647  1.00  0.00     0.251 C 
ATOM     27  H   UNL     1       5.815   1.520   3.865  1.00  0.00     0.163 HD
ATOM     28  O   UNL     1       7.435  -0.208   3.566  1.00  0.00    -0.269 OA
BRANCH  26  29
ATOM     29  C   UNL     1       6.998  -0.245   1.268  1.00  0.00     0.039 A 
ATOM     30  C   UNL     1       7.214  -1.618   1.093  1.00  0.00     0.014 A 
ATOM     31  C   UNL     1       7.120   0.609   0.167  1.00  0.00     0.014 A 
ATOM     32  C   UNL     1       7.497  -2.138  -0.175  1.00  0.00     0.010 A 
ATOM     33  C   UNL     1       7.358   0.082  -1.112  1.00  0.00     0.010 A 
ATOM     34  C   UNL     1       7.545  -1.297  -1.299  1.00  0.00    -0.014 A 
BRANCH  34  35
ATOM     35  C   UNL     1       7.758  -1.867  -2.661  1.00  0.00     0.031 A 
ATOM     36  C   UNL     1       9.020  -1.593  -3.434  1.00  0.00     0.074 A 
ATOM     37  C   UNL     1       6.795  -2.627  -3.221  1.00  0.00     0.049 A 
ATOM     38  N   UNL     1       9.358  -1.988  -4.639  1.00  0.00    -0.248 NA
ATOM     39  C   UNL     1      10.034  -0.762  -2.771  1.00  0.00     0.031 C 
ATOM     40  C   UNL     1       5.518  -2.961  -2.592  1.00  0.00     0.029 A 
ATOM     41  N   UNL     1       6.736  -3.252  -4.444  1.00  0.00    -0.354 N 
ATOM     42  C   UNL     1      10.617  -1.452  -4.879  1.00  0.00     0.074 A 
ATOM     43  C   UNL     1      10.967  -0.671  -3.710  1.00  0.00     0.031 C 
ATOM     44  C   UNL     1       4.808  -3.739  -3.424  1.00  0.00     0.029 A 
ATOM     45  C   UNL     1       5.557  -3.923  -4.665  1.00  0.00     0.049 A 
ATOM     46  H   UNL     1       7.470  -3.221  -5.101  1.00  0.00     0.167 HD
ATOM     47  C   UNL     1      11.412  -1.607  -5.966  1.00  0.00     0.037 A 
ATOM     48  C   UNL     1       5.116  -4.593  -5.747  1.00  0.00     0.037 A 
ATOM     49  C   UNL     1      11.069  -2.389  -7.128  1.00  0.00     0.049 A 
ATOM     50  C   UNL     1       5.996  -4.700  -6.965  1.00  0.00     0.074 A 
ATOM     51  C   UNL     1      11.836  -2.644  -8.253  1.00  0.00     0.029 A 
ATOM     52  N   UNL     1       9.854  -3.028  -7.324  1.00  0.00    -0.354 N 
ATOM     53  N   UNL     1       7.210  -4.243  -7.152  1.00  0.00    -0.248 NA
ATOM     54  C   UNL     1       5.441  -5.415  -8.124  1.00  0.00     0.031 C 
ATOM     55  C   UNL     1      11.065  -3.385  -9.154  1.00  0.00     0.029 A 
ATOM     56  C   UNL     1       9.837  -3.644  -8.567  1.00  0.00     0.049 A 
ATOM     57  H   UNL     1       9.113  -3.043  -6.676  1.00  0.00     0.167 HD
ATOM     58  C   UNL     1       7.572  -4.633  -8.435  1.00  0.00     0.074 A 
ATOM     59  C   UNL     1       6.457  -5.381  -8.976  1.00  0.00     0.031 C 
ATOM     60  C   UNL     1       8.726  -4.389  -9.102  1.00  0.00     0.037 A 
BRANCH  47  61
ATOM     61  C   UNL     1      12.743  -0.907  -5.965  1.00  0.00     0.064 A 
ATOM     62  C   UNL     1      13.791  -1.318  -5.128  1.00  0.00     0.173 A 
ATOM     63  C   UNL     1      12.992   0.149  -6.855  1.00  0.00     0.173 A 
ATOM     64  F   UNL     1      13.606  -2.321  -4.257  1.00  0.00    -0.203 F 
ATOM     65  C   UNL     1      15.029  -0.680  -5.162  1.00  0.00     0.198 A 
ATOM     66  C   UNL     1      14.240   0.764  -6.909  1.00  0.00     0.198 A 
ATOM     67  F   UNL     1      12.030   0.574  -7.689  1.00  0.00    -0.203 F 
ATOM     68  F   UNL     1      16.001  -1.062  -4.323  1.00  0.00    -0.200 F 
ATOM     69  C   UNL     1      15.255   0.355  -6.057  1.00  0.00     0.200 A 
ATOM     70  F   UNL     1      14.462   1.752  -7.787  1.00  0.00    -0.200 F 
ATOM     71  F   UNL     1      16.449   0.962  -6.096  1.00  0.00    -0.200 F 
ENDBRANCH  47  61
BRANCH  48  72
ATOM     72  C   UNL     1       3.764  -5.213  -5.736  1.00  0.00     0.064 A 
ATOM     73  C   UNL     1       3.607  -6.606  -5.759  1.00  0.00     0.173 A 
ATOM     74  C   UNL     1       2.603  -4.427  -5.715  1.00  0.00     0.173 A 
ATOM     75  F   UNL     1       4.687  -7.401  -5.807  1.00  0.00    -0.203 F 
ATOM     76  C   UNL     1       2.341  -7.188  -5.780  1.00  0.00     0.198 A 
ATOM     77  C   UNL     1       1.337  -5.010  -5.702  1.00  0.00     0.198 A 
ATOM     78  F   UNL     1       2.696  -3.090  -5.695  1.00  0.00    -0.203 F 
ATOM     79  F   UNL     1       2.220  -8.520  -5.853  1.00  0.00    -0.200 F 
ATOM     80  C   UNL     1       1.208  -6.390  -5.744  1.00  0.00     0.200 A 
ATOM     81  F   UNL     1       0.245  -4.236  -5.654  1.00  0.00    -0.200 F 
ATOM     82  F   UNL     1      -0.009  -6.950  -5.759  1.00  0.00    -0.200 F 
ENDBRANCH  48  72
BRANCH  60  83
ATOM     83  C   UNL     1       8.860  -4.954 -10.488  1.00  0.00     0.064 A 
ATOM     84  C   UNL     1       8.135  -4.431 -11.570  1.00  0.00     0.173 A 
ATOM     85  C   UNL     1       9.764  -5.996 -10.749  1.00  0.00     0.173 A 
ATOM     86  F   UNL     1       7.245  -3.447 -11.373  1.00  0.00    -0.203 F 
ATOM     87  C   UNL     1       8.297  -4.942 -12.855  1.00  0.00     0.198 A 
ATOM     88  C   UNL     1       9.946  -6.483 -12.040  1.00  0.00     0.198 A 
ATOM     89  F   UNL     1      10.486  -6.530  -9.752  1.00  0.00    -0.203 F 
ATOM     90  F   UNL     1       7.563  -4.455 -13.865  1.00  0.00    -0.200 F 
ATOM     91  C   UNL     1       9.209  -5.960 -13.091  1.00  0.00     0.200 A 
ATOM     92  F   UNL     1      10.838  -7.457 -12.268  1.00  0.00    -0.200 F 
ATOM     93  F   UNL     1       9.373  -6.441 -14.332  1.00  0.00    -0.200 F 
ENDBRANCH  60  83
ENDBRANCH  34  35
ENDBRANCH  26  29
ENDBRANCH  24  25
ENDBRANCH  23  24
ENDBRANCH  22  23
ENDBRANCH   3  22
TORSDOF 17
