REMARK SMILES Cc1ccc(-c2cc(C(=O)NCCCNC(=O)c3ccc(-c4c5nc(c(-c6c(F)c(F)c(F)c(F)c6F)c6ccc([nH]6)c(-c6c(F)c(F)c(F)c(F)c6F)c6nc(c(-c7c(F)c(F)c(F)c(F)c7F)c7ccc4[nH]7)C=C6)C=C5)cc3)c3cc(C)ccc3n2)c(C)c1
REMARK SMILES IDX 13 1 12 2 11 3 9 4 10 5 8 7 6 8 7 9 88 10 87 11 81 12 86 13
REMARK SMILES IDX 82 14 85 15 83 16 84 17 5 18 1 19 2 20 3 21 91 22 4 23 89 24
REMARK SMILES IDX 90 25 14 26 15 27 16 28 17 30 18 31 19 32 80 33 20 34 79 35
REMARK SMILES IDX 21 36 22 37 23 38 73 39 24 40 78 41 72 42 74 43 25 44 77 45
REMARK SMILES IDX 71 46 70 47 26 49 58 50 38 51 57 52 39 53 42 54 56 55 75 56
REMARK SMILES IDX 40 57 41 58 55 60 76 61 43 62 27 63 28 64 36 65 29 66 30 67
REMARK SMILES IDX 34 68 37 69 31 70 32 71 35 72 33 73 59 74 60 75 68 76 61 77
REMARK SMILES IDX 62 78 66 79 69 80 63 81 64 82 67 83 65 84 44 85 45 86 53 87
REMARK SMILES IDX 46 88 47 89 51 90 54 91 48 92 49 93 52 94 50 95
REMARK H PARENT 11 6 15 29 74 48 42 59
REMARK Flexibility Score: inf
ROOT
ATOM      1  C   UNL     1      -6.253  -7.008   0.718  1.00  0.00     0.042 C 
ENDROOT
BRANCH   1   2
ATOM      2  C   UNL     1      -6.081  -5.503   0.794  1.00  0.00     0.118 C 
BRANCH   2   3
ATOM      3  N   UNL     1      -5.362  -4.994   1.952  1.00  0.00    -0.352 N 
ATOM      4  C   UNL     1      -4.628  -3.838   2.122  1.00  0.00     0.252 C 
ATOM      5  O   UNL     1      -4.186  -3.599   3.246  1.00  0.00    -0.269 OA
ATOM      6  H   UNL     1      -5.407  -5.571   2.749  1.00  0.00     0.163 HD
BRANCH   4   7
ATOM      7  C   UNL     1      -4.257  -2.932   0.997  1.00  0.00     0.051 A 
ATOM      8  C   UNL     1      -2.480  -1.741  -0.073  1.00  0.00     0.072 A 
ATOM      9  C   UNL     1      -2.935  -2.474   1.009  1.00  0.00     0.043 A 
ATOM     10  N   UNL     1      -3.225  -1.572  -1.189  1.00  0.00    -0.248 NA
ATOM     11  C   UNL     1      -4.500  -1.987  -1.190  1.00  0.00     0.072 A 
ATOM     12  C   UNL     1      -5.110  -2.558  -0.063  1.00  0.00     0.013 A 
ATOM     13  C   UNL     1      -5.244  -1.860  -2.355  1.00  0.00     0.029 A 
ATOM     14  C   UNL     1      -6.511  -2.740  -0.082  1.00  0.00     0.014 A 
ATOM     15  C   UNL     1      -6.582  -2.260  -2.424  1.00  0.00     0.005 A 
ATOM     16  C   UNL     1      -7.236  -2.684  -1.273  1.00  0.00    -0.050 A 
ATOM     17  C   UNL     1      -8.633  -3.227  -1.323  1.00  0.00     0.044 C 
BRANCH   8  18
ATOM     18  C   UNL     1      -1.198  -1.023  -0.049  1.00  0.00     0.003 A 
ATOM     19  C   UNL     1       2.605   1.058   0.010  1.00  0.00     0.044 C 
ATOM     20  C   UNL     1       1.298   0.323  -0.004  1.00  0.00    -0.051 A 
ATOM     21  C   UNL     1       1.247  -1.071  -0.038  1.00  0.00     0.004 A 
ATOM     22  C   UNL     1       0.100   1.044   0.011  1.00  0.00     0.007 A 
ATOM     23  C   UNL     1       0.015  -1.735  -0.061  1.00  0.00     0.011 A 
ATOM     24  C   UNL     1      -1.146   0.391   0.003  1.00  0.00    -0.041 A 
ATOM     25  C   UNL     1      -2.383   1.253   0.009  1.00  0.00     0.045 C 
ENDBRANCH   8  18
ENDBRANCH   4   7
ENDBRANCH   2   3
ENDBRANCH   1   2
BRANCH   1  26
ATOM     26  C   UNL     1      -6.989  -7.626   1.898  1.00  0.00     0.118 C 
BRANCH  26  27
ATOM     27  N   UNL     1      -8.348  -7.130   2.100  1.00  0.00    -0.352 N 
ATOM     28  C   UNL     1      -9.592  -7.622   1.779  1.00  0.00     0.251 C 
ATOM     29  H   UNL     1      -8.381  -6.262   2.563  1.00  0.00     0.163 HD
ATOM     30  O   UNL     1     -10.580  -6.924   2.009  1.00  0.00    -0.269 OA
BRANCH  28  31
ATOM     31  C   UNL     1      -9.777  -8.934   1.116  1.00  0.00     0.039 A 
ATOM     32  C   UNL     1     -10.822  -9.085   0.194  1.00  0.00     0.014 A 
ATOM     33  C   UNL     1      -8.960 -10.024   1.392  1.00  0.00     0.014 A 
ATOM     34  C   UNL     1     -10.962 -10.280  -0.522  1.00  0.00     0.010 A 
ATOM     35  C   UNL     1      -9.009 -11.156   0.586  1.00  0.00     0.010 A 
ATOM     36  C   UNL     1     -10.012 -11.303  -0.381  1.00  0.00    -0.014 A 
BRANCH  36  37
ATOM     37  C   UNL     1     -10.038 -12.534  -1.216  1.00  0.00     0.031 A 
ATOM     38  C   UNL     1     -10.084 -13.890  -0.562  1.00  0.00     0.074 A 
ATOM     39  C   UNL     1      -9.903 -12.440  -2.554  1.00  0.00     0.049 A 
ATOM     40  N   UNL     1      -9.944 -15.077  -1.098  1.00  0.00    -0.248 NA
ATOM     41  C   UNL     1     -10.263 -13.912   0.898  1.00  0.00     0.031 C 
ATOM     42  C   UNL     1      -9.779 -11.192  -3.310  1.00  0.00     0.029 A 
ATOM     43  N   UNL     1      -9.826 -13.416  -3.517  1.00  0.00    -0.354 N 
ATOM     44  C   UNL     1      -9.981 -15.976  -0.039  1.00  0.00     0.074 A 
ATOM     45  C   UNL     1     -10.089 -15.195   1.174  1.00  0.00     0.031 C 
ATOM     46  C   UNL     1      -9.666 -11.476  -4.616  1.00  0.00     0.029 A 
ATOM     47  C   UNL     1      -9.662 -12.924  -4.789  1.00  0.00     0.049 A 
ATOM     48  H   UNL     1      -9.883 -14.378  -3.315  1.00  0.00     0.167 HD
ATOM     49  C   UNL     1      -9.960 -17.330  -0.073  1.00  0.00     0.037 A 
ATOM     50  C   UNL     1      -9.511 -13.567  -5.963  1.00  0.00     0.037 A 
ATOM     51  C   UNL     1      -9.902 -18.105  -1.284  1.00  0.00     0.049 A 
ATOM     52  C   UNL     1      -9.521 -15.071  -5.981  1.00  0.00     0.074 A 
ATOM     53  C   UNL     1      -9.949 -19.479  -1.434  1.00  0.00     0.029 A 
ATOM     54  N   UNL     1      -9.790 -17.567  -2.558  1.00  0.00    -0.354 N 
ATOM     55  N   UNL     1      -9.619 -15.909  -4.979  1.00  0.00    -0.248 NA
ATOM     56  C   UNL     1      -9.404 -15.717  -7.296  1.00  0.00     0.031 C 
ATOM     57  C   UNL     1      -9.829 -19.775  -2.796  1.00  0.00     0.029 A 
ATOM     58  C   UNL     1      -9.753 -18.583  -3.499  1.00  0.00     0.049 A 
ATOM     59  H   UNL     1      -9.744 -16.605  -2.763  1.00  0.00     0.167 HD
ATOM     60  C   UNL     1      -9.598 -17.179  -5.540  1.00  0.00     0.074 A 
ATOM     61  C   UNL     1      -9.496 -17.000  -6.973  1.00  0.00     0.031 C 
ATOM     62  C   UNL     1      -9.654 -18.385  -4.923  1.00  0.00     0.037 A 
BRANCH  49  63
ATOM     63  C   UNL     1     -10.018 -18.055   1.242  1.00  0.00     0.064 A 
ATOM     64  C   UNL     1     -11.170 -18.034   2.044  1.00  0.00     0.173 A 
ATOM     65  C   UNL     1      -8.914 -18.789   1.702  1.00  0.00     0.173 A 
ATOM     66  F   UNL     1     -12.249 -17.337   1.657  1.00  0.00    -0.203 F 
ATOM     67  C   UNL     1     -11.199 -18.681   3.276  1.00  0.00     0.198 A 
ATOM     68  C   UNL     1      -8.960 -19.465   2.919  1.00  0.00     0.198 A 
ATOM     69  F   UNL     1      -7.790 -18.851   0.973  1.00  0.00    -0.203 F 
ATOM     70  F   UNL     1     -12.287 -18.589   4.054  1.00  0.00    -0.200 F 
ATOM     71  C   UNL     1     -10.097 -19.401   3.710  1.00  0.00     0.200 A 
ATOM     72  F   UNL     1      -7.898 -20.172   3.331  1.00  0.00    -0.200 F 
ATOM     73  F   UNL     1     -10.126 -20.025   4.896  1.00  0.00    -0.200 F 
ENDBRANCH  49  63
BRANCH  50  74
ATOM     74  C   UNL     1      -9.365 -12.787  -7.219  1.00  0.00     0.064 A 
ATOM     75  C   UNL     1     -10.399 -12.751  -8.165  1.00  0.00     0.173 A 
ATOM     76  C   UNL     1      -8.203 -12.052  -7.494  1.00  0.00     0.173 A 
ATOM     77  F   UNL     1     -11.522 -13.453  -7.955  1.00  0.00    -0.203 F 
ATOM     78  C   UNL     1     -10.269 -12.024  -9.347  1.00  0.00     0.198 A 
ATOM     79  C   UNL     1      -8.085 -11.303  -8.664  1.00  0.00     0.198 A 
ATOM     80  F   UNL     1      -7.188 -12.046  -6.618  1.00  0.00    -0.203 F 
ATOM     81  F   UNL     1     -11.257 -12.040 -10.252  1.00  0.00    -0.200 F 
ATOM     82  C   UNL     1      -9.116 -11.295  -9.592  1.00  0.00     0.200 A 
ATOM     83  F   UNL     1      -6.976 -10.586  -8.889  1.00  0.00    -0.200 F 
ATOM     84  F   UNL     1      -8.995 -10.589 -10.724  1.00  0.00    -0.200 F 
ENDBRANCH  50  74
BRANCH  62  85
ATOM     85  C   UNL     1      -9.633 -19.604  -5.797  1.00  0.00     0.064 A 
ATOM     86  C   UNL     1      -8.465 -20.016  -6.455  1.00  0.00     0.173 A 
ATOM     87  C   UNL     1     -10.785 -20.392  -5.944  1.00  0.00     0.173 A 
ATOM     88  F   UNL     1      -7.343 -19.288  -6.357  1.00  0.00    -0.203 F 
ATOM     89  C   UNL     1      -8.457 -21.161  -7.247  1.00  0.00     0.198 A 
ATOM     90  C   UNL     1     -10.766 -21.551  -6.714  1.00  0.00     0.198 A 
ATOM     91  F   UNL     1     -11.926 -20.043  -5.330  1.00  0.00    -0.203 F 
ATOM     92  F   UNL     1      -7.343 -21.511  -7.903  1.00  0.00    -0.200 F 
ATOM     93  C   UNL     1      -9.605 -21.931  -7.370  1.00  0.00     0.200 A 
ATOM     94  F   UNL     1     -11.871 -22.301  -6.821  1.00  0.00    -0.200 F 
ATOM     95  F   UNL     1      -9.593 -23.036  -8.127  1.00  0.00    -0.200 F 
ENDBRANCH  62  85
ENDBRANCH  36  37
ENDBRANCH  28  31
ENDBRANCH  26  27
ENDBRANCH   1  26
TORSDOF 11
