REMARK SMILES C[C@H]([NH2+][C@@H](C)[C@]12C[C@H]3C[C@H](C[C@H](C3)C1)C2)[C@@H](C)C(=O)NCCCNC(=O)c1ccc(-c2c3nc(c(-c4c(F)c(F)c(F)c(F)c4F)c4ccc([nH]4)c(-c4c(F)c(F)c(F)c(F)c4F)c4nc(c(-c5c(F)c(F)c(F)c(F)c5F)c5ccc2[nH]5)C=C4)C=C3)cc1
REMARK SMILES IDX 21 1 20 2 18 3 19 4 16 6 17 7 2 8 1 9 3 10 4 13 5 14 6 15
REMARK SMILES IDX 7 16 14 17 15 18 8 19 12 20 10 21 9 22 13 23 11 24 22 25
REMARK SMILES IDX 23 26 24 27 25 28 26 30 27 31 28 32 89 33 29 34 88 35 30 36
REMARK SMILES IDX 31 37 32 38 82 39 33 40 87 41 81 42 83 43 34 44 86 45 80 46
REMARK SMILES IDX 79 47 35 49 67 50 47 51 66 52 48 53 51 54 65 55 84 56 49 57
REMARK SMILES IDX 50 58 64 60 85 61 52 62 36 63 37 64 45 65 38 66 39 67 43 68
REMARK SMILES IDX 46 69 40 70 41 71 44 72 42 73 68 74 69 75 77 76 70 77 71 78
REMARK SMILES IDX 75 79 78 80 72 81 73 82 76 83 74 84 53 85 54 86 62 87 55 88
REMARK SMILES IDX 56 89 60 90 63 91 57 92 58 93 61 94 59 95
REMARK H PARENT 20 5 3 11 3 12 24 29 83 48 51 59
REMARK Flexibility Score: inf
ROOT
ATOM      1  C   UNL     1      -0.461   3.494   2.559  1.00  0.00     0.117 C 
ENDROOT
BRANCH   1   2
ATOM      2  N   UNL     1      -1.304   3.781   1.412  1.00  0.00    -0.356 N 
ATOM      3  C   UNL     1      -1.555   3.066   0.285  1.00  0.00     0.228 C 
ATOM      4  O   UNL     1      -2.241   3.602  -0.588  1.00  0.00    -0.275 OA
ATOM      5  H   UNL     1      -1.776   4.644   1.459  1.00  0.00     0.163 HD
BRANCH   3   6
ATOM      6  C   UNL     1      -1.044   1.642   0.110  1.00  0.00     0.133 C 
ATOM      7  C   UNL     1      -1.704   0.758   1.187  1.00  0.00     0.024 C 
BRANCH   6   8
ATOM      8  C   UNL     1       0.502   1.550  -0.023  1.00  0.00     0.191 C 
ATOM      9  C   UNL     1       1.051   2.517  -1.086  1.00  0.00     0.076 C 
BRANCH   8  10
ATOM     10  N   UNL     1       1.038   0.190  -0.135  1.00  0.00    -0.341 N 
ATOM     11  H   UNL     1       0.339  -0.419   0.292  1.00  0.00     0.346 HD
ATOM     12  H   UNL     1       1.957   0.305   0.290  1.00  0.00     0.346 HD
BRANCH  10  13
ATOM     13  C   UNL     1       1.394  -0.444  -1.408  1.00  0.00     0.185 C 
ATOM     14  C   UNL     1       2.605  -1.329  -1.059  1.00  0.00     0.076 C 
BRANCH  13  15
ATOM     15  C   UNL     1       0.236  -1.210  -2.176  1.00  0.00     0.023 C 
ATOM     16  C   UNL     1       0.707  -2.535  -2.851  1.00  0.00     0.016 C 
ATOM     17  C   UNL     1      -0.296  -0.285  -3.310  1.00  0.00     0.016 C 
ATOM     18  C   UNL     1      -0.958  -1.605  -1.268  1.00  0.00     0.016 C 
ATOM     19  C   UNL     1      -0.434  -3.212  -3.638  1.00  0.00    -0.010 C 
ATOM     20  C   UNL     1      -1.430  -0.951  -4.103  1.00  0.00    -0.010 C 
ATOM     21  C   UNL     1      -2.111  -2.242  -2.054  1.00  0.00    -0.010 C 
ATOM     22  C   UNL     1      -1.605  -3.533  -2.696  1.00  0.00     0.007 C 
ATOM     23  C   UNL     1      -0.920  -2.254  -4.734  1.00  0.00     0.007 C 
ATOM     24  C   UNL     1      -2.586  -1.264  -3.143  1.00  0.00     0.007 C 
ENDBRANCH  13  15
ENDBRANCH  10  13
ENDBRANCH   8  10
ENDBRANCH   6   8
ENDBRANCH   3   6
ENDBRANCH   1   2
BRANCH   1  25
ATOM     25  C   UNL     1       0.819   4.313   2.529  1.00  0.00     0.042 C 
BRANCH  25  26
ATOM     26  C   UNL     1       0.565   5.811   2.551  1.00  0.00     0.118 C 
BRANCH  26  27
ATOM     27  N   UNL     1      -0.139   6.230   3.757  1.00  0.00    -0.352 N 
ATOM     28  C   UNL     1       0.299   7.004   4.798  1.00  0.00     0.251 C 
ATOM     29  H   UNL     1      -1.067   5.910   3.833  1.00  0.00     0.163 HD
ATOM     30  O   UNL     1      -0.344   7.047   5.847  1.00  0.00    -0.269 OA
BRANCH  28  31
ATOM     31  C   UNL     1       1.549   7.774   4.665  1.00  0.00     0.039 A 
ATOM     32  C   UNL     1       2.434   7.832   5.742  1.00  0.00     0.014 A 
ATOM     33  C   UNL     1       1.843   8.444   3.474  1.00  0.00     0.014 A 
ATOM     34  C   UNL     1       3.645   8.510   5.602  1.00  0.00     0.010 A 
ATOM     35  C   UNL     1       3.090   9.028   3.301  1.00  0.00     0.010 A 
ATOM     36  C   UNL     1       3.997   9.082   4.368  1.00  0.00    -0.014 A 
BRANCH  36  37
ATOM     37  C   UNL     1       5.299   9.764   4.175  1.00  0.00     0.031 A 
ATOM     38  C   UNL     1       5.333  11.225   3.824  1.00  0.00     0.074 A 
ATOM     39  C   UNL     1       6.441   9.053   4.248  1.00  0.00     0.049 A 
ATOM     40  N   UNL     1       6.359  11.985   3.536  1.00  0.00    -0.248 NA
ATOM     41  C   UNL     1       4.036  11.919   3.755  1.00  0.00     0.031 C 
ATOM     42  C   UNL     1       6.530   7.620   4.532  1.00  0.00     0.029 A 
ATOM     43  N   UNL     1       7.746   9.440   4.079  1.00  0.00    -0.354 N 
ATOM     44  C   UNL     1       5.831  13.234   3.239  1.00  0.00     0.074 A 
ATOM     45  C   UNL     1       4.392  13.117   3.316  1.00  0.00     0.031 C 
ATOM     46  C   UNL     1       7.821   7.254   4.546  1.00  0.00     0.029 A 
ATOM     47  C   UNL     1       8.648   8.414   4.229  1.00  0.00     0.049 A 
ATOM     48  H   UNL     1       8.012  10.365   3.870  1.00  0.00     0.167 HD
ATOM     49  C   UNL     1       6.488  14.383   2.956  1.00  0.00     0.037 A 
ATOM     50  C   UNL     1       9.989   8.412   4.114  1.00  0.00     0.037 A 
ATOM     51  C   UNL     1       7.922  14.498   2.905  1.00  0.00     0.049 A 
ATOM     52  C   UNL     1      10.694   9.700   3.785  1.00  0.00     0.074 A 
ATOM     53  C   UNL     1       8.690  15.626   2.683  1.00  0.00     0.029 A 
ATOM     54  N   UNL     1       8.803  13.440   3.078  1.00  0.00    -0.354 N 
ATOM     55  N   UNL     1      10.190  10.892   3.575  1.00  0.00    -0.248 NA
ATOM     56  C   UNL     1      12.159   9.644   3.683  1.00  0.00     0.031 C 
ATOM     57  C   UNL     1      10.035  15.242   2.669  1.00  0.00     0.029 A 
ATOM     58  C   UNL     1      10.108  13.886   2.944  1.00  0.00     0.049 A 
ATOM     59  H   UNL     1       8.540  12.511   3.269  1.00  0.00     0.167 HD
ATOM     60  C   UNL     1      11.272  11.732   3.349  1.00  0.00     0.074 A 
ATOM     61  C   UNL     1      12.463  10.915   3.463  1.00  0.00     0.031 C 
ATOM     62  C   UNL     1      11.281  13.059   3.072  1.00  0.00     0.037 A 
BRANCH  49  63
ATOM     63  C   UNL     1       5.662  15.608   2.685  1.00  0.00     0.064 A 
ATOM     64  C   UNL     1       4.912  16.230   3.696  1.00  0.00     0.173 A 
ATOM     65  C   UNL     1       5.643  16.187   1.407  1.00  0.00     0.173 A 
ATOM     66  F   UNL     1       4.885  15.711   4.933  1.00  0.00    -0.203 F 
ATOM     67  C   UNL     1       4.150  17.365   3.430  1.00  0.00     0.198 A 
ATOM     68  C   UNL     1       4.907  17.342   1.153  1.00  0.00     0.198 A 
ATOM     69  F   UNL     1       6.345  15.638   0.405  1.00  0.00    -0.203 F 
ATOM     70  F   UNL     1       3.399  17.907   4.398  1.00  0.00    -0.200 F 
ATOM     71  C   UNL     1       4.154  17.924   2.161  1.00  0.00     0.200 A 
ATOM     72  F   UNL     1       4.924  17.890  -0.070  1.00  0.00    -0.200 F 
ATOM     73  F   UNL     1       3.427  19.021   1.909  1.00  0.00    -0.200 F 
ENDBRANCH  49  63
BRANCH  50  74
ATOM     74  C   UNL     1      10.754   7.158   4.337  1.00  0.00     0.064 A 
ATOM     75  C   UNL     1      11.597   7.017   5.449  1.00  0.00     0.173 A 
ATOM     76  C   UNL     1      10.670   6.080   3.444  1.00  0.00     0.173 A 
ATOM     77  F   UNL     1      11.726   8.027   6.322  1.00  0.00    -0.203 F 
ATOM     78  C   UNL     1      12.346   5.859   5.644  1.00  0.00     0.198 A 
ATOM     79  C   UNL     1      11.395   4.909   3.657  1.00  0.00     0.198 A 
ATOM     80  F   UNL     1       9.873   6.159   2.368  1.00  0.00    -0.203 F 
ATOM     81  F   UNL     1      13.183   5.773   6.687  1.00  0.00    -0.200 F 
ATOM     82  C   UNL     1      12.240   4.803   4.751  1.00  0.00     0.200 A 
ATOM     83  F   UNL     1      11.277   3.885   2.801  1.00  0.00    -0.200 F 
ATOM     84  F   UNL     1      12.959   3.688   4.940  1.00  0.00    -0.200 F 
ENDBRANCH  50  74
BRANCH  62  85
ATOM     85  C   UNL     1      12.620  13.720   2.917  1.00  0.00     0.064 A 
ATOM     86  C   UNL     1      13.438  13.479   1.804  1.00  0.00     0.173 A 
ATOM     87  C   UNL     1      13.069  14.640   3.876  1.00  0.00     0.173 A 
ATOM     88  F   UNL     1      13.060  12.597   0.866  1.00  0.00    -0.203 F 
ATOM     89  C   UNL     1      14.671  14.113   1.672  1.00  0.00     0.198 A 
ATOM     90  C   UNL     1      14.286  15.298   3.724  1.00  0.00     0.198 A 
ATOM     91  F   UNL     1      12.321  14.913   4.956  1.00  0.00    -0.203 F 
ATOM     92  F   UNL     1      15.460  13.828   0.627  1.00  0.00    -0.200 F 
ATOM     93  C   UNL     1      15.090  15.027   2.627  1.00  0.00     0.200 A 
ATOM     94  F   UNL     1      14.681  16.194   4.639  1.00  0.00    -0.200 F 
ATOM     95  F   UNL     1      16.272  15.643   2.494  1.00  0.00    -0.200 F 
ENDBRANCH  62  85
ENDBRANCH  36  37
ENDBRANCH  28  31
ENDBRANCH  26  27
ENDBRANCH  25  26
ENDBRANCH   1  25
TORSDOF 14
