REMARK SMILES CC[C@H]([NH2+]C1c2ccccc2-c2ccccc21)C(=O)NCCCNC(=O)c1ccc(-c2c3nc(c(-c4c(F)c(F)c(F)c(F)c4F)c4ccc([nH]4)c(-c4c(F)c(F)c(F)c(F)c4F)c4nc(c(-c5c(F)c(F)c(F)c(F)c5F)c5ccc2[nH]5)C=C4)C=C3)cc1
REMARK SMILES IDX 22 1 21 2 20 3 18 4 19 5 3 7 2 8 1 9 4 10 5 13 6 14 17 15
REMARK SMILES IDX 7 16 11 17 12 18 16 19 8 20 10 21 13 22 15 23 9 24 14 25
REMARK SMILES IDX 23 26 24 27 25 28 26 30 27 31 28 32 89 33 29 34 88 35 30 36
REMARK SMILES IDX 31 37 32 38 82 39 33 40 87 41 81 42 83 43 34 44 86 45 80 46
REMARK SMILES IDX 79 47 35 49 67 50 47 51 66 52 48 53 51 54 65 55 84 56 49 57
REMARK SMILES IDX 50 58 64 60 85 61 52 62 36 63 37 64 45 65 38 66 39 67 43 68
REMARK SMILES IDX 46 69 40 70 41 71 44 72 42 73 68 74 69 75 77 76 70 77 71 78
REMARK SMILES IDX 75 79 78 80 72 81 73 82 76 83 74 84 53 85 54 86 62 87 55 88
REMARK SMILES IDX 56 89 60 90 63 91 57 92 58 93 61 94 59 95
REMARK H PARENT 20 6 4 11 4 12 24 29 83 48 51 59
REMARK Flexibility Score: inf
ROOT
ATOM      1  C   UNL     1      -2.698   1.329   2.207  1.00  0.00     0.042 C 
ENDROOT
BRANCH   1   2
ATOM      2  C   UNL     1      -1.775   2.368   1.589  1.00  0.00     0.118 C 
BRANCH   2   3
ATOM      3  N   UNL     1      -0.676   2.726   2.470  1.00  0.00    -0.351 N 
ATOM      4  C   UNL     1       0.673   2.551   2.317  1.00  0.00     0.278 C 
ATOM      5  O   UNL     1       1.401   2.965   3.225  1.00  0.00    -0.268 OA
ATOM      6  H   UNL     1      -0.944   3.163   3.310  1.00  0.00     0.163 HD
BRANCH   4   7
ATOM      7  C   UNL     1       1.267   1.957   1.019  1.00  0.00     0.273 C 
BRANCH   7   8
ATOM      8  C   UNL     1       1.040   2.991  -0.114  1.00  0.00     0.072 C 
ATOM      9  C   UNL     1       1.599   2.596  -1.471  1.00  0.00     0.011 C 
ENDBRANCH   7   8
BRANCH   7  10
ATOM     10  N   UNL     1       0.675   0.629   0.749  1.00  0.00    -0.326 N 
ATOM     11  H   UNL     1       0.473   0.575  -0.249  1.00  0.00     0.347 HD
ATOM     12  H   UNL     1      -0.148   0.571   1.349  1.00  0.00     0.347 HD
BRANCH  10  13
ATOM     13  C   UNL     1       1.498  -0.532   1.102  1.00  0.00     0.246 C 
ATOM     14  C   UNL     1       2.828  -0.654   0.365  1.00  0.00     0.022 A 
ATOM     15  C   UNL     1       1.916  -0.704   2.555  1.00  0.00     0.022 A 
ATOM     16  C   UNL     1       3.088  -0.566  -0.994  1.00  0.00     0.011 A 
ATOM     17  C   UNL     1       3.857  -0.959   1.285  1.00  0.00    -0.008 A 
ATOM     18  C   UNL     1       3.295  -1.019   2.619  1.00  0.00    -0.008 A 
ATOM     19  C   UNL     1       1.131  -0.713   3.698  1.00  0.00     0.011 A 
ATOM     20  C   UNL     1       4.403  -0.743  -1.429  1.00  0.00     0.001 A 
ATOM     21  C   UNL     1       5.158  -1.153   0.850  1.00  0.00     0.009 A 
ATOM     22  C   UNL     1       3.892  -1.358   3.824  1.00  0.00     0.009 A 
ATOM     23  C   UNL     1       1.736  -1.048   4.913  1.00  0.00     0.001 A 
ATOM     24  C   UNL     1       5.429  -1.036  -0.516  1.00  0.00     0.001 A 
ATOM     25  C   UNL     1       3.101  -1.376   4.975  1.00  0.00     0.001 A 
ENDBRANCH  10  13
ENDBRANCH   7  10
ENDBRANCH   4   7
ENDBRANCH   2   3
ENDBRANCH   1   2
BRANCH   1  26
ATOM     26  C   UNL     1      -3.463   1.827   3.425  1.00  0.00     0.118 C 
BRANCH  26  27
ATOM     27  N   UNL     1      -4.410   2.887   3.107  1.00  0.00    -0.352 N 
ATOM     28  C   UNL     1      -5.761   2.966   3.323  1.00  0.00     0.251 C 
ATOM     29  H   UNL     1      -4.016   3.674   2.664  1.00  0.00     0.163 HD
ATOM     30  O   UNL     1      -6.400   3.896   2.825  1.00  0.00    -0.269 OA
BRANCH  28  31
ATOM     31  C   UNL     1      -6.468   1.949   4.131  1.00  0.00     0.039 A 
ATOM     32  C   UNL     1      -7.756   1.560   3.746  1.00  0.00     0.014 A 
ATOM     33  C   UNL     1      -5.901   1.411   5.289  1.00  0.00     0.014 A 
ATOM     34  C   UNL     1      -8.451   0.607   4.495  1.00  0.00     0.010 A 
ATOM     35  C   UNL     1      -6.554   0.395   5.981  1.00  0.00     0.010 A 
ATOM     36  C   UNL     1      -7.847   0.001   5.607  1.00  0.00    -0.014 A 
BRANCH  36  37
ATOM     37  C   UNL     1      -8.574  -1.000   6.428  1.00  0.00     0.031 A 
ATOM     38  C   UNL     1      -8.894  -0.698   7.867  1.00  0.00     0.074 A 
ATOM     39  C   UNL     1      -8.898  -2.196   5.902  1.00  0.00     0.049 A 
ATOM     40  N   UNL     1      -9.461  -1.458   8.770  1.00  0.00    -0.248 NA
ATOM     41  C   UNL     1      -8.493   0.626   8.368  1.00  0.00     0.031 C 
ATOM     42  C   UNL     1      -8.594  -2.632   4.539  1.00  0.00     0.029 A 
ATOM     43  N   UNL     1      -9.549  -3.269   6.458  1.00  0.00    -0.354 N 
ATOM     44  C   UNL     1      -9.463  -0.714   9.943  1.00  0.00     0.074 A 
ATOM     45  C   UNL     1      -8.787   0.531   9.656  1.00  0.00     0.031 C 
ATOM     46  C   UNL     1      -9.075  -3.873   4.357  1.00  0.00     0.029 A 
ATOM     47  C   UNL     1      -9.697  -4.329   5.598  1.00  0.00     0.049 A 
ATOM     48  H   UNL     1      -9.879  -3.278   7.386  1.00  0.00     0.167 HD
ATOM     49  C   UNL     1     -10.006  -1.026  11.144  1.00  0.00     0.037 A 
ATOM     50  C   UNL     1     -10.272  -5.531   5.789  1.00  0.00     0.037 A 
ATOM     51  C   UNL     1     -10.709  -2.251  11.419  1.00  0.00     0.049 A 
ATOM     52  C   UNL     1     -10.905  -5.839   7.119  1.00  0.00     0.074 A 
ATOM     53  C   UNL     1     -11.330  -2.649  12.590  1.00  0.00     0.029 A 
ATOM     54  N   UNL     1     -10.890  -3.276  10.502  1.00  0.00    -0.354 N 
ATOM     55  N   UNL     1     -10.950  -5.106   8.204  1.00  0.00    -0.248 NA
ATOM     56  C   UNL     1     -11.586  -7.136   7.243  1.00  0.00     0.031 C 
ATOM     57  C   UNL     1     -11.863  -3.927  12.390  1.00  0.00     0.029 A 
ATOM     58  C   UNL     1     -11.614  -4.306  11.081  1.00  0.00     0.049 A 
ATOM     59  H   UNL     1     -10.555  -3.271   9.576  1.00  0.00     0.167 HD
ATOM     60  C   UNL     1     -11.688  -5.834   9.127  1.00  0.00     0.074 A 
ATOM     61  C   UNL     1     -12.082  -7.062   8.470  1.00  0.00     0.031 C 
ATOM     62  C   UNL     1     -12.012  -5.513  10.404  1.00  0.00     0.037 A 
BRANCH  49  63
ATOM     63  C   UNL     1      -9.868  -0.014  12.245  1.00  0.00     0.064 A 
ATOM     64  C   UNL     1     -10.551   1.212  12.205  1.00  0.00     0.173 A 
ATOM     65  C   UNL     1      -9.053  -0.273  13.357  1.00  0.00     0.173 A 
ATOM     66  F   UNL     1     -11.332   1.516  11.157  1.00  0.00    -0.203 F 
ATOM     67  C   UNL     1     -10.393   2.155  13.218  1.00  0.00     0.198 A 
ATOM     68  C   UNL     1      -8.924   0.659  14.384  1.00  0.00     0.198 A 
ATOM     69  F   UNL     1      -8.382  -1.431  13.449  1.00  0.00    -0.203 F 
ATOM     70  F   UNL     1     -11.008   3.342  13.126  1.00  0.00    -0.200 F 
ATOM     71  C   UNL     1      -9.585   1.875  14.309  1.00  0.00     0.200 A 
ATOM     72  F   UNL     1      -8.151   0.383  15.444  1.00  0.00    -0.200 F 
ATOM     73  F   UNL     1      -9.435   2.783  15.283  1.00  0.00    -0.200 F 
ENDBRANCH  49  63
BRANCH  50  74
ATOM     74  C   UNL     1     -10.316  -6.514   4.676  1.00  0.00     0.064 A 
ATOM     75  C   UNL     1     -11.521  -6.806   4.022  1.00  0.00     0.173 A 
ATOM     76  C   UNL     1      -9.159  -7.174   4.239  1.00  0.00     0.173 A 
ATOM     77  F   UNL     1     -12.657  -6.212   4.417  1.00  0.00    -0.203 F 
ATOM     78  C   UNL     1     -11.572  -7.737   2.987  1.00  0.00     0.198 A 
ATOM     79  C   UNL     1      -9.206  -8.086   3.186  1.00  0.00     0.198 A 
ATOM     80  F   UNL     1      -7.980  -6.923   4.827  1.00  0.00    -0.203 F 
ATOM     81  F   UNL     1     -12.744  -8.029   2.408  1.00  0.00    -0.200 F 
ATOM     82  C   UNL     1     -10.413  -8.372   2.567  1.00  0.00     0.200 A 
ATOM     83  F   UNL     1      -8.082  -8.687   2.773  1.00  0.00    -0.200 F 
ATOM     84  F   UNL     1     -10.461  -9.264   1.568  1.00  0.00    -0.200 F 
ENDBRANCH  50  74
BRANCH  62  85
ATOM     85  C   UNL     1     -12.877  -6.481  11.157  1.00  0.00     0.064 A 
ATOM     86  C   UNL     1     -12.386  -7.714  11.610  1.00  0.00     0.173 A 
ATOM     87  C   UNL     1     -14.209  -6.153  11.455  1.00  0.00     0.173 A 
ATOM     88  F   UNL     1     -11.124  -8.079  11.339  1.00  0.00    -0.203 F 
ATOM     89  C   UNL     1     -13.206  -8.596  12.309  1.00  0.00     0.198 A 
ATOM     90  C   UNL     1     -15.017  -7.025  12.179  1.00  0.00     0.198 A 
ATOM     91  F   UNL     1     -14.724  -4.982  11.050  1.00  0.00    -0.203 F 
ATOM     92  F   UNL     1     -12.730  -9.790  12.690  1.00  0.00    -0.200 F 
ATOM     93  C   UNL     1     -14.517  -8.249  12.598  1.00  0.00     0.200 A 
ATOM     94  F   UNL     1     -16.280  -6.683  12.467  1.00  0.00    -0.200 F 
ATOM     95  F   UNL     1     -15.303  -9.098  13.273  1.00  0.00    -0.200 F 
ENDBRANCH  62  85
ENDBRANCH  36  37
ENDBRANCH  28  31
ENDBRANCH  26  27
ENDBRANCH   1  26
TORSDOF 13
