REMARK SMILES C[NH+]1CCC([NH+]2CCC(Oc3ccc4ccccc4c3)(C(=O)NCCCNC(=O)c3ccc(-c4c5nc(c(-c6c(F)c(F)c(F)c(F)c6F)c6ccc([nH]6)c(-c6c(F)c(F)c(F)c(F)c6F)c6nc(c(-c7c(F)c(F)c(F)c(F)c7F)c7ccc4[nH]7)C=C6)C=C5)cc3)CC2)CC1
REMARK SMILES IDX 25 1 24 2 23 3 21 4 22 5 9 7 6 8 7 9 94 10 8 12 93 13 5 14
REMARK SMILES IDX 1 15 2 16 3 17 96 18 4 20 95 21 10 22 11 23 12 24 20 25
REMARK SMILES IDX 13 26 19 27 14 28 18 29 15 30 17 31 16 32 26 33 27 34 28 35
REMARK SMILES IDX 29 37 30 38 31 39 92 40 32 41 91 42 33 43 34 44 35 45 85 46
REMARK SMILES IDX 36 47 90 48 84 49 86 50 37 51 89 52 83 53 82 54 38 56 70 57
REMARK SMILES IDX 50 58 69 59 51 60 54 61 68 62 87 63 52 64 53 65 67 67 88 68
REMARK SMILES IDX 55 69 39 70 40 71 48 72 41 73 42 74 46 75 49 76 43 77 44 78
REMARK SMILES IDX 47 79 45 80 71 81 72 82 80 83 73 84 74 85 78 86 81 87 75 88
REMARK SMILES IDX 76 89 79 90 77 91 56 92 57 93 65 94 58 95 59 96 63 97 66 98
REMARK SMILES IDX 60 99 61 100 64 101 62 102
REMARK H PARENT 23 6 6 11 2 19 27 36 86 55 54 66
REMARK Flexibility Score: inf
ROOT
ATOM      1  C   UNL     1       4.788  -1.155   5.546  1.00  0.00     0.042 C 
ENDROOT
BRANCH   1   2
ATOM      2  C   UNL     1       5.879  -1.658   4.605  1.00  0.00     0.118 C 
BRANCH   2   3
ATOM      3  N   UNL     1       5.350  -2.509   3.553  1.00  0.00    -0.353 N 
ATOM      4  C   UNL     1       5.252  -2.312   2.203  1.00  0.00     0.264 C 
ATOM      5  O   UNL     1       4.860  -3.287   1.551  1.00  0.00    -0.270 OA
ATOM      6  H   UNL     1       5.003  -3.376   3.865  1.00  0.00     0.163 HD
BRANCH   4   7
ATOM      7  C   UNL     1       5.594  -0.943   1.540  1.00  0.00     0.197 C 
ATOM      8  N   UNL     1       3.093  -0.107   0.219  1.00  0.00    -0.332 N 
ATOM      9  C   UNL     1       3.213  -0.122   1.680  1.00  0.00     0.267 C 
ATOM     10  C   UNL     1       3.927  -1.154  -0.398  1.00  0.00     0.267 C 
ATOM     11  H   UNL     1       3.456   0.797  -0.084  1.00  0.00     0.348 HD
ATOM     12  C   UNL     1       4.661   0.154   2.063  1.00  0.00     0.120 C 
ATOM     13  C   UNL     1       5.408  -1.044   0.011  1.00  0.00     0.120 C 
BRANCH   8  14
ATOM     14  C   UNL     1       1.692  -0.135  -0.271  1.00  0.00     0.195 C 
ATOM     15  C   UNL     1      -2.618   0.066  -0.267  1.00  0.00     0.332 C 
ATOM     16  N   UNL     1      -1.208   0.019   0.115  1.00  0.00    -0.337 N 
ATOM     17  C   UNL     1      -0.482   1.170  -0.437  1.00  0.00     0.268 C 
ATOM     18  C   UNL     1      -0.590  -1.238  -0.321  1.00  0.00     0.268 C 
ATOM     19  H   UNL     1      -1.154   0.064   1.132  1.00  0.00     0.347 HD
ATOM     20  C   UNL     1       0.962   1.182   0.065  1.00  0.00     0.126 C 
ATOM     21  C   UNL     1       0.849  -1.338   0.190  1.00  0.00     0.126 C 
ENDBRANCH   8  14
BRANCH   7  22
ATOM     22  O   UNL     1       6.987  -0.803   1.912  1.00  0.00    -0.477 OA
BRANCH  22  23
ATOM     23  C   UNL     1       7.696   0.278   1.484  1.00  0.00     0.121 A 
ATOM     24  C   UNL     1       7.481   1.558   1.981  1.00  0.00     0.047 A 
ATOM     25  C   UNL     1       8.788   0.032   0.652  1.00  0.00     0.055 A 
ATOM     26  C   UNL     1       8.287   2.617   1.562  1.00  0.00     0.012 A 
ATOM     27  C   UNL     1       9.633   1.079   0.249  1.00  0.00    -0.015 A 
ATOM     28  C   UNL     1       9.364   2.394   0.693  1.00  0.00    -0.018 A 
ATOM     29  C   UNL     1      10.747   0.850  -0.574  1.00  0.00     0.009 A 
ATOM     30  C   UNL     1      10.193   3.447   0.277  1.00  0.00     0.009 A 
ATOM     31  C   UNL     1      11.571   1.905  -0.968  1.00  0.00     0.001 A 
ATOM     32  C   UNL     1      11.290   3.203  -0.550  1.00  0.00     0.001 A 
ENDBRANCH  22  23
ENDBRANCH   7  22
ENDBRANCH   4   7
ENDBRANCH   2   3
ENDBRANCH   1   2
BRANCH   1  33
ATOM     33  C   UNL     1       4.074  -2.250   6.329  1.00  0.00     0.118 C 
BRANCH  33  34
ATOM     34  N   UNL     1       4.949  -2.932   7.269  1.00  0.00    -0.352 N 
ATOM     35  C   UNL     1       4.890  -3.025   8.636  1.00  0.00     0.251 C 
ATOM     36  H   UNL     1       5.707  -3.405   6.857  1.00  0.00     0.163 HD
ATOM     37  O   UNL     1       5.842  -3.507   9.248  1.00  0.00    -0.269 OA
BRANCH  35  38
ATOM     38  C   UNL     1       3.713  -2.540   9.392  1.00  0.00     0.039 A 
ATOM     39  C   UNL     1       3.927  -1.885  10.609  1.00  0.00     0.014 A 
ATOM     40  C   UNL     1       2.408  -2.768   8.948  1.00  0.00     0.014 A 
ATOM     41  C   UNL     1       2.841  -1.409  11.349  1.00  0.00     0.010 A 
ATOM     42  C   UNL     1       1.328  -2.232   9.649  1.00  0.00     0.010 A 
ATOM     43  C   UNL     1       1.533  -1.552  10.859  1.00  0.00    -0.014 A 
BRANCH  43  44
ATOM     44  C   UNL     1       0.373  -0.996  11.602  1.00  0.00     0.031 A 
ATOM     45  C   UNL     1      -0.669  -1.909  12.182  1.00  0.00     0.074 A 
ATOM     46  C   UNL     1       0.227   0.340  11.701  1.00  0.00     0.049 A 
ATOM     47  N   UNL     1      -1.779  -1.608  12.809  1.00  0.00    -0.248 NA
ATOM     48  C   UNL     1      -0.449  -3.354  12.015  1.00  0.00     0.031 C 
ATOM     49  C   UNL     1       1.141   1.334  11.137  1.00  0.00     0.029 A 
ATOM     50  N   UNL     1      -0.752   1.091  12.301  1.00  0.00    -0.354 N 
ATOM     51  C   UNL     1      -2.396  -2.819  13.091  1.00  0.00     0.074 A 
ATOM     52  C   UNL     1      -1.560  -3.859  12.532  1.00  0.00     0.031 C 
ATOM     53  C   UNL     1       0.690   2.563  11.431  1.00  0.00     0.029 A 
ATOM     54  C   UNL     1      -0.560   2.445  12.177  1.00  0.00     0.049 A 
ATOM     55  H   UNL     1      -1.519   0.697  12.776  1.00  0.00     0.167 HD
ATOM     56  C   UNL     1      -3.546  -3.044  13.772  1.00  0.00     0.037 A 
ATOM     57  C   UNL     1      -1.310   3.476  12.610  1.00  0.00     0.037 A 
ATOM     58  C   UNL     1      -4.359  -2.011  14.358  1.00  0.00     0.049 A 
ATOM     59  C   UNL     1      -2.570   3.198  13.382  1.00  0.00     0.074 A 
ATOM     60  C   UNL     1      -5.500  -2.145  15.130  1.00  0.00     0.029 A 
ATOM     61  N   UNL     1      -4.116  -0.651  14.236  1.00  0.00    -0.354 N 
ATOM     62  N   UNL     1      -3.106   2.047  13.703  1.00  0.00    -0.248 NA
ATOM     63  C   UNL     1      -3.326   4.366  13.857  1.00  0.00     0.031 C 
ATOM     64  C   UNL     1      -5.970  -0.864  15.444  1.00  0.00     0.029 A 
ATOM     65  C   UNL     1      -5.098   0.066  14.902  1.00  0.00     0.049 A 
ATOM     66  H   UNL     1      -3.359  -0.254  13.748  1.00  0.00     0.167 HD
ATOM     67  C   UNL     1      -4.246   2.347  14.435  1.00  0.00     0.074 A 
ATOM     68  C   UNL     1      -4.317   3.791  14.524  1.00  0.00     0.031 C 
ATOM     69  C   UNL     1      -5.154   1.503  14.982  1.00  0.00     0.037 A 
BRANCH  56  70
ATOM     70  C   UNL     1      -3.992  -4.469  13.925  1.00  0.00     0.064 A 
ATOM     71  C   UNL     1      -3.320  -5.363  14.771  1.00  0.00     0.173 A 
ATOM     72  C   UNL     1      -5.128  -4.935  13.246  1.00  0.00     0.173 A 
ATOM     73  F   UNL     1      -2.222  -4.969  15.434  1.00  0.00    -0.203 F 
ATOM     74  C   UNL     1      -3.752  -6.679  14.911  1.00  0.00     0.198 A 
ATOM     75  C   UNL     1      -5.573  -6.245  13.409  1.00  0.00     0.198 A 
ATOM     76  F   UNL     1      -5.811  -4.119  12.430  1.00  0.00    -0.203 F 
ATOM     77  F   UNL     1      -3.067  -7.528  15.690  1.00  0.00    -0.200 F 
ATOM     78  C   UNL     1      -4.881  -7.117  14.235  1.00  0.00     0.200 A 
ATOM     79  F   UNL     1      -6.671  -6.663  12.765  1.00  0.00    -0.200 F 
ATOM     80  F   UNL     1      -5.298  -8.383  14.375  1.00  0.00    -0.200 F 
ENDBRANCH  56  70
BRANCH  57  81
ATOM     81  C   UNL     1      -0.871   4.869  12.345  1.00  0.00     0.064 A 
ATOM     82  C   UNL     1      -0.384   5.678  13.382  1.00  0.00     0.173 A 
ATOM     83  C   UNL     1      -0.922   5.418  11.056  1.00  0.00     0.173 A 
ATOM     84  F   UNL     1      -0.336   5.202  14.635  1.00  0.00    -0.203 F 
ATOM     85  C   UNL     1       0.020   6.989  13.142  1.00  0.00     0.198 A 
ATOM     86  C   UNL     1      -0.494   6.721  10.813  1.00  0.00     0.198 A 
ATOM     87  F   UNL     1      -1.375   4.682  10.031  1.00  0.00    -0.203 F 
ATOM     88  F   UNL     1       0.445   7.753  14.157  1.00  0.00    -0.200 F 
ATOM     89  C   UNL     1      -0.030   7.508  11.857  1.00  0.00     0.200 A 
ATOM     90  F   UNL     1      -0.532   7.215   9.568  1.00  0.00    -0.200 F 
ATOM     91  F   UNL     1       0.363   8.767  11.625  1.00  0.00    -0.200 F 
ENDBRANCH  57  81
BRANCH  69  92
ATOM     92  C   UNL     1      -6.288   2.119  15.745  1.00  0.00     0.064 A 
ATOM     93  C   UNL     1      -7.340   2.776  15.091  1.00  0.00     0.173 A 
ATOM     94  C   UNL     1      -6.338   2.025  17.144  1.00  0.00     0.173 A 
ATOM     95  F   UNL     1      -7.329   2.906  13.756  1.00  0.00    -0.203 F 
ATOM     96  C   UNL     1      -8.390   3.337  15.813  1.00  0.00     0.198 A 
ATOM     97  C   UNL     1      -7.403   2.565  17.860  1.00  0.00     0.198 A 
ATOM     98  F   UNL     1      -5.358   1.403  17.816  1.00  0.00    -0.203 F 
ATOM     99  F   UNL     1      -9.363   4.000  15.171  1.00  0.00    -0.200 F 
ATOM    100  C   UNL     1      -8.424   3.226  17.195  1.00  0.00     0.200 A 
ATOM    101  F   UNL     1      -7.439   2.449  19.195  1.00  0.00    -0.200 F 
ATOM    102  F   UNL     1      -9.437   3.765  17.887  1.00  0.00    -0.200 F 
ENDBRANCH  69  92
ENDBRANCH  43  44
ENDBRANCH  35  38
ENDBRANCH  33  34
ENDBRANCH   1  33
TORSDOF 13
