REMARK SMILES Cc1cc(Br)c(C)c([C@@H]2[NH2+][C@H](C(=O)NCCCNC(=O)c3ccc(-c4c5nc(c(-c6c(F)c(F)c(F)c(F)c6F)c6ccc([nH]6)c(-c6c(F)c(F)c(F)c(F)c6F)c6nc(c(-c7c(F)c(F)c(F)c(F)c7F)c7ccc4[nH]7)C=C6)C=C5)cc3)CS2)c1O
REMARK SMILES IDX 16 1 15 2 14 3 12 4 13 5 11 7 9 8 10 9 85 10 84 13 8 14 1 15
REMARK SMILES IDX 2 16 3 17 86 18 4 19 5 20 6 21 7 22 87 23 17 25 18 26 19 27
REMARK SMILES IDX 20 29 21 30 22 31 83 32 23 33 82 34 24 35 25 36 26 37 76 38
REMARK SMILES IDX 27 39 81 40 75 41 77 42 28 43 80 44 74 45 73 46 29 48 61 49
REMARK SMILES IDX 41 50 60 51 42 52 45 53 59 54 78 55 43 56 44 57 58 59 79 60
REMARK SMILES IDX 46 61 30 62 31 63 39 64 32 65 33 66 37 67 40 68 34 69 35 70
REMARK SMILES IDX 38 71 36 72 62 73 63 74 71 75 64 76 65 77 69 78 72 79 66 80
REMARK SMILES IDX 67 81 70 82 68 83 47 84 48 85 56 86 49 87 50 88 54 89 57 90
REMARK SMILES IDX 51 91 52 92 55 93 53 94
REMARK H PARENT 14 6 10 11 10 12 87 24 18 28 77 47 45 58
REMARK Flexibility Score: inf
ROOT
ATOM      1  C   UNL     1       3.388   2.211  -1.359  1.00  0.00     0.042 C 
ENDROOT
BRANCH   1   2
ATOM      2  C   UNL     1       3.557   2.397   0.143  1.00  0.00     0.118 C 
BRANCH   2   3
ATOM      3  N   UNL     1       4.526   3.416   0.482  1.00  0.00    -0.351 N 
ATOM      4  C   UNL     1       4.308   4.726   0.808  1.00  0.00     0.279 C 
ATOM      5  O   UNL     1       5.295   5.391   1.141  1.00  0.00    -0.268 OA
ATOM      6  H   UNL     1       5.467   3.128   0.476  1.00  0.00     0.163 HD
BRANCH   4   7
ATOM      7  C   UNL     1       2.899   5.357   0.841  1.00  0.00     0.283 C 
ATOM      8  C   UNL     1       0.663   4.958  -0.015  1.00  0.00     0.278 C 
ATOM      9  N   UNL     1       2.097   4.989  -0.348  1.00  0.00    -0.320 N 
ATOM     10  S   UNL     1       0.445   5.346   1.736  1.00  0.00    -0.087 SA
ATOM     11  H   UNL     1       2.255   5.677  -1.085  1.00  0.00     0.348 HD
ATOM     12  H   UNL     1       2.382   4.062  -0.664  1.00  0.00     0.348 HD
ATOM     13  C   UNL     1       2.172   5.002   2.129  1.00  0.00     0.151 C 
BRANCH   8  14
ATOM     14  C   UNL     1       0.043   3.668  -0.580  1.00  0.00     0.066 A 
ATOM     15  C   UNL     1      -0.022  -0.105   0.247  1.00  0.00     0.048 C 
ATOM     16  C   UNL     1      -0.253   1.206  -0.455  1.00  0.00    -0.008 A 
ATOM     17  C   UNL     1      -0.690   1.194  -1.777  1.00  0.00     0.023 A 
ATOM     18  C   UNL     1       0.052   2.442   0.142  1.00  0.00     0.128 A 
ATOM     19  C   UNL     1      -0.784   2.382  -2.504  1.00  0.00     0.021 A 
ATOM     20  Br  UNL     1      -1.416   2.210  -4.296  1.00  0.00    -0.051 Br
ATOM     21  C   UNL     1      -0.390   3.622  -1.946  1.00  0.00    -0.023 A 
ATOM     22  C   UNL     1      -0.455   4.854  -2.822  1.00  0.00     0.046 C 
BRANCH  18  23
ATOM     23  O   UNL     1       0.457   2.436   1.451  1.00  0.00    -0.507 OA
ATOM     24  H   UNL     1       0.467   1.634   1.935  1.00  0.00     0.293 HD
ENDBRANCH  18  23
ENDBRANCH   8  14
ENDBRANCH   4   7
ENDBRANCH   2   3
ENDBRANCH   1   2
BRANCH   1  25
ATOM     25  C   UNL     1       4.147   1.007  -1.895  1.00  0.00     0.118 C 
BRANCH  25  26
ATOM     26  N   UNL     1       3.621  -0.265  -1.397  1.00  0.00    -0.352 N 
ATOM     27  C   UNL     1       3.026  -1.323  -2.048  1.00  0.00     0.251 C 
ATOM     28  H   UNL     1       3.709  -0.386  -0.424  1.00  0.00     0.163 HD
ATOM     29  O   UNL     1       2.480  -2.202  -1.398  1.00  0.00    -0.269 OA
BRANCH  27  30
ATOM     30  C   UNL     1       3.017  -1.385  -3.528  1.00  0.00     0.039 A 
ATOM     31  C   UNL     1       4.103  -0.927  -4.266  1.00  0.00     0.014 A 
ATOM     32  C   UNL     1       1.902  -1.912  -4.190  1.00  0.00     0.014 A 
ATOM     33  C   UNL     1       3.984  -0.768  -5.638  1.00  0.00     0.010 A 
ATOM     34  C   UNL     1       1.840  -1.877  -5.588  1.00  0.00     0.010 A 
ATOM     35  C   UNL     1       2.856  -1.246  -6.322  1.00  0.00    -0.014 A 
BRANCH  35  36
ATOM     36  C   UNL     1       2.782  -1.062  -7.795  1.00  0.00     0.031 A 
ATOM     37  C   UNL     1       1.689  -0.234  -8.417  1.00  0.00     0.074 A 
ATOM     38  C   UNL     1       3.771  -1.562  -8.564  1.00  0.00     0.049 A 
ATOM     39  N   UNL     1       1.502   0.070  -9.678  1.00  0.00    -0.248 NA
ATOM     40  C   UNL     1       0.670   0.323  -7.514  1.00  0.00     0.031 C 
ATOM     41  C   UNL     1       4.892  -2.365  -8.069  1.00  0.00     0.029 A 
ATOM     42  N   UNL     1       4.024  -1.434  -9.905  1.00  0.00    -0.354 N 
ATOM     43  C   UNL     1       0.340   0.830  -9.719  1.00  0.00     0.074 A 
ATOM     44  C   UNL     1      -0.155   0.919  -8.363  1.00  0.00     0.031 C 
ATOM     45  C   UNL     1       5.756  -2.580  -9.070  1.00  0.00     0.029 A 
ATOM     46  C   UNL     1       5.208  -2.012 -10.296  1.00  0.00     0.049 A 
ATOM     47  H   UNL     1       3.417  -0.973 -10.528  1.00  0.00     0.167 HD
ATOM     48  C   UNL     1      -0.250   1.411 -10.791  1.00  0.00     0.037 A 
ATOM     49  C   UNL     1       5.785  -2.092 -11.509  1.00  0.00     0.037 A 
ATOM     50  C   UNL     1       0.268   1.346 -12.134  1.00  0.00     0.049 A 
ATOM     51  C   UNL     1       5.087  -1.474 -12.685  1.00  0.00     0.074 A 
ATOM     52  C   UNL     1      -0.252   1.908 -13.286  1.00  0.00     0.029 A 
ATOM     53  N   UNL     1       1.430   0.683 -12.502  1.00  0.00    -0.354 N 
ATOM     54  N   UNL     1       3.979  -0.774 -12.712  1.00  0.00    -0.248 NA
ATOM     55  C   UNL     1       5.706  -1.673 -14.002  1.00  0.00     0.031 C 
ATOM     56  C   UNL     1       0.570   1.549 -14.358  1.00  0.00     0.029 A 
ATOM     57  C   UNL     1       1.631   0.805 -13.868  1.00  0.00     0.049 A 
ATOM     58  H   UNL     1       2.023   0.197 -11.885  1.00  0.00     0.167 HD
ATOM     59  C   UNL     1       3.770  -0.444 -14.042  1.00  0.00     0.074 A 
ATOM     60  C   UNL     1       4.881  -0.996 -14.789  1.00  0.00     0.031 C 
ATOM     61  C   UNL     1       2.743   0.246 -14.595  1.00  0.00     0.037 A 
BRANCH  48  62
ATOM     62  C   UNL     1      -1.530   2.165 -10.568  1.00  0.00     0.064 A 
ATOM     63  C   UNL     1      -1.551   3.408  -9.918  1.00  0.00     0.173 A 
ATOM     64  C   UNL     1      -2.742   1.669 -11.073  1.00  0.00     0.173 A 
ATOM     65  F   UNL     1      -0.422   3.921  -9.407  1.00  0.00    -0.203 F 
ATOM     66  C   UNL     1      -2.740   4.120  -9.771  1.00  0.00     0.198 A 
ATOM     67  C   UNL     1      -3.923   2.397 -10.950  1.00  0.00     0.198 A 
ATOM     68  F   UNL     1      -2.777   0.488 -11.710  1.00  0.00    -0.203 F 
ATOM     69  F   UNL     1      -2.740   5.291  -9.120  1.00  0.00    -0.200 F 
ATOM     70  C   UNL     1      -3.922   3.619 -10.296  1.00  0.00     0.200 A 
ATOM     71  F   UNL     1      -5.062   1.918 -11.471  1.00  0.00    -0.200 F 
ATOM     72  F   UNL     1      -5.060   4.315 -10.170  1.00  0.00    -0.200 F 
ENDBRANCH  48  62
BRANCH  49  73
ATOM     73  C   UNL     1       7.088  -2.791 -11.660  1.00  0.00     0.064 A 
ATOM     74  C   UNL     1       8.254  -2.085 -11.987  1.00  0.00     0.173 A 
ATOM     75  C   UNL     1       7.203  -4.173 -11.441  1.00  0.00     0.173 A 
ATOM     76  F   UNL     1       8.194  -0.767 -12.225  1.00  0.00    -0.203 F 
ATOM     77  C   UNL     1       9.483  -2.735 -12.090  1.00  0.00     0.198 A 
ATOM     78  C   UNL     1       8.436  -4.815 -11.512  1.00  0.00     0.198 A 
ATOM     79  F   UNL     1       6.118  -4.895 -11.122  1.00  0.00    -0.203 F 
ATOM     80  F   UNL     1      10.577  -2.042 -12.432  1.00  0.00    -0.200 F 
ATOM     81  C   UNL     1       9.575  -4.096 -11.841  1.00  0.00     0.200 A 
ATOM     82  F   UNL     1       8.523  -6.126 -11.249  1.00  0.00    -0.200 F 
ATOM     83  F   UNL     1      10.760  -4.715 -11.920  1.00  0.00    -0.200 F 
ENDBRANCH  49  73
BRANCH  61  84
ATOM     84  C   UNL     1       2.774   0.451 -16.080  1.00  0.00     0.064 A 
ATOM     85  C   UNL     1       2.516  -0.604 -16.968  1.00  0.00     0.173 A 
ATOM     86  C   UNL     1       3.006   1.725 -16.619  1.00  0.00     0.173 A 
ATOM     87  F   UNL     1       2.305  -1.844 -16.501  1.00  0.00    -0.203 F 
ATOM     88  C   UNL     1       2.506  -0.393 -18.344  1.00  0.00     0.198 A 
ATOM     89  C   UNL     1       2.965   1.938 -17.994  1.00  0.00     0.198 A 
ATOM     90  F   UNL     1       3.250   2.767 -15.811  1.00  0.00    -0.203 F 
ATOM     91  F   UNL     1       2.297  -1.423 -19.176  1.00  0.00    -0.200 F 
ATOM     92  C   UNL     1       2.721   0.878 -18.855  1.00  0.00     0.200 A 
ATOM     93  F   UNL     1       3.159   3.169 -18.486  1.00  0.00    -0.200 F 
ATOM     94  F   UNL     1       2.697   1.082 -20.179  1.00  0.00    -0.200 F 
ENDBRANCH  61  84
ENDBRANCH  35  36
ENDBRANCH  27  30
ENDBRANCH  25  26
ENDBRANCH   1  25
TORSDOF 12
