REMARK SMILES C[C@H](O)[C@@H](NS(=O)(=O)c1ccc(F)cc1)C(=O)NCCCNC(=O)c1ccc(-c2c3nc(c(-c4c(F)c(F)c(F)c(F)c4F)c4ccc([nH]4)c(-c4c(F)c(F)c(F)c(F)c4F)c4nc(c(-c5c(F)c(F)c(F)c(F)c5F)c5ccc2[nH]5)C=C4)C=C3)cc1
REMARK SMILES IDX 19 1 18 2 16 3 17 4 4 6 2 7 1 8 3 9 5 11 6 13 7 14 8 15 9 16
REMARK SMILES IDX 10 17 15 18 11 19 14 20 12 21 13 22 20 23 21 24 22 25 23 26
REMARK SMILES IDX 24 28 25 29 26 30 87 31 27 32 86 33 28 34 29 35 30 36 80 37
REMARK SMILES IDX 31 38 85 39 79 40 81 41 32 42 84 43 78 44 77 45 33 47 65 48
REMARK SMILES IDX 45 49 64 50 46 51 49 52 63 53 82 54 47 55 48 56 62 58 83 59
REMARK SMILES IDX 50 60 34 61 35 62 43 63 36 64 37 65 41 66 44 67 38 68 39 69
REMARK SMILES IDX 42 70 40 71 66 72 67 73 75 74 68 75 69 76 73 77 76 78 70 79
REMARK SMILES IDX 71 80 74 81 72 82 51 83 52 84 60 85 53 86 54 87 58 88 61 89
REMARK SMILES IDX 55 90 56 91 59 92 57 93
REMARK H PARENT 18 5 3 10 5 12 22 27 81 46 49 57
REMARK Flexibility Score: inf
ROOT
ATOM      1  C   UNL     1      -0.400   3.097   2.600  1.00  0.00     0.117 C 
ENDROOT
BRANCH   1   2
ATOM      2  N   UNL     1      -0.644   3.668   1.287  1.00  0.00    -0.355 N 
ATOM      3  C   UNL     1      -0.914   3.064   0.095  1.00  0.00     0.240 C 
ATOM      4  O   UNL     1      -1.085   3.799  -0.881  1.00  0.00    -0.273 OA
ATOM      5  H   UNL     1      -0.609   4.652   1.252  1.00  0.00     0.163 HD
BRANCH   3   6
ATOM      6  C   UNL     1      -0.976   1.545  -0.038  1.00  0.00     0.187 C 
BRANCH   6   7
ATOM      7  C   UNL     1       0.448   0.938   0.016  1.00  0.00     0.139 C 
ATOM      8  C   UNL     1       1.397   1.582  -0.995  1.00  0.00     0.040 C 
BRANCH   7   9
ATOM      9  O   UNL     1       0.412  -0.460  -0.302  1.00  0.00    -0.391 OA
ATOM     10  H   UNL     1       0.089  -0.577  -1.209  1.00  0.00     0.211 HD
ENDBRANCH   7   9
ENDBRANCH   6   7
BRANCH   6  11
ATOM     11  N   UNL     1      -1.862   0.952   1.008  1.00  0.00    -0.196 NA
ATOM     12  H   UNL     1      -1.748   1.518   1.849  1.00  0.00     0.142 HD
BRANCH  11  13
ATOM     13  S   UNL     1      -3.517   0.832   0.719  1.00  0.00     0.241 S 
ATOM     14  O   UNL     1      -3.753   0.834  -0.706  1.00  0.00    -0.207 OA
ATOM     15  O   UNL     1      -3.931  -0.273   1.554  1.00  0.00    -0.207 OA
BRANCH  13  16
ATOM     16  C   UNL     1      -4.229   2.310   1.406  1.00  0.00     0.082 A 
ATOM     17  C   UNL     1      -5.060   2.227   2.532  1.00  0.00     0.025 A 
ATOM     18  C   UNL     1      -4.059   3.535   0.752  1.00  0.00     0.025 A 
ATOM     19  C   UNL     1      -5.681   3.380   3.022  1.00  0.00     0.040 A 
ATOM     20  C   UNL     1      -4.649   4.690   1.269  1.00  0.00     0.040 A 
ATOM     21  C   UNL     1      -5.457   4.602   2.396  1.00  0.00     0.123 A 
ATOM     22  F   UNL     1      -6.047   5.706   2.872  1.00  0.00    -0.207 F 
ENDBRANCH  13  16
ENDBRANCH  11  13
ENDBRANCH   6  11
ENDBRANCH   3   6
ENDBRANCH   1   2
BRANCH   1  23
ATOM     23  C   UNL     1       0.904   3.610   3.196  1.00  0.00     0.042 C 
BRANCH  23  24
ATOM     24  C   UNL     1       0.852   5.076   3.602  1.00  0.00     0.118 C 
BRANCH  24  25
ATOM     25  N   UNL     1       0.030   5.303   4.781  1.00  0.00    -0.352 N 
ATOM     26  C   UNL     1       0.316   6.066   5.889  1.00  0.00     0.251 C 
ATOM     27  H   UNL     1      -0.845   4.852   4.787  1.00  0.00     0.163 HD
ATOM     28  O   UNL     1      -0.418   6.035   6.870  1.00  0.00    -0.269 OA
BRANCH  26  29
ATOM     29  C   UNL     1       1.538   6.897   5.902  1.00  0.00     0.039 A 
ATOM     30  C   UNL     1       2.385   6.835   7.010  1.00  0.00     0.014 A 
ATOM     31  C   UNL     1       1.858   7.709   4.810  1.00  0.00     0.014 A 
ATOM     32  C   UNL     1       3.592   7.536   6.995  1.00  0.00     0.010 A 
ATOM     33  C   UNL     1       3.091   8.352   4.767  1.00  0.00     0.010 A 
ATOM     34  C   UNL     1       3.970   8.270   5.858  1.00  0.00    -0.014 A 
BRANCH  34  35
ATOM     35  C   UNL     1       5.280   8.962   5.790  1.00  0.00     0.031 A 
ATOM     36  C   UNL     1       5.335  10.460   5.710  1.00  0.00     0.074 A 
ATOM     37  C   UNL     1       6.415   8.239   5.734  1.00  0.00     0.049 A 
ATOM     38  N   UNL     1       6.374  11.243   5.559  1.00  0.00    -0.248 NA
ATOM     39  C   UNL     1       4.051  11.175   5.782  1.00  0.00     0.031 C 
ATOM     40  C   UNL     1       6.488   6.777   5.760  1.00  0.00     0.029 A 
ATOM     41  N   UNL     1       7.725   8.635   5.636  1.00  0.00    -0.354 N 
ATOM     42  C   UNL     1       5.867  12.533   5.500  1.00  0.00     0.074 A 
ATOM     43  C   UNL     1       4.427  12.430   5.587  1.00  0.00     0.031 C 
ATOM     44  C   UNL     1       7.776   6.401   5.708  1.00  0.00     0.029 A 
ATOM     45  C   UNL     1       8.617   7.591   5.610  1.00  0.00     0.049 A 
ATOM     46  H   UNL     1       8.000   9.579   5.589  1.00  0.00     0.167 HD
ATOM     47  C   UNL     1       6.545  13.701   5.407  1.00  0.00     0.037 A 
ATOM     48  C   UNL     1       9.960   7.593   5.516  1.00  0.00     0.037 A 
ATOM     49  C   UNL     1       7.979  13.804   5.363  1.00  0.00     0.049 A 
ATOM     50  C   UNL     1      10.690   8.904   5.426  1.00  0.00     0.074 A 
ATOM     51  C   UNL     1       8.760  14.946   5.328  1.00  0.00     0.029 A 
ATOM     52  N   UNL     1       8.848  12.723   5.355  1.00  0.00    -0.354 N 
ATOM     53  N   UNL     1      10.203  10.120   5.415  1.00  0.00    -0.248 NA
ATOM     54  C   UNL     1      12.156   8.844   5.335  1.00  0.00     0.031 C 
ATOM     55  C   UNL     1      10.101  14.556   5.267  1.00  0.00     0.029 A 
ATOM     56  C   UNL     1      10.157  13.172   5.303  1.00  0.00     0.049 A 
ATOM     57  H   UNL     1       8.575  11.778   5.382  1.00  0.00     0.167 HD
ATOM     58  C   UNL     1      11.297  10.969   5.337  1.00  0.00     0.074 A 
ATOM     59  C   UNL     1      12.478  10.131   5.314  1.00  0.00     0.031 C 
ATOM     60  C   UNL     1      11.320  12.323   5.288  1.00  0.00     0.037 A 
BRANCH  47  61
ATOM     61  C   UNL     1       5.746  14.968   5.367  1.00  0.00     0.064 A 
ATOM     62  C   UNL     1       5.674  15.728   4.190  1.00  0.00     0.173 A 
ATOM     63  C   UNL     1       5.099  15.460   6.509  1.00  0.00     0.173 A 
ATOM     64  F   UNL     1       6.279  15.302   3.071  1.00  0.00    -0.203 F 
ATOM     65  C   UNL     1       4.989  16.940   4.162  1.00  0.00     0.198 A 
ATOM     66  C   UNL     1       4.393  16.660   6.471  1.00  0.00     0.198 A 
ATOM     67  F   UNL     1       5.128  14.763   7.655  1.00  0.00    -0.203 F 
ATOM     68  F   UNL     1       4.953  17.662   3.034  1.00  0.00    -0.200 F 
ATOM     69  C   UNL     1       4.346  17.402   5.301  1.00  0.00     0.200 A 
ATOM     70  F   UNL     1       3.753  17.093   7.566  1.00  0.00    -0.200 F 
ATOM     71  F   UNL     1       3.677  18.563   5.269  1.00  0.00    -0.200 F 
ENDBRANCH  47  61
BRANCH  48  72
ATOM     72  C   UNL     1      10.699   6.306   5.545  1.00  0.00     0.064 A 
ATOM     73  C   UNL     1      10.667   5.418   4.461  1.00  0.00     0.173 A 
ATOM     74  C   UNL     1      11.431   5.928   6.679  1.00  0.00     0.173 A 
ATOM     75  F   UNL     1       9.976   5.732   3.356  1.00  0.00    -0.203 F 
ATOM     76  C   UNL     1      11.327   4.192   4.517  1.00  0.00     0.198 A 
ATOM     77  C   UNL     1      12.108   4.712   6.726  1.00  0.00     0.198 A 
ATOM     78  F   UNL     1      11.505   6.754   7.733  1.00  0.00    -0.203 F 
ATOM     79  F   UNL     1      11.257   3.348   3.479  1.00  0.00    -0.200 F 
ATOM     80  C   UNL     1      12.050   3.842   5.647  1.00  0.00     0.200 A 
ATOM     81  F   UNL     1      12.821   4.386   7.812  1.00  0.00    -0.200 F 
ATOM     82  F   UNL     1      12.691   2.666   5.697  1.00  0.00    -0.200 F 
ENDBRANCH  48  72
BRANCH  60  83
ATOM     83  C   UNL     1      12.659  12.993   5.224  1.00  0.00     0.064 A 
ATOM     84  C   UNL     1      13.160  13.686   6.336  1.00  0.00     0.173 A 
ATOM     85  C   UNL     1      13.405  13.019   4.038  1.00  0.00     0.173 A 
ATOM     86  F   UNL     1      12.477  13.694   7.491  1.00  0.00    -0.203 F 
ATOM     87  C   UNL     1      14.354  14.395   6.258  1.00  0.00     0.198 A 
ATOM     88  C   UNL     1      14.611  13.711   3.970  1.00  0.00     0.198 A 
ATOM     89  F   UNL     1      12.971  12.361   2.953  1.00  0.00    -0.203 F 
ATOM     90  F   UNL     1      14.799  15.076   7.323  1.00  0.00    -0.200 F 
ATOM     91  C   UNL     1      15.079  14.406   5.075  1.00  0.00     0.200 A 
ATOM     92  F   UNL     1      15.321  13.705   2.833  1.00  0.00    -0.200 F 
ATOM     93  F   UNL     1      16.232  15.085   5.002  1.00  0.00    -0.200 F 
ENDBRANCH  60  83
ENDBRANCH  34  35
ENDBRANCH  26  29
ENDBRANCH  24  25
ENDBRANCH  23  24
ENDBRANCH   1  23
TORSDOF 15
