REMARK SMILES Cc1cc(Cl)ccc1Oc1cc(C)c(N)c(C(=O)NCCCNC(=O)c2ccc(-c3c4nc(c(-c5c(F)c(F)c(F)c(F)c5F)c5ccc([nH]5)c(-c5c(F)c(F)c(F)c(F)c5F)c5nc(c(-c6c(F)c(F)c(F)c(F)c6F)c6ccc3[nH]6)C=C5)C=C4)cc2)c1
REMARK SMILES IDX 21 1 20 2 19 3 17 4 18 5 16 7 10 8 11 9 89 10 12 11 13 12
REMARK SMILES IDX 14 13 9 14 8 15 1 16 2 17 3 18 4 19 7 20 5 21 6 22 15 23
REMARK SMILES IDX 22 26 23 27 24 28 25 30 26 31 27 32 88 33 28 34 87 35 29 36
REMARK SMILES IDX 30 37 31 38 81 39 32 40 86 41 80 42 82 43 33 44 85 45 79 46
REMARK SMILES IDX 78 47 34 49 66 50 46 51 65 52 47 53 50 54 64 55 83 56 48 57
REMARK SMILES IDX 49 58 63 60 84 61 51 62 35 63 36 64 44 65 37 66 38 67 42 68
REMARK SMILES IDX 45 69 39 70 40 71 43 72 41 73 67 74 68 75 76 76 69 77 70 78
REMARK SMILES IDX 74 79 77 80 71 81 72 82 75 83 73 84 52 85 53 86 61 87 54 88
REMARK SMILES IDX 55 89 59 90 62 91 56 92 57 93 60 94 58 95
REMARK H PARENT 19 6 15 24 15 25 23 29 82 48 50 59
REMARK Flexibility Score: inf
ROOT
ATOM      1  C   UNL     1      -5.534  -1.469   4.242  1.00  0.00     0.042 C 
ENDROOT
BRANCH   1   2
ATOM      2  C   UNL     1      -6.658  -1.466   3.202  1.00  0.00     0.118 C 
BRANCH   2   3
ATOM      3  N   UNL     1      -7.246  -0.144   3.080  1.00  0.00    -0.352 N 
ATOM      4  C   UNL     1      -7.106   0.885   2.181  1.00  0.00     0.253 C 
ATOM      5  O   UNL     1      -7.784   1.890   2.411  1.00  0.00    -0.269 OA
ATOM      6  H   UNL     1      -7.887   0.059   3.800  1.00  0.00     0.163 HD
BRANCH   4   7
ATOM      7  C   UNL     1      -6.226   0.838   0.965  1.00  0.00     0.066 A 
ATOM      8  C   UNL     1      -4.306  -0.024  -0.237  1.00  0.00     0.128 A 
ATOM      9  C   UNL     1      -4.653   0.700  -1.369  1.00  0.00     0.052 A 
ATOM     10  C   UNL     1      -5.079   0.042   0.919  1.00  0.00     0.063 A 
ATOM     11  C   UNL     1      -5.731   1.593  -1.320  1.00  0.00    -0.024 A 
ATOM     12  C   UNL     1      -5.978   2.489  -2.505  1.00  0.00     0.047 C 
ATOM     13  C   UNL     1      -6.527   1.674  -0.150  1.00  0.00     0.048 A 
BRANCH   8  14
ATOM     14  O   UNL     1      -3.269  -0.910  -0.266  1.00  0.00    -0.457 OA
BRANCH  14  15
ATOM     15  C   UNL     1      -1.962  -0.495  -0.127  1.00  0.00     0.130 A 
ATOM     16  C   UNL     1      -2.237   2.053   0.266  1.00  0.00     0.048 C 
ATOM     17  C   UNL     1      -1.437   0.789   0.112  1.00  0.00    -0.007 A 
ATOM     18  C   UNL     1      -0.033   0.932   0.191  1.00  0.00     0.027 A 
ATOM     19  C   UNL     1       0.820  -0.164   0.074  1.00  0.00     0.041 A 
ATOM     20  C   UNL     1      -1.080  -1.590  -0.236  1.00  0.00     0.049 A 
ATOM     21  Cl  UNL     1       2.521   0.059   0.189  1.00  0.00    -0.084 Cl
ATOM     22  C   UNL     1       0.301  -1.431  -0.133  1.00  0.00     0.024 A 
ENDBRANCH  14  15
ENDBRANCH   8  14
BRANCH  13  23
ATOM     23  N   UNL     1      -7.656   2.495  -0.150  1.00  0.00    -0.398 N 
ATOM     24  H   UNL     1      -7.849   3.067  -0.928  1.00  0.00     0.156 HD
ATOM     25  H   UNL     1      -8.259   2.503   0.628  1.00  0.00     0.156 HD
ENDBRANCH  13  23
ENDBRANCH   4   7
ENDBRANCH   2   3
ENDBRANCH   1   2
BRANCH   1  26
ATOM     26  C   UNL     1      -6.038  -1.363   5.682  1.00  0.00     0.118 C 
BRANCH  26  27
ATOM     27  N   UNL     1      -6.736  -2.568   6.103  1.00  0.00    -0.352 N 
ATOM     28  C   UNL     1      -6.503  -3.403   7.166  1.00  0.00     0.251 C 
ATOM     29  H   UNL     1      -7.497  -2.826   5.534  1.00  0.00     0.163 HD
ATOM     30  O   UNL     1      -7.068  -4.492   7.210  1.00  0.00    -0.269 OA
BRANCH  28  31
ATOM     31  C   UNL     1      -5.586  -3.013   8.260  1.00  0.00     0.039 A 
ATOM     32  C   UNL     1      -4.772  -3.998   8.831  1.00  0.00     0.014 A 
ATOM     33  C   UNL     1      -5.578  -1.716   8.781  1.00  0.00     0.014 A 
ATOM     34  C   UNL     1      -3.930  -3.677   9.898  1.00  0.00     0.010 A 
ATOM     35  C   UNL     1      -4.692  -1.381   9.805  1.00  0.00     0.010 A 
ATOM     36  C   UNL     1      -3.871  -2.361  10.383  1.00  0.00    -0.014 A 
BRANCH  36  37
ATOM     37  C   UNL     1      -2.970  -2.002  11.507  1.00  0.00     0.031 A 
ATOM     38  C   UNL     1      -3.544  -1.567  12.828  1.00  0.00     0.074 A 
ATOM     39  C   UNL     1      -1.637  -2.020  11.324  1.00  0.00     0.049 A 
ATOM     40  N   UNL     1      -2.924  -1.160  13.908  1.00  0.00    -0.248 NA
ATOM     41  C   UNL     1      -5.010  -1.564  12.941  1.00  0.00     0.031 C 
ATOM     42  C   UNL     1      -0.961  -2.383  10.077  1.00  0.00     0.029 A 
ATOM     43  N   UNL     1      -0.610  -1.717  12.183  1.00  0.00    -0.354 N 
ATOM     44  C   UNL     1      -3.923  -0.837  14.818  1.00  0.00     0.074 A 
ATOM     45  C   UNL     1      -5.188  -1.050  14.149  1.00  0.00     0.031 C 
ATOM     46  C   UNL     1       0.367  -2.301  10.258  1.00  0.00     0.029 A 
ATOM     47  C   UNL     1       0.635  -1.850  11.620  1.00  0.00     0.049 A 
ATOM     48  H   UNL     1      -0.753  -1.432  13.114  1.00  0.00     0.167 HD
ATOM     49  C   UNL     1      -3.795  -0.421  16.101  1.00  0.00     0.037 A 
ATOM     50  C   UNL     1       1.855  -1.629  12.144  1.00  0.00     0.037 A 
ATOM     51  C   UNL     1      -2.534  -0.239  16.772  1.00  0.00     0.049 A 
ATOM     52  C   UNL     1       1.970  -1.181  13.575  1.00  0.00     0.074 A 
ATOM     53  C   UNL     1      -2.299   0.124  18.086  1.00  0.00     0.029 A 
ATOM     54  N   UNL     1      -1.293  -0.410  16.176  1.00  0.00    -0.354 N 
ATOM     55  N   UNL     1       1.020  -0.937  14.445  1.00  0.00    -0.248 NA
ATOM     56  C   UNL     1       3.329  -0.986  14.100  1.00  0.00     0.031 C 
ATOM     57  C   UNL     1      -0.915   0.210  18.276  1.00  0.00     0.029 A 
ATOM     58  C   UNL     1      -0.288  -0.145  17.092  1.00  0.00     0.049 A 
ATOM     59  H   UNL     1      -1.147  -0.680  15.241  1.00  0.00     0.167 HD
ATOM     60  C   UNL     1       1.663  -0.589  15.624  1.00  0.00     0.074 A 
ATOM     61  C   UNL     1       3.085  -0.666  15.363  1.00  0.00     0.031 C 
ATOM     62  C   UNL     1       1.123  -0.236  16.817  1.00  0.00     0.037 A 
BRANCH  49  63
ATOM     63  C   UNL     1      -5.055  -0.136  16.866  1.00  0.00     0.064 A 
ATOM     64  C   UNL     1      -5.921  -1.165  17.267  1.00  0.00     0.173 A 
ATOM     65  C   UNL     1      -5.388   1.178  17.229  1.00  0.00     0.173 A 
ATOM     66  F   UNL     1      -5.655  -2.438  16.936  1.00  0.00    -0.203 F 
ATOM     67  C   UNL     1      -7.088  -0.886  17.975  1.00  0.00     0.198 A 
ATOM     68  C   UNL     1      -6.540   1.450  17.963  1.00  0.00     0.198 A 
ATOM     69  F   UNL     1      -4.592   2.199  16.878  1.00  0.00    -0.203 F 
ATOM     70  F   UNL     1      -7.924  -1.881  18.302  1.00  0.00    -0.200 F 
ATOM     71  C   UNL     1      -7.393   0.419  18.328  1.00  0.00     0.200 A 
ATOM     72  F   UNL     1      -6.827   2.711  18.314  1.00  0.00    -0.200 F 
ATOM     73  F   UNL     1      -8.513   0.685  19.013  1.00  0.00    -0.200 F 
ENDBRANCH  49  63
BRANCH  50  74
ATOM     74  C   UNL     1       3.068  -1.864  11.318  1.00  0.00     0.064 A 
ATOM     75  C   UNL     1       3.917  -2.946  11.584  1.00  0.00     0.173 A 
ATOM     76  C   UNL     1       3.400  -1.019  10.250  1.00  0.00     0.173 A 
ATOM     77  F   UNL     1       3.652  -3.770  12.608  1.00  0.00    -0.203 F 
ATOM     78  C   UNL     1       5.063  -3.165  10.822  1.00  0.00     0.198 A 
ATOM     79  C   UNL     1       4.532  -1.254   9.472  1.00  0.00     0.198 A 
ATOM     80  F   UNL     1       2.615   0.028   9.952  1.00  0.00    -0.203 F 
ATOM     81  F   UNL     1       5.880  -4.184  11.123  1.00  0.00    -0.200 F 
ATOM     82  C   UNL     1       5.366  -2.323   9.764  1.00  0.00     0.200 A 
ATOM     83  F   UNL     1       4.814  -0.446   8.442  1.00  0.00    -0.200 F 
ATOM     84  F   UNL     1       6.466  -2.536   9.028  1.00  0.00    -0.200 F 
ENDBRANCH  50  74
BRANCH  62  85
ATOM     85  C   UNL     1       2.075   0.056  17.940  1.00  0.00     0.064 A 
ATOM     86  C   UNL     1       2.845   1.228  17.966  1.00  0.00     0.173 A 
ATOM     87  C   UNL     1       2.193  -0.833  19.019  1.00  0.00     0.173 A 
ATOM     88  F   UNL     1       2.779   2.102  16.949  1.00  0.00    -0.203 F 
ATOM     89  C   UNL     1       3.717   1.487  19.019  1.00  0.00     0.198 A 
ATOM     90  C   UNL     1       3.045  -0.557  20.084  1.00  0.00     0.198 A 
ATOM     91  F   UNL     1       1.474  -1.965  19.044  1.00  0.00    -0.203 F 
ATOM     92  F   UNL     1       4.479   2.590  19.000  1.00  0.00    -0.200 F 
ATOM     93  C   UNL     1       3.812   0.598  20.080  1.00  0.00     0.200 A 
ATOM     94  F   UNL     1       3.127  -1.411  21.113  1.00  0.00    -0.200 F 
ATOM     95  F   UNL     1       4.649   0.851  21.095  1.00  0.00    -0.200 F 
ENDBRANCH  62  85
ENDBRANCH  36  37
ENDBRANCH  28  31
ENDBRANCH  26  27
ENDBRANCH   1  26
TORSDOF 13
