REMARK SMILES COc1ccc(C(=O)NCCCNC(=O)c2ccc(-c3c4nc(c(-c5c(F)c(F)c(F)c(F)c5F)c5ccc([nH]5)c(-c5c(F)c(F)c(F)c(F)c5F)c5nc(c(-c6c(F)c(F)c(F)c(F)c6F)c6ccc3[nH]6)C=C5)C=C4)cc2)cc1NC(=O)c1cc([N+](=O)[O-])ccc1Cl
REMARK SMILES IDX 10 1 9 2 7 3 8 4 6 6 3 7 4 8 80 9 5 10 79 11 2 12 1 13 81 14
REMARK SMILES IDX 82 15 83 17 84 18 85 19 92 20 86 21 91 22 93 23 90 24 87 25
REMARK SMILES IDX 88 26 89 27 11 28 12 29 13 30 14 31 15 33 16 34 17 35 78 36
REMARK SMILES IDX 18 37 77 38 19 39 20 40 21 41 71 42 22 43 76 44 70 45 72 46
REMARK SMILES IDX 23 47 75 48 69 49 68 50 24 52 56 53 36 54 55 55 37 56 40 57
REMARK SMILES IDX 54 58 73 59 38 60 39 61 53 63 74 64 41 65 25 66 26 67 34 68
REMARK SMILES IDX 27 69 28 70 32 71 35 72 29 73 30 74 33 75 31 76 57 77 58 78
REMARK SMILES IDX 66 79 59 80 60 81 64 82 67 83 61 84 62 85 65 86 63 87 42 88
REMARK SMILES IDX 43 89 51 90 44 91 45 92 49 93 52 94 46 95 47 96 50 97 48 98
REMARK H PARENT 9 5 81 16 13 32 72 51 40 62
REMARK Flexibility Score: inf
ROOT
ATOM      1  C   UNL     1       4.054  -5.072   4.287  1.00  0.00     0.118 C 
ENDROOT
BRANCH   1   2
ATOM      2  N   UNL     1       2.888  -4.909   5.116  1.00  0.00    -0.352 N 
ATOM      3  C   UNL     1       1.769  -4.130   4.994  1.00  0.00     0.251 C 
ATOM      4  O   UNL     1       0.889  -4.305   5.838  1.00  0.00    -0.269 OA
ATOM      5  H   UNL     1       2.897  -5.466   5.927  1.00  0.00     0.163 HD
BRANCH   3   6
ATOM      6  C   UNL     1       1.548  -3.119   3.913  1.00  0.00     0.042 A 
ATOM      7  C   UNL     1       0.903  -1.075   2.094  1.00  0.00     0.142 A 
ATOM      8  C   UNL     1      -0.101  -1.681   2.845  1.00  0.00     0.049 A 
ATOM      9  C   UNL     1       2.235  -1.518   2.199  1.00  0.00     0.084 A 
ATOM     10  C   UNL     1       0.216  -2.717   3.721  1.00  0.00     0.018 A 
ATOM     11  C   UNL     1       2.553  -2.489   3.160  1.00  0.00     0.044 A 
BRANCH   7  12
ATOM     12  O   UNL     1       0.530   0.038   1.384  1.00  0.00    -0.495 OA
ATOM     13  C   UNL     1       0.632  -0.088  -0.033  1.00  0.00     0.278 C 
ENDBRANCH   7  12
BRANCH   9  14
ATOM     14  N   UNL     1       3.194  -0.916   1.366  1.00  0.00    -0.319 N 
ATOM     15  C   UNL     1       4.411  -1.301   0.866  1.00  0.00     0.257 C 
ATOM     16  H   UNL     1       2.932  -0.013   1.075  1.00  0.00     0.170 HD
ATOM     17  O   UNL     1       5.047  -0.504   0.173  1.00  0.00    -0.269 OA
BRANCH  15  18
ATOM     18  C   UNL     1       5.036  -2.619   1.083  1.00  0.00     0.065 A 
ATOM     19  C   UNL     1       6.352  -2.579   1.577  1.00  0.00     0.101 A 
ATOM     20  C   UNL     1       4.485  -3.844   0.684  1.00  0.00     0.054 A 
ATOM     21  C   UNL     1       7.083  -3.764   1.714  1.00  0.00     0.270 A 
ATOM     22  C   UNL     1       5.222  -5.031   0.855  1.00  0.00     0.028 A 
ATOM     23  Cl  UNL     1       2.935  -3.981  -0.060  1.00  0.00    -0.083 Cl
ATOM     24  C   UNL     1       6.522  -4.997   1.374  1.00  0.00     0.087 A 
BRANCH  21  25
ATOM     25  N   UNL     1       8.441  -3.704   2.251  1.00  0.00     0.062 N 
ATOM     26  O   UNL     1       8.690  -2.800   3.061  1.00  0.00    -0.258 OA
ATOM     27  O   UNL     1       9.245  -4.563   1.872  1.00  0.00    -0.258 OA
ENDBRANCH  21  25
ENDBRANCH  15  18
ENDBRANCH   9  14
ENDBRANCH   3   6
ENDBRANCH   1   2
BRANCH   1  28
ATOM     28  C   UNL     1       5.265  -4.382   4.904  1.00  0.00     0.042 C 
BRANCH  28  29
ATOM     29  C   UNL     1       6.201  -5.344   5.623  1.00  0.00     0.118 C 
BRANCH  29  30
ATOM     30  N   UNL     1       6.758  -6.363   4.738  1.00  0.00    -0.352 N 
ATOM     31  C   UNL     1       8.054  -6.766   4.532  1.00  0.00     0.251 C 
ATOM     32  H   UNL     1       6.090  -6.842   4.196  1.00  0.00     0.163 HD
ATOM     33  O   UNL     1       8.286  -7.571   3.633  1.00  0.00    -0.269 OA
BRANCH  31  34
ATOM     34  C   UNL     1       9.155  -6.223   5.355  1.00  0.00     0.039 A 
ATOM     35  C   UNL     1      10.392  -5.966   4.756  1.00  0.00     0.014 A 
ATOM     36  C   UNL     1       8.979  -5.981   6.718  1.00  0.00     0.014 A 
ATOM     37  C   UNL     1      11.426  -5.405   5.508  1.00  0.00     0.010 A 
ATOM     38  C   UNL     1       9.968  -5.327   7.438  1.00  0.00     0.010 A 
ATOM     39  C   UNL     1      11.211  -5.056   6.848  1.00  0.00    -0.014 A 
BRANCH  39  40
ATOM     40  C   UNL     1      12.285  -4.487   7.696  1.00  0.00     0.031 A 
ATOM     41  C   UNL     1      12.751  -5.261   8.899  1.00  0.00     0.074 A 
ATOM     42  C   UNL     1      12.770  -3.258   7.443  1.00  0.00     0.049 A 
ATOM     43  N   UNL     1      13.563  -4.901   9.859  1.00  0.00    -0.248 NA
ATOM     44  C   UNL     1      12.187  -6.611   9.067  1.00  0.00     0.031 C 
ATOM     45  C   UNL     1      12.360  -2.396   6.334  1.00  0.00     0.029 A 
ATOM     46  N   UNL     1      13.702  -2.512   8.120  1.00  0.00    -0.354 N 
ATOM     47  C   UNL     1      13.584  -5.966  10.750  1.00  0.00     0.074 A 
ATOM     48  C   UNL     1      12.646  -6.951  10.260  1.00  0.00     0.031 C 
ATOM     49  C   UNL     1      13.044  -1.242   6.401  1.00  0.00     0.029 A 
ATOM     50  C   UNL     1      13.911  -1.269   7.576  1.00  0.00     0.049 A 
ATOM     51  H   UNL     1      14.175  -2.837   8.920  1.00  0.00     0.167 HD
ATOM     52  C   UNL     1      14.344  -6.126  11.859  1.00  0.00     0.037 A 
ATOM     53  C   UNL     1      14.707  -0.265   7.990  1.00  0.00     0.037 A 
ATOM     54  C   UNL     1      15.295  -5.151  12.321  1.00  0.00     0.049 A 
ATOM     55  C   UNL     1      15.549  -0.465   9.223  1.00  0.00     0.074 A 
ATOM     56  C   UNL     1      16.150  -5.222  13.406  1.00  0.00     0.029 A 
ATOM     57  N   UNL     1      15.517  -3.922  11.714  1.00  0.00    -0.354 N 
ATOM     58  N   UNL     1      15.605  -1.496  10.031  1.00  0.00    -0.248 NA
ATOM     59  C   UNL     1      16.451   0.634   9.593  1.00  0.00     0.031 C 
ATOM     60  C   UNL     1      16.858  -4.018  13.481  1.00  0.00     0.029 A 
ATOM     61  C   UNL     1      16.488  -3.221  12.409  1.00  0.00     0.049 A 
ATOM     62  H   UNL     1      15.053  -3.598  10.909  1.00  0.00     0.167 HD
ATOM     63  C   UNL     1      16.566  -1.186  10.984  1.00  0.00     0.074 A 
ATOM     64  C   UNL     1      17.078   0.125  10.643  1.00  0.00     0.031 C 
ATOM     65  C   UNL     1      16.989  -1.919  12.044  1.00  0.00     0.037 A 
BRANCH  52  66
ATOM     66  C   UNL     1      14.175  -7.403  12.633  1.00  0.00     0.064 A 
ATOM     67  C   UNL     1      14.548  -8.646  12.095  1.00  0.00     0.173 A 
ATOM     68  C   UNL     1      13.630  -7.389  13.926  1.00  0.00     0.173 A 
ATOM     69  F   UNL     1      15.060  -8.720  10.857  1.00  0.00    -0.203 F 
ATOM     70  C   UNL     1      14.339  -9.827  12.802  1.00  0.00     0.198 A 
ATOM     71  C   UNL     1      13.458  -8.570  14.645  1.00  0.00     0.198 A 
ATOM     72  F   UNL     1      13.258  -6.231  14.492  1.00  0.00    -0.203 F 
ATOM     73  F   UNL     1      14.636 -11.005  12.236  1.00  0.00    -0.200 F 
ATOM     74  C   UNL     1      13.800  -9.788  14.078  1.00  0.00     0.200 A 
ATOM     75  F   UNL     1      12.949  -8.529  15.884  1.00  0.00    -0.200 F 
ATOM     76  F   UNL     1      13.599 -10.926  14.757  1.00  0.00    -0.200 F 
ENDBRANCH  52  66
BRANCH  53  77
ATOM     77  C   UNL     1      14.764   1.004   7.216  1.00  0.00     0.064 A 
ATOM     78  C   UNL     1      15.914   1.358   6.496  1.00  0.00     0.173 A 
ATOM     79  C   UNL     1      13.674   1.885   7.176  1.00  0.00     0.173 A 
ATOM     80  F   UNL     1      16.990   0.558   6.519  1.00  0.00    -0.203 F 
ATOM     81  C   UNL     1      15.979   2.554   5.785  1.00  0.00     0.198 A 
ATOM     82  C   UNL     1      13.729   3.067   6.439  1.00  0.00     0.198 A 
ATOM     83  F   UNL     1      12.548   1.592   7.843  1.00  0.00    -0.203 F 
ATOM     84  F   UNL     1      17.108   2.890   5.146  1.00  0.00    -0.200 F 
ATOM     85  C   UNL     1      14.884   3.405   5.752  1.00  0.00     0.200 A 
ATOM     86  F   UNL     1      12.664   3.880   6.399  1.00  0.00    -0.200 F 
ATOM     87  F   UNL     1      14.946   4.553   5.064  1.00  0.00    -0.200 F 
ENDBRANCH  53  77
BRANCH  65  88
ATOM     88  C   UNL     1      18.090  -1.340  12.885  1.00  0.00     0.064 A 
ATOM     89  C   UNL     1      17.878  -0.237  13.725  1.00  0.00     0.173 A 
ATOM     90  C   UNL     1      19.365  -1.927  12.880  1.00  0.00     0.173 A 
ATOM     91  F   UNL     1      16.681   0.367  13.758  1.00  0.00    -0.203 F 
ATOM     92  C   UNL     1      18.911   0.275  14.505  1.00  0.00     0.198 A 
ATOM     93  C   UNL     1      20.385  -1.433  13.687  1.00  0.00     0.198 A 
ATOM     94  F   UNL     1      19.618  -2.990  12.101  1.00  0.00    -0.203 F 
ATOM     95  F   UNL     1      18.700   1.362  15.261  1.00  0.00    -0.200 F 
ATOM     96  C   UNL     1      20.160  -0.327  14.492  1.00  0.00     0.200 A 
ATOM     97  F   UNL     1      21.586  -2.028  13.686  1.00  0.00    -0.200 F 
ATOM     98  F   UNL     1      21.150   0.163  15.251  1.00  0.00    -0.200 F 
ENDBRANCH  65  88
ENDBRANCH  39  40
ENDBRANCH  31  34
ENDBRANCH  29  30
ENDBRANCH  28  29
ENDBRANCH   1  28
TORSDOF 14
