REMARK SMILES Cc1ccc(N2CCC[C@@H](Cn3cc(C(=O)NCCCNC(=O)c4ccc(-c5c6nc(c(-c7c(F)c(F)c(F)c(F)c7F)c7ccc([nH]7)c(-c7c(F)c(F)c(F)c(F)c7F)c7nc(c(-c8c(F)c(F)c(F)c(F)c8F)c8ccc5[nH]8)C=C7)C=C6)cc4)nn3)C2)nn1
REMARK SMILES IDX 18 1 17 2 15 3 16 4 14 6 12 7 13 8 88 9 87 10 11 11 10 12
REMARK SMILES IDX 6 13 7 14 89 15 8 16 9 17 5 18 1 19 2 20 3 21 91 22 4 23
REMARK SMILES IDX 90 24 19 25 20 26 21 27 22 28 23 30 24 31 25 32 86 33 26 34
REMARK SMILES IDX 85 35 27 36 28 37 29 38 79 39 30 40 84 41 78 42 80 43 31 44
REMARK SMILES IDX 83 45 77 46 76 47 32 49 64 50 44 51 63 52 45 53 48 54 62 55
REMARK SMILES IDX 81 56 46 57 47 58 61 60 82 61 49 62 33 63 34 64 42 65 35 66
REMARK SMILES IDX 36 67 40 68 43 69 37 70 38 71 41 72 39 73 65 74 66 75 74 76
REMARK SMILES IDX 67 77 68 78 72 79 75 80 69 81 70 82 73 83 71 84 50 85 51 86
REMARK SMILES IDX 59 87 52 88 53 89 57 90 60 91 54 92 55 93 58 94 56 95
REMARK H PARENT 17 5 21 29 80 48 48 59
REMARK Flexibility Score: inf
ROOT
ATOM      1  C   UNL     1      -4.673  -4.219   3.035  1.00  0.00     0.118 C 
ENDROOT
BRANCH   1   2
ATOM      2  N   UNL     1      -5.610  -5.050   3.774  1.00  0.00    -0.351 N 
ATOM      3  C   UNL     1      -5.916  -6.392   3.643  1.00  0.00     0.273 C 
ATOM      4  O   UNL     1      -6.617  -6.895   4.513  1.00  0.00    -0.267 OA
ATOM      5  H   UNL     1      -6.107  -4.581   4.483  1.00  0.00     0.163 HD
BRANCH   3   6
ATOM      6  C   UNL     1      -5.369  -7.165   2.531  1.00  0.00     0.170 A 
ATOM      7  N   UNL     1      -4.335  -7.838   0.759  1.00  0.00    -0.251 N 
ATOM      8  C   UNL     1      -5.025  -6.772   1.253  1.00  0.00     0.145 A 
ATOM      9  N   UNL     1      -4.470  -8.911   1.547  1.00  0.00    -0.067 NA
ATOM     10  N   UNL     1      -5.090  -8.510   2.650  1.00  0.00    -0.125 NA
BRANCH   7  11
ATOM     11  C   UNL     1      -3.390  -7.837  -0.338  1.00  0.00     0.151 C 
BRANCH  11  12
ATOM     12  C   UNL     1      -1.973  -7.361   0.046  1.00  0.00     0.030 C 
ATOM     13  N   UNL     1      -0.566  -5.507   0.731  1.00  0.00    -0.355 N 
ATOM     14  C   UNL     1       0.009  -6.188   1.888  1.00  0.00     0.118 C 
ATOM     15  C   UNL     1      -1.940  -5.869   0.423  1.00  0.00     0.123 C 
ATOM     16  C   UNL     1       0.049  -7.684   1.576  1.00  0.00     0.022 C 
ATOM     17  C   UNL     1      -1.330  -8.211   1.163  1.00  0.00     0.009 C 
BRANCH  13  18
ATOM     18  C   UNL     1      -0.250  -4.155   0.633  1.00  0.00     0.151 A 
ATOM     19  C   UNL     1       0.715  -0.056   0.178  1.00  0.00     0.069 C 
ATOM     20  C   UNL     1       0.410  -1.511   0.342  1.00  0.00     0.060 A 
ATOM     21  C   UNL     1       1.213  -2.468  -0.253  1.00  0.00     0.029 A 
ATOM     22  N   UNL     1      -0.696  -1.863   1.035  1.00  0.00    -0.154 NA
ATOM     23  C   UNL     1       0.883  -3.806  -0.088  1.00  0.00     0.051 A 
ATOM     24  N   UNL     1      -1.032  -3.195   1.172  1.00  0.00    -0.133 NA
ENDBRANCH  13  18
ENDBRANCH  11  12
ENDBRANCH   7  11
ENDBRANCH   3   6
ENDBRANCH   1   2
BRANCH   1  25
ATOM     25  C   UNL     1      -5.359  -3.378   1.954  1.00  0.00     0.042 C 
BRANCH  25  26
ATOM     26  C   UNL     1      -6.034  -2.150   2.539  1.00  0.00     0.118 C 
BRANCH  26  27
ATOM     27  N   UNL     1      -5.063  -1.180   3.035  1.00  0.00    -0.352 N 
ATOM     28  C   UNL     1      -5.266   0.001   3.711  1.00  0.00     0.251 C 
ATOM     29  H   UNL     1      -4.120  -1.405   2.861  1.00  0.00     0.163 HD
ATOM     30  O   UNL     1      -4.382   0.850   3.737  1.00  0.00    -0.269 OA
BRANCH  28  31
ATOM     31  C   UNL     1      -6.543   0.256   4.404  1.00  0.00     0.039 A 
ATOM     32  C   UNL     1      -7.011   1.569   4.525  1.00  0.00     0.014 A 
ATOM     33  C   UNL     1      -7.247  -0.795   4.994  1.00  0.00     0.014 A 
ATOM     34  C   UNL     1      -8.204   1.802   5.198  1.00  0.00     0.010 A 
ATOM     35  C   UNL     1      -8.488  -0.586   5.547  1.00  0.00     0.010 A 
ATOM     36  C   UNL     1      -8.939   0.715   5.696  1.00  0.00    -0.014 A 
BRANCH  36  37
ATOM     37  C   UNL     1     -10.245   0.930   6.292  1.00  0.00     0.031 A 
ATOM     38  C   UNL     1     -11.231   1.527   5.364  1.00  0.00     0.074 A 
ATOM     39  C   UNL     1     -10.600   0.499   7.518  1.00  0.00     0.049 A 
ATOM     40  N   UNL     1     -11.634   2.751   5.349  1.00  0.00    -0.248 NA
ATOM     41  C   UNL     1     -11.700   0.725   4.227  1.00  0.00     0.031 C 
ATOM     42  C   UNL     1      -9.865  -0.380   8.431  1.00  0.00     0.029 A 
ATOM     43  N   UNL     1     -11.763   0.732   8.186  1.00  0.00    -0.354 N 
ATOM     44  C   UNL     1     -12.565   2.836   4.320  1.00  0.00     0.074 A 
ATOM     45  C   UNL     1     -12.419   1.627   3.554  1.00  0.00     0.031 C 
ATOM     46  C   UNL     1     -10.675  -0.752   9.450  1.00  0.00     0.029 A 
ATOM     47  C   UNL     1     -11.918  -0.009   9.350  1.00  0.00     0.049 A 
ATOM     48  H   UNL     1     -12.439   1.373   7.869  1.00  0.00     0.167 HD
ATOM     49  C   UNL     1     -13.537   3.790   4.355  1.00  0.00     0.037 A 
ATOM     50  C   UNL     1     -13.001   0.001  10.166  1.00  0.00     0.037 A 
ATOM     51  C   UNL     1     -13.205   4.806   5.329  1.00  0.00     0.049 A 
ATOM     52  C   UNL     1     -13.707   1.283   9.921  1.00  0.00     0.074 A 
ATOM     53  C   UNL     1     -12.188   5.729   5.476  1.00  0.00     0.029 A 
ATOM     54  N   UNL     1     -13.793   4.688   6.564  1.00  0.00    -0.354 N 
ATOM     55  N   UNL     1     -13.225   2.452  10.238  1.00  0.00    -0.248 NA
ATOM     56  C   UNL     1     -14.792   1.295   8.953  1.00  0.00     0.031 C 
ATOM     57  C   UNL     1     -11.943   5.797   6.881  1.00  0.00     0.029 A 
ATOM     58  C   UNL     1     -12.859   4.963   7.526  1.00  0.00     0.049 A 
ATOM     59  H   UNL     1     -14.732   4.445   6.730  1.00  0.00     0.167 HD
ATOM     60  C   UNL     1     -13.626   3.285   9.206  1.00  0.00     0.074 A 
ATOM     61  C   UNL     1     -14.692   2.556   8.525  1.00  0.00     0.031 C 
ATOM     62  C   UNL     1     -12.860   4.353   8.838  1.00  0.00     0.037 A 
BRANCH  49  63
ATOM     63  C   UNL     1     -14.956   3.607   3.853  1.00  0.00     0.064 A 
ATOM     64  C   UNL     1     -15.860   4.684   3.985  1.00  0.00     0.173 A 
ATOM     65  C   UNL     1     -15.548   2.365   3.541  1.00  0.00     0.173 A 
ATOM     66  F   UNL     1     -15.421   5.918   4.279  1.00  0.00    -0.203 F 
ATOM     67  C   UNL     1     -17.244   4.506   3.920  1.00  0.00     0.198 A 
ATOM     68  C   UNL     1     -16.928   2.201   3.427  1.00  0.00     0.198 A 
ATOM     69  F   UNL     1     -14.843   1.235   3.438  1.00  0.00    -0.203 F 
ATOM     70  F   UNL     1     -18.060   5.533   4.193  1.00  0.00    -0.200 F 
ATOM     71  C   UNL     1     -17.778   3.261   3.652  1.00  0.00     0.200 A 
ATOM     72  F   UNL     1     -17.426   0.981   3.178  1.00  0.00    -0.200 F 
ATOM     73  F   UNL     1     -19.104   3.071   3.655  1.00  0.00    -0.200 F 
ENDBRANCH  49  63
BRANCH  50  74
ATOM     74  C   UNL     1     -13.627  -1.105  10.928  1.00  0.00     0.064 A 
ATOM     75  C   UNL     1     -14.625  -0.840  11.883  1.00  0.00     0.173 A 
ATOM     76  C   UNL     1     -13.500  -2.443  10.511  1.00  0.00     0.173 A 
ATOM     77  F   UNL     1     -14.834   0.414  12.311  1.00  0.00    -0.203 F 
ATOM     78  C   UNL     1     -15.485  -1.841  12.346  1.00  0.00     0.198 A 
ATOM     79  C   UNL     1     -14.355  -3.443  10.980  1.00  0.00     0.198 A 
ATOM     80  F   UNL     1     -12.615  -2.787   9.565  1.00  0.00    -0.203 F 
ATOM     81  F   UNL     1     -16.479  -1.530  13.189  1.00  0.00    -0.200 F 
ATOM     82  C   UNL     1     -15.361  -3.138  11.880  1.00  0.00     0.200 A 
ATOM     83  F   UNL     1     -14.249  -4.689  10.496  1.00  0.00    -0.200 F 
ATOM     84  F   UNL     1     -16.234  -4.081  12.261  1.00  0.00    -0.200 F 
ENDBRANCH  50  74
BRANCH  62  85
ATOM     85  C   UNL     1     -11.780   4.800   9.788  1.00  0.00     0.064 A 
ATOM     86  C   UNL     1     -10.654   4.032  10.132  1.00  0.00     0.173 A 
ATOM     87  C   UNL     1     -11.820   6.124  10.246  1.00  0.00     0.173 A 
ATOM     88  F   UNL     1     -10.499   2.785   9.671  1.00  0.00    -0.203 F 
ATOM     89  C   UNL     1      -9.630   4.563  10.917  1.00  0.00     0.198 A 
ATOM     90  C   UNL     1     -10.779   6.663  10.996  1.00  0.00     0.198 A 
ATOM     91  F   UNL     1     -12.851   6.917   9.915  1.00  0.00    -0.203 F 
ATOM     92  F   UNL     1      -8.567   3.809  11.236  1.00  0.00    -0.200 F 
ATOM     93  C   UNL     1      -9.688   5.881  11.336  1.00  0.00     0.200 A 
ATOM     94  F   UNL     1     -10.820   7.952  11.360  1.00  0.00    -0.200 F 
ATOM     95  F   UNL     1      -8.680   6.408  12.045  1.00  0.00    -0.200 F 
ENDBRANCH  62  85
ENDBRANCH  36  37
ENDBRANCH  28  31
ENDBRANCH  26  27
ENDBRANCH  25  26
ENDBRANCH   1  25
TORSDOF 13
