REMARK SMILES O=C(NCCCNC(=O)[C@@H]1CCCN(c2ccc3cc(S(=O)(=O)N4CCCCC4)ccc3n2)C1)c1ccc(-c2c3nc(c(-c4c(F)c(F)c(F)c(F)c4F)c4ccc([nH]4)c(-c4c(F)c(F)c(F)c(F)c4F)c4nc(c(-c5c(F)c(F)c(F)c(F)c5F)c5ccc2[nH]5)C=C4)C=C3)cc1
REMARK SMILES IDX 5 1 4 2 3 3 1 4 2 5 35 7 36 8 97 9 37 10 96 11 38 12 39 13
REMARK SMILES IDX 40 14 90 15 41 16 95 17 89 18 91 19 42 20 94 21 88 22 87 23
REMARK SMILES IDX 43 25 75 26 55 27 74 28 56 29 59 30 73 31 92 32 57 33 58 34
REMARK SMILES IDX 72 36 93 37 60 38 44 39 45 40 53 41 46 42 47 43 51 44 54 45
REMARK SMILES IDX 48 46 49 47 52 48 50 49 76 50 77 51 85 52 78 53 79 54 83 55
REMARK SMILES IDX 86 56 80 57 81 58 84 59 82 60 61 61 62 62 70 63 63 64 64 65
REMARK SMILES IDX 68 66 71 67 65 68 66 69 69 70 67 71 6 72 7 73 8 74 9 76
REMARK SMILES IDX 10 77 11 78 34 79 12 80 14 81 13 82 15 83 16 84 33 85 17 86
REMARK SMILES IDX 32 87 18 88 31 89 19 90 30 91 20 92 21 93 22 94 23 95 24 96
REMARK SMILES IDX 25 97 29 98 26 99 28 100 27 101
REMARK H PARENT 3 6 91 24 59 35 7 75
REMARK Flexibility Score: inf
ROOT
ATOM      1  C   UNL     1       4.437  -0.374   2.369  1.00  0.00     0.042 C 
ENDROOT
BRANCH   1   2
ATOM      2  C   UNL     1       4.289  -1.010   0.995  1.00  0.00     0.118 C 
BRANCH   2   3
ATOM      3  N   UNL     1       2.897  -1.026   0.567  1.00  0.00    -0.352 N 
ATOM      4  O   UNL     1       1.016  -0.162  -0.303  1.00  0.00    -0.269 OA
ATOM      5  C   UNL     1       2.242  -0.226  -0.334  1.00  0.00     0.251 C 
ATOM      6  H   UNL     1       2.339  -1.718   0.991  1.00  0.00     0.163 HD
BRANCH   5   7
ATOM      7  C   UNL     1       2.990   0.543  -1.352  1.00  0.00     0.039 A 
ATOM      8  C   UNL     1       4.111  -0.001  -1.987  1.00  0.00     0.014 A 
ATOM      9  C   UNL     1       2.496   1.787  -1.759  1.00  0.00     0.014 A 
ATOM     10  C   UNL     1       4.793   0.732  -2.953  1.00  0.00     0.010 A 
ATOM     11  C   UNL     1       3.130   2.485  -2.788  1.00  0.00     0.010 A 
ATOM     12  C   UNL     1       4.288   1.965  -3.387  1.00  0.00    -0.014 A 
BRANCH  12  13
ATOM     13  C   UNL     1       4.920   2.661  -4.534  1.00  0.00     0.031 A 
ATOM     14  C   UNL     1       5.556   4.006  -4.357  1.00  0.00     0.074 A 
ATOM     15  C   UNL     1       4.872   2.084  -5.749  1.00  0.00     0.049 A 
ATOM     16  N   UNL     1       6.073   4.801  -5.259  1.00  0.00    -0.248 NA
ATOM     17  C   UNL     1       5.604   4.536  -2.987  1.00  0.00     0.031 C 
ATOM     18  C   UNL     1       4.267   0.782  -6.036  1.00  0.00     0.029 A 
ATOM     19  N   UNL     1       5.321   2.519  -6.970  1.00  0.00    -0.354 N 
ATOM     20  C   UNL     1       6.485   5.934  -4.572  1.00  0.00     0.074 A 
ATOM     21  C   UNL     1       6.132   5.736  -3.182  1.00  0.00     0.031 C 
ATOM     22  C   UNL     1       4.389   0.519  -7.344  1.00  0.00     0.029 A 
ATOM     23  C   UNL     1       5.016   1.662  -7.998  1.00  0.00     0.049 A 
ATOM     24  H   UNL     1       5.814   3.362  -7.096  1.00  0.00     0.167 HD
ATOM     25  C   UNL     1       7.104   7.035  -5.064  1.00  0.00     0.037 A 
ATOM     26  C   UNL     1       5.182   1.798  -9.327  1.00  0.00     0.037 A 
ATOM     27  C   UNL     1       7.443   7.215  -6.453  1.00  0.00     0.049 A 
ATOM     28  C   UNL     1       5.832   3.043  -9.855  1.00  0.00     0.074 A 
ATOM     29  C   UNL     1       8.113   8.268  -7.049  1.00  0.00     0.029 A 
ATOM     30  N   UNL     1       7.118   6.324  -7.469  1.00  0.00    -0.354 N 
ATOM     31  N   UNL     1       6.265   4.089  -9.194  1.00  0.00    -0.248 NA
ATOM     32  C   UNL     1       6.018   3.130 -11.309  1.00  0.00     0.031 C 
ATOM     33  C   UNL     1       8.131   8.050  -8.430  1.00  0.00     0.029 A 
ATOM     34  C   UNL     1       7.541   6.823  -8.691  1.00  0.00     0.049 A 
ATOM     35  H   UNL     1       6.655   5.464  -7.339  1.00  0.00     0.167 HD
ATOM     36  C   UNL     1       6.798   4.948 -10.144  1.00  0.00     0.074 A 
ATOM     37  C   UNL     1       6.636   4.298 -11.429  1.00  0.00     0.031 C 
ATOM     38  C   UNL     1       7.375   6.161  -9.963  1.00  0.00     0.037 A 
BRANCH  25  39
ATOM     39  C   UNL     1       7.409   8.147  -4.099  1.00  0.00     0.064 A 
ATOM     40  C   UNL     1       8.353   8.002  -3.070  1.00  0.00     0.173 A 
ATOM     41  C   UNL     1       6.747   9.380  -4.207  1.00  0.00     0.173 A 
ATOM     42  F   UNL     1       9.014   6.845  -2.916  1.00  0.00    -0.203 F 
ATOM     43  C   UNL     1       8.584   9.030  -2.158  1.00  0.00     0.198 A 
ATOM     44  C   UNL     1       7.008  10.418  -3.317  1.00  0.00     0.198 A 
ATOM     45  F   UNL     1       5.843   9.581  -5.179  1.00  0.00    -0.203 F 
ATOM     46  F   UNL     1       9.438   8.842  -1.143  1.00  0.00    -0.200 F 
ATOM     47  C   UNL     1       7.914  10.238  -2.284  1.00  0.00     0.200 A 
ATOM     48  F   UNL     1       6.372  11.591  -3.452  1.00  0.00    -0.200 F 
ATOM     49  F   UNL     1       8.135  11.223  -1.404  1.00  0.00    -0.200 F 
ENDBRANCH  25  39
BRANCH  26  50
ATOM     50  C   UNL     1       4.698   0.721 -10.228  1.00  0.00     0.064 A 
ATOM     51  C   UNL     1       5.593  -0.112 -10.910  1.00  0.00     0.173 A 
ATOM     52  C   UNL     1       3.325   0.464 -10.374  1.00  0.00     0.173 A 
ATOM     53  F   UNL     1       6.913   0.104 -10.816  1.00  0.00    -0.203 F 
ATOM     54  C   UNL     1       5.134  -1.160 -11.706  1.00  0.00     0.198 A 
ATOM     55  C   UNL     1       2.869  -0.602 -11.145  1.00  0.00     0.198 A 
ATOM     56  F   UNL     1       2.427   1.228  -9.734  1.00  0.00    -0.203 F 
ATOM     57  F   UNL     1       6.010  -1.927 -12.370  1.00  0.00    -0.200 F 
ATOM     58  C   UNL     1       3.774  -1.411 -11.814  1.00  0.00     0.200 A 
ATOM     59  F   UNL     1       1.555  -0.852 -11.228  1.00  0.00    -0.200 F 
ATOM     60  F   UNL     1       3.335  -2.432 -12.562  1.00  0.00    -0.200 F 
ENDBRANCH  26  50
BRANCH  38  61
ATOM     61  C   UNL     1       7.918   6.859 -11.176  1.00  0.00     0.064 A 
ATOM     62  C   UNL     1       7.076   7.445 -12.132  1.00  0.00     0.173 A 
ATOM     63  C   UNL     1       9.304   7.011 -11.338  1.00  0.00     0.173 A 
ATOM     64  F   UNL     1       5.745   7.313 -12.032  1.00  0.00    -0.203 F 
ATOM     65  C   UNL     1       7.604   8.153 -13.210  1.00  0.00     0.198 A 
ATOM     66  C   UNL     1       9.826   7.746 -12.398  1.00  0.00     0.198 A 
ATOM     67  F   UNL     1      10.151   6.473 -10.448  1.00  0.00    -0.203 F 
ATOM     68  F   UNL     1       6.783   8.680 -14.129  1.00  0.00    -0.200 F 
ATOM     69  C   UNL     1       8.976   8.313 -13.334  1.00  0.00     0.200 A 
ATOM     70  F   UNL     1      11.151   7.914 -12.506  1.00  0.00    -0.200 F 
ATOM     71  F   UNL     1       9.480   9.016 -14.358  1.00  0.00    -0.200 F 
ENDBRANCH  38  61
ENDBRANCH  12  13
ENDBRANCH   5   7
ENDBRANCH   2   3
ENDBRANCH   1   2
BRANCH   1  72
ATOM     72  C   UNL     1       3.830  -1.197   3.501  1.00  0.00     0.117 C 
BRANCH  72  73
ATOM     73  N   UNL     1       4.623  -2.351   3.863  1.00  0.00    -0.356 N 
ATOM     74  C   UNL     1       5.518  -2.591   4.846  1.00  0.00     0.224 C 
ATOM     75  H   UNL     1       4.481  -3.123   3.269  1.00  0.00     0.163 HD
ATOM     76  O   UNL     1       5.909  -3.767   4.912  1.00  0.00    -0.275 OA
BRANCH  74  77
ATOM     77  C   UNL     1       6.157  -1.566   5.783  1.00  0.00     0.098 C 
ATOM     78  C   UNL     1       5.511  -0.227   6.158  1.00  0.00     0.017 C 
ATOM     79  C   UNL     1       7.598  -1.361   5.329  1.00  0.00     0.131 C 
ATOM     80  C   UNL     1       5.851   0.981   5.265  1.00  0.00     0.022 C 
ATOM     81  N   UNL     1       7.600  -0.376   4.259  1.00  0.00    -0.356 N 
ATOM     82  C   UNL     1       7.259   0.981   4.651  1.00  0.00     0.118 C 
BRANCH  81  83
ATOM     83  C   UNL     1       8.273  -0.633   3.085  1.00  0.00     0.129 A 
ATOM     84  C   UNL     1       8.125  -1.863   2.442  1.00  0.00     0.047 A 
ATOM     85  N   UNL     1       9.033   0.338   2.544  1.00  0.00    -0.231 NA
ATOM     86  C   UNL     1       8.763  -2.106   1.232  1.00  0.00     0.014 A 
ATOM     87  C   UNL     1       9.698   0.090   1.405  1.00  0.00     0.073 A 
ATOM     88  C   UNL     1       9.582  -1.121   0.695  1.00  0.00     0.002 A 
ATOM     89  C   UNL     1      10.553   1.056   0.905  1.00  0.00     0.030 A 
ATOM     90  C   UNL     1      10.284  -1.325  -0.503  1.00  0.00     0.032 A 
ATOM     91  C   UNL     1      11.283   0.855  -0.271  1.00  0.00     0.024 A 
ATOM     92  C   UNL     1      11.139  -0.332  -0.986  1.00  0.00     0.083 A 
BRANCH  92  93
ATOM     93  S   UNL     1      11.998  -0.692  -2.509  1.00  0.00     0.243 S 
ATOM     94  O   UNL     1      12.828  -1.849  -2.228  1.00  0.00    -0.207 OA
ATOM     95  O   UNL     1      10.982  -0.728  -3.535  1.00  0.00    -0.207 OA
BRANCH  93  96
ATOM     96  N   UNL     1      13.037   0.623  -2.835  1.00  0.00    -0.198 NA
ATOM     97  C   UNL     1      12.374   1.866  -3.305  1.00  0.00     0.102 C 
ATOM     98  C   UNL     1      14.229   0.734  -1.960  1.00  0.00     0.102 C 
ATOM     99  C   UNL     1      13.367   2.958  -3.674  1.00  0.00     0.017 C 
ATOM    100  C   UNL     1      15.164   1.856  -2.383  1.00  0.00     0.017 C 
ATOM    101  C   UNL     1      14.406   3.158  -2.584  1.00  0.00     0.003 C 
ENDBRANCH  93  96
ENDBRANCH  92  93
ENDBRANCH  81  83
ENDBRANCH  74  77
ENDBRANCH  72  73
ENDBRANCH   1  72
TORSDOF 13
