REMARK SMILES C[C@@H]1CCCN(C(=O)NC2(CC(=O)NCCCNC(=O)c3ccc(-c4c5nc(c(-c6c(F)c(F)c(F)c(F)c6F)c6ccc([nH]6)c(-c6c(F)c(F)c(F)c(F)c6F)c6nc(c(-c7c(F)c(F)c(F)c(F)c7F)c7ccc4[nH]7)C=C6)C=C5)cc3)CCC2)[C@@H]1C
REMARK SMILES IDX 15 1 14 2 12 3 13 4 11 6 10 7 84 8 86 9 85 10 9 11 7 12 8 13
REMARK SMILES IDX 6 15 1 16 2 17 3 18 87 19 4 20 88 21 5 22 16 23 17 24 18 25
REMARK SMILES IDX 19 26 20 28 21 29 22 30 83 31 23 32 82 33 24 34 25 35 26 36
REMARK SMILES IDX 76 37 27 38 81 39 75 40 77 41 28 42 80 43 74 44 73 45 29 47
REMARK SMILES IDX 61 48 41 49 60 50 42 51 45 52 59 53 78 54 43 55 44 56 58 58
REMARK SMILES IDX 79 59 46 60 30 61 31 62 39 63 32 64 33 65 37 66 40 67 34 68
REMARK SMILES IDX 35 69 38 70 36 71 62 72 63 73 71 74 64 75 65 76 69 77 72 78
REMARK SMILES IDX 66 79 67 80 70 81 68 82 47 83 48 84 56 85 49 86 50 87 54 88
REMARK SMILES IDX 57 89 51 90 52 91 55 92 53 93
REMARK H PARENT 14 5 9 14 18 27 77 46 45 57
REMARK Flexibility Score: inf
ROOT
ATOM      1  C   UNL     1       0.679   2.292   8.418  1.00  0.00     0.117 C 
ENDROOT
BRANCH   1   2
ATOM      2  N   UNL     1       1.089   1.017   7.864  1.00  0.00    -0.356 N 
ATOM      3  C   UNL     1       1.529   0.741   6.609  1.00  0.00     0.222 C 
ATOM      4  O   UNL     1       1.505  -0.428   6.222  1.00  0.00    -0.275 OA
ATOM      5  H   UNL     1       1.043   0.249   8.478  1.00  0.00     0.163 HD
BRANCH   3   6
ATOM      6  C   UNL     1       2.061   1.835   5.719  1.00  0.00     0.128 C 
BRANCH   6   7
ATOM      7  C   UNL     1       1.133   2.350   4.582  1.00  0.00     0.051 C 
ATOM      8  C   UNL     1       1.941   3.454   3.857  1.00  0.00     0.029 C 
ATOM      9  C   UNL     1       0.104   3.444   4.976  1.00  0.00     0.029 C 
ATOM     10  C   UNL     1       1.178   4.506   4.687  1.00  0.00     0.005 C 
BRANCH   7  11
ATOM     11  N   UNL     1       0.584   1.184   3.858  1.00  0.00    -0.332 N 
ATOM     12  C   UNL     1      -0.053   0.738   2.762  1.00  0.00     0.318 C 
ATOM     13  O   UNL     1      -0.256  -0.481   2.830  1.00  0.00    -0.249 OA
ATOM     14  H   UNL     1       0.762   0.395   4.420  1.00  0.00     0.165 HD
BRANCH  12  15
ATOM     15  N   UNL     1      -0.439   1.460   1.678  1.00  0.00    -0.322 N 
ATOM     16  C   UNL     1       1.531   0.108  -0.306  1.00  0.00     0.010 C 
ATOM     17  C   UNL     1       0.285   0.936  -0.647  1.00  0.00     0.008 C 
ATOM     18  C   UNL     1       0.638   2.427  -0.830  1.00  0.00     0.007 C 
ATOM     19  C   UNL     1      -0.849   0.789   0.408  1.00  0.00     0.086 C 
ATOM     20  C   UNL     1       0.877   3.135   0.502  1.00  0.00     0.022 C 
ATOM     21  C   UNL     1      -1.405  -0.638   0.458  1.00  0.00     0.031 C 
ATOM     22  C   UNL     1      -0.281   2.887   1.470  1.00  0.00     0.121 C 
ENDBRANCH  12  15
ENDBRANCH   7  11
ENDBRANCH   6   7
ENDBRANCH   3   6
ENDBRANCH   1   2
BRANCH   1  23
ATOM     23  C   UNL     1      -0.834   2.451   8.300  1.00  0.00     0.042 C 
BRANCH  23  24
ATOM     24  C   UNL     1      -1.606   1.628   9.318  1.00  0.00     0.118 C 
BRANCH  24  25
ATOM     25  N   UNL     1      -1.514   2.201  10.651  1.00  0.00    -0.352 N 
ATOM     26  C   UNL     1      -2.436   2.906  11.383  1.00  0.00     0.251 C 
ATOM     27  H   UNL     1      -0.650   2.061  11.101  1.00  0.00     0.163 HD
ATOM     28  O   UNL     1      -2.060   3.533  12.370  1.00  0.00    -0.269 OA
BRANCH  26  29
ATOM     29  C   UNL     1      -3.869   2.929  11.005  1.00  0.00     0.039 A 
ATOM     30  C   UNL     1      -4.609   4.090  11.258  1.00  0.00     0.014 A 
ATOM     31  C   UNL     1      -4.512   1.805  10.484  1.00  0.00     0.014 A 
ATOM     32  C   UNL     1      -5.973   4.132  10.956  1.00  0.00     0.010 A 
ATOM     33  C   UNL     1      -5.846   1.878  10.092  1.00  0.00     0.010 A 
ATOM     34  C   UNL     1      -6.599   3.032  10.349  1.00  0.00    -0.014 A 
BRANCH  34  35
ATOM     35  C   UNL     1      -8.047   3.048  10.022  1.00  0.00     0.031 A 
ATOM     36  C   UNL     1      -8.980   2.072  10.688  1.00  0.00     0.074 A 
ATOM     37  C   UNL     1      -8.514   3.889   9.081  1.00  0.00     0.049 A 
ATOM     38  N   UNL     1     -10.255   1.864  10.475  1.00  0.00    -0.248 NA
ATOM     39  C   UNL     1      -8.391   1.188  11.706  1.00  0.00     0.031 C 
ATOM     40  C   UNL     1      -7.703   4.843   8.324  1.00  0.00     0.029 A 
ATOM     41  N   UNL     1      -9.782   4.063   8.588  1.00  0.00    -0.354 N 
ATOM     42  C   UNL     1     -10.611   0.814  11.312  1.00  0.00     0.074 A 
ATOM     43  C   UNL     1      -9.407   0.389  11.993  1.00  0.00     0.031 C 
ATOM     44  C   UNL     1      -8.495   5.510   7.470  1.00  0.00     0.029 A 
ATOM     45  C   UNL     1      -9.861   5.009   7.596  1.00  0.00     0.049 A 
ATOM     46  H   UNL     1     -10.562   3.558   8.914  1.00  0.00     0.167 HD
ATOM     47  C   UNL     1     -11.834   0.268  11.514  1.00  0.00     0.037 A 
ATOM     48  C   UNL     1     -10.913   5.420   6.864  1.00  0.00     0.037 A 
ATOM     49  C   UNL     1     -13.036   0.714  10.859  1.00  0.00     0.049 A 
ATOM     50  C   UNL     1     -12.267   4.821   7.123  1.00  0.00     0.074 A 
ATOM     51  C   UNL     1     -14.335   0.275  11.042  1.00  0.00     0.029 A 
ATOM     52  N   UNL     1     -13.082   1.707   9.891  1.00  0.00    -0.354 N 
ATOM     53  N   UNL     1     -12.605   3.874   7.963  1.00  0.00    -0.248 NA
ATOM     54  C   UNL     1     -13.389   5.356   6.338  1.00  0.00     0.031 C 
ATOM     55  C   UNL     1     -15.162   0.976  10.158  1.00  0.00     0.029 A 
ATOM     56  C   UNL     1     -14.385   1.883   9.455  1.00  0.00     0.049 A 
ATOM     57  H   UNL     1     -12.303   2.212   9.562  1.00  0.00     0.167 HD
ATOM     58  C   UNL     1     -13.976   3.708   7.823  1.00  0.00     0.074 A 
ATOM     59  C   UNL     1     -14.411   4.668   6.828  1.00  0.00     0.031 C 
ATOM     60  C   UNL     1     -14.799   2.840   8.460  1.00  0.00     0.037 A 
BRANCH  47  61
ATOM     61  C   UNL     1     -11.927  -0.871  12.489  1.00  0.00     0.064 A 
ATOM     62  C   UNL     1     -11.737  -0.678  13.867  1.00  0.00     0.173 A 
ATOM     63  C   UNL     1     -12.213  -2.170  12.044  1.00  0.00     0.173 A 
ATOM     64  F   UNL     1     -11.449   0.543  14.344  1.00  0.00    -0.203 F 
ATOM     65  C   UNL     1     -11.787  -1.748  14.755  1.00  0.00     0.198 A 
ATOM     66  C   UNL     1     -12.294  -3.233  12.940  1.00  0.00     0.198 A 
ATOM     67  F   UNL     1     -12.411  -2.410  10.739  1.00  0.00    -0.203 F 
ATOM     68  F   UNL     1     -11.538  -1.548  16.057  1.00  0.00    -0.200 F 
ATOM     69  C   UNL     1     -12.069  -3.024  14.292  1.00  0.00     0.200 A 
ATOM     70  F   UNL     1     -12.579  -4.464  12.492  1.00  0.00    -0.200 F 
ATOM     71  F   UNL     1     -12.115  -4.054  15.148  1.00  0.00    -0.200 F 
ENDBRANCH  47  61
BRANCH  48  72
ATOM     72  C   UNL     1     -10.720   6.474   5.838  1.00  0.00     0.064 A 
ATOM     73  C   UNL     1     -11.195   7.776   6.044  1.00  0.00     0.173 A 
ATOM     74  C   UNL     1     -10.024   6.212   4.648  1.00  0.00     0.173 A 
ATOM     75  F   UNL     1     -11.881   8.069   7.159  1.00  0.00    -0.203 F 
ATOM     76  C   UNL     1     -10.990   8.775   5.095  1.00  0.00     0.198 A 
ATOM     77  C   UNL     1      -9.798   7.218   3.711  1.00  0.00     0.198 A 
ATOM     78  F   UNL     1      -9.543   4.984   4.409  1.00  0.00    -0.203 F 
ATOM     79  F   UNL     1     -11.479  10.005   5.304  1.00  0.00    -0.200 F 
ATOM     80  C   UNL     1     -10.284   8.498   3.934  1.00  0.00     0.200 A 
ATOM     81  F   UNL     1      -9.102   6.950   2.598  1.00  0.00    -0.200 F 
ATOM     82  F   UNL     1     -10.074   9.463   3.029  1.00  0.00    -0.200 F 
ENDBRANCH  48  72
BRANCH  60  83
ATOM     83  C   UNL     1     -16.258   2.899   8.114  1.00  0.00     0.064 A 
ATOM     84  C   UNL     1     -16.741   2.411   6.891  1.00  0.00     0.173 A 
ATOM     85  C   UNL     1     -17.186   3.411   9.032  1.00  0.00     0.173 A 
ATOM     86  F   UNL     1     -15.890   1.926   5.975  1.00  0.00    -0.203 F 
ATOM     87  C   UNL     1     -18.100   2.453   6.592  1.00  0.00     0.198 A 
ATOM     88  C   UNL     1     -18.547   3.428   8.741  1.00  0.00     0.198 A 
ATOM     89  F   UNL     1     -16.774   3.886  10.218  1.00  0.00    -0.203 F 
ATOM     90  F   UNL     1     -18.535   2.020   5.401  1.00  0.00    -0.200 F 
ATOM     91  C   UNL     1     -19.002   2.955   7.519  1.00  0.00     0.200 A 
ATOM     92  F   UNL     1     -19.418   3.902   9.641  1.00  0.00    -0.200 F 
ATOM     93  F   UNL     1     -20.310   2.989   7.231  1.00  0.00    -0.200 F 
ENDBRANCH  60  83
ENDBRANCH  34  35
ENDBRANCH  26  29
ENDBRANCH  24  25
ENDBRANCH  23  24
ENDBRANCH   1  23
TORSDOF 13
