REMARK SMILES O=C(NCCCNC(=O)c1cc(Cl)ccc1NC(=O)c1ccc2c(c1)C(=O)N(Cc1ccco1)C2=O)c1ccc(-c2c3nc(c(-c4c(F)c(F)c(F)c(F)c4F)c4ccc([nH]4)c(-c4c(F)c(F)c(F)c(F)c4F)c4nc(c(-c5c(F)c(F)c(F)c(F)c5F)c5ccc2[nH]5)C=C4)C=C3)cc1
REMARK SMILES IDX 6 1 5 2 4 3 3 4 1 5 2 6 37 8 38 9 99 10 39 11 98 12 40 13
REMARK SMILES IDX 41 14 42 15 92 16 43 17 97 18 91 19 93 20 44 21 96 22 90 23
REMARK SMILES IDX 89 24 45 26 77 27 57 28 76 29 58 30 61 31 75 32 94 33 59 34
REMARK SMILES IDX 60 35 74 37 95 38 62 39 46 40 47 41 55 42 48 43 49 44 53 45
REMARK SMILES IDX 56 46 50 47 51 48 54 49 52 50 78 51 79 52 87 53 80 54 81 55
REMARK SMILES IDX 85 56 88 57 82 58 83 59 86 60 84 61 63 62 64 63 72 64 65 65
REMARK SMILES IDX 66 66 70 67 73 68 67 69 68 70 71 71 69 72 7 73 8 74 9 76
REMARK SMILES IDX 10 77 11 78 16 79 12 80 15 81 13 82 14 83 17 84 18 85 19 87
REMARK SMILES IDX 20 88 21 89 25 90 22 91 24 92 23 93 26 94 35 95 27 96 28 97
REMARK SMILES IDX 36 98 29 99 30 100 31 101 34 102 32 103 33 104
REMARK H PARENT 3 7 93 25 61 36 7 75 17 86
REMARK Flexibility Score: inf
ROOT
ATOM      1  C   UNL     1       4.396   1.629  -3.555  1.00  0.00     0.118 C 
ENDROOT
BRANCH   1   2
ATOM      2  C   UNL     1       4.920   0.672  -2.501  1.00  0.00     0.042 C 
BRANCH   2   3
ATOM      3  C   UNL     1       4.531   1.063  -1.088  1.00  0.00     0.118 C 
BRANCH   3   4
ATOM      4  N   UNL     1       3.099   0.943  -0.832  1.00  0.00    -0.352 N 
ATOM      5  O   UNL     1       1.184   0.047  -0.040  1.00  0.00    -0.269 OA
ATOM      6  C   UNL     1       2.410   0.087  -0.003  1.00  0.00     0.251 C 
ATOM      7  H   UNL     1       2.535   1.576  -1.333  1.00  0.00     0.163 HD
BRANCH   6   8
ATOM      8  C   UNL     1       3.151  -0.808   0.911  1.00  0.00     0.039 A 
ATOM      9  C   UNL     1       4.283  -0.343   1.574  1.00  0.00     0.014 A 
ATOM     10  C   UNL     1       2.729  -2.128   1.096  1.00  0.00     0.014 A 
ATOM     11  C   UNL     1       5.118  -1.241   2.215  1.00  0.00     0.010 A 
ATOM     12  C   UNL     1       3.492  -2.998   1.884  1.00  0.00     0.010 A 
ATOM     13  C   UNL     1       4.717  -2.572   2.418  1.00  0.00    -0.014 A 
BRANCH  13  14
ATOM     14  C   UNL     1       5.574  -3.431   3.276  1.00  0.00     0.031 A 
ATOM     15  C   UNL     1       6.212  -4.690   2.760  1.00  0.00     0.074 A 
ATOM     16  C   UNL     1       5.839  -3.001   4.527  1.00  0.00     0.049 A 
ATOM     17  N   UNL     1       7.052  -5.492   3.367  1.00  0.00    -0.248 NA
ATOM     18  C   UNL     1       5.862  -5.114   1.396  1.00  0.00     0.031 C 
ATOM     19  C   UNL     1       5.255  -1.804   5.143  1.00  0.00     0.029 A 
ATOM     20  N   UNL     1       6.689  -3.482   5.488  1.00  0.00    -0.354 N 
ATOM     21  C   UNL     1       7.327  -6.513   2.467  1.00  0.00     0.074 A 
ATOM     22  C   UNL     1       6.534  -6.253   1.284  1.00  0.00     0.031 C 
ATOM     23  C   UNL     1       5.820  -1.601   6.339  1.00  0.00     0.029 A 
ATOM     24  C   UNL     1       6.731  -2.702   6.618  1.00  0.00     0.049 A 
ATOM     25  H   UNL     1       7.217  -4.305   5.379  1.00  0.00     0.167 HD
ATOM     26  C   UNL     1       8.175  -7.561   2.614  1.00  0.00     0.037 A 
ATOM     27  C   UNL     1       7.406  -2.865   7.769  1.00  0.00     0.037 A 
ATOM     28  C   UNL     1       8.959  -7.812   3.799  1.00  0.00     0.049 A 
ATOM     29  C   UNL     1       8.310  -4.054   7.910  1.00  0.00     0.074 A 
ATOM     30  C   UNL     1       9.850  -8.843   4.043  1.00  0.00     0.029 A 
ATOM     31  N   UNL     1       8.942  -7.025   4.943  1.00  0.00    -0.354 N 
ATOM     32  N   UNL     1       8.581  -4.995   7.038  1.00  0.00    -0.248 NA
ATOM     33  C   UNL     1       9.002  -4.204   9.194  1.00  0.00     0.031 C 
ATOM     34  C   UNL     1      10.330  -8.711   5.350  1.00  0.00     0.029 A 
ATOM     35  C   UNL     1       9.791  -7.561   5.901  1.00  0.00     0.049 A 
ATOM     36  H   UNL     1       8.406  -6.207   5.058  1.00  0.00     0.167 HD
ATOM     37  C   UNL     1       9.482  -5.842   7.663  1.00  0.00     0.074 A 
ATOM     38  C   UNL     1       9.744  -5.278   8.972  1.00  0.00     0.031 C 
ATOM     39  C   UNL     1      10.036  -6.991   7.202  1.00  0.00     0.037 A 
BRANCH  26  40
ATOM     40  C   UNL     1       8.303  -8.527   1.469  1.00  0.00     0.064 A 
ATOM     41  C   UNL     1       8.937  -8.169   0.270  1.00  0.00     0.173 A 
ATOM     42  C   UNL     1       7.849  -9.850   1.597  1.00  0.00     0.173 A 
ATOM     43  F   UNL     1       9.381  -6.915   0.089  1.00  0.00    -0.203 F 
ATOM     44  C   UNL     1       9.096  -9.090  -0.763  1.00  0.00     0.198 A 
ATOM     45  C   UNL     1       8.038 -10.778   0.574  1.00  0.00     0.198 A 
ATOM     46  F   UNL     1       7.242 -10.251   2.724  1.00  0.00    -0.203 F 
ATOM     47  F   UNL     1       9.672  -8.713  -1.913  1.00  0.00    -0.200 F 
ATOM     48  C   UNL     1       8.657 -10.396  -0.606  1.00  0.00     0.200 A 
ATOM     49  F   UNL     1       7.627 -12.043   0.735  1.00  0.00    -0.200 F 
ATOM     50  F   UNL     1       8.826 -11.286  -1.594  1.00  0.00    -0.200 F 
ENDBRANCH  26  40
BRANCH  27  51
ATOM     51  C   UNL     1       7.218  -1.899   8.884  1.00  0.00     0.064 A 
ATOM     52  C   UNL     1       8.272  -1.100   9.347  1.00  0.00     0.173 A 
ATOM     53  C   UNL     1       5.973  -1.768   9.522  1.00  0.00     0.173 A 
ATOM     54  F   UNL     1       9.484  -1.197   8.781  1.00  0.00    -0.203 F 
ATOM     55  C   UNL     1       8.098  -0.235  10.425  1.00  0.00     0.198 A 
ATOM     56  C   UNL     1       5.790  -0.871  10.570  1.00  0.00     0.198 A 
ATOM     57  F   UNL     1       4.927  -2.501   9.113  1.00  0.00    -0.203 F 
ATOM     58  F   UNL     1       9.139   0.469  10.889  1.00  0.00    -0.200 F 
ATOM     59  C   UNL     1       6.856  -0.116  11.031  1.00  0.00     0.200 A 
ATOM     60  F   UNL     1       4.581  -0.743  11.134  1.00  0.00    -0.200 F 
ATOM     61  F   UNL     1       6.689   0.718  12.066  1.00  0.00    -0.200 F 
ENDBRANCH  27  51
BRANCH  39  62
ATOM     62  C   UNL     1      10.999  -7.691   8.118  1.00  0.00     0.064 A 
ATOM     63  C   UNL     1      10.574  -8.299   9.311  1.00  0.00     0.173 A 
ATOM     64  C   UNL     1      12.365  -7.745   7.806  1.00  0.00     0.173 A 
ATOM     65  F   UNL     1       9.280  -8.261   9.665  1.00  0.00    -0.203 F 
ATOM     66  C   UNL     1      11.488  -8.889  10.178  1.00  0.00     0.198 A 
ATOM     67  C   UNL     1      13.271  -8.372   8.657  1.00  0.00     0.198 A 
ATOM     68  F   UNL     1      12.825  -7.187   6.676  1.00  0.00    -0.203 F 
ATOM     69  F   UNL     1      11.069  -9.393  11.348  1.00  0.00    -0.200 F 
ATOM     70  C   UNL     1      12.835  -8.930   9.849  1.00  0.00     0.200 A 
ATOM     71  F   UNL     1      14.569  -8.424   8.329  1.00  0.00    -0.200 F 
ATOM     72  F   UNL     1      13.714  -9.495  10.687  1.00  0.00    -0.200 F 
ENDBRANCH  39  62
ENDBRANCH  13  14
ENDBRANCH   6   8
ENDBRANCH   3   4
ENDBRANCH   2   3
ENDBRANCH   1   2
BRANCH   1  73
ATOM     73  N   UNL     1       4.967   2.968  -3.428  1.00  0.00    -0.352 N 
ATOM     74  C   UNL     1       5.814   3.643  -4.275  1.00  0.00     0.253 C 
ATOM     75  H   UNL     1       4.707   3.459  -2.616  1.00  0.00     0.163 HD
ATOM     76  O   UNL     1       6.372   4.671  -3.905  1.00  0.00    -0.269 OA
BRANCH  74  77
ATOM     77  C   UNL     1       6.100   3.078  -5.610  1.00  0.00     0.064 A 
ATOM     78  C   UNL     1       5.018   2.654  -6.397  1.00  0.00     0.036 A 
ATOM     79  C   UNL     1       7.425   2.913  -6.051  1.00  0.00     0.054 A 
ATOM     80  C   UNL     1       5.250   1.887  -7.528  1.00  0.00     0.041 A 
ATOM     81  C   UNL     1       7.623   2.034  -7.120  1.00  0.00     0.028 A 
ATOM     82  Cl  UNL     1       3.926   1.295  -8.447  1.00  0.00    -0.084 Cl
ATOM     83  C   UNL     1       6.549   1.536  -7.867  1.00  0.00     0.023 A 
BRANCH  79  84
ATOM     84  N   UNL     1       8.472   3.635  -5.420  1.00  0.00    -0.321 N 
ATOM     85  C   UNL     1       9.758   3.953  -5.814  1.00  0.00     0.255 C 
ATOM     86  H   UNL     1       8.236   3.975  -4.527  1.00  0.00     0.170 HD
ATOM     87  O   UNL     1      10.541   4.508  -5.048  1.00  0.00    -0.269 OA
BRANCH  85  88
ATOM     88  C   UNL     1      10.229   3.641  -7.178  1.00  0.00     0.041 A 
ATOM     89  C   UNL     1      11.306   2.732  -7.295  1.00  0.00     0.015 A 
ATOM     90  C   UNL     1       9.514   4.090  -8.300  1.00  0.00     0.028 A 
ATOM     91  C   UNL     1      11.587   2.134  -8.523  1.00  0.00     0.015 A 
ATOM     92  C   UNL     1       9.799   3.459  -9.495  1.00  0.00     0.054 A 
ATOM     93  C   UNL     1      10.780   2.486  -9.589  1.00  0.00     0.053 A 
ATOM     94  C   UNL     1       9.065   3.466 -10.761  1.00  0.00     0.261 C 
ATOM     95  C   UNL     1      10.641   1.847 -10.892  1.00  0.00     0.261 C 
ATOM     96  O   UNL     1       8.071   4.139 -10.959  1.00  0.00    -0.269 OA
ATOM     97  N   UNL     1       9.650   2.519 -11.553  1.00  0.00    -0.267 N 
ATOM     98  O   UNL     1      11.253   0.848 -11.215  1.00  0.00    -0.269 OA
BRANCH  97  99
ATOM     99  C   UNL     1       9.169   2.146 -12.867  1.00  0.00     0.204 C 
BRANCH  99 100
ATOM    100  C   UNL     1      10.202   2.486 -13.880  1.00  0.00     0.123 A 
ATOM    101  C   UNL     1      11.431   1.940 -14.195  1.00  0.00     0.047 A 
ATOM    102  O   UNL     1       9.947   3.553 -14.689  1.00  0.00    -0.467 OA
ATOM    103  C   UNL     1      11.967   2.733 -15.235  1.00  0.00     0.042 A 
ATOM    104  C   UNL     1      11.023   3.694 -15.507  1.00  0.00     0.195 A 
ENDBRANCH  99 100
ENDBRANCH  97  99
ENDBRANCH  85  88
ENDBRANCH  79  84
ENDBRANCH  74  77
ENDBRANCH   1  73
TORSDOF 14
