REMARK SMILES CC(C)=CC[N@H+]1CCCC[C@H]1C(=O)NCCCNC(=O)c1ccc(-c2c3nc(c(-c4c(F)c(F)c(F)c(F)c4F)c4ccc([nH]4)c(-c4c(F)c(F)c(F)c(F)c4F)c4nc(c(-c5c(F)c(F)c(F)c(F)c5F)c5ccc2[nH]5)C=C4)C=C3)cc1
REMARK SMILES IDX 16 1 15 2 14 3 12 4 13 5 11 7 6 8 7 9 8 11 10 12 9 13 5 14
REMARK SMILES IDX 4 15 1 16 2 17 3 18 17 19 18 20 19 21 20 23 21 24 22 25
REMARK SMILES IDX 83 26 23 27 82 28 24 29 25 30 26 31 76 32 27 33 81 34 75 35
REMARK SMILES IDX 77 36 28 37 80 38 74 39 73 40 29 42 61 43 41 44 60 45 42 46
REMARK SMILES IDX 45 47 59 48 78 49 43 50 44 51 58 53 79 54 46 55 30 56 31 57
REMARK SMILES IDX 39 58 32 59 33 60 37 61 40 62 34 63 35 64 38 65 36 66 62 67
REMARK SMILES IDX 63 68 71 69 64 70 65 71 69 72 72 73 66 74 67 75 70 76 68 77
REMARK SMILES IDX 47 78 48 79 56 80 49 81 50 82 54 83 57 84 51 85 52 86 55 87
REMARK SMILES IDX 53 88
REMARK H PARENT 14 6 6 10 18 22 77 41 45 52
REMARK Flexibility Score: inf
ROOT
ATOM      1  C   UNL     1       0.938   0.446  -4.220  1.00  0.00     0.042 C 
ENDROOT
BRANCH   1   2
ATOM      2  C   UNL     1       1.499  -0.762  -3.502  1.00  0.00     0.118 C 
BRANCH   2   3
ATOM      3  N   UNL     1       2.417  -1.583  -4.257  1.00  0.00    -0.351 N 
ATOM      4  C   UNL     1       3.406  -2.432  -3.851  1.00  0.00     0.278 C 
ATOM      5  O   UNL     1       3.901  -3.103  -4.764  1.00  0.00    -0.268 OA
ATOM      6  H   UNL     1       2.312  -1.518  -5.234  1.00  0.00     0.163 HD
BRANCH   4   7
ATOM      7  C   UNL     1       3.945  -2.502  -2.381  1.00  0.00     0.274 C 
ATOM      8  N   UNL     1       3.092  -3.225  -1.381  1.00  0.00    -0.321 N 
ATOM      9  C   UNL     1       2.862  -4.613  -1.790  1.00  0.00     0.263 C 
ATOM     10  H   UNL     1       3.609  -3.263  -0.503  1.00  0.00     0.349 HD
ATOM     11  C   UNL     1       4.184  -5.381  -1.794  1.00  0.00     0.062 C 
ATOM     12  C   UNL     1       5.330  -3.188  -2.356  1.00  0.00     0.076 C 
ATOM     13  C   UNL     1       5.267  -4.696  -2.621  1.00  0.00     0.012 C 
BRANCH   8  14
ATOM     14  C   UNL     1       1.874  -2.506  -1.065  1.00  0.00     0.291 C 
BRANCH  14  15
ATOM     15  C   UNL     1       1.200  -2.679   0.265  1.00  0.00     0.032 C 
ATOM     16  C   UNL     1       0.728  -0.207   0.506  1.00  0.00     0.039 C 
ATOM     17  C   UNL     1       0.610  -1.654   0.928  1.00  0.00    -0.075 C 
ATOM     18  C   UNL     1      -0.291  -1.895   2.105  1.00  0.00     0.039 C 
ENDBRANCH  14  15
ENDBRANCH   8  14
ENDBRANCH   4   7
ENDBRANCH   2   3
ENDBRANCH   1   2
BRANCH   1  19
ATOM     19  C   UNL     1       0.173   0.129  -5.492  1.00  0.00     0.118 C 
BRANCH  19  20
ATOM     20  N   UNL     1      -1.070  -0.608  -5.284  1.00  0.00    -0.352 N 
ATOM     21  C   UNL     1      -2.389  -0.215  -5.298  1.00  0.00     0.251 C 
ATOM     22  H   UNL     1      -0.940  -1.567  -5.099  1.00  0.00     0.163 HD
ATOM     23  O   UNL     1      -3.263  -1.028  -5.003  1.00  0.00    -0.269 OA
BRANCH  21  24
ATOM     24  C   UNL     1      -2.772   1.181  -5.607  1.00  0.00     0.039 A 
ATOM     25  C   UNL     1      -3.820   1.776  -4.897  1.00  0.00     0.014 A 
ATOM     26  C   UNL     1      -2.106   1.916  -6.583  1.00  0.00     0.014 A 
ATOM     27  C   UNL     1      -4.112   3.131  -5.089  1.00  0.00     0.010 A 
ATOM     28  C   UNL     1      -2.292   3.289  -6.664  1.00  0.00     0.010 A 
ATOM     29  C   UNL     1      -3.305   3.916  -5.926  1.00  0.00    -0.014 A 
BRANCH  29  30
ATOM     30  C   UNL     1      -3.503   5.383  -6.077  1.00  0.00     0.031 A 
ATOM     31  C   UNL     1      -3.733   5.971  -7.445  1.00  0.00     0.074 A 
ATOM     32  C   UNL     1      -3.372   6.194  -5.009  1.00  0.00     0.049 A 
ATOM     33  N   UNL     1      -3.776   7.227  -7.813  1.00  0.00    -0.248 NA
ATOM     34  C   UNL     1      -3.884   5.020  -8.559  1.00  0.00     0.031 C 
ATOM     35  C   UNL     1      -3.082   5.759  -3.641  1.00  0.00     0.029 A 
ATOM     36  N   UNL     1      -3.450   7.561  -4.909  1.00  0.00    -0.354 N 
ATOM     37  C   UNL     1      -3.918   7.210  -9.195  1.00  0.00     0.074 A 
ATOM     38  C   UNL     1      -3.886   5.826  -9.608  1.00  0.00     0.031 C 
ATOM     39  C   UNL     1      -3.041   6.832  -2.835  1.00  0.00     0.029 A 
ATOM     40  C   UNL     1      -3.254   8.034  -3.634  1.00  0.00     0.049 A 
ATOM     41  H   UNL     1      -3.630   8.148  -5.679  1.00  0.00     0.167 HD
ATOM     42  C   UNL     1      -4.094   8.252 -10.042  1.00  0.00     0.037 A 
ATOM     43  C   UNL     1      -3.243   9.296  -3.163  1.00  0.00     0.037 A 
ATOM     44  C   UNL     1      -4.189   9.624  -9.620  1.00  0.00     0.049 A 
ATOM     45  C   UNL     1      -3.477  10.435  -4.118  1.00  0.00     0.074 A 
ATOM     46  C   UNL     1      -4.449  10.746 -10.386  1.00  0.00     0.029 A 
ATOM     47  N   UNL     1      -4.036  10.057  -8.311  1.00  0.00    -0.354 N 
ATOM     48  N   UNL     1      -3.677  10.401  -5.413  1.00  0.00    -0.248 NA
ATOM     49  C   UNL     1      -3.489  11.788  -3.545  1.00  0.00     0.031 C 
ATOM     50  C   UNL     1      -4.416  11.864  -9.545  1.00  0.00     0.029 A 
ATOM     51  C   UNL     1      -4.182  11.432  -8.249  1.00  0.00     0.049 A 
ATOM     52  H   UNL     1      -3.851   9.473  -7.541  1.00  0.00     0.167 HD
ATOM     53  C   UNL     1      -3.868  11.719  -5.805  1.00  0.00     0.074 A 
ATOM     54  C   UNL     1      -3.774  12.528  -4.607  1.00  0.00     0.031 C 
ATOM     55  C   UNL     1      -4.098  12.216  -7.044  1.00  0.00     0.037 A 
BRANCH  42  56
ATOM     56  C   UNL     1      -4.216   7.944 -11.507  1.00  0.00     0.064 A 
ATOM     57  C   UNL     1      -5.333   7.271 -12.028  1.00  0.00     0.173 A 
ATOM     58  C   UNL     1      -3.217   8.347 -12.406  1.00  0.00     0.173 A 
ATOM     59  F   UNL     1      -6.311   6.853 -11.211  1.00  0.00    -0.203 F 
ATOM     60  C   UNL     1      -5.426   6.981 -13.387  1.00  0.00     0.198 A 
ATOM     61  C   UNL     1      -3.330   8.084 -13.769  1.00  0.00     0.198 A 
ATOM     62  F   UNL     1      -2.131   8.998 -11.963  1.00  0.00    -0.203 F 
ATOM     63  F   UNL     1      -6.473   6.284 -13.850  1.00  0.00    -0.200 F 
ATOM     64  C   UNL     1      -4.429   7.393 -14.257  1.00  0.00     0.200 A 
ATOM     65  F   UNL     1      -2.371   8.495 -14.611  1.00  0.00    -0.200 F 
ATOM     66  F   UNL     1      -4.522   7.117 -15.565  1.00  0.00    -0.200 F 
ENDBRANCH  42  56
BRANCH  43  67
ATOM     67  C   UNL     1      -3.037   9.548  -1.713  1.00  0.00     0.064 A 
ATOM     68  C   UNL     1      -4.089  10.016  -0.911  1.00  0.00     0.173 A 
ATOM     69  C   UNL     1      -1.796   9.332  -1.097  1.00  0.00     0.173 A 
ATOM     70  F   UNL     1      -5.290  10.257  -1.458  1.00  0.00    -0.203 F 
ATOM     71  C   UNL     1      -3.901  10.279   0.444  1.00  0.00     0.198 A 
ATOM     72  C   UNL     1      -1.617   9.568   0.264  1.00  0.00     0.198 A 
ATOM     73  F   UNL     1      -0.760   8.877  -1.817  1.00  0.00    -0.203 F 
ATOM     74  F   UNL     1      -4.911  10.769   1.175  1.00  0.00    -0.200 F 
ATOM     75  C   UNL     1      -2.667  10.049   1.032  1.00  0.00     0.200 A 
ATOM     76  F   UNL     1      -0.427   9.330   0.833  1.00  0.00    -0.200 F 
ATOM     77  F   UNL     1      -2.487  10.298   2.336  1.00  0.00    -0.200 F 
ENDBRANCH  43  67
BRANCH  55  78
ATOM     78  C   UNL     1      -4.304  13.697  -7.164  1.00  0.00     0.064 A 
ATOM     79  C   UNL     1      -3.242  14.602  -7.023  1.00  0.00     0.173 A 
ATOM     80  C   UNL     1      -5.573  14.213  -7.470  1.00  0.00     0.173 A 
ATOM     81  F   UNL     1      -2.014  14.158  -6.716  1.00  0.00    -0.203 F 
ATOM     82  C   UNL     1      -3.447  15.972  -7.161  1.00  0.00     0.198 A 
ATOM     83  C   UNL     1      -5.769  15.581  -7.636  1.00  0.00     0.198 A 
ATOM     84  F   UNL     1      -6.620  13.388  -7.622  1.00  0.00    -0.203 F 
ATOM     85  F   UNL     1      -2.428  16.821  -6.978  1.00  0.00    -0.200 F 
ATOM     86  C   UNL     1      -4.708  16.459  -7.475  1.00  0.00     0.200 A 
ATOM     87  F   UNL     1      -6.984  16.049  -7.953  1.00  0.00    -0.200 F 
ATOM     88  F   UNL     1      -4.901  17.778  -7.616  1.00  0.00    -0.200 F 
ENDBRANCH  55  78
ENDBRANCH  29  30
ENDBRANCH  21  24
ENDBRANCH  19  20
ENDBRANCH   1  19
TORSDOF 12
