REMARK SMILES CCC(CC)(NC(=O)NCc1ccccc1F)C(=O)NCCCNC(=O)c1ccc(-c2c3nc(c(-c4c(F)c(F)c(F)c(F)c4F)c4ccc([nH]4)c(-c4c(F)c(F)c(F)c(F)c4F)c4nc(c(-c5c(F)c(F)c(F)c(F)c5F)c5ccc2[nH]5)C=C4)C=C3)cc1
REMARK SMILES IDX 21 1 20 2 18 3 19 4 3 6 2 7 1 8 4 9 5 10 6 11 7 12 8 14 9 15
REMARK SMILES IDX 10 17 11 18 12 19 16 20 13 21 15 22 17 23 14 24 22 25 23 26
REMARK SMILES IDX 24 27 25 28 26 30 27 31 28 32 89 33 29 34 88 35 30 36 31 37
REMARK SMILES IDX 32 38 82 39 33 40 87 41 81 42 83 43 34 44 86 45 80 46 79 47
REMARK SMILES IDX 35 49 67 50 47 51 66 52 48 53 51 54 65 55 84 56 49 57 50 58
REMARK SMILES IDX 64 60 85 61 52 62 36 63 37 64 45 65 38 66 39 67 43 68 46 69
REMARK SMILES IDX 40 70 41 71 44 72 42 73 68 74 69 75 77 76 70 77 71 78 75 79
REMARK SMILES IDX 78 80 72 81 73 82 76 83 74 84 53 85 54 86 62 87 55 88 56 89
REMARK SMILES IDX 60 90 63 91 57 92 58 93 61 94 59 95
REMARK H PARENT 20 5 6 13 9 16 24 29 83 48 51 59
REMARK Flexibility Score: inf
ROOT
ATOM      1  C   UNL     1       1.663  -0.563   5.375  1.00  0.00     0.117 C 
ENDROOT
BRANCH   1   2
ATOM      2  N   UNL     1       2.405  -0.130   4.191  1.00  0.00    -0.354 N 
ATOM      3  C   UNL     1       2.024  -0.040   2.863  1.00  0.00     0.245 C 
ATOM      4  O   UNL     1       2.525   0.858   2.179  1.00  0.00    -0.272 OA
ATOM      5  H   UNL     1       3.333   0.145   4.369  1.00  0.00     0.163 HD
BRANCH   3   6
ATOM      6  C   UNL     1       0.868  -0.892   2.296  1.00  0.00     0.120 C 
BRANCH   6   7
ATOM      7  C   UNL     1       0.819  -1.169   0.767  1.00  0.00     0.035 C 
ATOM      8  C   UNL     1       0.862   0.008  -0.195  1.00  0.00     0.007 C 
ENDBRANCH   6   7
BRANCH   6   9
ATOM      9  C   UNL     1      -0.374  -0.021   2.713  1.00  0.00     0.035 C 
ATOM     10  C   UNL     1      -1.769  -0.566   2.487  1.00  0.00     0.007 C 
ENDBRANCH   6   9
BRANCH   6  11
ATOM     11  N   UNL     1       0.965  -2.212   2.944  1.00  0.00    -0.324 N 
ATOM     12  C   UNL     1       1.937  -3.134   3.048  1.00  0.00     0.315 C 
ATOM     13  H   UNL     1       0.134  -2.476   3.402  1.00  0.00     0.166 HD
ATOM     14  O   UNL     1       1.595  -4.226   3.519  1.00  0.00    -0.249 OA
ATOM     15  N   UNL     1       3.243  -2.985   2.793  1.00  0.00    -0.334 N 
ATOM     16  H   UNL     1       3.752  -3.691   3.252  1.00  0.00     0.165 HD
BRANCH  15  17
ATOM     17  C   UNL     1       4.166  -2.112   2.052  1.00  0.00     0.156 C 
BRANCH  17  18
ATOM     18  C   UNL     1       5.134  -1.298   2.893  1.00  0.00     0.007 A 
ATOM     19  C   UNL     1       5.267   0.084   2.679  1.00  0.00     0.008 A 
ATOM     20  C   UNL     1       5.943  -1.855   3.884  1.00  0.00     0.128 A 
ATOM     21  C   UNL     1       5.984   0.900   3.562  1.00  0.00     0.001 A 
ATOM     22  C   UNL     1       6.712  -1.055   4.739  1.00  0.00     0.039 A 
ATOM     23  F   UNL     1       5.952  -3.183   4.075  1.00  0.00    -0.207 F 
ATOM     24  C   UNL     1       6.686   0.331   4.615  1.00  0.00     0.003 A 
ENDBRANCH  17  18
ENDBRANCH  15  17
ENDBRANCH   6  11
ENDBRANCH   3   6
ENDBRANCH   1   2
BRANCH   1  25
ATOM     25  C   UNL     1       2.063  -1.842   6.115  1.00  0.00     0.042 C 
BRANCH  25  26
ATOM     26  C   UNL     1       3.526  -2.099   6.419  1.00  0.00     0.118 C 
BRANCH  26  27
ATOM     27  N   UNL     1       4.215  -0.986   7.038  1.00  0.00    -0.352 N 
ATOM     28  C   UNL     1       5.194  -0.981   8.000  1.00  0.00     0.251 C 
ATOM     29  H   UNL     1       3.937  -0.096   6.721  1.00  0.00     0.163 HD
ATOM     30  O   UNL     1       5.638   0.090   8.401  1.00  0.00    -0.269 OA
BRANCH  28  31
ATOM     31  C   UNL     1       5.704  -2.242   8.589  1.00  0.00     0.039 A 
ATOM     32  C   UNL     1       5.845  -2.296   9.979  1.00  0.00     0.014 A 
ATOM     33  C   UNL     1       6.085  -3.341   7.812  1.00  0.00     0.014 A 
ATOM     34  C   UNL     1       6.306  -3.464  10.591  1.00  0.00     0.010 A 
ATOM     35  C   UNL     1       6.511  -4.524   8.427  1.00  0.00     0.010 A 
ATOM     36  C   UNL     1       6.610  -4.602   9.823  1.00  0.00    -0.014 A 
BRANCH  36  37
ATOM     37  C   UNL     1       6.927  -5.886  10.501  1.00  0.00     0.031 A 
ATOM     38  C   UNL     1       8.300  -6.490  10.451  1.00  0.00     0.074 A 
ATOM     39  C   UNL     1       5.943  -6.517  11.172  1.00  0.00     0.049 A 
ATOM     40  N   UNL     1       8.752  -7.558  11.062  1.00  0.00    -0.248 NA
ATOM     41  C   UNL     1       9.293  -5.821   9.599  1.00  0.00     0.031 C 
ATOM     42  C   UNL     1       4.554  -6.061  11.243  1.00  0.00     0.029 A 
ATOM     43  N   UNL     1       5.957  -7.661  11.929  1.00  0.00    -0.354 N 
ATOM     44  C   UNL     1      10.080  -7.683  10.679  1.00  0.00     0.074 A 
ATOM     45  C   UNL     1      10.349  -6.612   9.742  1.00  0.00     0.031 C 
ATOM     46  C   UNL     1       3.861  -6.888  12.038  1.00  0.00     0.029 A 
ATOM     47  C   UNL     1       4.746  -7.950  12.509  1.00  0.00     0.049 A 
ATOM     48  H   UNL     1       6.758  -8.221  12.046  1.00  0.00     0.167 HD
ATOM     49  C   UNL     1      10.994  -8.596  11.091  1.00  0.00     0.037 A 
ATOM     50  C   UNL     1       4.387  -8.949  13.336  1.00  0.00     0.037 A 
ATOM     51  C   UNL     1      10.721  -9.662  12.024  1.00  0.00     0.049 A 
ATOM     52  C   UNL     1       5.420  -9.949  13.774  1.00  0.00     0.074 A 
ATOM     53  C   UNL     1      11.597 -10.603  12.538  1.00  0.00     0.029 A 
ATOM     54  N   UNL     1       9.477  -9.937  12.574  1.00  0.00    -0.354 N 
ATOM     55  N   UNL     1       6.693 -10.010  13.469  1.00  0.00    -0.248 NA
ATOM     56  C   UNL     1       4.968 -11.013  14.681  1.00  0.00     0.031 C 
ATOM     57  C   UNL     1      10.874 -11.479  13.354  1.00  0.00     0.029 A 
ATOM     58  C   UNL     1       9.558 -11.049  13.400  1.00  0.00     0.049 A 
ATOM     59  H   UNL     1       8.657  -9.419  12.404  1.00  0.00     0.167 HD
ATOM     60  C   UNL     1       7.197 -11.107  14.152  1.00  0.00     0.074 A 
ATOM     61  C   UNL     1       6.099 -11.665  14.914  1.00  0.00     0.031 C 
ATOM     62  C   UNL     1       8.457 -11.609  14.142  1.00  0.00     0.037 A 
BRANCH  49  63
ATOM     63  C   UNL     1      12.393  -8.483  10.553  1.00  0.00     0.064 A 
ATOM     64  C   UNL     1      12.916  -9.472   9.706  1.00  0.00     0.173 A 
ATOM     65  C   UNL     1      13.246  -7.442  10.949  1.00  0.00     0.173 A 
ATOM     66  F   UNL     1      12.147 -10.495   9.304  1.00  0.00    -0.203 F 
ATOM     67  C   UNL     1      14.245  -9.431   9.289  1.00  0.00     0.198 A 
ATOM     68  C   UNL     1      14.566  -7.389  10.507  1.00  0.00     0.198 A 
ATOM     69  F   UNL     1      12.796  -6.468  11.754  1.00  0.00    -0.203 F 
ATOM     70  F   UNL     1      14.732 -10.407   8.511  1.00  0.00    -0.200 F 
ATOM     71  C   UNL     1      15.067  -8.388   9.687  1.00  0.00     0.200 A 
ATOM     72  F   UNL     1      15.354  -6.369  10.877  1.00  0.00    -0.200 F 
ATOM     73  F   UNL     1      16.344  -8.347   9.280  1.00  0.00    -0.200 F 
ENDBRANCH  49  63
BRANCH  50  74
ATOM     74  C   UNL     1       2.990  -9.017  13.839  1.00  0.00     0.064 A 
ATOM     75  C   UNL     1       1.920  -9.319  12.983  1.00  0.00     0.173 A 
ATOM     76  C   UNL     1       2.695  -8.746  15.182  1.00  0.00     0.173 A 
ATOM     77  F   UNL     1       2.150  -9.580  11.688  1.00  0.00    -0.203 F 
ATOM     78  C   UNL     1       0.607  -9.326  13.448  1.00  0.00     0.198 A 
ATOM     79  C   UNL     1       1.384  -8.783  15.652  1.00  0.00     0.198 A 
ATOM     80  F   UNL     1       3.686  -8.472  16.043  1.00  0.00    -0.203 F 
ATOM     81  F   UNL     1      -0.400  -9.579  12.600  1.00  0.00    -0.200 F 
ATOM     82  C   UNL     1       0.340  -9.063  14.783  1.00  0.00     0.200 A 
ATOM     83  F   UNL     1       1.133  -8.553  16.948  1.00  0.00    -0.200 F 
ATOM     84  F   UNL     1      -0.922  -9.081  15.232  1.00  0.00    -0.200 F 
ENDBRANCH  50  74
BRANCH  62  85
ATOM     85  C   UNL     1       8.718 -12.828  14.982  1.00  0.00     0.064 A 
ATOM     86  C   UNL     1       9.541 -12.753  16.116  1.00  0.00     0.173 A 
ATOM     87  C   UNL     1       8.183 -14.081  14.644  1.00  0.00     0.173 A 
ATOM     88  F   UNL     1      10.086 -11.582  16.481  1.00  0.00    -0.203 F 
ATOM     89  C   UNL     1       9.820 -13.885  16.878  1.00  0.00     0.198 A 
ATOM     90  C   UNL     1       8.436 -15.204  15.428  1.00  0.00     0.198 A 
ATOM     91  F   UNL     1       7.379 -14.206  13.577  1.00  0.00    -0.203 F 
ATOM     92  F   UNL     1      10.630 -13.793  17.941  1.00  0.00    -0.200 F 
ATOM     93  C   UNL     1       9.260 -15.107  16.538  1.00  0.00     0.200 A 
ATOM     94  F   UNL     1       7.869 -16.378  15.115  1.00  0.00    -0.200 F 
ATOM     95  F   UNL     1       9.509 -16.191  17.287  1.00  0.00    -0.200 F 
ENDBRANCH  62  85
ENDBRANCH  36  37
ENDBRANCH  28  31
ENDBRANCH  26  27
ENDBRANCH  25  26
ENDBRANCH   1  25
TORSDOF 15
