REMARK SMILES COc1c[nH]c(C[N@H+]2CCC[C@@H](c3ccc(C(=O)NCCCNC(=O)c4ccc(-c5c6nc(c(-c7c(F)c(F)c(F)c(F)c7F)c7ccc([nH]7)c(-c7c(F)c(F)c(F)c(F)c7F)c7nc(c(-c8c(F)c(F)c(F)c(F)c8F)c8ccc5[nH]8)C=C7)C=C6)cc4)cc3)C2)cc1=O
REMARK SMILES IDX 20 1 19 2 17 3 18 4 16 6 13 7 14 8 90 9 15 10 89 11 12 12
REMARK SMILES IDX 8 13 9 14 91 15 10 17 11 18 7 19 6 20 3 21 4 22 93 23 5 24
REMARK SMILES IDX 92 25 94 26 2 28 1 29 21 30 22 31 23 32 24 33 25 35 26 36
REMARK SMILES IDX 27 37 88 38 28 39 87 40 29 41 30 42 31 43 81 44 32 45 86 46
REMARK SMILES IDX 80 47 82 48 33 49 85 50 79 51 78 52 34 54 66 55 46 56 65 57
REMARK SMILES IDX 47 58 50 59 64 60 83 61 48 62 49 63 63 65 84 66 51 67 35 68
REMARK SMILES IDX 36 69 44 70 37 71 38 72 42 73 45 74 39 75 40 76 43 77 41 78
REMARK SMILES IDX 67 79 68 80 76 81 69 82 70 83 74 84 77 85 71 86 72 87 75 88
REMARK SMILES IDX 73 89 52 90 53 91 61 92 54 93 55 94 59 95 62 96 56 97 57 98
REMARK SMILES IDX 60 99 58 100
REMARK H PARENT 19 5 8 16 5 27 23 34 82 53 50 64
REMARK Flexibility Score: inf
ROOT
ATOM      1  C   UNL     1      -6.365   8.727   5.232  1.00  0.00     0.118 C 
ENDROOT
BRANCH   1   2
ATOM      2  N   UNL     1      -6.380   8.538   3.794  1.00  0.00    -0.352 N 
ATOM      3  C   UNL     1      -5.382   8.255   2.898  1.00  0.00     0.251 C 
ATOM      4  O   UNL     1      -5.702   8.089   1.721  1.00  0.00    -0.269 OA
ATOM      5  H   UNL     1      -7.271   8.629   3.386  1.00  0.00     0.163 HD
BRANCH   3   6
ATOM      6  C   UNL     1      -3.959   8.083   3.295  1.00  0.00     0.039 A 
ATOM      7  C   UNL     1      -1.251   7.588   3.942  1.00  0.00    -0.039 A 
ATOM      8  C   UNL     1      -1.862   6.938   2.859  1.00  0.00     0.005 A 
ATOM      9  C   UNL     1      -1.994   8.537   4.652  1.00  0.00     0.005 A 
ATOM     10  C   UNL     1      -3.202   7.174   2.548  1.00  0.00     0.014 A 
ATOM     11  C   UNL     1      -3.328   8.796   4.317  1.00  0.00     0.014 A 
BRANCH   7  12
ATOM     12  C   UNL     1       0.184   7.292   4.350  1.00  0.00     0.074 C 
ATOM     13  N   UNL     1       1.808   5.428   4.833  1.00  0.00    -0.329 N 
ATOM     14  C   UNL     1       2.740   5.967   3.832  1.00  0.00     0.262 C 
ATOM     15  C   UNL     1       0.419   5.774   4.507  1.00  0.00     0.270 C 
ATOM     16  H   UNL     1       2.023   5.874   5.725  1.00  0.00     0.348 HD
ATOM     17  C   UNL     1       2.606   7.487   3.710  1.00  0.00     0.062 C 
ATOM     18  C   UNL     1       1.180   7.894   3.351  1.00  0.00     0.020 C 
BRANCH  13  19
ATOM     19  C   UNL     1       2.002   3.977   5.051  1.00  0.00     0.317 C 
BRANCH  19  20
ATOM     20  C   UNL     1       1.732   3.064   3.858  1.00  0.00     0.074 A 
ATOM     21  C   UNL     1       0.988   1.610   1.510  1.00  0.00     0.182 A 
ATOM     22  C   UNL     1       0.093   2.176   2.331  1.00  0.00     0.133 A 
ATOM     23  C   UNL     1       2.430   1.699   1.943  1.00  0.00     0.223 A 
ATOM     24  N   UNL     1       0.420   2.821   3.492  1.00  0.00    -0.357 N 
ATOM     25  C   UNL     1       2.738   2.507   3.160  1.00  0.00     0.083 A 
ATOM     26  O   UNL     1       3.352   1.165   1.333  1.00  0.00    -0.286 OA
ATOM     27  H   UNL     1      -0.303   3.122   4.088  1.00  0.00     0.166 HD
BRANCH  21  28
ATOM     28  O   UNL     1       0.574   1.055   0.313  1.00  0.00    -0.491 OA
ATOM     29  C   UNL     1       1.168  -0.203   0.017  1.00  0.00     0.278 C 
ENDBRANCH  21  28
ENDBRANCH  19  20
ENDBRANCH  13  19
ENDBRANCH   7  12
ENDBRANCH   3   6
ENDBRANCH   1   2
BRANCH   1  30
ATOM     30  C   UNL     1      -6.392  10.212   5.590  1.00  0.00     0.042 C 
BRANCH  30  31
ATOM     31  C   UNL     1      -7.731  10.882   5.300  1.00  0.00     0.118 C 
BRANCH  31  32
ATOM     32  N   UNL     1      -8.768  10.452   6.224  1.00  0.00    -0.352 N 
ATOM     33  C   UNL     1      -9.553  11.193   7.071  1.00  0.00     0.251 C 
ATOM     34  H   UNL     1      -8.932   9.481   6.245  1.00  0.00     0.163 HD
ATOM     35  O   UNL     1     -10.219  10.626   7.931  1.00  0.00    -0.269 OA
BRANCH  33  36
ATOM     36  C   UNL     1      -9.597  12.668   6.964  1.00  0.00     0.039 A 
ATOM     37  C   UNL     1      -9.634  13.424   8.140  1.00  0.00     0.014 A 
ATOM     38  C   UNL     1      -9.656  13.307   5.722  1.00  0.00     0.014 A 
ATOM     39  C   UNL     1      -9.687  14.817   8.072  1.00  0.00     0.010 A 
ATOM     40  C   UNL     1      -9.641  14.698   5.654  1.00  0.00     0.010 A 
ATOM     41  C   UNL     1      -9.668  15.466   6.828  1.00  0.00    -0.014 A 
BRANCH  41  42
ATOM     42  C   UNL     1      -9.689  16.947   6.735  1.00  0.00     0.031 A 
ATOM     43  C   UNL     1     -10.870  17.649   6.126  1.00  0.00     0.074 A 
ATOM     44  C   UNL     1      -8.617  17.653   7.139  1.00  0.00     0.049 A 
ATOM     45  N   UNL     1     -11.046  18.925   5.893  1.00  0.00    -0.248 NA
ATOM     46  C   UNL     1     -11.991  16.800   5.696  1.00  0.00     0.031 C 
ATOM     47  C   UNL     1      -7.394  17.081   7.702  1.00  0.00     0.029 A 
ATOM     48  N   UNL     1      -8.379  19.004   7.126  1.00  0.00    -0.354 N 
ATOM     49  C   UNL     1     -12.284  19.029   5.274  1.00  0.00     0.074 A 
ATOM     50  C   UNL     1     -12.796  17.683   5.125  1.00  0.00     0.031 C 
ATOM     51  C   UNL     1      -6.539  18.075   7.994  1.00  0.00     0.029 A 
ATOM     52  C   UNL     1      -7.141  19.348   7.610  1.00  0.00     0.049 A 
ATOM     53  H   UNL     1      -9.033  19.664   6.800  1.00  0.00     0.167 HD
ATOM     54  C   UNL     1     -12.943  20.146   4.883  1.00  0.00     0.037 A 
ATOM     55  C   UNL     1      -6.556  20.555   7.724  1.00  0.00     0.037 A 
ATOM     56  C   UNL     1     -12.441  21.484   5.059  1.00  0.00     0.049 A 
ATOM     57  C   UNL     1      -7.311  21.782   7.296  1.00  0.00     0.074 A 
ATOM     58  C   UNL     1     -13.061  22.686   4.763  1.00  0.00     0.029 A 
ATOM     59  N   UNL     1     -11.193  21.796   5.578  1.00  0.00    -0.354 N 
ATOM     60  N   UNL     1      -8.511  21.875   6.776  1.00  0.00    -0.248 NA
ATOM     61  C   UNL     1      -6.634  23.073   7.479  1.00  0.00     0.031 C 
ATOM     62  C   UNL     1     -12.171  23.723   5.064  1.00  0.00     0.029 A 
ATOM     63  C   UNL     1     -11.014  23.170   5.590  1.00  0.00     0.049 A 
ATOM     64  H   UNL     1     -10.531  21.137   5.891  1.00  0.00     0.167 HD
ATOM     65  C   UNL     1      -8.742  23.230   6.588  1.00  0.00     0.074 A 
ATOM     66  C   UNL     1      -7.563  23.924   7.064  1.00  0.00     0.031 C 
ATOM     67  C   UNL     1      -9.833  23.844   6.068  1.00  0.00     0.037 A 
BRANCH  54  68
ATOM     68  C   UNL     1     -14.280  19.965   4.223  1.00  0.00     0.064 A 
ATOM     69  C   UNL     1     -15.402  19.525   4.942  1.00  0.00     0.173 A 
ATOM     70  C   UNL     1     -14.446  20.252   2.860  1.00  0.00     0.173 A 
ATOM     71  F   UNL     1     -15.294  19.227   6.246  1.00  0.00    -0.203 F 
ATOM     72  C   UNL     1     -16.631  19.344   4.313  1.00  0.00     0.198 A 
ATOM     73  C   UNL     1     -15.684  20.099   2.241  1.00  0.00     0.198 A 
ATOM     74  F   UNL     1     -13.408  20.682   2.127  1.00  0.00    -0.203 F 
ATOM     75  F   UNL     1     -17.674  18.870   5.008  1.00  0.00    -0.200 F 
ATOM     76  C   UNL     1     -16.772  19.636   2.965  1.00  0.00     0.200 A 
ATOM     77  F   UNL     1     -15.822  20.392   0.940  1.00  0.00    -0.200 F 
ATOM     78  F   UNL     1     -17.956  19.462   2.361  1.00  0.00    -0.200 F 
ENDBRANCH  54  68
BRANCH  55  79
ATOM     79  C   UNL     1      -5.191  20.656   8.299  1.00  0.00     0.064 A 
ATOM     80  C   UNL     1      -4.990  21.183   9.582  1.00  0.00     0.173 A 
ATOM     81  C   UNL     1      -4.066  20.205   7.593  1.00  0.00     0.173 A 
ATOM     82  F   UNL     1      -6.034  21.644  10.287  1.00  0.00    -0.203 F 
ATOM     83  C   UNL     1      -3.713  21.265  10.134  1.00  0.00     0.198 A 
ATOM     84  C   UNL     1      -2.793  20.265   8.156  1.00  0.00     0.198 A 
ATOM     85  F   UNL     1      -4.208  19.686   6.365  1.00  0.00    -0.203 F 
ATOM     86  F   UNL     1      -3.545  21.802  11.350  1.00  0.00    -0.200 F 
ATOM     87  C   UNL     1      -2.617  20.800   9.423  1.00  0.00     0.200 A 
ATOM     88  F   UNL     1      -1.738  19.800   7.473  1.00  0.00    -0.200 F 
ATOM     89  F   UNL     1      -1.391  20.868   9.959  1.00  0.00    -0.200 F 
ENDBRANCH  55  79
BRANCH  67  90
ATOM     90  C   UNL     1      -9.813  25.343   6.008  1.00  0.00     0.064 A 
ATOM     91  C   UNL     1      -9.020  26.029   5.077  1.00  0.00     0.173 A 
ATOM     92  C   UNL     1     -10.624  26.099   6.867  1.00  0.00     0.173 A 
ATOM     93  F   UNL     1      -8.215  25.351   4.245  1.00  0.00    -0.203 F 
ATOM     94  C   UNL     1      -9.025  27.420   5.022  1.00  0.00     0.198 A 
ATOM     95  C   UNL     1     -10.647  27.488   6.792  1.00  0.00     0.198 A 
ATOM     96  F   UNL     1     -11.404  25.488   7.773  1.00  0.00    -0.203 F 
ATOM     97  F   UNL     1      -8.228  28.058   4.154  1.00  0.00    -0.200 F 
ATOM     98  C   UNL     1      -9.843  28.148   5.874  1.00  0.00     0.200 A 
ATOM     99  F   UNL     1     -11.446  28.189   7.608  1.00  0.00    -0.200 F 
ATOM    100  F   UNL     1      -9.851  29.487   5.816  1.00  0.00    -0.200 F 
ENDBRANCH  67  90
ENDBRANCH  41  42
ENDBRANCH  33  36
ENDBRANCH  31  32
ENDBRANCH  30  31
ENDBRANCH   1  30
TORSDOF 14
