REMARK SMILES O=C1NC(=O)/C(=C/c2ccc(OCc3cn(-c4ccc(C(=O)NCCCNC(=O)c5ccc(-c6c7nc(c(-c8c(F)c(F)c(F)c(F)c8F)c8ccc([nH]8)c(-c8c(F)c(F)c(F)c(F)c8F)c8nc(c(-c9c(F)c(F)c(F)c(F)c9F)c9ccc6[nH]9)C=C8)C=C7)cc5)cc4)nn3)cc2)S1
REMARK SMILES IDX 21 1 22 2 23 3 20 5 17 6 18 7 94 8 19 9 93 10 16 11 14 12
REMARK SMILES IDX 15 13 96 14 95 15 13 16 12 17 11 18 8 19 9 20 98 21 10 22
REMARK SMILES IDX 97 23 7 24 1 25 2 26 3 27 99 28 4 29 6 31 5 32 24 33 25 34
REMARK SMILES IDX 26 35 27 36 28 37 29 39 30 40 31 41 92 42 32 43 91 44 33 45
REMARK SMILES IDX 34 46 35 47 85 48 36 49 90 50 84 51 86 52 37 53 89 54 83 55
REMARK SMILES IDX 82 56 38 58 70 59 50 60 69 61 51 62 54 63 68 64 87 65 52 66
REMARK SMILES IDX 53 67 67 69 88 70 55 71 39 72 40 73 48 74 41 75 42 76 46 77
REMARK SMILES IDX 49 78 43 79 44 80 47 81 45 82 71 83 72 84 80 85 73 86 74 87
REMARK SMILES IDX 78 88 81 89 75 90 76 91 79 92 77 93 56 94 57 95 65 96 58 97
REMARK SMILES IDX 59 98 63 99 66 100 60 101 61 102 64 103 62 104
REMARK H PARENT 23 4 3 30 27 38 86 57 54 68
REMARK Flexibility Score: inf
ROOT
ATOM      1  C   UNL     1      -7.772   8.649   0.617  1.00  0.00     0.251 C 
ATOM      2  O   UNL     1      -8.633   8.044   1.254  1.00  0.00    -0.269 OA
ATOM      3  N   UNL     1      -8.172   9.725  -0.142  1.00  0.00    -0.352 N 
ATOM      4  H   UNL     1      -9.146   9.872  -0.148  1.00  0.00     0.163 HD
ENDROOT
BRANCH   1   5
ATOM      5  C   UNL     1      -6.345   8.235   0.739  1.00  0.00     0.039 A 
ATOM      6  C   UNL     1      -3.654   7.590   1.169  1.00  0.00     0.066 A 
ATOM      7  C   UNL     1      -4.624   7.169   2.086  1.00  0.00     0.029 A 
ATOM      8  C   UNL     1      -4.026   8.255   0.007  1.00  0.00     0.029 A 
ATOM      9  C   UNL     1      -5.963   7.520   1.883  1.00  0.00     0.016 A 
ATOM     10  C   UNL     1      -5.371   8.516  -0.221  1.00  0.00     0.016 A 
BRANCH   6  11
ATOM     11  N   UNL     1      -2.293   7.331   1.406  1.00  0.00    -0.220 N 
ATOM     12  C   UNL     1      -0.115   7.348   1.432  1.00  0.00     0.120 A 
ATOM     13  C   UNL     1      -1.204   8.046   0.960  1.00  0.00     0.144 A 
ATOM     14  N   UNL     1      -0.570   6.284   2.167  1.00  0.00    -0.131 NA
ATOM     15  N   UNL     1      -1.890   6.303   2.173  1.00  0.00    -0.062 NA
BRANCH  12  16
ATOM     16  C   UNL     1       1.346   7.648   1.349  1.00  0.00     0.289 C 
BRANCH  16  17
ATOM     17  O   UNL     1       2.059   6.979   0.295  1.00  0.00    -0.487 OA
BRANCH  17  18
ATOM     18  C   UNL     1       2.187   5.618   0.356  1.00  0.00     0.119 A 
ATOM     19  C   UNL     1       2.220   2.817   0.121  1.00  0.00    -0.024 A 
ATOM     20  C   UNL     1       2.682   3.615  -0.928  1.00  0.00     0.012 A 
ATOM     21  C   UNL     1       1.839   3.425   1.319  1.00  0.00     0.012 A 
ATOM     22  C   UNL     1       2.656   5.010  -0.811  1.00  0.00     0.047 A 
ATOM     23  C   UNL     1       1.859   4.815   1.445  1.00  0.00     0.047 A 
BRANCH  19  24
ATOM     24  C   UNL     1       2.149   1.361  -0.013  1.00  0.00     0.029 C 
ATOM     25  O   UNL     1      -2.447  -0.711   0.018  1.00  0.00    -0.261 OA
ATOM     26  C   UNL     1      -1.251  -0.434  -0.004  1.00  0.00     0.290 C 
ATOM     27  N   UNL     1      -0.236  -1.326  -0.049  1.00  0.00    -0.282 N 
ATOM     28  S   UNL     1      -0.615   1.195   0.016  1.00  0.00    -0.022 SA
ATOM     29  C   UNL     1       1.041  -0.847  -0.080  1.00  0.00     0.265 C 
ATOM     30  H   UNL     1      -0.414  -2.295  -0.060  1.00  0.00     0.174 HD
ATOM     31  C   UNL     1       1.019   0.639  -0.031  1.00  0.00     0.083 C 
ATOM     32  O   UNL     1       2.042  -1.538  -0.125  1.00  0.00    -0.268 OA
ENDBRANCH  19  24
ENDBRANCH  17  18
ENDBRANCH  16  17
ENDBRANCH  12  16
ENDBRANCH   6  11
ENDBRANCH   1   5
BRANCH   3  33
ATOM     33  C   UNL     1      -7.419  10.686  -0.937  1.00  0.00     0.118 C 
BRANCH  33  34
ATOM     34  C   UNL     1      -7.284  10.240  -2.403  1.00  0.00     0.042 C 
BRANCH  34  35
ATOM     35  C   UNL     1      -8.482  10.642  -3.231  1.00  0.00     0.118 C 
BRANCH  35  36
ATOM     36  N   UNL     1      -8.549  12.093  -3.468  1.00  0.00    -0.352 N 
ATOM     37  C   UNL     1      -9.548  12.820  -4.096  1.00  0.00     0.251 C 
ATOM     38  H   UNL     1      -7.783  12.616  -3.136  1.00  0.00     0.163 HD
ATOM     39  O   UNL     1      -9.346  13.948  -4.525  1.00  0.00    -0.269 OA
BRANCH  37  40
ATOM     40  C   UNL     1     -10.872  12.194  -4.222  1.00  0.00     0.039 A 
ATOM     41  C   UNL     1     -11.681  12.291  -5.356  1.00  0.00     0.014 A 
ATOM     42  C   UNL     1     -11.239  11.390  -3.159  1.00  0.00     0.014 A 
ATOM     43  C   UNL     1     -12.836  11.512  -5.402  1.00  0.00     0.010 A 
ATOM     44  C   UNL     1     -12.101  10.373  -3.396  1.00  0.00     0.010 A 
ATOM     45  C   UNL     1     -13.029  10.551  -4.401  1.00  0.00    -0.014 A 
BRANCH  45  46
ATOM     46  C   UNL     1     -14.183   9.678  -4.314  1.00  0.00     0.031 A 
ATOM     47  C   UNL     1     -14.400   8.810  -5.491  1.00  0.00     0.074 A 
ATOM     48  C   UNL     1     -14.820   9.479  -3.136  1.00  0.00     0.049 A 
ATOM     49  N   UNL     1     -15.377   8.860  -6.331  1.00  0.00    -0.248 NA
ATOM     50  C   UNL     1     -13.340   7.859  -5.858  1.00  0.00     0.031 C 
ATOM     51  C   UNL     1     -14.505  10.003  -1.795  1.00  0.00     0.029 A 
ATOM     52  N   UNL     1     -15.847   8.634  -2.876  1.00  0.00    -0.354 N 
ATOM     53  C   UNL     1     -15.165   7.817  -7.223  1.00  0.00     0.074 A 
ATOM     54  C   UNL     1     -13.816   7.363  -7.003  1.00  0.00     0.031 C 
ATOM     55  C   UNL     1     -15.151   9.279  -0.855  1.00  0.00     0.029 A 
ATOM     56  C   UNL     1     -16.061   8.376  -1.527  1.00  0.00     0.049 A 
ATOM     57  H   UNL     1     -16.399   8.234  -3.587  1.00  0.00     0.167 HD
ATOM     58  C   UNL     1     -16.204   7.252  -7.899  1.00  0.00     0.037 A 
ATOM     59  C   UNL     1     -16.900   7.434  -1.033  1.00  0.00     0.037 A 
ATOM     60  C   UNL     1     -17.386   8.077  -7.827  1.00  0.00     0.049 A 
ATOM     61  C   UNL     1     -17.868   7.117  -2.121  1.00  0.00     0.074 A 
ATOM     62  C   UNL     1     -17.672   9.380  -8.191  1.00  0.00     0.029 A 
ATOM     63  N   UNL     1     -18.369   7.726  -6.931  1.00  0.00    -0.354 N 
ATOM     64  N   UNL     1     -18.739   7.980  -2.578  1.00  0.00    -0.248 NA
ATOM     65  C   UNL     1     -17.509   6.046  -3.042  1.00  0.00     0.031 C 
ATOM     66  C   UNL     1     -18.451   9.896  -7.111  1.00  0.00     0.029 A 
ATOM     67  C   UNL     1     -18.664   8.856  -6.206  1.00  0.00     0.049 A 
ATOM     68  H   UNL     1     -18.781   6.838  -6.828  1.00  0.00     0.167 HD
ATOM     69  C   UNL     1     -18.727   7.808  -3.956  1.00  0.00     0.074 A 
ATOM     70  C   UNL     1     -17.987   6.566  -4.178  1.00  0.00     0.031 C 
ATOM     71  C   UNL     1     -19.036   8.830  -4.810  1.00  0.00     0.037 A 
BRANCH  58  72
ATOM     72  C   UNL     1     -16.265   5.804  -8.304  1.00  0.00     0.064 A 
ATOM     73  C   UNL     1     -17.285   5.381  -9.177  1.00  0.00     0.173 A 
ATOM     74  C   UNL     1     -15.557   4.776  -7.646  1.00  0.00     0.173 A 
ATOM     75  F   UNL     1     -18.031   6.278  -9.841  1.00  0.00    -0.203 F 
ATOM     76  C   UNL     1     -17.622   4.033  -9.316  1.00  0.00     0.198 A 
ATOM     77  C   UNL     1     -15.859   3.429  -7.830  1.00  0.00     0.198 A 
ATOM     78  F   UNL     1     -14.632   5.031  -6.713  1.00  0.00    -0.203 F 
ATOM     79  F   UNL     1     -18.683   3.686 -10.057  1.00  0.00    -0.200 F 
ATOM     80  C   UNL     1     -16.913   3.058  -8.638  1.00  0.00     0.200 A 
ATOM     81  F   UNL     1     -15.171   2.501  -7.150  1.00  0.00    -0.200 F 
ATOM     82  F   UNL     1     -17.275   1.772  -8.719  1.00  0.00    -0.200 F 
ENDBRANCH  58  72
BRANCH  59  83
ATOM     83  C   UNL     1     -16.665   6.555   0.140  1.00  0.00     0.064 A 
ATOM     84  C   UNL     1     -17.710   5.821   0.721  1.00  0.00     0.173 A 
ATOM     85  C   UNL     1     -15.359   6.215   0.553  1.00  0.00     0.173 A 
ATOM     86  F   UNL     1     -18.978   6.048   0.349  1.00  0.00    -0.203 F 
ATOM     87  C   UNL     1     -17.463   4.797   1.644  1.00  0.00     0.198 A 
ATOM     88  C   UNL     1     -15.115   5.198   1.478  1.00  0.00     0.198 A 
ATOM     89  F   UNL     1     -14.288   6.800  -0.001  1.00  0.00    -0.203 F 
ATOM     90  F   UNL     1     -18.484   4.080   2.136  1.00  0.00    -0.200 F 
ATOM     91  C   UNL     1     -16.166   4.481   2.014  1.00  0.00     0.200 A 
ATOM     92  F   UNL     1     -13.853   4.878   1.796  1.00  0.00    -0.200 F 
ATOM     93  F   UNL     1     -15.927   3.462   2.852  1.00  0.00    -0.200 F 
ENDBRANCH  59  83
BRANCH  71  94
ATOM     94  C   UNL     1     -19.574  10.113  -4.231  1.00  0.00     0.064 A 
ATOM     95  C   UNL     1     -18.852  10.940  -3.351  1.00  0.00     0.173 A 
ATOM     96  C   UNL     1     -20.787  10.612  -4.720  1.00  0.00     0.173 A 
ATOM     97  F   UNL     1     -17.636  10.594  -2.922  1.00  0.00    -0.203 F 
ATOM     98  C   UNL     1     -19.341  12.183  -2.949  1.00  0.00     0.198 A 
ATOM     99  C   UNL     1     -21.259  11.868  -4.344  1.00  0.00     0.198 A 
ATOM    100  F   UNL     1     -21.494   9.900  -5.611  1.00  0.00    -0.203 F 
ATOM    101  F   UNL     1     -18.628  12.946  -2.107  1.00  0.00    -0.200 F 
ATOM    102  C   UNL     1     -20.542  12.649  -3.452  1.00  0.00     0.200 A 
ATOM    103  F   UNL     1     -22.397  12.336  -4.876  1.00  0.00    -0.200 F 
ATOM    104  F   UNL     1     -20.994  13.861  -3.102  1.00  0.00    -0.200 F 
ENDBRANCH  71  94
ENDBRANCH  45  46
ENDBRANCH  37  40
ENDBRANCH  35  36
ENDBRANCH  34  35
ENDBRANCH  33  34
ENDBRANCH   3  33
TORSDOF 15
