REMARK SMILES N#Cc1ccc(C(F)(F)F)nc1N1CCOC[C@H]1C(=O)NCCCNC(=O)c1ccc(-c2c3nc(c(-c4c(F)c(F)c(F)c(F)c4F)c4ccc([nH]4)c(-c4c(F)c(F)c(F)c(F)c4F)c4nc(c(-c5c(F)c(F)c(F)c(F)c5F)c5ccc2[nH]5)C=C4)C=C3)cc1
REMARK SMILES IDX 23 1 22 2 21 3 19 4 20 5 18 7 13 8 14 9 15 10 17 11 16 12
REMARK SMILES IDX 12 13 3 14 4 15 5 16 11 17 6 18 2 19 1 20 7 21 8 22 9 23
REMARK SMILES IDX 10 24 24 25 25 26 26 27 27 29 28 30 29 31 90 32 30 33 89 34
REMARK SMILES IDX 31 35 32 36 33 37 83 38 34 39 88 40 82 41 84 42 35 43 87 44
REMARK SMILES IDX 81 45 80 46 36 48 68 49 48 50 67 51 49 52 52 53 66 54 85 55
REMARK SMILES IDX 50 56 51 57 65 59 86 60 53 61 37 62 38 63 46 64 39 65 40 66
REMARK SMILES IDX 44 67 47 68 41 69 42 70 45 71 43 72 69 73 70 74 78 75 71 76
REMARK SMILES IDX 72 77 76 78 79 79 73 80 74 81 77 82 75 83 54 84 55 85 63 86
REMARK SMILES IDX 56 87 57 88 61 89 64 90 58 91 59 92 62 93 60 94
REMARK H PARENT 21 6 25 28 84 47 52 58
REMARK Flexibility Score: inf
ROOT
ATOM      1  C   UNL     1       0.953  -4.394   3.400  1.00  0.00     0.042 C 
ENDROOT
BRANCH   1   2
ATOM      2  C   UNL     1       1.065  -5.204   2.114  1.00  0.00     0.117 C 
BRANCH   2   3
ATOM      3  N   UNL     1      -0.134  -5.103   1.307  1.00  0.00    -0.354 N 
ATOM      4  C   UNL     1      -0.481  -4.377   0.210  1.00  0.00     0.245 C 
ATOM      5  O   UNL     1      -1.621  -4.624  -0.214  1.00  0.00    -0.273 OA
ATOM      6  H   UNL     1      -0.858  -5.690   1.623  1.00  0.00     0.163 HD
BRANCH   4   7
ATOM      7  C   UNL     1       0.417  -3.378  -0.566  1.00  0.00     0.199 C 
ATOM      8  N   UNL     1       0.735  -2.092   0.102  1.00  0.00    -0.339 N 
ATOM      9  C   UNL     1       1.875  -2.094   1.008  1.00  0.00     0.147 C 
ATOM     10  C   UNL     1       3.099  -2.727   0.342  1.00  0.00     0.181 C 
ATOM     11  C   UNL     1       1.712  -4.018  -1.116  1.00  0.00     0.195 C 
ATOM     12  O   UNL     1       2.821  -4.023  -0.204  1.00  0.00    -0.377 OA
BRANCH   8  13
ATOM     13  C   UNL     1      -0.029  -0.958  -0.087  1.00  0.00     0.148 A 
ATOM     14  C   UNL     1       0.530   0.327  -0.217  1.00  0.00     0.095 A 
ATOM     15  C   UNL     1      -0.296   1.453  -0.221  1.00  0.00     0.025 A 
ATOM     16  C   UNL     1      -1.669   1.292  -0.163  1.00  0.00     0.035 A 
ATOM     17  N   UNL     1      -1.376  -1.107  -0.103  1.00  0.00    -0.225 NA
ATOM     18  C   UNL     1      -2.190   0.000  -0.138  1.00  0.00     0.146 A 
BRANCH  14  19
ATOM     19  C   UNL     1       1.935   0.547  -0.402  1.00  0.00     0.103 C 
ATOM     20  N   UNL     1       3.072   0.733  -0.524  1.00  0.00    -0.192 NA
ENDBRANCH  14  19
BRANCH  18  21
ATOM     21  C   UNL     1      -3.709  -0.169  -0.144  1.00  0.00     0.433 C 
ATOM     22  F   UNL     1      -4.175  -0.825  -1.243  1.00  0.00    -0.165 F 
ATOM     23  F   UNL     1      -4.184  -0.839   0.943  1.00  0.00    -0.165 F 
ATOM     24  F   UNL     1      -4.371   1.031  -0.139  1.00  0.00    -0.165 F 
ENDBRANCH  18  21
ENDBRANCH   8  13
ENDBRANCH   4   7
ENDBRANCH   2   3
ENDBRANCH   1   2
BRANCH   1  25
ATOM     25  C   UNL     1       0.450  -5.200   4.576  1.00  0.00     0.118 C 
BRANCH  25  26
ATOM     26  N   UNL     1       1.427  -6.189   5.009  1.00  0.00    -0.352 N 
ATOM     27  C   UNL     1       2.077  -6.332   6.206  1.00  0.00     0.251 C 
ATOM     28  H   UNL     1       1.657  -6.865   4.331  1.00  0.00     0.163 HD
ATOM     29  O   UNL     1       3.042  -7.088   6.278  1.00  0.00    -0.269 OA
BRANCH  27  30
ATOM     30  C   UNL     1       1.641  -5.581   7.404  1.00  0.00     0.039 A 
ATOM     31  C   UNL     1       2.601  -5.229   8.355  1.00  0.00     0.014 A 
ATOM     32  C   UNL     1       0.300  -5.258   7.623  1.00  0.00     0.014 A 
ATOM     33  C   UNL     1       2.215  -4.535   9.500  1.00  0.00     0.010 A 
ATOM     34  C   UNL     1      -0.060  -4.445   8.690  1.00  0.00     0.010 A 
ATOM     35  C   UNL     1       0.886  -4.111   9.663  1.00  0.00    -0.014 A 
BRANCH  35  36
ATOM     36  C   UNL     1       0.482  -3.350  10.870  1.00  0.00     0.031 A 
ATOM     37  C   UNL     1      -0.551  -3.905  11.812  1.00  0.00     0.074 A 
ATOM     38  C   UNL     1       1.055  -2.156  11.110  1.00  0.00     0.049 A 
ATOM     39  N   UNL     1      -0.977  -3.417  12.950  1.00  0.00    -0.248 NA
ATOM     40  C   UNL     1      -1.217  -5.158  11.418  1.00  0.00     0.031 C 
ATOM     41  C   UNL     1       2.016  -1.489  10.228  1.00  0.00     0.029 A 
ATOM     42  N   UNL     1       0.929  -1.299  12.172  1.00  0.00    -0.354 N 
ATOM     43  C   UNL     1      -1.955  -4.297  13.397  1.00  0.00     0.074 A 
ATOM     44  C   UNL     1      -2.117  -5.306  12.377  1.00  0.00     0.031 C 
ATOM     45  C   UNL     1       2.438  -0.359  10.813  1.00  0.00     0.029 A 
ATOM     46  C   UNL     1       1.742  -0.196  12.085  1.00  0.00     0.049 A 
ATOM     47  H   UNL     1       0.314  -1.458  12.924  1.00  0.00     0.167 HD
ATOM     48  C   UNL     1      -2.633  -4.282  14.569  1.00  0.00     0.037 A 
ATOM     49  C   UNL     1       1.910   0.829  12.939  1.00  0.00     0.037 A 
ATOM     50  C   UNL     1      -2.456  -3.274  15.582  1.00  0.00     0.049 A 
ATOM     51  C   UNL     1       1.142   0.823  14.233  1.00  0.00     0.074 A 
ATOM     52  C   UNL     1      -3.050  -3.189  16.828  1.00  0.00     0.029 A 
ATOM     53  N   UNL     1      -1.629  -2.166  15.456  1.00  0.00    -0.354 N 
ATOM     54  N   UNL     1       0.284  -0.059  14.685  1.00  0.00    -0.248 NA
ATOM     55  C   UNL     1       1.380   1.950  15.141  1.00  0.00     0.031 C 
ATOM     56  C   UNL     1      -2.643  -1.991  17.424  1.00  0.00     0.029 A 
ATOM     57  C   UNL     1      -1.725  -1.373  16.589  1.00  0.00     0.049 A 
ATOM     58  H   UNL     1      -1.059  -1.972  14.678  1.00  0.00     0.167 HD
ATOM     59  C   UNL     1      -0.098   0.388  15.942  1.00  0.00     0.074 A 
ATOM     60  C   UNL     1       0.645   1.607  16.189  1.00  0.00     0.031 C 
ATOM     61  C   UNL     1      -0.983  -0.157  16.814  1.00  0.00     0.037 A 
BRANCH  48  62
ATOM     62  C   UNL     1      -3.635  -5.378  14.812  1.00  0.00     0.064 A 
ATOM     63  C   UNL     1      -3.248  -6.719  14.969  1.00  0.00     0.173 A 
ATOM     64  C   UNL     1      -5.002  -5.078  14.918  1.00  0.00     0.173 A 
ATOM     65  F   UNL     1      -1.956  -7.067  14.865  1.00  0.00    -0.203 F 
ATOM     66  C   UNL     1      -4.192  -7.719  15.186  1.00  0.00     0.198 A 
ATOM     67  C   UNL     1      -5.939  -6.076  15.176  1.00  0.00     0.198 A 
ATOM     68  F   UNL     1      -5.431  -3.815  14.780  1.00  0.00    -0.203 F 
ATOM     69  F   UNL     1      -3.803  -8.999  15.271  1.00  0.00    -0.200 F 
ATOM     70  C   UNL     1      -5.535  -7.396  15.299  1.00  0.00     0.200 A 
ATOM     71  F   UNL     1      -7.235  -5.758  15.301  1.00  0.00    -0.200 F 
ATOM     72  F   UNL     1      -6.442  -8.358  15.519  1.00  0.00    -0.200 F 
ENDBRANCH  48  62
BRANCH  49  73
ATOM     73  C   UNL     1       2.856   1.927  12.606  1.00  0.00     0.064 A 
ATOM     74  C   UNL     1       4.022   2.138  13.356  1.00  0.00     0.173 A 
ATOM     75  C   UNL     1       2.611   2.792  11.529  1.00  0.00     0.173 A 
ATOM     76  F   UNL     1       4.297   1.347  14.404  1.00  0.00    -0.203 F 
ATOM     77  C   UNL     1       4.888   3.189  13.062  1.00  0.00     0.198 A 
ATOM     78  C   UNL     1       3.497   3.819  11.212  1.00  0.00     0.198 A 
ATOM     79  F   UNL     1       1.517   2.629  10.771  1.00  0.00    -0.203 F 
ATOM     80  F   UNL     1       5.964   3.403  13.832  1.00  0.00    -0.200 F 
ATOM     81  C   UNL     1       4.628   4.025  11.986  1.00  0.00     0.200 A 
ATOM     82  F   UNL     1       3.254   4.608  10.157  1.00  0.00    -0.200 F 
ATOM     83  F   UNL     1       5.464   5.032  11.700  1.00  0.00    -0.200 F 
ENDBRANCH  49  73
BRANCH  61  84
ATOM     84  C   UNL     1      -1.156   0.541  18.135  1.00  0.00     0.064 A 
ATOM     85  C   UNL     1      -1.726   1.820  18.233  1.00  0.00     0.173 A 
ATOM     86  C   UNL     1      -0.742  -0.083  19.323  1.00  0.00     0.173 A 
ATOM     87  F   UNL     1      -2.132   2.465  17.129  1.00  0.00    -0.203 F 
ATOM     88  C   UNL     1      -1.818   2.471  19.460  1.00  0.00     0.198 A 
ATOM     89  C   UNL     1      -0.880   0.552  20.554  1.00  0.00     0.198 A 
ATOM     90  F   UNL     1      -0.204  -1.311  19.292  1.00  0.00    -0.203 F 
ATOM     91  F   UNL     1      -2.285   3.726  19.516  1.00  0.00    -0.200 F 
ATOM     92  C   UNL     1      -1.400   1.835  20.619  1.00  0.00     0.200 A 
ATOM     93  F   UNL     1      -0.497  -0.074  21.675  1.00  0.00    -0.200 F 
ATOM     94  F   UNL     1      -1.487   2.465  21.799  1.00  0.00    -0.200 F 
ENDBRANCH  61  84
ENDBRANCH  35  36
ENDBRANCH  27  30
ENDBRANCH  25  26
ENDBRANCH   1  25
TORSDOF 13
