REMARK SMILES CCc1c(Cl)ccc2c1C=C(C(=O)NCCCNC(=O)c1ccc(-c3c4nc(c(-c5c(F)c(F)c(F)c(F)c5F)c5ccc([nH]5)c(-c5c(F)c(F)c(F)c(F)c5F)c5nc(c(-c6c(F)c(F)c(F)c(F)c6F)c6ccc3[nH]6)C=C5)C=C4)cc1)[C@@H](C(F)(F)F)O2
REMARK SMILES IDX 16 1 15 2 14 3 12 4 13 5 11 7 3 8 4 9 9 10 5 11 6 12 8 13
REMARK SMILES IDX 10 14 7 15 89 16 84 17 2 18 1 19 85 20 86 21 87 22 88 23
REMARK SMILES IDX 17 24 18 25 19 26 20 28 21 29 22 30 83 31 23 32 82 33 24 34
REMARK SMILES IDX 25 35 26 36 76 37 27 38 81 39 75 40 77 41 28 42 80 43 74 44
REMARK SMILES IDX 73 45 29 47 61 48 41 49 60 50 42 51 45 52 59 53 78 54 43 55
REMARK SMILES IDX 44 56 58 58 79 59 46 60 30 61 31 62 39 63 32 64 33 65 37 66
REMARK SMILES IDX 40 67 34 68 35 69 38 70 36 71 62 72 63 73 71 74 64 75 65 76
REMARK SMILES IDX 69 77 72 78 66 79 67 80 70 81 68 82 47 83 48 84 56 85 49 86
REMARK SMILES IDX 50 87 54 88 57 89 51 90 52 91 55 92 53 93
REMARK H PARENT 14 6 18 27 77 46 45 57
REMARK Flexibility Score: inf
ROOT
ATOM      1  C   UNL     1      -1.697  -9.307  -0.192  1.00  0.00     0.042 C 
ENDROOT
BRANCH   1   2
ATOM      2  C   UNL     1      -0.441  -8.700  -0.800  1.00  0.00     0.118 C 
BRANCH   2   3
ATOM      3  N   UNL     1      -0.724  -7.446  -1.483  1.00  0.00    -0.352 N 
ATOM      4  C   UNL     1      -0.552  -6.125  -1.251  1.00  0.00     0.251 C 
ATOM      5  O   UNL     1      -0.991  -5.382  -2.135  1.00  0.00    -0.270 OA
ATOM      6  H   UNL     1      -1.159  -7.603  -2.352  1.00  0.00     0.163 HD
BRANCH   4   7
ATOM      7  C   UNL     1       0.109  -5.534  -0.050  1.00  0.00     0.067 C 
ATOM      8  C   UNL     1       1.088  -2.102   1.127  1.00  0.00    -0.019 A 
ATOM      9  C   UNL     1       1.717  -1.578   2.279  1.00  0.00     0.045 A 
ATOM     10  C   UNL     1       0.799  -3.504   1.125  1.00  0.00     0.022 A 
ATOM     11  Cl  UNL     1       2.154   0.079   2.504  1.00  0.00    -0.084 Cl
ATOM     12  C   UNL     1       2.036  -2.401   3.371  1.00  0.00     0.024 A 
ATOM     13  C   UNL     1       1.136  -4.301   2.232  1.00  0.00     0.128 A 
ATOM     14  C   UNL     1       0.121  -4.189   0.012  1.00  0.00     0.026 C 
ATOM     15  C   UNL     1       1.739  -3.756   3.353  1.00  0.00     0.048 A 
ATOM     16  O   UNL     1       0.860  -5.638   2.304  1.00  0.00    -0.475 OA
ATOM     17  C   UNL     1       0.761  -6.333   1.035  1.00  0.00     0.314 C 
BRANCH   8  18
ATOM     18  C   UNL     1       0.680  -1.305  -0.107  1.00  0.00     0.034 C 
ATOM     19  C   UNL     1       1.006   0.169  -0.293  1.00  0.00     0.009 C 
ENDBRANCH   8  18
BRANCH  17  20
ATOM     20  C   UNL     1       2.142  -6.886   0.635  1.00  0.00     0.429 C 
ATOM     21  F   UNL     1       2.509  -7.886   1.475  1.00  0.00    -0.167 F 
ATOM     22  F   UNL     1       2.148  -7.412  -0.613  1.00  0.00    -0.167 F 
ATOM     23  F   UNL     1       3.114  -5.949   0.669  1.00  0.00    -0.167 F 
ENDBRANCH  17  20
ENDBRANCH   4   7
ENDBRANCH   2   3
ENDBRANCH   1   2
BRANCH   1  24
ATOM     24  C   UNL     1      -2.571  -9.998  -1.232  1.00  0.00     0.118 C 
BRANCH  24  25
ATOM     25  N   UNL     1      -1.950 -11.212  -1.757  1.00  0.00    -0.352 N 
ATOM     26  C   UNL     1      -2.284 -12.534  -1.584  1.00  0.00     0.251 C 
ATOM     27  H   UNL     1      -1.164 -11.058  -2.329  1.00  0.00     0.163 HD
ATOM     28  O   UNL     1      -1.498 -13.413  -1.928  1.00  0.00    -0.269 OA
BRANCH  26  29
ATOM     29  C   UNL     1      -3.574 -12.902  -0.966  1.00  0.00     0.039 A 
ATOM     30  C   UNL     1      -4.737 -12.206  -1.293  1.00  0.00     0.014 A 
ATOM     31  C   UNL     1      -3.626 -13.960  -0.053  1.00  0.00     0.014 A 
ATOM     32  C   UNL     1      -5.897 -12.427  -0.565  1.00  0.00     0.010 A 
ATOM     33  C   UNL     1      -4.826 -14.255   0.602  1.00  0.00     0.010 A 
ATOM     34  C   UNL     1      -5.958 -13.453   0.391  1.00  0.00    -0.014 A 
BRANCH  34  35
ATOM     35  C   UNL     1      -7.217 -13.652   1.155  1.00  0.00     0.031 A 
ATOM     36  C   UNL     1      -7.253 -13.448   2.645  1.00  0.00     0.074 A 
ATOM     37  C   UNL     1      -8.351 -13.932   0.483  1.00  0.00     0.049 A 
ATOM     38  N   UNL     1      -8.270 -13.545   3.466  1.00  0.00    -0.248 NA
ATOM     39  C   UNL     1      -5.987 -13.092   3.305  1.00  0.00     0.031 C 
ATOM     40  C   UNL     1      -8.441 -14.134  -0.965  1.00  0.00     0.029 A 
ATOM     41  N   UNL     1      -9.647 -14.053   0.915  1.00  0.00    -0.354 N 
ATOM     42  C   UNL     1      -7.763 -13.286   4.733  1.00  0.00     0.074 A 
ATOM     43  C   UNL     1      -6.344 -13.051   4.581  1.00  0.00     0.031 C 
ATOM     44  C   UNL     1      -9.729 -14.276  -1.310  1.00  0.00     0.029 A 
ATOM     45  C   UNL     1     -10.548 -14.251  -0.103  1.00  0.00     0.049 A 
ATOM     46  H   UNL     1      -9.907 -14.003   1.863  1.00  0.00     0.167 HD
ATOM     47  C   UNL     1      -8.427 -13.235   5.912  1.00  0.00     0.037 A 
ATOM     48  C   UNL     1     -11.884 -14.407  -0.070  1.00  0.00     0.037 A 
ATOM     49  C   UNL     1      -9.845 -13.435   6.053  1.00  0.00     0.049 A 
ATOM     50  C   UNL     1     -12.587 -14.381   1.256  1.00  0.00     0.074 A 
ATOM     51  C   UNL     1     -10.611 -13.394   7.205  1.00  0.00     0.029 A 
ATOM     52  N   UNL     1     -10.713 -13.705   5.005  1.00  0.00    -0.354 N 
ATOM     53  N   UNL     1     -12.092 -14.154   2.447  1.00  0.00    -0.248 NA
ATOM     54  C   UNL     1     -14.031 -14.653   1.245  1.00  0.00     0.031 C 
ATOM     55  C   UNL     1     -11.937 -13.673   6.860  1.00  0.00     0.029 A 
ATOM     56  C   UNL     1     -12.004 -13.848   5.487  1.00  0.00     0.049 A 
ATOM     57  H   UNL     1     -10.450 -13.783   4.060  1.00  0.00     0.167 HD
ATOM     58  C   UNL     1     -13.159 -14.252   3.328  1.00  0.00     0.074 A 
ATOM     59  C   UNL     1     -14.335 -14.533   2.530  1.00  0.00     0.031 C 
ATOM     60  C   UNL     1     -13.161 -14.131   4.677  1.00  0.00     0.037 A 
BRANCH  47  61
ATOM     61  C   UNL     1      -7.632 -12.957   7.154  1.00  0.00     0.064 A 
ATOM     62  C   UNL     1      -7.141 -11.675   7.440  1.00  0.00     0.173 A 
ATOM     63  C   UNL     1      -7.424 -13.967   8.105  1.00  0.00     0.173 A 
ATOM     64  F   UNL     1      -7.303 -10.678   6.557  1.00  0.00    -0.203 F 
ATOM     65  C   UNL     1      -6.461 -11.417   8.628  1.00  0.00     0.198 A 
ATOM     66  C   UNL     1      -6.764 -13.701   9.303  1.00  0.00     0.198 A 
ATOM     67  F   UNL     1      -7.878 -15.210   7.882  1.00  0.00    -0.203 F 
ATOM     68  F   UNL     1      -5.976 -10.191   8.867  1.00  0.00    -0.200 F 
ATOM     69  C   UNL     1      -6.282 -12.427   9.562  1.00  0.00     0.200 A 
ATOM     70  F   UNL     1      -6.602 -14.675  10.209  1.00  0.00    -0.200 F 
ATOM     71  F   UNL     1      -5.641 -12.173  10.711  1.00  0.00    -0.200 F 
ENDBRANCH  47  61
BRANCH  48  72
ATOM     72  C   UNL     1     -12.633 -14.602  -1.338  1.00  0.00     0.064 A 
ATOM     73  C   UNL     1     -13.493 -13.610  -1.825  1.00  0.00     0.173 A 
ATOM     74  C   UNL     1     -12.479 -15.768  -2.103  1.00  0.00     0.173 A 
ATOM     75  F   UNL     1     -13.688 -12.486  -1.119  1.00  0.00    -0.203 F 
ATOM     76  C   UNL     1     -14.172 -13.776  -3.031  1.00  0.00     0.198 A 
ATOM     77  C   UNL     1     -13.136 -15.921  -3.322  1.00  0.00     0.198 A 
ATOM     78  F   UNL     1     -11.665 -16.746  -1.681  1.00  0.00    -0.203 F 
ATOM     79  F   UNL     1     -15.010 -12.823  -3.462  1.00  0.00    -0.200 F 
ATOM     80  C   UNL     1     -13.985 -14.926  -3.783  1.00  0.00     0.200 A 
ATOM     81  F   UNL     1     -12.938 -17.026  -4.053  1.00  0.00    -0.200 F 
ATOM     82  F   UNL     1     -14.625 -15.078  -4.950  1.00  0.00    -0.200 F 
ENDBRANCH  48  72
BRANCH  60  83
ATOM     83  C   UNL     1     -14.474 -14.297   5.379  1.00  0.00     0.064 A 
ATOM     84  C   UNL     1     -15.054 -15.563   5.545  1.00  0.00     0.173 A 
ATOM     85  C   UNL     1     -15.125 -13.191   5.944  1.00  0.00     0.173 A 
ATOM     86  F   UNL     1     -14.474 -16.647   5.009  1.00  0.00    -0.203 F 
ATOM     87  C   UNL     1     -16.249 -15.713   6.243  1.00  0.00     0.198 A 
ATOM     88  C   UNL     1     -16.307 -13.349   6.662  1.00  0.00     0.198 A 
ATOM     89  F   UNL     1     -14.605 -11.961   5.817  1.00  0.00    -0.203 F 
ATOM     90  F   UNL     1     -16.803 -16.927   6.364  1.00  0.00    -0.200 F 
ATOM     91  C   UNL     1     -16.869 -14.609   6.808  1.00  0.00     0.200 A 
ATOM     92  F   UNL     1     -16.899 -12.283   7.218  1.00  0.00    -0.200 F 
ATOM     93  F   UNL     1     -18.013 -14.758   7.491  1.00  0.00    -0.200 F 
ENDBRANCH  60  83
ENDBRANCH  34  35
ENDBRANCH  26  29
ENDBRANCH  24  25
ENDBRANCH   1  24
TORSDOF 12
