REMARK SMILES O=C(/C=C/c1ccc(NC(=O)NC2CCCC2)c(F)c1)NCCCNC(=O)c1ccc(-c2c3nc(c(-c4c(F)c(F)c(F)c(F)c4F)c4ccc([nH]4)c(-c4c(F)c(F)c(F)c(F)c4F)c4nc(c(-c5c(F)c(F)c(F)c(F)c5F)c5ccc2[nH]5)C=C4)C=C3)cc1
REMARK SMILES IDX 22 1 21 2 1 3 2 4 3 6 4 7 5 8 6 9 20 10 7 11 18 12 8 13
REMARK SMILES IDX 19 14 9 15 10 16 11 18 12 19 13 21 14 22 17 23 15 24 16 25
REMARK SMILES IDX 23 26 24 27 25 28 26 29 27 31 28 32 29 33 90 34 30 35 89 36
REMARK SMILES IDX 31 37 32 38 33 39 83 40 34 41 88 42 82 43 84 44 35 45 87 46
REMARK SMILES IDX 81 47 80 48 36 50 68 51 48 52 67 53 49 54 52 55 66 56 85 57
REMARK SMILES IDX 50 58 51 59 65 61 86 62 53 63 37 64 38 65 46 66 39 67 40 68
REMARK SMILES IDX 44 69 47 70 41 71 42 72 45 73 43 74 69 75 70 76 78 77 71 78
REMARK SMILES IDX 72 79 76 80 79 81 73 82 74 83 77 84 75 85 54 86 55 87 63 88
REMARK SMILES IDX 56 89 57 90 61 91 64 92 58 93 59 94 62 95 60 96
REMARK H PARENT 21 5 9 17 12 20 25 30 84 49 52 60
REMARK Flexibility Score: inf
ROOT
ATOM      1  C   UNL     1       2.209   2.138  -0.772  1.00  0.00     0.118 C 
ENDROOT
BRANCH   1   2
ATOM      2  N   UNL     1       2.793   0.912  -0.263  1.00  0.00    -0.352 N 
ATOM      3  O   UNL     1       0.809   0.034   0.492  1.00  0.00    -0.270 OA
ATOM      4  C   UNL     1       2.022  -0.041   0.348  1.00  0.00     0.244 C 
ATOM      5  H   UNL     1       3.762   0.763  -0.357  1.00  0.00     0.163 HD
BRANCH   4   6
ATOM      6  C   UNL     1       2.732  -1.275   0.760  1.00  0.00     0.072 C 
ATOM      7  C   UNL     1       3.973  -1.323   1.270  1.00  0.00     0.014 C 
BRANCH   7   8
ATOM      8  C   UNL     1       4.672  -2.571   1.637  1.00  0.00    -0.022 A 
ATOM      9  C   UNL     1       4.033  -3.820   1.672  1.00  0.00     0.010 A 
ATOM     10  C   UNL     1       6.048  -2.528   1.900  1.00  0.00     0.049 A 
ATOM     11  C   UNL     1       4.771  -5.002   1.774  1.00  0.00     0.030 A 
ATOM     12  C   UNL     1       6.775  -3.712   2.020  1.00  0.00     0.147 A 
ATOM     13  C   UNL     1       6.157  -4.947   1.823  1.00  0.00     0.078 A 
ATOM     14  F   UNL     1       8.108  -3.645   2.164  1.00  0.00    -0.205 F 
BRANCH  13  15
ATOM     15  N   UNL     1       6.958  -6.076   1.617  1.00  0.00    -0.305 N 
ATOM     16  C   UNL     1       6.813  -7.134   0.787  1.00  0.00     0.319 C 
ATOM     17  H   UNL     1       7.770  -6.105   2.173  1.00  0.00     0.171 HD
ATOM     18  O   UNL     1       7.447  -8.166   1.020  1.00  0.00    -0.248 OA
ATOM     19  N   UNL     1       6.113  -7.080  -0.369  1.00  0.00    -0.335 N 
ATOM     20  H   UNL     1       6.052  -7.951  -0.824  1.00  0.00     0.165 HD
BRANCH  19  21
ATOM     21  C   UNL     1       5.432  -6.015  -1.083  1.00  0.00     0.083 C 
ATOM     22  C   UNL     1       6.296  -4.828  -1.502  1.00  0.00     0.025 C 
ATOM     23  C   UNL     1       4.871  -6.449  -2.440  1.00  0.00     0.025 C 
ATOM     24  C   UNL     1       5.364  -4.056  -2.428  1.00  0.00     0.002 C 
ATOM     25  C   UNL     1       4.532  -5.127  -3.136  1.00  0.00     0.002 C 
ENDBRANCH  19  21
ENDBRANCH  13  15
ENDBRANCH   7   8
ENDBRANCH   4   6
ENDBRANCH   1   2
BRANCH   1  26
ATOM     26  C   UNL     1       2.356   3.300   0.204  1.00  0.00     0.042 C 
BRANCH  26  27
ATOM     27  C   UNL     1       3.797   3.753   0.423  1.00  0.00     0.118 C 
BRANCH  27  28
ATOM     28  N   UNL     1       4.411   4.291  -0.781  1.00  0.00    -0.352 N 
ATOM     29  C   UNL     1       5.124   5.445  -0.985  1.00  0.00     0.251 C 
ATOM     30  H   UNL     1       4.296   3.734  -1.584  1.00  0.00     0.163 HD
ATOM     31  O   UNL     1       5.427   5.760  -2.133  1.00  0.00    -0.269 OA
BRANCH  29  32
ATOM     32  C   UNL     1       5.523   6.324   0.139  1.00  0.00     0.039 A 
ATOM     33  C   UNL     1       5.524   7.707  -0.076  1.00  0.00     0.014 A 
ATOM     34  C   UNL     1       5.963   5.817   1.365  1.00  0.00     0.014 A 
ATOM     35  C   UNL     1       5.932   8.575   0.939  1.00  0.00     0.010 A 
ATOM     36  C   UNL     1       6.305   6.688   2.402  1.00  0.00     0.010 A 
ATOM     37  C   UNL     1       6.309   8.075   2.194  1.00  0.00    -0.014 A 
BRANCH  37  38
ATOM     38  C   UNL     1       6.735   8.997   3.279  1.00  0.00     0.031 A 
ATOM     39  C   UNL     1       8.155   8.986   3.775  1.00  0.00     0.074 A 
ATOM     40  C   UNL     1       5.839   9.838   3.830  1.00  0.00     0.049 A 
ATOM     41  N   UNL     1       8.711   9.716   4.711  1.00  0.00    -0.248 NA
ATOM     42  C   UNL     1       9.069   8.014   3.155  1.00  0.00     0.031 C 
ATOM     43  C   UNL     1       4.425   9.919   3.466  1.00  0.00     0.029 A 
ATOM     44  N   UNL     1       5.987  10.789   4.809  1.00  0.00    -0.354 N 
ATOM     45  C   UNL     1      10.028   9.286   4.795  1.00  0.00     0.074 A 
ATOM     46  C   UNL     1      10.179   8.197   3.855  1.00  0.00     0.031 C 
ATOM     47  C   UNL     1       3.842  10.892   4.185  1.00  0.00     0.029 A 
ATOM     48  C   UNL     1       4.833  11.484   5.079  1.00  0.00     0.049 A 
ATOM     49  H   UNL     1       6.838  10.957   5.273  1.00  0.00     0.167 HD
ATOM     50  C   UNL     1      11.029   9.772   5.568  1.00  0.00     0.037 A 
ATOM     51  C   UNL     1       4.603  12.494   5.941  1.00  0.00     0.037 A 
ATOM     52  C   UNL     1      10.888  10.874   6.483  1.00  0.00     0.049 A 
ATOM     53  C   UNL     1       5.737  13.031   6.770  1.00  0.00     0.074 A 
ATOM     54  C   UNL     1      11.853  11.456   7.288  1.00  0.00     0.029 A 
ATOM     55  N   UNL     1       9.708  11.567   6.708  1.00  0.00    -0.354 N 
ATOM     56  N   UNL     1       6.988  12.644   6.810  1.00  0.00    -0.248 NA
ATOM     57  C   UNL     1       5.429  14.158   7.663  1.00  0.00     0.031 C 
ATOM     58  C   UNL     1      11.250  12.481   8.024  1.00  0.00     0.029 A 
ATOM     59  C   UNL     1       9.921  12.569   7.642  1.00  0.00     0.049 A 
ATOM     60  H   UNL     1       8.848  11.376   6.271  1.00  0.00     0.167 HD
ATOM     61  C   UNL     1       7.623  13.496   7.703  1.00  0.00     0.074 A 
ATOM     62  C   UNL     1       6.622  14.427   8.177  1.00  0.00     0.031 C 
ATOM     63  C   UNL     1       8.922  13.504   8.091  1.00  0.00     0.037 A 
BRANCH  50  64
ATOM     64  C   UNL     1      12.379   9.127   5.449  1.00  0.00     0.064 A 
ATOM     65  C   UNL     1      12.907   8.372   6.507  1.00  0.00     0.173 A 
ATOM     66  C   UNL     1      13.177   9.308   4.309  1.00  0.00     0.173 A 
ATOM     67  F   UNL     1      12.187   8.174   7.622  1.00  0.00    -0.203 F 
ATOM     68  C   UNL     1      14.188   7.833   6.433  1.00  0.00     0.198 A 
ATOM     69  C   UNL     1      14.447   8.743   4.227  1.00  0.00     0.198 A 
ATOM     70  F   UNL     1      12.713  10.010   3.265  1.00  0.00    -0.203 F 
ATOM     71  F   UNL     1      14.683   7.140   7.468  1.00  0.00    -0.200 F 
ATOM     72  C   UNL     1      14.955   8.014   5.292  1.00  0.00     0.200 A 
ATOM     73  F   UNL     1      15.176   8.898   3.113  1.00  0.00    -0.200 F 
ATOM     74  F   UNL     1      16.183   7.483   5.216  1.00  0.00    -0.200 F 
ENDBRANCH  50  64
BRANCH  51  75
ATOM     75  C   UNL     1       3.250  13.101   6.012  1.00  0.00     0.064 A 
ATOM     76  C   UNL     1       2.167  12.412   6.576  1.00  0.00     0.173 A 
ATOM     77  C   UNL     1       3.010  14.380   5.489  1.00  0.00     0.173 A 
ATOM     78  F   UNL     1       2.345  11.184   7.084  1.00  0.00    -0.203 F 
ATOM     79  C   UNL     1       0.893  12.974   6.602  1.00  0.00     0.198 A 
ATOM     80  C   UNL     1       1.741  14.951   5.538  1.00  0.00     0.198 A 
ATOM     81  F   UNL     1       4.020  15.084   4.956  1.00  0.00    -0.203 F 
ATOM     82  F   UNL     1      -0.132  12.283   7.121  1.00  0.00    -0.200 F 
ATOM     83  C   UNL     1       0.681  14.245   6.087  1.00  0.00     0.200 A 
ATOM     84  F   UNL     1       1.546  16.187   5.060  1.00  0.00    -0.200 F 
ATOM     85  F   UNL     1      -0.542  14.790   6.123  1.00  0.00    -0.200 F 
ENDBRANCH  51  75
BRANCH  63  86
ATOM     86  C   UNL     1       9.357  14.578   9.043  1.00  0.00     0.064 A 
ATOM     87  C   UNL     1      10.204  15.608   8.606  1.00  0.00     0.173 A 
ATOM     88  C   UNL     1       8.992  14.557  10.397  1.00  0.00     0.173 A 
ATOM     89  F   UNL     1      10.589  15.668   7.322  1.00  0.00    -0.203 F 
ATOM     90  C   UNL     1      10.676  16.573   9.492  1.00  0.00     0.198 A 
ATOM     91  C   UNL     1       9.444  15.539  11.274  1.00  0.00     0.198 A 
ATOM     92  F   UNL     1       8.175  13.599  10.861  1.00  0.00    -0.203 F 
ATOM     93  F   UNL     1      11.506  17.531   9.058  1.00  0.00    -0.200 F 
ATOM     94  C   UNL     1      10.292  16.540  10.824  1.00  0.00     0.200 A 
ATOM     95  F   UNL     1       9.053  15.520  12.556  1.00  0.00    -0.200 F 
ATOM     96  F   UNL     1      10.735  17.477  11.673  1.00  0.00    -0.200 F 
ENDBRANCH  63  86
ENDBRANCH  37  38
ENDBRANCH  29  32
ENDBRANCH  27  28
ENDBRANCH  26  27
ENDBRANCH   1  26
TORSDOF 13
