REMARK SMILES O=C(NCCCNC(=O)c1ccn(Cc2c(Cl)cccc2Cl)c1)c1ccc(-c2c3nc(c(-c4c(F)c(F)c(F)c(F)c4F)c4ccc([nH]4)c(-c4c(F)c(F)c(F)c(F)c4F)c4nc(c(-c5c(F)c(F)c(F)c(F)c5F)c5ccc2[nH]5)C=C4)C=C3)cc1
REMARK SMILES IDX 5 1 4 2 3 3 1 4 2 5 24 7 25 8 86 9 26 10 85 11 27 12 28 13
REMARK SMILES IDX 29 14 79 15 30 16 84 17 78 18 80 19 31 20 83 21 77 22 76 23
REMARK SMILES IDX 32 25 64 26 44 27 63 28 45 29 48 30 62 31 81 32 46 33 47 34
REMARK SMILES IDX 61 36 82 37 49 38 33 39 34 40 42 41 35 42 36 43 40 44 43 45
REMARK SMILES IDX 37 46 38 47 41 48 39 49 65 50 66 51 74 52 67 53 68 54 72 55
REMARK SMILES IDX 75 56 69 57 70 58 73 59 71 60 50 61 51 62 59 63 52 64 53 65
REMARK SMILES IDX 57 66 60 67 54 68 55 69 58 70 56 71 6 72 7 73 8 74 9 76
REMARK SMILES IDX 10 77 11 78 23 79 12 80 13 81 14 82 15 83 16 84 21 85 17 86
REMARK SMILES IDX 18 87 20 88 22 89 19 90
REMARK H PARENT 3 6 80 24 48 35 7 75
REMARK Flexibility Score: inf
ROOT
ATOM      1  C   UNL     1       4.952  -1.843   1.282  1.00  0.00     0.042 C 
ENDROOT
BRANCH   1   2
ATOM      2  C   UNL     1       4.614  -1.143  -0.035  1.00  0.00     0.118 C 
BRANCH   2   3
ATOM      3  N   UNL     1       3.222  -0.767  -0.216  1.00  0.00    -0.352 N 
ATOM      4  O   UNL     1       1.302   0.369  -0.086  1.00  0.00    -0.269 OA
ATOM      5  C   UNL     1       2.416   0.161   0.393  1.00  0.00     0.251 C 
ATOM      6  H   UNL     1       2.764  -1.283  -0.918  1.00  0.00     0.163 HD
BRANCH   5   7
ATOM      7  C   UNL     1       2.796   0.856   1.646  1.00  0.00     0.039 A 
ATOM      8  C   UNL     1       4.100   1.253   1.946  1.00  0.00     0.014 A 
ATOM      9  C   UNL     1       1.760   1.150   2.551  1.00  0.00     0.014 A 
ATOM     10  C   UNL     1       4.386   1.849   3.168  1.00  0.00     0.010 A 
ATOM     11  C   UNL     1       2.032   1.786   3.763  1.00  0.00     0.010 A 
ATOM     12  C   UNL     1       3.350   2.144   4.063  1.00  0.00    -0.014 A 
BRANCH  12  13
ATOM     13  C   UNL     1       3.657   3.147   5.110  1.00  0.00     0.031 A 
ATOM     14  C   UNL     1       3.675   4.573   4.480  1.00  0.00     0.074 A 
ATOM     15  C   UNL     1       3.936   2.684   6.371  1.00  0.00     0.049 A 
ATOM     16  N   UNL     1       4.308   5.647   4.842  1.00  0.00    -0.248 NA
ATOM     17  C   UNL     1       2.920   4.819   3.212  1.00  0.00     0.031 C 
ATOM     18  C   UNL     1       3.795   1.277   6.809  1.00  0.00     0.029 A 
ATOM     19  N   UNL     1       4.399   3.275   7.536  1.00  0.00    -0.354 N 
ATOM     20  C   UNL     1       3.860   6.710   4.014  1.00  0.00     0.074 A 
ATOM     21  C   UNL     1       3.115   6.113   2.956  1.00  0.00     0.031 C 
ATOM     22  C   UNL     1       4.238   1.110   8.077  1.00  0.00     0.029 A 
ATOM     23  C   UNL     1       4.699   2.380   8.607  1.00  0.00     0.049 A 
ATOM     24  H   UNL     1       4.513   4.249   7.619  1.00  0.00     0.167 HD
ATOM     25  C   UNL     1       3.996   8.026   4.359  1.00  0.00     0.037 A 
ATOM     26  C   UNL     1       5.312   2.642   9.811  1.00  0.00     0.037 A 
ATOM     27  C   UNL     1       4.764   8.121   5.549  1.00  0.00     0.049 A 
ATOM     28  C   UNL     1       5.399   4.104   9.860  1.00  0.00     0.074 A 
ATOM     29  C   UNL     1       6.093   7.926   5.808  1.00  0.00     0.029 A 
ATOM     30  N   UNL     1       4.060   8.106   6.725  1.00  0.00    -0.354 N 
ATOM     31  N   UNL     1       4.391   4.888  10.093  1.00  0.00    -0.248 NA
ATOM     32  C   UNL     1       6.682   4.746   9.550  1.00  0.00     0.031 C 
ATOM     33  C   UNL     1       6.079   7.310   7.074  1.00  0.00     0.029 A 
ATOM     34  C   UNL     1       4.795   7.388   7.627  1.00  0.00     0.049 A 
ATOM     35  H   UNL     1       3.188   8.532   6.889  1.00  0.00     0.167 HD
ATOM     36  C   UNL     1       4.855   6.085   9.613  1.00  0.00     0.074 A 
ATOM     37  C   UNL     1       6.299   6.016   9.637  1.00  0.00     0.031 C 
ATOM     38  C   UNL     1       4.097   6.778   8.728  1.00  0.00     0.037 A 
BRANCH  25  39
ATOM     39  C   UNL     1       3.270   9.279   3.930  1.00  0.00     0.064 A 
ATOM     40  C   UNL     1       3.767  10.520   4.414  1.00  0.00     0.173 A 
ATOM     41  C   UNL     1       1.944   9.285   3.482  1.00  0.00     0.173 A 
ATOM     42  F   UNL     1       5.050  10.648   4.793  1.00  0.00    -0.203 F 
ATOM     43  C   UNL     1       2.934  11.613   4.637  1.00  0.00     0.198 A 
ATOM     44  C   UNL     1       1.127  10.408   3.650  1.00  0.00     0.198 A 
ATOM     45  F   UNL     1       1.374   8.186   2.976  1.00  0.00    -0.203 F 
ATOM     46  F   UNL     1       3.405  12.692   5.279  1.00  0.00    -0.200 F 
ATOM     47  C   UNL     1       1.604  11.546   4.280  1.00  0.00     0.200 A 
ATOM     48  F   UNL     1      -0.160  10.349   3.281  1.00  0.00    -0.200 F 
ATOM     49  F   UNL     1       0.775  12.556   4.574  1.00  0.00    -0.200 F 
ENDBRANCH  25  39
BRANCH  26  50
ATOM     50  C   UNL     1       5.931   1.922  11.002  1.00  0.00     0.064 A 
ATOM     51  C   UNL     1       5.832   0.558  11.295  1.00  0.00     0.173 A 
ATOM     52  C   UNL     1       6.775   2.639  11.910  1.00  0.00     0.173 A 
ATOM     53  F   UNL     1       4.979  -0.226  10.626  1.00  0.00    -0.203 F 
ATOM     54  C   UNL     1       6.605  -0.048  12.312  1.00  0.00     0.198 A 
ATOM     55  C   UNL     1       7.585   2.035  12.871  1.00  0.00     0.198 A 
ATOM     56  F   UNL     1       6.849   3.976  11.906  1.00  0.00    -0.203 F 
ATOM     57  F   UNL     1       6.478  -1.360  12.552  1.00  0.00    -0.200 F 
ATOM     58  C   UNL     1       7.516   0.681  13.061  1.00  0.00     0.200 A 
ATOM     59  F   UNL     1       8.441   2.783  13.585  1.00  0.00    -0.200 F 
ATOM     60  F   UNL     1       8.307   0.087  13.966  1.00  0.00    -0.200 F 
ENDBRANCH  26  50
BRANCH  38  61
ATOM     61  C   UNL     1       2.611   6.479   8.809  1.00  0.00     0.064 A 
ATOM     62  C   UNL     1       1.909   6.773   9.988  1.00  0.00     0.173 A 
ATOM     63  C   UNL     1       1.881   5.807   7.814  1.00  0.00     0.173 A 
ATOM     64  F   UNL     1       2.522   7.436  10.980  1.00  0.00    -0.203 F 
ATOM     65  C   UNL     1       0.574   6.399  10.165  1.00  0.00     0.198 A 
ATOM     66  C   UNL     1       0.546   5.430   7.985  1.00  0.00     0.198 A 
ATOM     67  F   UNL     1       2.444   5.508   6.646  1.00  0.00    -0.203 F 
ATOM     68  F   UNL     1      -0.058   6.703  11.307  1.00  0.00    -0.200 F 
ATOM     69  C   UNL     1      -0.107   5.722   9.166  1.00  0.00     0.200 A 
ATOM     70  F   UNL     1      -0.105   4.792   7.000  1.00  0.00    -0.200 F 
ATOM     71  F   UNL     1      -1.390   5.372   9.333  1.00  0.00    -0.200 F 
ENDBRANCH  38  61
ENDBRANCH  12  13
ENDBRANCH   5   7
ENDBRANCH   2   3
ENDBRANCH   1   2
BRANCH   1  72
ATOM     72  C   UNL     1       4.383  -3.253   1.402  1.00  0.00     0.118 C 
BRANCH  72  73
ATOM     73  N   UNL     1       4.981  -4.154   0.432  1.00  0.00    -0.352 N 
ATOM     74  C   UNL     1       5.926  -5.134   0.612  1.00  0.00     0.252 C 
ATOM     75  H   UNL     1       4.662  -4.045  -0.493  1.00  0.00     0.163 HD
ATOM     76  O   UNL     1       6.539  -5.544  -0.369  1.00  0.00    -0.269 OA
BRANCH  74  77
ATOM     77  C   UNL     1       6.147  -5.668   1.949  1.00  0.00     0.057 A 
ATOM     78  C   UNL     1       5.181  -5.994   2.941  1.00  0.00     0.033 A 
ATOM     79  C   UNL     1       7.372  -6.075   2.460  1.00  0.00     0.099 A 
ATOM     80  C   UNL     1       5.840  -6.551   4.010  1.00  0.00     0.087 A 
ATOM     81  N   UNL     1       7.181  -6.567   3.729  1.00  0.00    -0.349 N 
BRANCH  81  82
ATOM     82  C   UNL     1       8.219  -7.136   4.592  1.00  0.00     0.160 C 
BRANCH  82  83
ATOM     83  C   UNL     1       8.655  -6.167   5.668  1.00  0.00     0.009 A 
ATOM     84  C   UNL     1       7.953  -6.048   6.886  1.00  0.00     0.047 A 
ATOM     85  C   UNL     1       9.764  -5.316   5.485  1.00  0.00     0.047 A 
ATOM     86  Cl  UNL     1       6.685  -7.131   7.346  1.00  0.00    -0.084 Cl
ATOM     87  C   UNL     1       8.288  -5.069   7.830  1.00  0.00     0.021 A 
ATOM     88  C   UNL     1      10.120  -4.364   6.452  1.00  0.00     0.021 A 
ATOM     89  Cl  UNL     1      10.779  -5.407   4.087  1.00  0.00    -0.084 Cl
ATOM     90  C   UNL     1       9.368  -4.223   7.612  1.00  0.00     0.003 A 
ENDBRANCH  82  83
ENDBRANCH  81  82
ENDBRANCH  74  77
ENDBRANCH  72  73
ENDBRANCH   1  72
TORSDOF 12
