REMARK SMILES C[N@@H+]1CC[N@@H+](C)[C@H](C[NH2+]Cc2ccc(C(=O)NCCCNC(=O)c3ccc(-c4c5nc(c(-c6c(F)c(F)c(F)c(F)c6F)c6ccc([nH]6)c(-c6c(F)c(F)c(F)c(F)c6F)c6nc(c(-c7c(F)c(F)c(F)c(F)c7F)c7ccc4[nH]7)C=C6)C=C5)cc3)cn2)C1
REMARK SMILES IDX 18 1 17 2 15 3 16 4 14 6 11 7 12 8 88 9 13 10 87 11 10 12
REMARK SMILES IDX 9 13 8 16 7 17 1 18 2 19 3 20 89 21 4 23 5 24 6 25 19 27
REMARK SMILES IDX 20 28 21 29 22 30 23 32 24 33 25 34 86 35 26 36 85 37 27 38
REMARK SMILES IDX 28 39 29 40 79 41 30 42 84 43 78 44 80 45 31 46 83 47 77 48
REMARK SMILES IDX 76 49 32 51 64 52 44 53 63 54 45 55 48 56 62 57 81 58 46 59
REMARK SMILES IDX 47 60 61 62 82 63 49 64 33 65 34 66 42 67 35 68 36 69 40 70
REMARK SMILES IDX 43 71 37 72 38 73 41 74 39 75 65 76 66 77 74 78 67 79 68 80
REMARK SMILES IDX 72 81 75 82 69 83 70 84 73 85 71 86 50 87 51 88 59 89 52 90
REMARK SMILES IDX 53 91 57 92 60 93 54 94 55 95 58 96 56 97
REMARK H PARENT 17 5 9 14 9 15 2 22 5 26 21 31 80 50 48 61
REMARK Flexibility Score: inf
ROOT
ATOM      1  C   UNL     1      -2.536   5.656  -7.180  1.00  0.00     0.118 C 
ENDROOT
BRANCH   1   2
ATOM      2  N   UNL     1      -2.007   6.652  -6.268  1.00  0.00    -0.352 N 
ATOM      3  C   UNL     1      -2.056   6.778  -4.903  1.00  0.00     0.252 C 
ATOM      4  O   UNL     1      -1.514   7.767  -4.409  1.00  0.00    -0.269 OA
ATOM      5  H   UNL     1      -1.517   7.379  -6.715  1.00  0.00     0.163 HD
BRANCH   3   6
ATOM      6  C   UNL     1      -2.662   5.765  -4.007  1.00  0.00     0.058 A 
ATOM      7  C   UNL     1      -3.384   3.800  -2.213  1.00  0.00     0.094 A 
ATOM      8  C   UNL     1      -3.987   3.827  -3.463  1.00  0.00     0.030 A 
ATOM      9  N   UNL     1      -2.541   4.775  -1.792  1.00  0.00    -0.255 NA
ATOM     10  C   UNL     1      -3.637   4.835  -4.355  1.00  0.00     0.017 A 
ATOM     11  C   UNL     1      -2.190   5.719  -2.699  1.00  0.00     0.125 A 
BRANCH   7  12
ATOM     12  C   UNL     1      -3.550   2.577  -1.341  1.00  0.00     0.318 C 
BRANCH  12  13
ATOM     13  N   UNL     1      -2.307   1.802  -1.286  1.00  0.00    -0.336 N 
ATOM     14  H   UNL     1      -2.535   0.809  -1.263  1.00  0.00     0.346 HD
ATOM     15  H   UNL     1      -1.752   2.025  -2.112  1.00  0.00     0.346 HD
BRANCH  13  16
ATOM     16  C   UNL     1      -1.518   2.143  -0.087  1.00  0.00     0.332 C 
BRANCH  16  17
ATOM     17  C   UNL     1      -0.726   0.908   0.448  1.00  0.00     0.295 C 
ATOM     18  C   UNL     1       2.894  -0.106  -0.200  1.00  0.00     0.333 C 
ATOM     19  N   UNL     1       1.530  -0.194   0.308  1.00  0.00    -0.328 N 
ATOM     20  C   UNL     1       0.864  -1.421  -0.156  1.00  0.00     0.324 C 
ATOM     21  C   UNL     1       0.721   0.960  -0.131  1.00  0.00     0.334 C 
ATOM     22  H   UNL     1       1.599  -0.203   1.326  1.00  0.00     0.348 HD
ATOM     23  C   UNL     1      -0.554  -1.535   0.441  1.00  0.00     0.324 C 
ATOM     24  N   UNL     1      -1.435  -0.383   0.148  1.00  0.00    -0.321 N 
ATOM     25  C   UNL     1      -2.673  -0.522   0.924  1.00  0.00     0.333 C 
ATOM     26  H   UNL     1      -1.674  -0.368  -0.844  1.00  0.00     0.348 HD
ENDBRANCH  16  17
ENDBRANCH  13  16
ENDBRANCH  12  13
ENDBRANCH   7  12
ENDBRANCH   3   6
ENDBRANCH   1   2
BRANCH   1  27
ATOM     27  C   UNL     1      -3.942   6.036  -7.645  1.00  0.00     0.042 C 
BRANCH  27  28
ATOM     28  C   UNL     1      -3.958   7.241  -8.578  1.00  0.00     0.118 C 
BRANCH  28  29
ATOM     29  N   UNL     1      -3.387   6.925  -9.877  1.00  0.00    -0.352 N 
ATOM     30  C   UNL     1      -3.953   6.987 -11.123  1.00  0.00     0.251 C 
ATOM     31  H   UNL     1      -2.451   6.620  -9.858  1.00  0.00     0.163 HD
ATOM     32  O   UNL     1      -3.392   6.447 -12.070  1.00  0.00    -0.269 OA
BRANCH  30  33
ATOM     33  C   UNL     1      -5.235   7.695 -11.335  1.00  0.00     0.039 A 
ATOM     34  C   UNL     1      -6.157   7.152 -12.236  1.00  0.00     0.014 A 
ATOM     35  C   UNL     1      -5.506   8.913 -10.706  1.00  0.00     0.014 A 
ATOM     36  C   UNL     1      -7.364   7.812 -12.477  1.00  0.00     0.010 A 
ATOM     37  C   UNL     1      -6.739   9.533 -10.891  1.00  0.00     0.010 A 
ATOM     38  C   UNL     1      -7.672   8.997 -11.791  1.00  0.00    -0.014 A 
BRANCH  38  39
ATOM     39  C   UNL     1      -8.957   9.703 -12.020  1.00  0.00     0.031 A 
ATOM     40  C   UNL     1      -8.963  11.071 -12.643  1.00  0.00     0.074 A 
ATOM     41  C   UNL     1     -10.108   9.136 -11.615  1.00  0.00     0.049 A 
ATOM     42  N   UNL     1      -9.971  11.878 -12.861  1.00  0.00    -0.248 NA
ATOM     43  C   UNL     1      -7.659  11.617 -13.052  1.00  0.00     0.031 C 
ATOM     44  C   UNL     1     -10.223   7.833 -10.958  1.00  0.00     0.029 A 
ATOM     45  N   UNL     1     -11.402   9.589 -11.684  1.00  0.00    -0.354 N 
ATOM     46  C   UNL     1      -9.421  13.029 -13.412  1.00  0.00     0.074 A 
ATOM     47  C   UNL     1      -7.988  12.837 -13.451  1.00  0.00     0.031 C 
ATOM     48  C   UNL     1     -11.516   7.583 -10.702  1.00  0.00     0.029 A 
ATOM     49  C   UNL     1     -12.317   8.720 -11.144  1.00  0.00     0.049 A 
ATOM     50  H   UNL     1     -11.649  10.454 -12.083  1.00  0.00     0.167 HD
ATOM     51  C   UNL     1     -10.057  14.136 -13.863  1.00  0.00     0.037 A 
ATOM     52  C   UNL     1     -13.653   8.833 -11.016  1.00  0.00     0.037 A 
ATOM     53  C   UNL     1     -11.486  14.308 -13.850  1.00  0.00     0.049 A 
ATOM     54  C   UNL     1     -14.336  10.069 -11.535  1.00  0.00     0.074 A 
ATOM     55  C   UNL     1     -12.234  15.365 -14.337  1.00  0.00     0.029 A 
ATOM     56  N   UNL     1     -12.385  13.394 -13.319  1.00  0.00    -0.354 N 
ATOM     57  N   UNL     1     -13.812  11.124 -12.110  1.00  0.00    -0.248 NA
ATOM     58  C   UNL     1     -15.797  10.125 -11.393  1.00  0.00     0.031 C 
ATOM     59  C   UNL     1     -13.583  15.108 -14.067  1.00  0.00     0.029 A 
ATOM     60  C   UNL     1     -13.679  13.870 -13.452  1.00  0.00     0.049 A 
ATOM     61  H   UNL     1     -12.139  12.534 -12.908  1.00  0.00     0.167 HD
ATOM     62  C   UNL     1     -14.878  11.956 -12.424  1.00  0.00     0.074 A 
ATOM     63  C   UNL     1     -16.080  11.276 -11.987  1.00  0.00     0.031 C 
ATOM     64  C   UNL     1     -14.863  13.174 -13.018  1.00  0.00     0.037 A 
BRANCH  51  65
ATOM     65  C   UNL     1      -9.211  15.247 -14.415  1.00  0.00     0.064 A 
ATOM     66  C   UNL     1      -8.531  15.117 -15.635  1.00  0.00     0.173 A 
ATOM     67  C   UNL     1      -9.104  16.468 -13.732  1.00  0.00     0.173 A 
ATOM     68  F   UNL     1      -8.591  13.967 -16.323  1.00  0.00    -0.203 F 
ATOM     69  C   UNL     1      -7.752  16.157 -16.136  1.00  0.00     0.198 A 
ATOM     70  C   UNL     1      -8.348  17.516 -14.250  1.00  0.00     0.198 A 
ATOM     71  F   UNL     1      -9.738  16.648 -12.563  1.00  0.00    -0.203 F 
ATOM     72  F   UNL     1      -7.072  15.991 -17.279  1.00  0.00    -0.200 F 
ATOM     73  C   UNL     1      -7.666  17.357 -15.447  1.00  0.00     0.200 A 
ATOM     74  F   UNL     1      -8.275  18.680 -13.590  1.00  0.00    -0.200 F 
ATOM     75  F   UNL     1      -6.920  18.359 -15.934  1.00  0.00    -0.200 F 
ENDBRANCH  51  65
BRANCH  52  76
ATOM     76  C   UNL     1     -14.433   7.732 -10.396  1.00  0.00     0.064 A 
ATOM     77  C   UNL     1     -15.284   6.931 -11.170  1.00  0.00     0.173 A 
ATOM     78  C   UNL     1     -14.341   7.453  -9.024  1.00  0.00     0.173 A 
ATOM     79  F   UNL     1     -15.418   7.172 -12.482  1.00  0.00    -0.203 F 
ATOM     80  C   UNL     1     -16.029   5.905 -10.592  1.00  0.00     0.198 A 
ATOM     81  C   UNL     1     -15.066   6.409  -8.453  1.00  0.00     0.198 A 
ATOM     82  F   UNL     1     -13.535   8.185  -8.242  1.00  0.00    -0.203 F 
ATOM     83  F   UNL     1     -16.867   5.183 -11.348  1.00  0.00    -0.200 F 
ATOM     84  C   UNL     1     -15.915   5.641  -9.236  1.00  0.00     0.200 A 
ATOM     85  F   UNL     1     -14.942   6.147  -7.145  1.00  0.00    -0.200 F 
ATOM     86  F   UNL     1     -16.628   4.651  -8.682  1.00  0.00    -0.200 F 
ENDBRANCH  52  76
BRANCH  64  87
ATOM     87  C   UNL     1     -16.189  13.833 -13.262  1.00  0.00     0.064 A 
ATOM     88  C   UNL     1     -16.943  14.378 -12.213  1.00  0.00     0.173 A 
ATOM     89  C   UNL     1     -16.692  13.950 -14.566  1.00  0.00     0.173 A 
ATOM     90  F   UNL     1     -16.510  14.276 -10.947  1.00  0.00    -0.203 F 
ATOM     91  C   UNL     1     -18.166  14.995 -12.458  1.00  0.00     0.198 A 
ATOM     92  C   UNL     1     -17.902  14.593 -14.810  1.00  0.00     0.198 A 
ATOM     93  F   UNL     1     -16.006  13.450 -15.604  1.00  0.00    -0.203 F 
ATOM     94  F   UNL     1     -18.893  15.467 -11.436  1.00  0.00    -0.200 F 
ATOM     95  C   UNL     1     -18.642  15.108 -13.756  1.00  0.00     0.200 A 
ATOM     96  F   UNL     1     -18.354  14.712 -16.067  1.00  0.00    -0.200 F 
ATOM     97  F   UNL     1     -19.817  15.707 -13.991  1.00  0.00    -0.200 F 
ENDBRANCH  64  87
ENDBRANCH  38  39
ENDBRANCH  30  33
ENDBRANCH  28  29
ENDBRANCH  27  28
ENDBRANCH   1  27
TORSDOF 14
