REMARK SMILES Cn1ncc(C(=O)NCCCNC(=O)c2ccc(-c3c4nc(c(-c5c(F)c(F)c(F)c(F)c5F)c5ccc([nH]5)c(-c5c(F)c(F)c(F)c(F)c5F)c5nc(c(-c6c(F)c(F)c(F)c(F)c6F)c6ccc3[nH]6)C=C5)C=C4)cc2)c1C(=O)Nc1ccccn1
REMARK SMILES IDX 10 1 9 2 8 3 6 4 7 5 5 7 1 8 2 9 3 10 78 11 4 12 79 13 80 14
REMARK SMILES IDX 81 15 82 17 83 18 87 19 84 20 86 21 85 22 11 23 12 24 13 25
REMARK SMILES IDX 14 27 15 28 16 29 77 30 17 31 76 32 18 33 19 34 20 35 70 36
REMARK SMILES IDX 21 37 75 38 69 39 71 40 22 41 74 42 68 43 67 44 23 46 55 47
REMARK SMILES IDX 35 48 54 49 36 50 39 51 53 52 72 53 37 54 38 55 52 57 73 58
REMARK SMILES IDX 40 59 24 60 25 61 33 62 26 63 27 64 31 65 34 66 28 67 29 68
REMARK SMILES IDX 32 69 30 70 56 71 57 72 65 73 58 74 59 75 63 76 66 77 60 78
REMARK SMILES IDX 61 79 64 80 62 81 41 82 42 83 50 84 43 85 44 86 48 87 51 88
REMARK SMILES IDX 45 89 46 90 49 91 47 92
REMARK H PARENT 8 6 81 16 12 26 71 45 39 56
REMARK Flexibility Score: inf
ROOT
ATOM      1  C   UNL     1       1.496  -4.701  -1.343  1.00  0.00     0.042 C 
ENDROOT
BRANCH   1   2
ATOM      2  C   UNL     1       1.425  -3.800  -0.127  1.00  0.00     0.118 C 
BRANCH   2   3
ATOM      3  N   UNL     1       2.474  -2.814  -0.071  1.00  0.00    -0.352 N 
ATOM      4  C   UNL     1       2.472  -1.448  -0.012  1.00  0.00     0.255 C 
ATOM      5  O   UNL     1       3.595  -0.934  -0.051  1.00  0.00    -0.269 OA
ATOM      6  H   UNL     1       3.378  -3.204  -0.075  1.00  0.00     0.163 HD
BRANCH   4   7
ATOM      7  C   UNL     1       1.290  -0.590   0.046  1.00  0.00     0.090 A 
ATOM      8  C   UNL     1      -1.744   1.044   1.119  1.00  0.00     0.174 C 
ATOM      9  N   UNL     1      -0.552   0.549   0.466  1.00  0.00    -0.262 N 
ATOM     10  N   UNL     1       0.252   1.459  -0.103  1.00  0.00    -0.180 NA
ATOM     11  C   UNL     1      -0.045  -0.733   0.450  1.00  0.00     0.139 A 
ATOM     12  C   UNL     1       1.387   0.792  -0.281  1.00  0.00     0.149 A 
BRANCH  11  13
ATOM     13  C   UNL     1      -0.731  -1.878   0.989  1.00  0.00     0.275 C 
ATOM     14  O   UNL     1      -0.300  -2.493   1.965  1.00  0.00    -0.267 OA
ATOM     15  N   UNL     1      -1.802  -2.434   0.307  1.00  0.00    -0.305 N 
ATOM     16  H   UNL     1      -1.743  -3.380   0.041  1.00  0.00     0.171 HD
BRANCH  15  17
ATOM     17  C   UNL     1      -2.956  -1.729  -0.024  1.00  0.00     0.132 A 
ATOM     18  C   UNL     1      -3.069  -0.945  -1.160  1.00  0.00     0.047 A 
ATOM     19  N   UNL     1      -3.942  -1.873   0.881  1.00  0.00    -0.239 NA
ATOM     20  C   UNL     1      -4.243  -0.205  -1.322  1.00  0.00     0.005 A 
ATOM     21  C   UNL     1      -5.054  -1.132   0.715  1.00  0.00     0.113 A 
ATOM     22  C   UNL     1      -5.243  -0.278  -0.355  1.00  0.00     0.020 A 
ENDBRANCH  15  17
ENDBRANCH  11  13
ENDBRANCH   4   7
ENDBRANCH   2   3
ENDBRANCH   1   2
BRANCH   1  23
ATOM     23  C   UNL     1       2.644  -5.691  -1.320  1.00  0.00     0.118 C 
BRANCH  23  24
ATOM     24  N   UNL     1       2.519  -6.687  -0.261  1.00  0.00    -0.352 N 
ATOM     25  C   UNL     1       2.188  -8.020  -0.318  1.00  0.00     0.251 C 
ATOM     26  H   UNL     1       2.702  -6.348   0.645  1.00  0.00     0.163 HD
ATOM     27  O   UNL     1       1.964  -8.644   0.717  1.00  0.00    -0.269 OA
BRANCH  25  28
ATOM     28  C   UNL     1       2.066  -8.702  -1.623  1.00  0.00     0.039 A 
ATOM     29  C   UNL     1       1.012  -9.596  -1.837  1.00  0.00     0.014 A 
ATOM     30  C   UNL     1       2.982  -8.450  -2.643  1.00  0.00     0.014 A 
ATOM     31  C   UNL     1       0.822 -10.152  -3.105  1.00  0.00     0.010 A 
ATOM     32  C   UNL     1       2.723  -8.902  -3.928  1.00  0.00     0.010 A 
ATOM     33  C   UNL     1       1.644  -9.763  -4.175  1.00  0.00    -0.014 A 
BRANCH  33  34
ATOM     34  C   UNL     1       1.425 -10.247  -5.561  1.00  0.00     0.031 A 
ATOM     35  C   UNL     1       2.524 -10.994  -6.266  1.00  0.00     0.074 A 
ATOM     36  C   UNL     1       0.296  -9.919  -6.219  1.00  0.00     0.049 A 
ATOM     37  N   UNL     1       2.614 -11.350  -7.522  1.00  0.00    -0.248 NA
ATOM     38  C   UNL     1       3.702 -11.350  -5.457  1.00  0.00     0.031 C 
ATOM     39  C   UNL     1      -0.822  -9.156  -5.660  1.00  0.00     0.029 A 
ATOM     40  N   UNL     1      -0.088 -10.166  -7.514  1.00  0.00    -0.354 N 
ATOM     41  C   UNL     1       3.865 -11.938  -7.657  1.00  0.00     0.074 A 
ATOM     42  C   UNL     1       4.524 -11.838  -6.373  1.00  0.00     0.031 C 
ATOM     43  C   UNL     1      -1.772  -9.015  -6.598  1.00  0.00     0.029 A 
ATOM     44  C   UNL     1      -1.312  -9.631  -7.838  1.00  0.00     0.049 A 
ATOM     45  H   UNL     1       0.461 -10.679  -8.150  1.00  0.00     0.167 HD
ATOM     46  C   UNL     1       4.406 -12.532  -8.746  1.00  0.00     0.037 A 
ATOM     47  C   UNL     1      -1.977  -9.624  -9.009  1.00  0.00     0.037 A 
ATOM     48  C   UNL     1       3.727 -12.665 -10.007  1.00  0.00     0.049 A 
ATOM     49  C   UNL     1      -1.355 -10.292 -10.206  1.00  0.00     0.074 A 
ATOM     50  C   UNL     1       4.155 -13.310 -11.153  1.00  0.00     0.029 A 
ATOM     51  N   UNL     1       2.471 -12.144 -10.284  1.00  0.00    -0.354 N 
ATOM     52  N   UNL     1      -0.198 -10.899 -10.306  1.00  0.00    -0.248 NA
ATOM     53  C   UNL     1      -2.133 -10.276 -11.453  1.00  0.00     0.031 C 
ATOM     54  C   UNL     1       3.179 -13.137 -12.139  1.00  0.00     0.029 A 
ATOM     55  C   UNL     1       2.118 -12.434 -11.591  1.00  0.00     0.049 A 
ATOM     56  H   UNL     1       1.914 -11.642  -9.646  1.00  0.00     0.167 HD
ATOM     57  C   UNL     1      -0.123 -11.367 -11.611  1.00  0.00     0.074 A 
ATOM     58  C   UNL     1      -1.356 -10.979 -12.264  1.00  0.00     0.031 C 
ATOM     59  C   UNL     1       0.876 -12.056 -12.215  1.00  0.00     0.037 A 
BRANCH  46  60
ATOM     60  C   UNL     1       5.795 -13.088  -8.619  1.00  0.00     0.064 A 
ATOM     61  C   UNL     1       6.073 -14.203  -7.814  1.00  0.00     0.173 A 
ATOM     62  C   UNL     1       6.858 -12.517  -9.335  1.00  0.00     0.173 A 
ATOM     63  F   UNL     1       5.096 -14.780  -7.098  1.00  0.00    -0.203 F 
ATOM     64  C   UNL     1       7.368 -14.704  -7.703  1.00  0.00     0.198 A 
ATOM     65  C   UNL     1       8.145 -13.041  -9.249  1.00  0.00     0.198 A 
ATOM     66  F   UNL     1       6.649 -11.452 -10.124  1.00  0.00    -0.203 F 
ATOM     67  F   UNL     1       7.618 -15.734  -6.883  1.00  0.00    -0.200 F 
ATOM     68  C   UNL     1       8.401 -14.128  -8.426  1.00  0.00     0.200 A 
ATOM     69  F   UNL     1       9.140 -12.492  -9.960  1.00  0.00    -0.200 F 
ATOM     70  F   UNL     1       9.645 -14.615  -8.325  1.00  0.00    -0.200 F 
ENDBRANCH  46  60
BRANCH  47  71
ATOM     71  C   UNL     1      -3.314  -8.980  -9.102  1.00  0.00     0.064 A 
ATOM     72  C   UNL     1      -4.470  -9.751  -9.293  1.00  0.00     0.173 A 
ATOM     73  C   UNL     1      -3.468  -7.589  -9.007  1.00  0.00     0.173 A 
ATOM     74  F   UNL     1      -4.373 -11.084  -9.409  1.00  0.00    -0.203 F 
ATOM     75  C   UNL     1      -5.724  -9.155  -9.407  1.00  0.00     0.198 A 
ATOM     76  C   UNL     1      -4.727  -6.996  -9.091  1.00  0.00     0.198 A 
ATOM     77  F   UNL     1      -2.397  -6.806  -8.818  1.00  0.00    -0.203 F 
ATOM     78  F   UNL     1      -6.805  -9.913  -9.637  1.00  0.00    -0.200 F 
ATOM     79  C   UNL     1      -5.853  -7.778  -9.301  1.00  0.00     0.200 A 
ATOM     80  F   UNL     1      -4.848  -5.667  -8.971  1.00  0.00    -0.200 F 
ATOM     81  F   UNL     1      -7.059  -7.205  -9.406  1.00  0.00    -0.200 F 
ENDBRANCH  47  71
BRANCH  59  82
ATOM     82  C   UNL     1       0.662 -12.483 -13.637  1.00  0.00     0.064 A 
ATOM     83  C   UNL     1       0.694 -11.566 -14.697  1.00  0.00     0.173 A 
ATOM     84  C   UNL     1       0.487 -13.841 -13.947  1.00  0.00     0.173 A 
ATOM     85  F   UNL     1       0.844 -10.255 -14.451  1.00  0.00    -0.203 F 
ATOM     86  C   UNL     1       0.541 -11.990 -16.014  1.00  0.00     0.198 A 
ATOM     87  C   UNL     1       0.366 -14.265 -15.266  1.00  0.00     0.198 A 
ATOM     88  F   UNL     1       0.456 -14.759 -12.969  1.00  0.00    -0.203 F 
ATOM     89  F   UNL     1       0.534 -11.092 -17.008  1.00  0.00    -0.200 F 
ATOM     90  C   UNL     1       0.387 -13.339 -16.298  1.00  0.00     0.200 A 
ATOM     91  F   UNL     1       0.234 -15.571 -15.540  1.00  0.00    -0.200 F 
ATOM     92  F   UNL     1       0.256 -13.747 -17.568  1.00  0.00    -0.200 F 
ENDBRANCH  59  82
ENDBRANCH  33  34
ENDBRANCH  25  28
ENDBRANCH  23  24
ENDBRANCH   1  23
TORSDOF 12
