REMARK SMILES C[C@H](C(=O)NCCCNC(=O)c1ccc(-c2c3nc(c(-c4c(F)c(F)c(F)c(F)c4F)c4ccc([nH]4)c(-c4c(F)c(F)c(F)c(F)c4F)c4nc(c(-c5c(F)c(F)c(F)c(F)c5F)c5ccc2[nH]5)C=C4)C=C3)cc1)[C@H](C)c1ccoc1
REMARK SMILES IDX 7 1 6 2 5 3 3 4 4 5 2 7 1 8 75 9 76 10 77 11 78 12 81 13
REMARK SMILES IDX 79 14 80 15 8 16 9 17 10 18 11 20 12 21 13 22 74 23 14 24
REMARK SMILES IDX 73 25 15 26 16 27 17 28 67 29 18 30 72 31 66 32 68 33 19 34
REMARK SMILES IDX 71 35 65 36 64 37 20 39 52 40 32 41 51 42 33 43 36 44 50 45
REMARK SMILES IDX 69 46 34 47 35 48 49 50 70 51 37 52 21 53 22 54 30 55 23 56
REMARK SMILES IDX 24 57 28 58 31 59 25 60 26 61 29 62 27 63 53 64 54 65 62 66
REMARK SMILES IDX 55 67 56 68 60 69 63 70 57 71 58 72 61 73 59 74 38 75 39 76
REMARK SMILES IDX 47 77 40 78 41 79 45 80 48 81 42 82 43 83 46 84 44 85
REMARK H PARENT 5 6 9 19 68 38 36 49
REMARK Flexibility Score: inf
ROOT
ATOM      1  C   UNL     1      -4.324   1.987   1.534  1.00  0.00     0.042 C 
ENDROOT
BRANCH   1   2
ATOM      2  C   UNL     1      -4.230   0.474   1.691  1.00  0.00     0.117 C 
BRANCH   2   3
ATOM      3  N   UNL     1      -3.716  -0.149   0.485  1.00  0.00    -0.356 N 
ATOM      4  C   UNL     1      -2.458  -0.575   0.183  1.00  0.00     0.223 C 
ATOM      5  O   UNL     1      -2.250  -0.960  -0.969  1.00  0.00    -0.275 OA
ATOM      6  H   UNL     1      -4.381  -0.284  -0.228  1.00  0.00     0.163 HD
BRANCH   4   7
ATOM      7  C   UNL     1      -1.357  -0.563   1.246  1.00  0.00     0.082 C 
ATOM      8  C   UNL     1      -0.420  -1.746   0.956  1.00  0.00     0.019 C 
BRANCH   7   9
ATOM      9  C   UNL     1      -0.661   0.835   1.288  1.00  0.00     0.031 C 
ATOM     10  C   UNL     1       0.866   0.811   1.114  1.00  0.00     0.014 C 
BRANCH   9  11
ATOM     11  C   UNL     1      -1.010   1.655   2.514  1.00  0.00    -0.006 A 
ATOM     12  C   UNL     1      -1.281   1.236   3.850  1.00  0.00     0.046 A 
ATOM     13  C   UNL     1      -1.119   3.036   2.550  1.00  0.00     0.198 A 
ATOM     14  C   UNL     1      -1.597   2.368   4.564  1.00  0.00     0.195 A 
ATOM     15  O   UNL     1      -1.496   3.467   3.777  1.00  0.00    -0.472 OA
ENDBRANCH   9  11
ENDBRANCH   7   9
ENDBRANCH   4   7
ENDBRANCH   2   3
ENDBRANCH   1   2
BRANCH   1  16
ATOM     16  C   UNL     1      -5.456   2.442   0.624  1.00  0.00     0.118 C 
BRANCH  16  17
ATOM     17  N   UNL     1      -6.766   2.245   1.225  1.00  0.00    -0.352 N 
ATOM     18  C   UNL     1      -7.763   3.151   1.477  1.00  0.00     0.251 C 
ATOM     19  H   UNL     1      -6.967   1.319   1.492  1.00  0.00     0.163 HD
ATOM     20  O   UNL     1      -8.725   2.815   2.170  1.00  0.00    -0.269 OA
BRANCH  18  21
ATOM     21  C   UNL     1      -7.694   4.529   0.943  1.00  0.00     0.039 A 
ATOM     22  C   UNL     1      -8.121   5.585   1.754  1.00  0.00     0.014 A 
ATOM     23  C   UNL     1      -7.255   4.786  -0.359  1.00  0.00     0.014 A 
ATOM     24  C   UNL     1      -8.056   6.898   1.282  1.00  0.00     0.010 A 
ATOM     25  C   UNL     1      -7.120   6.101  -0.802  1.00  0.00     0.010 A 
ATOM     26  C   UNL     1      -7.527   7.169   0.011  1.00  0.00    -0.014 A 
BRANCH  26  27
ATOM     27  C   UNL     1      -7.403   8.561  -0.491  1.00  0.00     0.031 A 
ATOM     28  C   UNL     1      -8.195   9.007  -1.688  1.00  0.00     0.074 A 
ATOM     29  C   UNL     1      -6.536   9.408   0.097  1.00  0.00     0.049 A 
ATOM     30  N   UNL     1      -8.168  10.153  -2.322  1.00  0.00    -0.248 NA
ATOM     31  C   UNL     1      -9.126   8.025  -2.267  1.00  0.00     0.031 C 
ATOM     32  C   UNL     1      -5.685   9.084   1.243  1.00  0.00     0.029 A 
ATOM     33  N   UNL     1      -6.222  10.712  -0.193  1.00  0.00    -0.354 N 
ATOM     34  C   UNL     1      -9.062  10.024  -3.376  1.00  0.00     0.074 A 
ATOM     35  C   UNL     1      -9.579   8.673  -3.330  1.00  0.00     0.031 C 
ATOM     36  C   UNL     1      -4.965  10.168   1.574  1.00  0.00     0.029 A 
ATOM     37  C   UNL     1      -5.273  11.248   0.643  1.00  0.00     0.049 A 
ATOM     38  H   UNL     1      -6.638  11.216  -0.930  1.00  0.00     0.167 HD
ATOM     39  C   UNL     1      -9.437  10.955  -4.286  1.00  0.00     0.037 A 
ATOM     40  C   UNL     1      -4.711  12.472   0.652  1.00  0.00     0.037 A 
ATOM     41  C   UNL     1      -8.940  12.306  -4.315  1.00  0.00     0.049 A 
ATOM     42  C   UNL     1      -5.137  13.484  -0.376  1.00  0.00     0.074 A 
ATOM     43  C   UNL     1      -9.288  13.336  -5.171  1.00  0.00     0.029 A 
ATOM     44  N   UNL     1      -7.987  12.815  -3.445  1.00  0.00    -0.354 N 
ATOM     45  N   UNL     1      -6.016  13.365  -1.341  1.00  0.00    -0.248 NA
ATOM     46  C   UNL     1      -4.493  14.804  -0.311  1.00  0.00     0.031 C 
ATOM     47  C   UNL     1      -8.518  14.457  -4.843  1.00  0.00     0.029 A 
ATOM     48  C   UNL     1      -7.724  14.140  -3.753  1.00  0.00     0.049 A 
ATOM     49  H   UNL     1      -7.560  12.309  -2.716  1.00  0.00     0.167 HD
ATOM     50  C   UNL     1      -6.053  14.597  -1.978  1.00  0.00     0.074 A 
ATOM     51  C   UNL     1      -5.116  15.455  -1.283  1.00  0.00     0.031 C 
ATOM     52  C   UNL     1      -6.796  14.983  -3.044  1.00  0.00     0.037 A 
BRANCH  39  53
ATOM     53  C   UNL     1     -10.442  10.546  -5.323  1.00  0.00     0.064 A 
ATOM     54  C   UNL     1     -11.784  10.308  -4.989  1.00  0.00     0.173 A 
ATOM     55  C   UNL     1     -10.070  10.425  -6.670  1.00  0.00     0.173 A 
ATOM     56  F   UNL     1     -12.189  10.398  -3.713  1.00  0.00    -0.203 F 
ATOM     57  C   UNL     1     -12.710   9.937  -5.961  1.00  0.00     0.198 A 
ATOM     58  C   UNL     1     -11.005  10.083  -7.644  1.00  0.00     0.198 A 
ATOM     59  F   UNL     1      -8.801  10.647  -7.045  1.00  0.00    -0.203 F 
ATOM     60  F   UNL     1     -13.975   9.668  -5.611  1.00  0.00    -0.200 F 
ATOM     61  C   UNL     1     -12.322   9.832  -7.288  1.00  0.00     0.200 A 
ATOM     62  F   UNL     1     -10.631   9.994  -8.928  1.00  0.00    -0.200 F 
ATOM     63  F   UNL     1     -13.215   9.482  -8.223  1.00  0.00    -0.200 F 
ENDBRANCH  39  53
BRANCH  40  64
ATOM     64  C   UNL     1      -3.707  12.817   1.691  1.00  0.00     0.064 A 
ATOM     65  C   UNL     1      -4.019  13.723   2.714  1.00  0.00     0.173 A 
ATOM     66  C   UNL     1      -2.425  12.251   1.687  1.00  0.00     0.173 A 
ATOM     67  F   UNL     1      -5.226  14.307   2.746  1.00  0.00    -0.203 F 
ATOM     68  C   UNL     1      -3.080  14.063   3.685  1.00  0.00     0.198 A 
ATOM     69  C   UNL     1      -1.495  12.571   2.675  1.00  0.00     0.198 A 
ATOM     70  F   UNL     1      -2.079  11.376   0.732  1.00  0.00    -0.203 F 
ATOM     71  F   UNL     1      -3.390  14.963   4.628  1.00  0.00    -0.200 F 
ATOM     72  C   UNL     1      -1.821  13.481   3.669  1.00  0.00     0.200 A 
ATOM     73  F   UNL     1      -0.284  11.998   2.663  1.00  0.00    -0.200 F 
ATOM     74  F   UNL     1      -0.920  13.804   4.606  1.00  0.00    -0.200 F 
ENDBRANCH  40  64
BRANCH  52  75
ATOM     75  C   UNL     1      -6.655  16.405  -3.502  1.00  0.00     0.064 A 
ATOM     76  C   UNL     1      -5.507  16.851  -4.173  1.00  0.00     0.173 A 
ATOM     77  C   UNL     1      -7.699  17.320  -3.303  1.00  0.00     0.173 A 
ATOM     78  F   UNL     1      -4.475  16.018  -4.374  1.00  0.00    -0.203 F 
ATOM     79  C   UNL     1      -5.401  18.170  -4.608  1.00  0.00     0.198 A 
ATOM     80  C   UNL     1      -7.601  18.630  -3.764  1.00  0.00     0.198 A 
ATOM     81  F   UNL     1      -8.820  16.941  -2.672  1.00  0.00    -0.203 F 
ATOM     82  F   UNL     1      -4.277  18.587  -5.208  1.00  0.00    -0.200 F 
ATOM     83  C   UNL     1      -6.450  19.055  -4.410  1.00  0.00     0.200 A 
ATOM     84  F   UNL     1      -8.621  19.481  -3.583  1.00  0.00    -0.200 F 
ATOM     85  F   UNL     1      -6.349  20.322  -4.836  1.00  0.00    -0.200 F 
ENDBRANCH  52  75
ENDBRANCH  26  27
ENDBRANCH  18  21
ENDBRANCH  16  17
ENDBRANCH   1  16
TORSDOF 12
