REMARK SMILES O=C(NCCCNC(=O)[C@@H](Cc1ccc(F)cc1)C[C@H](O)C(F)(F)F)c1ccc(-c2c3nc(c(-c4c(F)c(F)c(F)c(F)c4F)c4ccc([nH]4)c(-c4c(F)c(F)c(F)c(F)c4F)c4nc(c(-c5c(F)c(F)c(F)c(F)c5F)c5ccc2[nH]5)C=C4)C=C3)cc1
REMARK SMILES IDX 5 1 4 2 3 3 1 4 2 5 26 7 27 8 88 9 28 10 87 11 29 12 30 13
REMARK SMILES IDX 31 14 81 15 32 16 86 17 80 18 82 19 33 20 85 21 79 22 78 23
REMARK SMILES IDX 34 25 66 26 46 27 65 28 47 29 50 30 64 31 83 32 48 33 49 34
REMARK SMILES IDX 63 36 84 37 51 38 35 39 36 40 44 41 37 42 38 43 42 44 45 45
REMARK SMILES IDX 39 46 40 47 43 48 41 49 67 50 68 51 76 52 69 53 70 54 74 55
REMARK SMILES IDX 77 56 71 57 72 58 75 59 73 60 52 61 53 62 61 63 54 64 55 65
REMARK SMILES IDX 59 66 62 67 56 68 57 69 60 70 58 71 6 72 7 73 8 74 9 76
REMARK SMILES IDX 10 77 11 78 12 79 13 80 18 81 14 82 17 83 15 84 16 85 19 86
REMARK SMILES IDX 20 87 22 88 23 89 24 90 25 91 21 92
REMARK H PARENT 3 6 82 24 50 35 7 75 21 93
REMARK Flexibility Score: inf
ROOT
ATOM      1  C   UNL     1       9.309  -0.195   6.968  1.00  0.00     0.042 C 
ENDROOT
BRANCH   1   2
ATOM      2  C   UNL     1      10.174  -0.019   5.730  1.00  0.00     0.118 C 
BRANCH   2   3
ATOM      3  N   UNL     1      10.690   1.336   5.600  1.00  0.00    -0.352 N 
ATOM      4  O   UNL     1      11.802   3.237   5.847  1.00  0.00    -0.269 OA
ATOM      5  C   UNL     1      11.766   2.025   6.098  1.00  0.00     0.251 C 
ATOM      6  H   UNL     1      10.130   1.893   5.011  1.00  0.00     0.163 HD
BRANCH   5   7
ATOM      7  C   UNL     1      12.871   1.447   6.919  1.00  0.00     0.039 A 
ATOM      8  C   UNL     1      13.205   0.097   6.951  1.00  0.00     0.014 A 
ATOM      9  C   UNL     1      13.695   2.339   7.633  1.00  0.00     0.014 A 
ATOM     10  C   UNL     1      14.259  -0.364   7.744  1.00  0.00     0.010 A 
ATOM     11  C   UNL     1      14.825   1.891   8.339  1.00  0.00     0.010 A 
ATOM     12  C   UNL     1      15.117   0.526   8.406  1.00  0.00    -0.014 A 
BRANCH  12  13
ATOM     13  C   UNL     1      16.353  -0.006   9.050  1.00  0.00     0.031 A 
ATOM     14  C   UNL     1      16.606   0.146  10.523  1.00  0.00     0.074 A 
ATOM     15  C   UNL     1      17.240  -0.679   8.285  1.00  0.00     0.049 A 
ATOM     16  N   UNL     1      17.611  -0.303  11.236  1.00  0.00    -0.248 NA
ATOM     17  C   UNL     1      15.615   0.903  11.301  1.00  0.00     0.031 C 
ATOM     18  C   UNL     1      17.118  -0.874   6.838  1.00  0.00     0.029 A 
ATOM     19  N   UNL     1      18.393  -1.353   8.608  1.00  0.00    -0.354 N 
ATOM     20  C   UNL     1      17.383   0.129  12.535  1.00  0.00     0.074 A 
ATOM     21  C   UNL     1      16.158   0.900  12.512  1.00  0.00     0.031 C 
ATOM     22  C   UNL     1      18.102  -1.677   6.414  1.00  0.00     0.029 A 
ATOM     23  C   UNL     1      18.980  -1.983   7.536  1.00  0.00     0.049 A 
ATOM     24  H   UNL     1      18.764  -1.381   9.520  1.00  0.00     0.167 HD
ATOM     25  C   UNL     1      18.125  -0.107  13.644  1.00  0.00     0.037 A 
ATOM     26  C   UNL     1      20.110  -2.711   7.451  1.00  0.00     0.037 A 
ATOM     27  C   UNL     1      19.334  -0.893  13.661  1.00  0.00     0.049 A 
ATOM     28  C   UNL     1      20.927  -2.933   8.690  1.00  0.00     0.074 A 
ATOM     29  C   UNL     1      20.132  -1.218  14.744  1.00  0.00     0.029 A 
ATOM     30  N   UNL     1      19.923  -1.470  12.545  1.00  0.00    -0.354 N 
ATOM     31  N   UNL     1      20.681  -2.542   9.917  1.00  0.00    -0.248 NA
ATOM     32  C   UNL     1      22.179  -3.684   8.537  1.00  0.00     0.031 C 
ATOM     33  C   UNL     1      21.235  -1.938  14.276  1.00  0.00     0.029 A 
ATOM     34  C   UNL     1      21.091  -2.122  12.910  1.00  0.00     0.049 A 
ATOM     35  H   UNL     1      19.564  -1.424  11.629  1.00  0.00     0.167 HD
ATOM     36  C   UNL     1      21.740  -3.004  10.684  1.00  0.00     0.074 A 
ATOM     37  C   UNL     1      22.619  -3.727   9.788  1.00  0.00     0.031 C 
ATOM     38  C   UNL     1      21.961  -2.838  12.010  1.00  0.00     0.037 A 
BRANCH  25  39
ATOM     39  C   UNL     1      17.671   0.499  14.943  1.00  0.00     0.064 A 
ATOM     40  C   UNL     1      18.433   1.504  15.560  1.00  0.00     0.173 A 
ATOM     41  C   UNL     1      16.538   0.028  15.623  1.00  0.00     0.173 A 
ATOM     42  F   UNL     1      19.532   1.984  14.960  1.00  0.00    -0.203 F 
ATOM     43  C   UNL     1      18.086   2.003  16.814  1.00  0.00     0.198 A 
ATOM     44  C   UNL     1      16.177   0.550  16.863  1.00  0.00     0.198 A 
ATOM     45  F   UNL     1      15.772  -0.928  15.076  1.00  0.00    -0.203 F 
ATOM     46  F   UNL     1      18.852   2.934  17.399  1.00  0.00    -0.200 F 
ATOM     47  C   UNL     1      16.957   1.528  17.462  1.00  0.00     0.200 A 
ATOM     48  F   UNL     1      15.074   0.105  17.480  1.00  0.00    -0.200 F 
ATOM     49  F   UNL     1      16.620   2.013  18.666  1.00  0.00    -0.200 F 
ENDBRANCH  25  39
BRANCH  26  50
ATOM     50  C   UNL     1      20.524  -3.267   6.135  1.00  0.00     0.064 A 
ATOM     51  C   UNL     1      20.899  -2.424   5.076  1.00  0.00     0.173 A 
ATOM     52  C   UNL     1      20.499  -4.646   5.889  1.00  0.00     0.173 A 
ATOM     53  F   UNL     1      20.935  -1.095   5.256  1.00  0.00    -0.203 F 
ATOM     54  C   UNL     1      21.194  -2.936   3.815  1.00  0.00     0.198 A 
ATOM     55  C   UNL     1      20.829  -5.160   4.635  1.00  0.00     0.198 A 
ATOM     56  F   UNL     1      20.168  -5.496   6.872  1.00  0.00    -0.203 F 
ATOM     57  F   UNL     1      21.492  -2.102   2.809  1.00  0.00    -0.200 F 
ATOM     58  C   UNL     1      21.162  -4.304   3.596  1.00  0.00     0.200 A 
ATOM     59  F   UNL     1      20.820  -6.485   4.433  1.00  0.00    -0.200 F 
ATOM     60  F   UNL     1      21.451  -4.797   2.384  1.00  0.00    -0.200 F 
ENDBRANCH  26  50
BRANCH  38  61
ATOM     61  C   UNL     1      23.197  -3.460  12.591  1.00  0.00     0.064 A 
ATOM     62  C   UNL     1      23.096  -4.540  13.481  1.00  0.00     0.173 A 
ATOM     63  C   UNL     1      24.473  -2.938  12.332  1.00  0.00     0.173 A 
ATOM     64  F   UNL     1      21.898  -5.073  13.766  1.00  0.00    -0.203 F 
ATOM     65  C   UNL     1      24.225  -5.061  14.107  1.00  0.00     0.198 A 
ATOM     66  C   UNL     1      25.603  -3.482  12.936  1.00  0.00     0.198 A 
ATOM     67  F   UNL     1      24.623  -1.915  11.477  1.00  0.00    -0.203 F 
ATOM     68  F   UNL     1      24.099  -6.065  14.985  1.00  0.00    -0.200 F 
ATOM     69  C   UNL     1      25.478  -4.533  13.831  1.00  0.00     0.200 A 
ATOM     70  F   UNL     1      26.816  -2.989  12.648  1.00  0.00    -0.200 F 
ATOM     71  F   UNL     1      26.565  -5.041  14.428  1.00  0.00    -0.200 F 
ENDBRANCH  38  61
ENDBRANCH  12  13
ENDBRANCH   5   7
ENDBRANCH   2   3
ENDBRANCH   1   2
BRANCH   1  72
ATOM     72  C   UNL     1       7.907   0.434   6.871  1.00  0.00     0.117 C 
BRANCH  72  73
ATOM     73  N   UNL     1       6.901  -0.618   6.949  1.00  0.00    -0.356 N 
ATOM     74  C   UNL     1       5.952  -0.962   7.846  1.00  0.00     0.223 C 
ATOM     75  H   UNL     1       6.918  -1.216   6.168  1.00  0.00     0.163 HD
ATOM     76  O   UNL     1       5.419  -2.063   7.653  1.00  0.00    -0.275 OA
BRANCH  74  77
ATOM     77  C   UNL     1       5.454  -0.109   9.018  1.00  0.00     0.085 C 
BRANCH  77  78
ATOM     78  C   UNL     1       6.197  -0.327  10.358  1.00  0.00     0.049 C 
BRANCH  78  79
ATOM     79  C   UNL     1       7.305   0.632  10.713  1.00  0.00    -0.047 A 
ATOM     80  C   UNL     1       8.570   0.467  10.149  1.00  0.00     0.007 A 
ATOM     81  C   UNL     1       7.108   1.690  11.612  1.00  0.00     0.007 A 
ATOM     82  C   UNL     1       9.576   1.415  10.345  1.00  0.00     0.039 A 
ATOM     83  C   UNL     1       8.133   2.611  11.859  1.00  0.00     0.039 A 
ATOM     84  C   UNL     1       9.344   2.486  11.191  1.00  0.00     0.123 A 
ATOM     85  F   UNL     1      10.306   3.399  11.378  1.00  0.00    -0.207 F 
ENDBRANCH  78  79
ENDBRANCH  77  78
BRANCH  77  86
ATOM     86  C   UNL     1       5.048   1.337   8.690  1.00  0.00     0.055 C 
BRANCH  86  87
ATOM     87  C   UNL     1       4.132   1.424   7.451  1.00  0.00     0.220 C 
BRANCH  87  88
ATOM     88  C   UNL     1       2.842   2.211   7.738  1.00  0.00     0.414 C 
ATOM     89  F   UNL     1       2.118   2.337   6.599  1.00  0.00    -0.168 F 
ATOM     90  F   UNL     1       2.071   1.570   8.643  1.00  0.00    -0.168 F 
ATOM     91  F   UNL     1       3.091   3.452   8.204  1.00  0.00    -0.168 F 
ENDBRANCH  87  88
BRANCH  87  92
ATOM     92  O   UNL     1       4.900   1.991   6.370  1.00  0.00    -0.384 OA
ATOM     93  H   UNL     1       5.202   2.878   6.619  1.00  0.00     0.211 HD
ENDBRANCH  87  92
ENDBRANCH  86  87
ENDBRANCH  77  86
ENDBRANCH  74  77
ENDBRANCH  72  73
ENDBRANCH   1  72
TORSDOF 16
