REMARK SMILES Cc1cc(C(=O)N2CCC[C@@H]2C(C)C)sc1/C=C/C(=O)NCCCNC(=O)c1ccc(-c2c3nc(c(-c4c(F)c(F)c(F)c(F)c4F)c4ccc([nH]4)c(-c4c(F)c(F)c(F)c(F)c4F)c4nc(c(-c5c(F)c(F)c(F)c(F)c5F)c5ccc2[nH]5)C=C4)C=C3)cc1
REMARK SMILES IDX 22 1 21 2 19 3 20 4 18 6 17 7 16 8 1 9 2 10 3 11 4 12 15 13
REMARK SMILES IDX 5 14 6 15 7 16 8 17 11 18 9 19 10 20 12 21 13 22 14 23 23 24
REMARK SMILES IDX 24 25 25 26 26 27 27 29 28 30 29 31 90 32 30 33 89 34 31 35
REMARK SMILES IDX 32 36 33 37 83 38 34 39 88 40 82 41 84 42 35 43 87 44 81 45
REMARK SMILES IDX 80 46 36 48 68 49 48 50 67 51 49 52 52 53 66 54 85 55 50 56
REMARK SMILES IDX 51 57 65 59 86 60 53 61 37 62 38 63 46 64 39 65 40 66 44 67
REMARK SMILES IDX 47 68 41 69 42 70 45 71 43 72 69 73 70 74 78 75 71 76 72 77
REMARK SMILES IDX 76 78 79 79 73 80 74 81 77 82 75 83 54 84 55 85 63 86 56 87
REMARK SMILES IDX 57 88 61 89 64 90 58 91 59 92 62 93 60 94
REMARK H PARENT 21 5 25 28 84 47 52 58
REMARK Flexibility Score: inf
ROOT
ATOM      1  C   UNL     1       2.219  -4.705  -0.614  1.00  0.00     0.118 C 
ENDROOT
BRANCH   1   2
ATOM      2  N   UNL     1       0.948  -5.287  -0.220  1.00  0.00    -0.352 N 
ATOM      3  C   UNL     1      -0.270  -4.704  -0.061  1.00  0.00     0.244 C 
ATOM      4  O   UNL     1      -1.256  -5.400   0.164  1.00  0.00    -0.270 OA
ATOM      5  H   UNL     1       0.972  -6.255  -0.040  1.00  0.00     0.163 HD
BRANCH   3   6
ATOM      6  C   UNL     1      -0.429  -3.248  -0.240  1.00  0.00     0.072 C 
ATOM      7  C   UNL     1       0.311  -2.343   0.420  1.00  0.00     0.025 C 
BRANCH   7   8
ATOM      8  C   UNL     1       0.118  -0.936   0.285  1.00  0.00     0.031 A 
ATOM      9  C   UNL     1       2.553  -0.100   0.272  1.00  0.00     0.046 C 
ATOM     10  C   UNL     1       1.067   0.080   0.277  1.00  0.00    -0.032 A 
ATOM     11  C   UNL     1       0.447   1.377   0.260  1.00  0.00     0.029 A 
ATOM     12  C   UNL     1      -0.933   1.331   0.200  1.00  0.00     0.093 A 
ATOM     13  S   UNL     1      -1.462  -0.287   0.134  1.00  0.00    -0.130 S 
BRANCH  12  14
ATOM     14  C   UNL     1      -1.837   2.476   0.067  1.00  0.00     0.264 C 
ATOM     15  O   UNL     1      -1.421   3.632  -0.011  1.00  0.00    -0.268 OA
BRANCH  14  16
ATOM     16  N   UNL     1      -3.184   2.197  -0.116  1.00  0.00    -0.335 N 
ATOM     17  C   UNL     1      -3.996   1.660   0.961  1.00  0.00     0.120 C 
ATOM     18  C   UNL     1      -4.022   2.913  -1.087  1.00  0.00     0.088 C 
ATOM     19  C   UNL     1      -5.282   1.301   0.259  1.00  0.00     0.024 C 
ATOM     20  C   UNL     1      -5.458   2.464  -0.714  1.00  0.00     0.027 C 
BRANCH  18  21
ATOM     21  C   UNL     1      -3.641   2.626  -2.571  1.00  0.00     0.005 C 
ATOM     22  C   UNL     1      -4.665   3.210  -3.556  1.00  0.00     0.009 C 
ATOM     23  C   UNL     1      -2.267   3.201  -2.950  1.00  0.00     0.009 C 
ENDBRANCH  18  21
ENDBRANCH  14  16
ENDBRANCH  12  14
ENDBRANCH   7   8
ENDBRANCH   3   6
ENDBRANCH   1   2
BRANCH   1  24
ATOM     24  C   UNL     1       3.189  -4.626   0.563  1.00  0.00     0.042 C 
BRANCH  24  25
ATOM     25  C   UNL     1       3.738  -5.983   0.994  1.00  0.00     0.118 C 
BRANCH  25  26
ATOM     26  N   UNL     1       4.654  -6.538   0.010  1.00  0.00    -0.352 N 
ATOM     27  C   UNL     1       5.962  -6.930   0.142  1.00  0.00     0.251 C 
ATOM     28  H   UNL     1       4.277  -6.650  -0.892  1.00  0.00     0.163 HD
ATOM     29  O   UNL     1       6.622  -7.174  -0.865  1.00  0.00    -0.269 OA
BRANCH  27  30
ATOM     30  C   UNL     1       6.592  -7.055   1.475  1.00  0.00     0.039 A 
ATOM     31  C   UNL     1       7.921  -6.645   1.627  1.00  0.00     0.014 A 
ATOM     32  C   UNL     1       5.914  -7.630   2.554  1.00  0.00     0.014 A 
ATOM     33  C   UNL     1       8.555  -6.771   2.865  1.00  0.00     0.010 A 
ATOM     34  C   UNL     1       6.527  -7.700   3.805  1.00  0.00     0.010 A 
ATOM     35  C   UNL     1       7.855  -7.280   3.970  1.00  0.00    -0.014 A 
BRANCH  35  36
ATOM     36  C   UNL     1       8.503  -7.394   5.300  1.00  0.00     0.031 A 
ATOM     37  C   UNL     1       8.771  -8.747   5.897  1.00  0.00     0.074 A 
ATOM     38  C   UNL     1       8.798  -6.279   5.994  1.00  0.00     0.049 A 
ATOM     39  N   UNL     1       9.256  -9.051   7.075  1.00  0.00    -0.248 NA
ATOM     40  C   UNL     1       8.427  -9.913   5.069  1.00  0.00     0.031 C 
ATOM     41  C   UNL     1       8.550  -4.911   5.540  1.00  0.00     0.029 A 
ATOM     42  N   UNL     1       9.360  -6.122   7.237  1.00  0.00    -0.354 N 
ATOM     43  C   UNL     1       9.256 -10.438   7.137  1.00  0.00     0.074 A 
ATOM     44  C   UNL     1       8.688 -10.917   5.894  1.00  0.00     0.031 C 
ATOM     45  C   UNL     1       8.970  -4.053   6.484  1.00  0.00     0.029 A 
ATOM     46  C   UNL     1       9.487  -4.810   7.620  1.00  0.00     0.049 A 
ATOM     47  H   UNL     1       9.644  -6.878   7.800  1.00  0.00     0.167 HD
ATOM     48  C   UNL     1       9.704 -11.240   8.132  1.00  0.00     0.037 A 
ATOM     49  C   UNL     1       9.961  -4.278   8.762  1.00  0.00     0.037 A 
ATOM     50  C   UNL     1      10.299 -10.764   9.354  1.00  0.00     0.049 A 
ATOM     51  C   UNL     1      10.472  -5.189   9.843  1.00  0.00     0.074 A 
ATOM     52  C   UNL     1      10.834 -11.497  10.398  1.00  0.00     0.029 A 
ATOM     53  N   UNL     1      10.441  -9.426   9.691  1.00  0.00    -0.354 N 
ATOM     54  N   UNL     1      10.512  -6.499   9.870  1.00  0.00    -0.248 NA
ATOM     55  C   UNL     1      11.011  -4.547  11.050  1.00  0.00     0.031 C 
ATOM     56  C   UNL     1      11.273 -10.604  11.382  1.00  0.00     0.029 A 
ATOM     57  C   UNL     1      11.044  -9.313  10.934  1.00  0.00     0.049 A 
ATOM     58  H   UNL     1      10.155  -8.668   9.131  1.00  0.00     0.167 HD
ATOM     59  C   UNL     1      11.097  -6.838  11.081  1.00  0.00     0.074 A 
ATOM     60  C   UNL     1      11.409  -5.596  11.758  1.00  0.00     0.031 C 
ATOM     61  C   UNL     1      11.352  -8.068  11.588  1.00  0.00     0.037 A 
BRANCH  48  62
ATOM     62  C   UNL     1       9.572 -12.721   7.940  1.00  0.00     0.064 A 
ATOM     63  C   UNL     1      10.385 -13.418   7.033  1.00  0.00     0.173 A 
ATOM     64  C   UNL     1       8.647 -13.459   8.694  1.00  0.00     0.173 A 
ATOM     65  F   UNL     1      11.276 -12.756   6.279  1.00  0.00    -0.203 F 
ATOM     66  C   UNL     1      10.258 -14.795   6.869  1.00  0.00     0.198 A 
ATOM     67  C   UNL     1       8.541 -14.839   8.546  1.00  0.00     0.198 A 
ATOM     68  F   UNL     1       7.850 -12.841   9.578  1.00  0.00    -0.203 F 
ATOM     69  F   UNL     1      11.014 -15.433   5.965  1.00  0.00    -0.200 F 
ATOM     70  C   UNL     1       9.341 -15.505   7.629  1.00  0.00     0.200 A 
ATOM     71  F   UNL     1       7.661 -15.525   9.288  1.00  0.00    -0.200 F 
ATOM     72  F   UNL     1       9.223 -16.831   7.473  1.00  0.00    -0.200 F 
ENDBRANCH  48  62
BRANCH  49  73
ATOM     73  C   UNL     1      10.001  -2.804   8.926  1.00  0.00     0.064 A 
ATOM     74  C   UNL     1      11.217  -2.110   8.881  1.00  0.00     0.173 A 
ATOM     75  C   UNL     1       8.828  -2.060   9.119  1.00  0.00     0.173 A 
ATOM     76  F   UNL     1      12.366  -2.783   8.719  1.00  0.00    -0.203 F 
ATOM     77  C   UNL     1      11.261  -0.726   9.037  1.00  0.00     0.198 A 
ATOM     78  C   UNL     1       8.871  -0.674   9.252  1.00  0.00     0.198 A 
ATOM     79  F   UNL     1       7.639  -2.679   9.164  1.00  0.00    -0.203 F 
ATOM     80  F   UNL     1      12.440  -0.090   9.025  1.00  0.00    -0.200 F 
ATOM     81  C   UNL     1      10.088  -0.009   9.216  1.00  0.00     0.200 A 
ATOM     82  F   UNL     1       7.735   0.017   9.412  1.00  0.00    -0.200 F 
ATOM     83  F   UNL     1      10.130   1.323   9.360  1.00  0.00    -0.200 F 
ENDBRANCH  49  73
BRANCH  61  84
ATOM     84  C   UNL     1      12.024  -8.131  12.927  1.00  0.00     0.064 A 
ATOM     85  C   UNL     1      11.327  -7.848  14.110  1.00  0.00     0.173 A 
ATOM     86  C   UNL     1      13.369  -8.514  13.029  1.00  0.00     0.173 A 
ATOM     87  F   UNL     1      10.043  -7.461  14.061  1.00  0.00    -0.203 F 
ATOM     88  C   UNL     1      11.960  -7.926  15.348  1.00  0.00     0.198 A 
ATOM     89  C   UNL     1      13.992  -8.614  14.270  1.00  0.00     0.198 A 
ATOM     90  F   UNL     1      14.077  -8.799  11.925  1.00  0.00    -0.203 F 
ATOM     91  F   UNL     1      11.286  -7.613  16.463  1.00  0.00    -0.200 F 
ATOM     92  C   UNL     1      13.289  -8.315  15.427  1.00  0.00     0.200 A 
ATOM     93  F   UNL     1      15.274  -8.998  14.345  1.00  0.00    -0.200 F 
ATOM     94  F   UNL     1      13.895  -8.394  16.619  1.00  0.00    -0.200 F 
ENDBRANCH  61  84
ENDBRANCH  35  36
ENDBRANCH  27  30
ENDBRANCH  25  26
ENDBRANCH  24  25
ENDBRANCH   1  24
TORSDOF 14
