REMARK SMILES CC1(C)C[C@](CC(=O)NCCCNC(=O)c2ccc(-c3c4nc(c(-c5c(F)c(F)c(F)c(F)c5F)c5ccc([nH]5)c(-c5c(F)c(F)c(F)c(F)c5F)c5nc(c(-c6c(F)c(F)c(F)c(F)c6F)c6ccc3[nH]6)C=C5)C=C4)cc2)([NH+]2CCCC2)C(C)(C)O1
REMARK SMILES IDX 11 1 10 2 9 3 7 4 8 5 6 7 5 8 1 9 2 10 3 11 4 12 87 13 84 14
REMARK SMILES IDX 85 15 86 16 79 17 80 18 83 19 81 21 82 22 12 23 13 24 14 25
REMARK SMILES IDX 15 27 16 28 17 29 78 30 18 31 77 32 19 33 20 34 21 35 71 36
REMARK SMILES IDX 22 37 76 38 70 39 72 40 23 41 75 42 69 43 68 44 24 46 56 47
REMARK SMILES IDX 36 48 55 49 37 50 40 51 54 52 73 53 38 54 39 55 53 57 74 58
REMARK SMILES IDX 41 59 25 60 26 61 34 62 27 63 28 64 32 65 35 66 29 67 30 68
REMARK SMILES IDX 33 69 31 70 57 71 58 72 66 73 59 74 60 75 64 76 67 77 61 78
REMARK SMILES IDX 62 79 65 80 63 81 42 82 43 83 51 84 44 85 45 86 49 87 52 88
REMARK SMILES IDX 46 89 47 90 50 91 48 92
REMARK H PARENT 9 6 79 20 13 26 72 45 40 56
REMARK Flexibility Score: inf
ROOT
ATOM      1  C   UNL     1       1.258   6.826  -0.195  1.00  0.00     0.042 C 
ENDROOT
BRANCH   1   2
ATOM      2  C   UNL     1       0.213   6.449   0.847  1.00  0.00     0.117 C 
BRANCH   2   3
ATOM      3  N   UNL     1      -1.109   6.337   0.269  1.00  0.00    -0.356 N 
ATOM      4  C   UNL     1      -1.921   5.283   0.018  1.00  0.00     0.226 C 
ATOM      5  O   UNL     1      -3.086   5.590  -0.273  1.00  0.00    -0.275 OA
ATOM      6  H   UNL     1      -1.496   7.203   0.003  1.00  0.00     0.163 HD
BRANCH   4   7
ATOM      7  C   UNL     1      -1.538   3.807   0.144  1.00  0.00     0.171 C 
BRANCH   7   8
ATOM      8  C   UNL     1      -0.653   2.982  -0.886  1.00  0.00     0.138 C 
ATOM      9  C   UNL     1       0.501  -0.205   0.541  1.00  0.00     0.042 C 
ATOM     10  C   UNL     1       0.265   0.632  -0.729  1.00  0.00     0.070 C 
ATOM     11  C   UNL     1       0.296  -0.356  -1.900  1.00  0.00     0.042 C 
ATOM     12  C   UNL     1      -1.012   1.471  -0.611  1.00  0.00     0.107 C 
ATOM     13  O   UNL     1       1.344   1.554  -0.906  1.00  0.00    -0.363 OA
ATOM     14  C   UNL     1       0.919   2.913  -0.573  1.00  0.00     0.118 C 
ATOM     15  C   UNL     1       1.358   3.059   0.907  1.00  0.00     0.049 C 
ATOM     16  C   UNL     1       1.798   3.804  -1.471  1.00  0.00     0.049 C 
BRANCH   8  17
ATOM     17  N   UNL     1      -1.065   3.231  -2.302  1.00  0.00    -0.327 N 
ATOM     18  C   UNL     1      -1.488   4.545  -2.766  1.00  0.00     0.263 C 
ATOM     19  C   UNL     1      -0.448   2.514  -3.412  1.00  0.00     0.263 C 
ATOM     20  H   UNL     1      -1.908   2.725  -2.028  1.00  0.00     0.348 HD
ATOM     21  C   UNL     1      -1.565   4.438  -4.278  1.00  0.00     0.067 C 
ATOM     22  C   UNL     1      -0.481   3.447  -4.613  1.00  0.00     0.067 C 
ENDBRANCH   8  17
ENDBRANCH   7   8
ENDBRANCH   4   7
ENDBRANCH   2   3
ENDBRANCH   1   2
BRANCH   1  23
ATOM     23  C   UNL     1       1.389   8.325  -0.429  1.00  0.00     0.118 C 
BRANCH  23  24
ATOM     24  N   UNL     1       2.317   8.951   0.499  1.00  0.00    -0.352 N 
ATOM     25  C   UNL     1       3.675   9.160   0.468  1.00  0.00     0.251 C 
ATOM     26  H   UNL     1       1.885   9.294   1.315  1.00  0.00     0.163 HD
ATOM     27  O   UNL     1       4.213   9.543   1.507  1.00  0.00    -0.269 OA
BRANCH  25  28
ATOM     28  C   UNL     1       4.526   8.935  -0.734  1.00  0.00     0.039 A 
ATOM     29  C   UNL     1       5.878   8.619  -0.527  1.00  0.00     0.014 A 
ATOM     30  C   UNL     1       4.089   9.136  -2.043  1.00  0.00     0.014 A 
ATOM     31  C   UNL     1       6.763   8.489  -1.608  1.00  0.00     0.010 A 
ATOM     32  C   UNL     1       4.946   8.908  -3.127  1.00  0.00     0.010 A 
ATOM     33  C   UNL     1       6.302   8.613  -2.926  1.00  0.00    -0.014 A 
BRANCH  33  34
ATOM     34  C   UNL     1       7.227   8.505  -4.093  1.00  0.00     0.031 A 
ATOM     35  C   UNL     1       7.404   9.672  -5.035  1.00  0.00     0.074 A 
ATOM     36  C   UNL     1       7.883   7.354  -4.340  1.00  0.00     0.049 A 
ATOM     37  N   UNL     1       8.082   9.745  -6.155  1.00  0.00    -0.248 NA
ATOM     38  C   UNL     1       6.701  10.917  -4.686  1.00  0.00     0.031 C 
ATOM     39  C   UNL     1       7.787   6.135  -3.536  1.00  0.00     0.029 A 
ATOM     40  N   UNL     1       8.758   7.018  -5.346  1.00  0.00    -0.354 N 
ATOM     41  C   UNL     1       7.863  11.024  -6.652  1.00  0.00     0.074 A 
ATOM     42  C   UNL     1       6.947  11.677  -5.743  1.00  0.00     0.031 C 
ATOM     43  C   UNL     1       8.589   5.195  -4.063  1.00  0.00     0.029 A 
ATOM     44  C   UNL     1       9.225   5.728  -5.264  1.00  0.00     0.049 A 
ATOM     45  H   UNL     1       9.025   7.643  -6.058  1.00  0.00     0.167 HD
ATOM     46  C   UNL     1       8.396  11.616  -7.749  1.00  0.00     0.037 A 
ATOM     47  C   UNL     1      10.065   5.048  -6.069  1.00  0.00     0.037 A 
ATOM     48  C   UNL     1       9.345  10.991  -8.632  1.00  0.00     0.049 A 
ATOM     49  C   UNL     1      10.647   5.729  -7.279  1.00  0.00     0.074 A 
ATOM     50  C   UNL     1       9.976  11.526  -9.742  1.00  0.00     0.029 A 
ATOM     51  N   UNL     1       9.811   9.692  -8.496  1.00  0.00    -0.354 N 
ATOM     52  N   UNL     1      10.460   6.951  -7.712  1.00  0.00    -0.248 NA
ATOM     53  C   UNL     1      11.564   4.934  -8.110  1.00  0.00     0.031 C 
ATOM     54  C   UNL     1      10.800  10.541 -10.296  1.00  0.00     0.029 A 
ATOM     55  C   UNL     1      10.714   9.406  -9.507  1.00  0.00     0.049 A 
ATOM     56  H   UNL     1       9.539   9.065  -7.787  1.00  0.00     0.167 HD
ATOM     57  C   UNL     1      11.255   7.081  -8.843  1.00  0.00     0.074 A 
ATOM     58  C   UNL     1      11.939   5.818  -9.023  1.00  0.00     0.031 C 
ATOM     59  C   UNL     1      11.403   8.151  -9.662  1.00  0.00     0.037 A 
BRANCH  46  60
ATOM     60  C   UNL     1       7.975  13.027  -8.051  1.00  0.00     0.064 A 
ATOM     61  C   UNL     1       8.385  14.103  -7.249  1.00  0.00     0.173 A 
ATOM     62  C   UNL     1       7.186  13.313  -9.176  1.00  0.00     0.173 A 
ATOM     63  F   UNL     1       9.132  13.883  -6.156  1.00  0.00    -0.203 F 
ATOM     64  C   UNL     1       7.994  15.407  -7.542  1.00  0.00     0.198 A 
ATOM     65  C   UNL     1       6.823  14.622  -9.484  1.00  0.00     0.198 A 
ATOM     66  F   UNL     1       6.775  12.324  -9.984  1.00  0.00    -0.203 F 
ATOM     67  F   UNL     1       8.355  16.410  -6.731  1.00  0.00    -0.200 F 
ATOM     68  C   UNL     1       7.219  15.666  -8.662  1.00  0.00     0.200 A 
ATOM     69  F   UNL     1       6.086  14.873 -10.575  1.00  0.00    -0.200 F 
ATOM     70  F   UNL     1       6.849  16.922  -8.946  1.00  0.00    -0.200 F 
ENDBRANCH  46  60
BRANCH  47  71
ATOM     71  C   UNL     1      10.428   3.642  -5.749  1.00  0.00     0.064 A 
ATOM     72  C   UNL     1      11.727   3.312  -5.336  1.00  0.00     0.173 A 
ATOM     73  C   UNL     1       9.498   2.599  -5.870  1.00  0.00     0.173 A 
ATOM     74  F   UNL     1      12.659   4.272  -5.230  1.00  0.00    -0.203 F 
ATOM     75  C   UNL     1      12.088   1.992  -5.079  1.00  0.00     0.198 A 
ATOM     76  C   UNL     1       9.853   1.282  -5.585  1.00  0.00     0.198 A 
ATOM     77  F   UNL     1       8.243   2.861  -6.261  1.00  0.00    -0.203 F 
ATOM     78  F   UNL     1      13.350   1.699  -4.736  1.00  0.00    -0.200 F 
ATOM     79  C   UNL     1      11.150   0.978  -5.198  1.00  0.00     0.200 A 
ATOM     80  F   UNL     1       8.941   0.307  -5.691  1.00  0.00    -0.200 F 
ATOM     81  F   UNL     1      11.498  -0.292  -4.952  1.00  0.00    -0.200 F 
ENDBRANCH  47  71
BRANCH  59  82
ATOM     82  C   UNL     1      12.371   8.020 -10.801  1.00  0.00     0.064 A 
ATOM     83  C   UNL     1      12.083   7.235 -11.926  1.00  0.00     0.173 A 
ATOM     84  C   UNL     1      13.587   8.720 -10.781  1.00  0.00     0.173 A 
ATOM     85  F   UNL     1      10.940   6.535 -11.986  1.00  0.00    -0.203 F 
ATOM     86  C   UNL     1      12.987   7.137 -12.981  1.00  0.00     0.198 A 
ATOM     87  C   UNL     1      14.477   8.642 -11.849  1.00  0.00     0.198 A 
ATOM     88  F   UNL     1      13.908   9.490  -9.730  1.00  0.00    -0.203 F 
ATOM     89  F   UNL     1      12.710   6.346 -14.027  1.00  0.00    -0.200 F 
ATOM     90  C   UNL     1      14.179   7.845 -12.944  1.00  0.00     0.200 A 
ATOM     91  F   UNL     1      15.623   9.336 -11.818  1.00  0.00    -0.200 F 
ATOM     92  F   UNL     1      15.045   7.754 -13.963  1.00  0.00    -0.200 F 
ENDBRANCH  59  82
ENDBRANCH  33  34
ENDBRANCH  25  28
ENDBRANCH  23  24
ENDBRANCH   1  23
TORSDOF 12
