REMARK SMILES CC[NH2+][C@]1(C(=O)NCCCNC(=O)c2ccc(-c3c4nc(c(-c5c(F)c(F)c(F)c(F)c5F)c5ccc([nH]5)c(-c5c(F)c(F)c(F)c(F)c5F)c5nc(c(-c6c(F)c(F)c(F)c(F)c6F)c6ccc3[nH]6)C=C5)C=C4)cc2)CC[C@H]([N@H+](C)CC[NH+]2CCCC2)C1
REMARK SMILES IDX 8 1 7 2 5 3 6 4 4 6 77 7 89 8 78 9 79 10 3 11 2 14 1 15
REMARK SMILES IDX 80 16 81 17 82 19 83 20 84 21 85 22 88 23 86 25 87 26 9 27
REMARK SMILES IDX 10 28 11 29 12 30 13 32 14 33 15 34 76 35 16 36 75 37 17 38
REMARK SMILES IDX 18 39 19 40 69 41 20 42 74 43 68 44 70 45 21 46 73 47 67 48
REMARK SMILES IDX 66 49 22 51 54 52 34 53 53 54 35 55 38 56 52 57 71 58 36 59
REMARK SMILES IDX 37 60 51 62 72 63 39 64 23 65 24 66 32 67 25 68 26 69 30 70
REMARK SMILES IDX 33 71 27 72 28 73 31 74 29 75 55 76 56 77 64 78 57 79 58 80
REMARK SMILES IDX 62 81 65 82 59 83 60 84 63 85 61 86 40 87 41 88 49 89 42 90
REMARK SMILES IDX 43 91 47 92 50 93 44 94 45 95 48 96 46 97
REMARK H PARENT 7 5 3 12 3 13 80 18 84 24 11 31 70 50 38 61
REMARK Flexibility Score: inf
ROOT
ATOM      1  C   UNL     1       3.072  -1.093   2.225  1.00  0.00     0.118 C 
ENDROOT
BRANCH   1   2
ATOM      2  N   UNL     1       2.056  -0.173   1.756  1.00  0.00    -0.351 N 
ATOM      3  C   UNL     1       0.960   0.348   2.385  1.00  0.00     0.281 C 
ATOM      4  O   UNL     1       0.342   1.220   1.764  1.00  0.00    -0.268 OA
ATOM      5  H   UNL     1       2.176   0.127   0.826  1.00  0.00     0.163 HD
BRANCH   3   6
ATOM      6  C   UNL     1       0.526  -0.132   3.796  1.00  0.00     0.181 C 
ATOM      7  C   UNL     1      -0.958   0.258   4.035  1.00  0.00     0.085 C 
ATOM      8  C   UNL     1       0.332  -1.658   3.866  1.00  0.00     0.144 C 
ATOM      9  C   UNL     1      -1.479  -0.697   5.122  1.00  0.00     0.072 C 
ATOM     10  C   UNL     1      -0.559  -1.946   5.092  1.00  0.00     0.191 C 
BRANCH   6  11
ATOM     11  N   UNL     1       1.283   0.545   4.887  1.00  0.00    -0.334 N 
ATOM     12  H   UNL     1       0.992   1.523   4.889  1.00  0.00     0.347 HD
ATOM     13  H   UNL     1       1.056  -0.002   5.717  1.00  0.00     0.347 HD
BRANCH  11  14
ATOM     14  C   UNL     1       2.736   0.535   4.854  1.00  0.00     0.257 C 
ATOM     15  C   UNL     1       3.330   1.111   6.133  1.00  0.00     0.071 C 
ENDBRANCH  11  14
ENDBRANCH   6  11
BRANCH  10  16
ATOM     16  N   UNL     1       0.114  -2.373   6.345  1.00  0.00    -0.330 N 
ATOM     17  C   UNL     1      -0.256  -1.677   7.561  1.00  0.00     0.333 C 
ATOM     18  H   UNL     1      -0.327  -3.282   6.488  1.00  0.00     0.348 HD
BRANCH  16  19
ATOM     19  C   UNL     1       1.539  -2.714   6.227  1.00  0.00     0.324 C 
BRANCH  19  20
ATOM     20  C   UNL     1       2.326  -3.316   7.412  1.00  0.00     0.324 C 
BRANCH  20  21
ATOM     21  N   UNL     1       1.938  -4.709   7.647  1.00  0.00    -0.330 N 
ATOM     22  C   UNL     1       1.324  -4.913   8.963  1.00  0.00     0.262 C 
ATOM     23  C   UNL     1       3.056  -5.658   7.514  1.00  0.00     0.262 C 
ATOM     24  H   UNL     1       1.252  -4.899   6.916  1.00  0.00     0.348 HD
ATOM     25  C   UNL     1       2.397  -5.579   9.798  1.00  0.00     0.067 C 
ATOM     26  C   UNL     1       3.071  -6.483   8.791  1.00  0.00     0.067 C 
ENDBRANCH  20  21
ENDBRANCH  19  20
ENDBRANCH  16  19
ENDBRANCH  10  16
ENDBRANCH   3   6
ENDBRANCH   1   2
BRANCH   1  27
ATOM     27  C   UNL     1       3.270  -2.286   1.317  1.00  0.00     0.042 C 
BRANCH  27  28
ATOM     28  C   UNL     1       3.921  -1.911   0.001  1.00  0.00     0.118 C 
BRANCH  28  29
ATOM     29  N   UNL     1       5.248  -1.329   0.180  1.00  0.00    -0.352 N 
ATOM     30  C   UNL     1       6.487  -1.800  -0.179  1.00  0.00     0.251 C 
ATOM     31  H   UNL     1       5.256  -0.455   0.632  1.00  0.00     0.163 HD
ATOM     32  O   UNL     1       7.495  -1.264   0.263  1.00  0.00    -0.269 OA
BRANCH  30  33
ATOM     33  C   UNL     1       6.599  -2.967  -1.077  1.00  0.00     0.039 A 
ATOM     34  C   UNL     1       7.607  -3.905  -0.848  1.00  0.00     0.014 A 
ATOM     35  C   UNL     1       5.707  -3.143  -2.135  1.00  0.00     0.014 A 
ATOM     36  C   UNL     1       7.661  -5.058  -1.630  1.00  0.00     0.010 A 
ATOM     37  C   UNL     1       5.678  -4.348  -2.821  1.00  0.00     0.010 A 
ATOM     38  C   UNL     1       6.664  -5.314  -2.587  1.00  0.00    -0.014 A 
BRANCH  38  39
ATOM     39  C   UNL     1       6.636  -6.590  -3.341  1.00  0.00     0.031 A 
ATOM     40  C   UNL     1       6.726  -6.591  -4.841  1.00  0.00     0.074 A 
ATOM     41  C   UNL     1       6.465  -7.745  -2.669  1.00  0.00     0.049 A 
ATOM     42  N   UNL     1       6.711  -7.605  -5.670  1.00  0.00    -0.248 NA
ATOM     43  C   UNL     1       6.809  -5.280  -5.506  1.00  0.00     0.031 C 
ATOM     44  C   UNL     1       6.276  -7.860  -1.221  1.00  0.00     0.029 A 
ATOM     45  N   UNL     1       6.421  -9.041  -3.113  1.00  0.00    -0.354 N 
ATOM     46  C   UNL     1       6.766  -7.053  -6.943  1.00  0.00     0.074 A 
ATOM     47  C   UNL     1       6.743  -5.617  -6.784  1.00  0.00     0.031 C 
ATOM     48  C   UNL     1       6.181  -9.157  -0.892  1.00  0.00     0.029 A 
ATOM     49  C   UNL     1       6.259  -9.961  -2.106  1.00  0.00     0.049 A 
ATOM     50  H   UNL     1       6.499  -9.289  -4.062  1.00  0.00     0.167 HD
ATOM     51  C   UNL     1       6.857  -7.689  -8.135  1.00  0.00     0.037 A 
ATOM     52  C   UNL     1       6.182 -11.303  -2.158  1.00  0.00     0.037 A 
ATOM     53  C   UNL     1       6.901  -9.120  -8.280  1.00  0.00     0.049 A 
ATOM     54  C   UNL     1       6.311 -11.986  -3.491  1.00  0.00     0.074 A 
ATOM     55  C   UNL     1       7.075  -9.866  -9.431  1.00  0.00     0.029 A 
ATOM     56  N   UNL     1       6.755 -10.024  -7.236  1.00  0.00    -0.354 N 
ATOM     57  N   UNL     1       6.468 -11.458  -4.681  1.00  0.00    -0.248 NA
ATOM     58  C   UNL     1       6.267 -13.454  -3.486  1.00  0.00     0.031 C 
ATOM     59  C   UNL     1       6.970 -11.220  -9.094  1.00  0.00     0.029 A 
ATOM     60  C   UNL     1       6.800 -11.321  -7.722  1.00  0.00     0.049 A 
ATOM     61  H   UNL     1       6.638  -9.779  -6.290  1.00  0.00     0.167 HD
ATOM     62  C   UNL     1       6.556 -12.525  -5.564  1.00  0.00     0.074 A 
ATOM     63  C   UNL     1       6.469 -13.731  -4.765  1.00  0.00     0.031 C 
ATOM     64  C   UNL     1       6.692 -12.510  -6.914  1.00  0.00     0.037 A 
BRANCH  51  65
ATOM     65  C   UNL     1       6.912  -6.838  -9.373  1.00  0.00     0.064 A 
ATOM     66  C   UNL     1       8.008  -6.006  -9.655  1.00  0.00     0.173 A 
ATOM     67  C   UNL     1       5.862  -6.870 -10.303  1.00  0.00     0.173 A 
ATOM     68  F   UNL     1       9.034  -5.926  -8.795  1.00  0.00    -0.203 F 
ATOM     69  C   UNL     1       8.032  -5.212 -10.799  1.00  0.00     0.198 A 
ATOM     70  C   UNL     1       5.906  -6.102 -11.465  1.00  0.00     0.198 A 
ATOM     71  F   UNL     1       4.790  -7.648 -10.088  1.00  0.00    -0.203 F 
ATOM     72  F   UNL     1       9.060  -4.380 -11.013  1.00  0.00    -0.200 F 
ATOM     73  C   UNL     1       6.985  -5.266 -11.707  1.00  0.00     0.200 A 
ATOM     74  F   UNL     1       4.900  -6.167 -12.348  1.00  0.00    -0.200 F 
ATOM     75  F   UNL     1       7.013  -4.506 -12.810  1.00  0.00    -0.200 F 
ENDBRANCH  51  65
BRANCH  52  76
ATOM     76  C   UNL     1       6.003 -12.082  -0.904  1.00  0.00     0.064 A 
ATOM     77  C   UNL     1       7.030 -12.893  -0.402  1.00  0.00     0.173 A 
ATOM     78  C   UNL     1       4.807 -12.019  -0.174  1.00  0.00     0.173 A 
ATOM     79  F   UNL     1       8.188 -12.999  -1.072  1.00  0.00    -0.203 F 
ATOM     80  C   UNL     1       6.861 -13.627   0.770  1.00  0.00     0.198 A 
ATOM     81  C   UNL     1       4.651 -12.728   1.015  1.00  0.00     0.198 A 
ATOM     82  F   UNL     1       3.796 -11.250  -0.605  1.00  0.00    -0.203 F 
ATOM     83  F   UNL     1       7.843 -14.429   1.203  1.00  0.00    -0.200 F 
ATOM     84  C   UNL     1       5.675 -13.538   1.482  1.00  0.00     0.200 A 
ATOM     85  F   UNL     1       3.510 -12.622   1.710  1.00  0.00    -0.200 F 
ATOM     86  F   UNL     1       5.516 -14.235   2.615  1.00  0.00    -0.200 F 
ENDBRANCH  52  76
BRANCH  64  87
ATOM     87  C   UNL     1       6.768 -13.843  -7.604  1.00  0.00     0.064 A 
ATOM     88  C   UNL     1       5.661 -14.704  -7.668  1.00  0.00     0.173 A 
ATOM     89  C   UNL     1       7.960 -14.263  -8.214  1.00  0.00     0.173 A 
ATOM     90  F   UNL     1       4.501 -14.357  -7.089  1.00  0.00    -0.203 F 
ATOM     91  C   UNL     1       5.759 -15.953  -8.275  1.00  0.00     0.198 A 
ATOM     92  C   UNL     1       8.042 -15.495  -8.855  1.00  0.00     0.198 A 
ATOM     93  F   UNL     1       9.046 -13.475  -8.192  1.00  0.00    -0.203 F 
ATOM     94  F   UNL     1       4.710 -16.787  -8.260  1.00  0.00    -0.200 F 
ATOM     95  C   UNL     1       6.947 -16.345  -8.873  1.00  0.00     0.200 A 
ATOM     96  F   UNL     1       9.186 -15.865  -9.448  1.00  0.00    -0.200 F 
ATOM     97  F   UNL     1       7.040 -17.548  -9.456  1.00  0.00    -0.200 F 
ENDBRANCH  64  87
ENDBRANCH  38  39
ENDBRANCH  30  33
ENDBRANCH  28  29
ENDBRANCH  27  28
ENDBRANCH   1  27
TORSDOF 16
