REMARK SMILES C[C@H]([NH2+]C[C@]1(C)CCCO1)[C@H](C)C(=O)NCCCNC(=O)c1ccc(-c2c3nc(c(-c4c(F)c(F)c(F)c(F)c4F)c4ccc([nH]4)c(-c4c(F)c(F)c(F)c(F)c4F)c4nc(c(-c5c(F)c(F)c(F)c(F)c5F)c5ccc2[nH]5)C=C4)C=C3)cc1
REMARK SMILES IDX 16 1 15 2 13 3 14 4 11 6 12 7 2 8 1 9 3 10 4 13 5 14 7 15
REMARK SMILES IDX 10 16 6 17 8 18 9 19 17 20 18 21 19 22 20 23 21 25 22 26
REMARK SMILES IDX 23 27 84 28 24 29 83 30 25 31 26 32 27 33 77 34 28 35 82 36
REMARK SMILES IDX 76 37 78 38 29 39 81 40 75 41 74 42 30 44 62 45 42 46 61 47
REMARK SMILES IDX 43 48 46 49 60 50 79 51 44 52 45 53 59 55 80 56 47 57 31 58
REMARK SMILES IDX 32 59 40 60 33 61 34 62 38 63 41 64 35 65 36 66 39 67 37 68
REMARK SMILES IDX 63 69 64 70 72 71 65 72 66 73 70 74 73 75 67 76 68 77 71 78
REMARK SMILES IDX 69 79 48 80 49 81 57 82 50 83 51 84 55 85 58 86 52 87 53 88
REMARK SMILES IDX 56 89 54 90
REMARK H PARENT 15 5 3 11 3 12 19 24 78 43 46 54
REMARK Flexibility Score: inf
ROOT
ATOM      1  C   UNL     1      -4.114   1.539  -2.543  1.00  0.00     0.117 C 
ENDROOT
BRANCH   1   2
ATOM      2  N   UNL     1      -5.062   0.840  -1.699  1.00  0.00    -0.356 N 
ATOM      3  C   UNL     1      -6.331   0.428  -1.935  1.00  0.00     0.228 C 
ATOM      4  O   UNL     1      -6.945  -0.058  -0.980  1.00  0.00    -0.275 OA
ATOM      5  H   UNL     1      -4.726   0.627  -0.798  1.00  0.00     0.163 HD
BRANCH   3   6
ATOM      6  C   UNL     1      -6.996   0.559  -3.294  1.00  0.00     0.133 C 
ATOM      7  C   UNL     1      -7.408   2.017  -3.527  1.00  0.00     0.024 C 
BRANCH   6   8
ATOM      8  C   UNL     1      -6.243  -0.053  -4.511  1.00  0.00     0.191 C 
ATOM      9  C   UNL     1      -7.240  -0.608  -5.538  1.00  0.00     0.076 C 
BRANCH   8  10
ATOM     10  N   UNL     1      -5.184  -1.044  -4.264  1.00  0.00    -0.341 N 
ATOM     11  H   UNL     1      -4.449  -0.581  -3.730  1.00  0.00     0.346 HD
ATOM     12  H   UNL     1      -4.906  -1.368  -5.190  1.00  0.00     0.346 HD
BRANCH  10  13
ATOM     13  C   UNL     1      -5.563  -2.256  -3.536  1.00  0.00     0.296 C 
BRANCH  13  14
ATOM     14  C   UNL     1      -4.325  -3.102  -3.085  1.00  0.00     0.114 C 
ATOM     15  C   UNL     1      -3.424  -3.527  -4.244  1.00  0.00     0.043 C 
ATOM     16  O   UNL     1      -4.822  -4.346  -2.545  1.00  0.00    -0.369 OA
ATOM     17  C   UNL     1      -3.515  -2.398  -1.992  1.00  0.00     0.048 C 
ATOM     18  C   UNL     1      -4.176  -4.700  -4.816  1.00  0.00     0.032 C 
ATOM     19  C   UNL     1      -4.778  -5.341  -3.581  1.00  0.00     0.161 C 
ENDBRANCH  13  14
ENDBRANCH  10  13
ENDBRANCH   8  10
ENDBRANCH   6   8
ENDBRANCH   3   6
ENDBRANCH   1   2
BRANCH   1  20
ATOM     20  C   UNL     1      -3.537   2.749  -1.838  1.00  0.00     0.042 C 
BRANCH  20  21
ATOM     21  C   UNL     1      -2.712   2.383  -0.612  1.00  0.00     0.118 C 
BRANCH  21  22
ATOM     22  N   UNL     1      -1.507   1.630  -0.940  1.00  0.00    -0.352 N 
ATOM     23  C   UNL     1      -0.196   1.940  -0.669  1.00  0.00     0.251 C 
ATOM     24  H   UNL     1      -1.652   0.784  -1.421  1.00  0.00     0.163 HD
ATOM     25  O   UNL     1       0.716   1.286  -1.165  1.00  0.00    -0.269 OA
BRANCH  23  26
ATOM     26  C   UNL     1       0.101   3.092   0.202  1.00  0.00     0.039 A 
ATOM     27  C   UNL     1       1.052   4.028  -0.205  1.00  0.00     0.014 A 
ATOM     28  C   UNL     1      -0.610   3.272   1.391  1.00  0.00     0.014 A 
ATOM     29  C   UNL     1       1.232   5.191   0.545  1.00  0.00     0.010 A 
ATOM     30  C   UNL     1      -0.504   4.473   2.077  1.00  0.00     0.010 A 
ATOM     31  C   UNL     1       0.422   5.442   1.665  1.00  0.00    -0.014 A 
BRANCH  31  32
ATOM     32  C   UNL     1       0.533   6.706   2.434  1.00  0.00     0.031 A 
ATOM     33  C   UNL     1       0.927   6.664   3.884  1.00  0.00     0.074 A 
ATOM     34  C   UNL     1       0.204   7.875   1.851  1.00  0.00     0.049 A 
ATOM     35  N   UNL     1       0.994   7.641   4.753  1.00  0.00    -0.248 NA
ATOM     36  C   UNL     1       1.254   5.342   4.442  1.00  0.00     0.031 C 
ATOM     37  C   UNL     1      -0.249   8.035   0.468  1.00  0.00     0.029 A 
ATOM     38  N   UNL     1       0.189   9.152   2.354  1.00  0.00    -0.354 N 
ATOM     39  C   UNL     1       1.351   7.048   5.957  1.00  0.00     0.074 A 
ATOM     40  C   UNL     1       1.423   5.623   5.725  1.00  0.00     0.031 C 
ATOM     41  C   UNL     1      -0.468   9.337   0.225  1.00  0.00     0.029 A 
ATOM     42  C   UNL     1      -0.212  10.098   1.443  1.00  0.00     0.049 A 
ATOM     43  H   UNL     1       0.442   9.368   3.281  1.00  0.00     0.167 HD
ATOM     44  C   UNL     1       1.623   7.642   7.142  1.00  0.00     0.037 A 
ATOM     45  C   UNL     1      -0.359  11.430   1.580  1.00  0.00     0.037 A 
ATOM     46  C   UNL     1       1.582   9.063   7.358  1.00  0.00     0.049 A 
ATOM     47  C   UNL     1      -0.045  12.066   2.908  1.00  0.00     0.074 A 
ATOM     48  C   UNL     1       1.901   9.772   8.502  1.00  0.00     0.029 A 
ATOM     49  N   UNL     1       1.198   9.994   6.403  1.00  0.00    -0.354 N 
ATOM     50  N   UNL     1       0.360  11.504   4.020  1.00  0.00    -0.248 NA
ATOM     51  C   UNL     1      -0.204  13.524   2.996  1.00  0.00     0.031 C 
ATOM     52  C   UNL     1       1.668  11.129   8.253  1.00  0.00     0.029 A 
ATOM     53  C   UNL     1       1.253  11.270   6.938  1.00  0.00     0.049 A 
ATOM     54  H   UNL     1       0.926   9.779   5.481  1.00  0.00     0.167 HD
ATOM     55  C   UNL     1       0.534  12.538   4.929  1.00  0.00     0.074 A 
ATOM     56  C   UNL     1       0.204  13.765   4.234  1.00  0.00     0.031 C 
ATOM     57  C   UNL     1       0.932  12.479   6.224  1.00  0.00     0.037 A 
BRANCH  44  58
ATOM     58  C   UNL     1       2.000   6.753   8.292  1.00  0.00     0.064 A 
ATOM     59  C   UNL     1       3.219   6.056   8.314  1.00  0.00     0.173 A 
ATOM     60  C   UNL     1       1.147   6.617   9.397  1.00  0.00     0.173 A 
ATOM     61  F   UNL     1       4.064   6.141   7.276  1.00  0.00    -0.203 F 
ATOM     62  C   UNL     1       3.554   5.231   9.384  1.00  0.00     0.198 A 
ATOM     63  C   UNL     1       1.500   5.816  10.481  1.00  0.00     0.198 A 
ATOM     64  F   UNL     1      -0.028   7.263   9.429  1.00  0.00    -0.203 F 
ATOM     65  F   UNL     1       4.697   4.533   9.357  1.00  0.00    -0.200 F 
ATOM     66  C   UNL     1       2.698   5.118  10.470  1.00  0.00     0.200 A 
ATOM     67  F   UNL     1       0.678   5.718  11.535  1.00  0.00    -0.200 F 
ATOM     68  F   UNL     1       3.025   4.329  11.502  1.00  0.00    -0.200 F 
ENDBRANCH  44  58
BRANCH  45  69
ATOM     69  C   UNL     1      -0.793  12.254   0.422  1.00  0.00     0.064 A 
ATOM     70  C   UNL     1       0.095  13.146  -0.196  1.00  0.00     0.173 A 
ATOM     71  C   UNL     1      -2.097  12.174  -0.087  1.00  0.00     0.173 A 
ATOM     72  F   UNL     1       1.347  13.272   0.267  1.00  0.00    -0.203 F 
ATOM     73  C   UNL     1      -0.312  13.942  -1.265  1.00  0.00     0.198 A 
ATOM     74  C   UNL     1      -2.494  12.950  -1.174  1.00  0.00     0.198 A 
ATOM     75  F   UNL     1      -2.983  11.331   0.464  1.00  0.00    -0.203 F 
ATOM     76  F   UNL     1       0.544  14.820  -1.807  1.00  0.00    -0.200 F 
ATOM     77  C   UNL     1      -1.604  13.840  -1.757  1.00  0.00     0.200 A 
ATOM     78  F   UNL     1      -3.739  12.836  -1.657  1.00  0.00    -0.200 F 
ATOM     79  F   UNL     1      -1.994  14.603  -2.787  1.00  0.00    -0.200 F 
ENDBRANCH  45  69
BRANCH  57  80
ATOM     80  C   UNL     1       1.070  13.779   6.961  1.00  0.00     0.064 A 
ATOM     81  C   UNL     1      -0.049  14.527   7.353  1.00  0.00     0.173 A 
ATOM     82  C   UNL     1       2.340  14.258   7.317  1.00  0.00     0.173 A 
ATOM     83  F   UNL     1      -1.284  14.118   7.023  1.00  0.00    -0.203 F 
ATOM     84  C   UNL     1       0.099  15.721   8.053  1.00  0.00     0.198 A 
ATOM     85  C   UNL     1       2.483  15.436   8.044  1.00  0.00     0.198 A 
ATOM     86  F   UNL     1       3.442  13.576   6.973  1.00  0.00    -0.203 F 
ATOM     87  F   UNL     1      -0.982  16.444   8.376  1.00  0.00    -0.200 F 
ATOM     88  C   UNL     1       1.363  16.170   8.405  1.00  0.00     0.200 A 
ATOM     89  F   UNL     1       3.704  15.861   8.396  1.00  0.00    -0.200 F 
ATOM     90  F   UNL     1       1.503  17.316   9.086  1.00  0.00    -0.200 F 
ENDBRANCH  57  80
ENDBRANCH  31  32
ENDBRANCH  23  26
ENDBRANCH  21  22
ENDBRANCH  20  21
ENDBRANCH   1  20
TORSDOF 14
