REMARK SMILES O=C(NCCCNC(=O)c1[nH]ncc1C[N@H+]1CCC[C@H](C(=O)c2ccc3ccccc3c2)C1)c1ccc(-c2c3nc(c(-c4c(F)c(F)c(F)c(F)c4F)c4ccc([nH]4)c(-c4c(F)c(F)c(F)c(F)c4F)c4nc(c(-c5c(F)c(F)c(F)c(F)c5F)c5ccc2[nH]5)C=C4)C=C3)cc1
REMARK SMILES IDX 6 1 5 2 4 3 3 4 1 5 2 6 34 8 35 9 96 10 36 11 95 12 37 13
REMARK SMILES IDX 38 14 39 15 89 16 40 17 94 18 88 19 90 20 41 21 93 22 87 23
REMARK SMILES IDX 86 24 42 26 74 27 54 28 73 29 55 30 58 31 72 32 91 33 56 34
REMARK SMILES IDX 57 35 71 37 92 38 59 39 43 40 44 41 52 42 45 43 46 44 50 45
REMARK SMILES IDX 53 46 47 47 48 48 51 49 49 50 75 51 76 52 84 53 77 54 78 55
REMARK SMILES IDX 82 56 85 57 79 58 80 59 83 60 81 61 60 62 61 63 69 64 62 65
REMARK SMILES IDX 63 66 67 67 70 68 64 69 65 70 68 71 66 72 7 73 8 74 9 76
REMARK SMILES IDX 10 77 11 78 14 79 12 80 13 82 15 83 16 84 17 85 33 86 18 88
REMARK SMILES IDX 20 89 19 90 21 91 22 92 23 93 24 94 32 95 25 96 31 97 26 98
REMARK SMILES IDX 30 99 27 100 29 101 28 102
REMARK H PARENT 3 7 90 25 58 36 7 75 11 81 16 87
REMARK Flexibility Score: inf
ROOT
ATOM      1  C   UNL     1       4.207  -0.290   3.666  1.00  0.00     0.118 C 
ENDROOT
BRANCH   1   2
ATOM      2  C   UNL     1       4.810   0.158   2.337  1.00  0.00     0.042 C 
BRANCH   2   3
ATOM      3  C   UNL     1       4.559  -0.810   1.185  1.00  0.00     0.118 C 
BRANCH   3   4
ATOM      4  N   UNL     1       3.147  -0.918   0.850  1.00  0.00    -0.352 N 
ATOM      5  O   UNL     1       1.185  -0.392  -0.100  1.00  0.00    -0.269 OA
ATOM      6  C   UNL     1       2.412  -0.348  -0.158  1.00  0.00     0.251 C 
ATOM      7  H   UNL     1       2.629  -1.501   1.451  1.00  0.00     0.163 HD
BRANCH   6   8
ATOM      8  C   UNL     1       3.058   0.323  -1.310  1.00  0.00     0.039 A 
ATOM      9  C   UNL     1       4.177  -0.221  -1.944  1.00  0.00     0.014 A 
ATOM     10  C   UNL     1       2.453   1.470  -1.839  1.00  0.00     0.014 A 
ATOM     11  C   UNL     1       4.749   0.432  -3.035  1.00  0.00     0.010 A 
ATOM     12  C   UNL     1       2.989   2.091  -2.972  1.00  0.00     0.010 A 
ATOM     13  C   UNL     1       4.153   1.586  -3.568  1.00  0.00    -0.014 A 
BRANCH  13  14
ATOM     14  C   UNL     1       4.719   2.208  -4.790  1.00  0.00     0.031 A 
ATOM     15  C   UNL     1       5.396   3.546  -4.738  1.00  0.00     0.074 A 
ATOM     16  C   UNL     1       4.626   1.549  -5.960  1.00  0.00     0.049 A 
ATOM     17  N   UNL     1       5.967   4.218  -5.707  1.00  0.00    -0.248 NA
ATOM     18  C   UNL     1       5.428   4.226  -3.435  1.00  0.00     0.031 C 
ATOM     19  C   UNL     1       3.959   0.260  -6.151  1.00  0.00     0.029 A 
ATOM     20  N   UNL     1       5.104   1.865  -7.206  1.00  0.00    -0.354 N 
ATOM     21  C   UNL     1       6.400   5.407  -5.140  1.00  0.00     0.074 A 
ATOM     22  C   UNL     1       6.024   5.370  -3.742  1.00  0.00     0.031 C 
ATOM     23  C   UNL     1       4.105  -0.124  -7.428  1.00  0.00     0.029 A 
ATOM     24  C   UNL     1       4.850   0.903  -8.150  1.00  0.00     0.049 A 
ATOM     25  H   UNL     1       5.583   2.702  -7.404  1.00  0.00     0.167 HD
ATOM     26  C   UNL     1       7.054   6.434  -5.732  1.00  0.00     0.037 A 
ATOM     27  C   UNL     1       5.183   0.850  -9.452  1.00  0.00     0.037 A 
ATOM     28  C   UNL     1       7.470   6.461  -7.108  1.00  0.00     0.049 A 
ATOM     29  C   UNL     1       5.949   1.979 -10.072  1.00  0.00     0.074 A 
ATOM     30  C   UNL     1       8.204   7.430  -7.771  1.00  0.00     0.029 A 
ATOM     31  N   UNL     1       7.189   5.469  -8.034  1.00  0.00    -0.354 N 
ATOM     32  N   UNL     1       6.386   3.080  -9.514  1.00  0.00    -0.248 NA
ATOM     33  C   UNL     1       6.261   1.861 -11.503  1.00  0.00     0.031 C 
ATOM     34  C   UNL     1       8.352   7.032  -9.106  1.00  0.00     0.029 A 
ATOM     35  C   UNL     1       7.721   5.809  -9.268  1.00  0.00     0.049 A 
ATOM     36  H   UNL     1       6.686   4.644  -7.844  1.00  0.00     0.167 HD
ATOM     37  C   UNL     1       7.014   3.793 -10.523  1.00  0.00     0.074 A 
ATOM     38  C   UNL     1       6.922   2.991 -11.726  1.00  0.00     0.031 C 
ATOM     39  C   UNL     1       7.606   5.009 -10.457  1.00  0.00     0.037 A 
BRANCH  26  40
ATOM     40  C   UNL     1       7.359   7.629  -4.886  1.00  0.00     0.064 A 
ATOM     41  C   UNL     1       8.471   7.654  -4.033  1.00  0.00     0.173 A 
ATOM     42  C   UNL     1       6.552   8.773  -4.958  1.00  0.00     0.173 A 
ATOM     43  F   UNL     1       9.262   6.577  -3.924  1.00  0.00    -0.203 F 
ATOM     44  C   UNL     1       8.760   8.784  -3.273  1.00  0.00     0.198 A 
ATOM     45  C   UNL     1       6.849   9.905  -4.205  1.00  0.00     0.198 A 
ATOM     46  F   UNL     1       5.476   8.791  -5.760  1.00  0.00    -0.203 F 
ATOM     47  F   UNL     1       9.815   8.783  -2.447  1.00  0.00    -0.200 F 
ATOM     48  C   UNL     1       7.951   9.909  -3.362  1.00  0.00     0.200 A 
ATOM     49  F   UNL     1       6.068  10.990  -4.290  1.00  0.00    -0.200 F 
ATOM     50  F   UNL     1       8.231  10.996  -2.629  1.00  0.00    -0.200 F 
ENDBRANCH  26  40
BRANCH  27  51
ATOM     51  C   UNL     1       4.795  -0.337 -10.248  1.00  0.00     0.064 A 
ATOM     52  C   UNL     1       5.720  -1.354 -10.510  1.00  0.00     0.173 A 
ATOM     53  C   UNL     1       3.485  -0.495 -10.718  1.00  0.00     0.173 A 
ATOM     54  F   UNL     1       6.987  -1.232 -10.088  1.00  0.00    -0.203 F 
ATOM     55  C   UNL     1       5.346  -2.495 -11.216  1.00  0.00     0.198 A 
ATOM     56  C   UNL     1       3.110  -1.641 -11.413  1.00  0.00     0.198 A 
ATOM     57  F   UNL     1       2.570   0.456 -10.485  1.00  0.00    -0.203 F 
ATOM     58  F   UNL     1       6.250  -3.453 -11.464  1.00  0.00    -0.200 F 
ATOM     59  C   UNL     1       4.040  -2.640 -11.662  1.00  0.00     0.200 A 
ATOM     60  F   UNL     1       1.847  -1.782 -11.837  1.00  0.00    -0.200 F 
ATOM     61  F   UNL     1       3.679  -3.742 -12.332  1.00  0.00    -0.200 F 
ENDBRANCH  27  51
BRANCH  39  62
ATOM     62  C   UNL     1       8.179   5.553 -11.726  1.00  0.00     0.064 A 
ATOM     63  C   UNL     1       7.363   6.211 -12.656  1.00  0.00     0.173 A 
ATOM     64  C   UNL     1       9.549   5.447 -12.000  1.00  0.00     0.173 A 
ATOM     65  F   UNL     1       6.044   6.320 -12.439  1.00  0.00    -0.203 F 
ATOM     66  C   UNL     1       7.900   6.740 -13.826  1.00  0.00     0.198 A 
ATOM     67  C   UNL     1      10.084   5.985 -13.166  1.00  0.00     0.198 A 
ATOM     68  F   UNL     1      10.363   4.821 -11.138  1.00  0.00    -0.203 F 
ATOM     69  F   UNL     1       7.102   7.348 -14.713  1.00  0.00    -0.200 F 
ATOM     70  C   UNL     1       9.260   6.630 -14.078  1.00  0.00     0.200 A 
ATOM     71  F   UNL     1      11.397   5.877 -13.411  1.00  0.00    -0.200 F 
ATOM     72  F   UNL     1       9.776   7.138 -15.205  1.00  0.00    -0.200 F 
ENDBRANCH  39  62
ENDBRANCH  13  14
ENDBRANCH   6   8
ENDBRANCH   3   4
ENDBRANCH   2   3
ENDBRANCH   1   2
BRANCH   1  73
ATOM     73  N   UNL     1       4.805  -1.523   4.154  1.00  0.00    -0.351 N 
ATOM     74  C   UNL     1       5.796  -1.706   5.081  1.00  0.00     0.269 C 
ATOM     75  H   UNL     1       4.443  -2.349   3.760  1.00  0.00     0.163 HD
ATOM     76  O   UNL     1       6.380  -2.792   5.098  1.00  0.00    -0.268 OA
BRANCH  74  77
ATOM     77  C   UNL     1       6.160  -0.632   5.957  1.00  0.00     0.131 A 
ATOM     78  N   UNL     1       7.470  -0.331   6.215  1.00  0.00    -0.272 N 
ATOM     79  C   UNL     1       5.418   0.212   6.778  1.00  0.00     0.057 A 
ATOM     80  N   UNL     1       7.635   0.751   6.991  1.00  0.00    -0.183 NA
ATOM     81  H   UNL     1       8.222  -0.859   5.863  1.00  0.00     0.190 HD
ATOM     82  C   UNL     1       6.389   1.071   7.345  1.00  0.00     0.145 A 
BRANCH  79  83
ATOM     83  C   UNL     1       3.939   0.219   6.993  1.00  0.00     0.303 C 
BRANCH  83  84
ATOM     84  N   UNL     1       3.507  -0.143   8.343  1.00  0.00    -0.330 N 
ATOM     85  C   UNL     1       4.116  -1.364   8.871  1.00  0.00     0.262 C 
ATOM     86  C   UNL     1       3.541   0.955   9.305  1.00  0.00     0.274 C 
ATOM     87  H   UNL     1       2.520  -0.365   8.213  1.00  0.00     0.348 HD
ATOM     88  C   UNL     1       3.331  -1.856  10.083  1.00  0.00     0.062 C 
ATOM     89  C   UNL     1       2.762   0.604  10.578  1.00  0.00     0.116 C 
ATOM     90  C   UNL     1       3.128  -0.772  11.142  1.00  0.00     0.023 C 
BRANCH  89  91
ATOM     91  C   UNL     1       1.272   0.907  10.410  1.00  0.00     0.171 C 
ATOM     92  O   UNL     1       0.768   1.923  10.891  1.00  0.00    -0.294 OA
BRANCH  91  93
ATOM     93  C   UNL     1       0.407   0.063   9.558  1.00  0.00     0.019 A 
ATOM     94  C   UNL     1      -0.048  -1.174  10.006  1.00  0.00     0.012 A 
ATOM     95  C   UNL     1      -0.045   0.585   8.340  1.00  0.00     0.020 A 
ATOM     96  C   UNL     1      -0.903  -1.929   9.200  1.00  0.00     0.009 A 
ATOM     97  C   UNL     1      -0.922  -0.156   7.531  1.00  0.00    -0.018 A 
ATOM     98  C   UNL     1      -1.346  -1.436   7.961  1.00  0.00    -0.018 A 
ATOM     99  C   UNL     1      -1.398   0.348   6.310  1.00  0.00     0.009 A 
ATOM    100  C   UNL     1      -2.219  -2.179   7.150  1.00  0.00     0.009 A 
ATOM    101  C   UNL     1      -2.272  -0.400   5.520  1.00  0.00     0.001 A 
ATOM    102  C   UNL     1      -2.679  -1.664   5.938  1.00  0.00     0.001 A 
ENDBRANCH  91  93
ENDBRANCH  89  91
ENDBRANCH  83  84
ENDBRANCH  79  83
ENDBRANCH  74  77
ENDBRANCH   1  73
TORSDOF 14
