REMARK SMILES O=C(NCCCNC(=O)[C@]12C[NH2+]C[C@H]1CN(C(=O)c1ccccc1-n1cncn1)C2)c1ccc(-c2c3nc(c(-c4c(F)c(F)c(F)c(F)c4F)c4ccc([nH]4)c(-c4c(F)c(F)c(F)c(F)c4F)c4nc(c(-c5c(F)c(F)c(F)c(F)c5F)c5ccc2[nH]5)C=C4)C=C3)cc1
REMARK SMILES IDX 5 1 4 2 3 3 1 4 2 5 31 7 32 8 93 9 33 10 92 11 34 12 35 13
REMARK SMILES IDX 36 14 86 15 37 16 91 17 85 18 87 19 38 20 90 21 84 22 83 23
REMARK SMILES IDX 39 25 71 26 51 27 70 28 52 29 55 30 69 31 88 32 53 33 54 34
REMARK SMILES IDX 68 36 89 37 56 38 40 39 41 40 49 41 42 42 43 43 47 44 50 45
REMARK SMILES IDX 44 46 45 47 48 48 46 49 72 50 73 51 81 52 74 53 75 54 79 55
REMARK SMILES IDX 82 56 76 57 77 58 80 59 78 60 57 61 58 62 66 63 59 64 60 65
REMARK SMILES IDX 64 66 67 67 61 68 62 69 65 70 63 71 6 72 7 73 8 74 9 76
REMARK SMILES IDX 10 77 11 78 14 79 30 80 12 81 13 82 15 83 16 84 17 87 18 88
REMARK SMILES IDX 19 89 20 90 24 91 21 92 23 93 22 94 25 95 26 96 29 97 27 98
REMARK SMILES IDX 28 99
REMARK H PARENT 3 6 87 24 55 35 7 75 12 85 12 86
REMARK Flexibility Score: inf
ROOT
ATOM      1  C   UNL     1       5.699  -0.036  -1.332  1.00  0.00     0.042 C 
ENDROOT
BRANCH   1   2
ATOM      2  C   UNL     1       5.120   0.955  -0.319  1.00  0.00     0.118 C 
BRANCH   2   3
ATOM      3  N   UNL     1       3.685   1.176  -0.345  1.00  0.00    -0.352 N 
ATOM      4  O   UNL     1       1.640   1.355   0.505  1.00  0.00    -0.269 OA
ATOM      5  C   UNL     1       2.642   0.646   0.371  1.00  0.00     0.251 C 
ATOM      6  H   UNL     1       3.403   1.842  -1.013  1.00  0.00     0.163 HD
BRANCH   5   7
ATOM      7  C   UNL     1       2.584  -0.758   0.855  1.00  0.00     0.039 A 
ATOM      8  C   UNL     1       3.661  -1.641   0.872  1.00  0.00     0.014 A 
ATOM      9  C   UNL     1       1.305  -1.252   1.179  1.00  0.00     0.014 A 
ATOM     10  C   UNL     1       3.456  -3.007   1.040  1.00  0.00     0.010 A 
ATOM     11  C   UNL     1       1.095  -2.613   1.383  1.00  0.00     0.010 A 
ATOM     12  C   UNL     1       2.169  -3.495   1.266  1.00  0.00    -0.014 A 
BRANCH  12  13
ATOM     13  C   UNL     1       2.018  -4.917   1.570  1.00  0.00     0.031 A 
ATOM     14  C   UNL     1       2.572  -5.344   2.896  1.00  0.00     0.074 A 
ATOM     15  C   UNL     1       1.251  -5.747   0.836  1.00  0.00     0.049 A 
ATOM     16  N   UNL     1       3.274  -6.392   3.198  1.00  0.00    -0.248 NA
ATOM     17  C   UNL     1       2.331  -4.440   4.036  1.00  0.00     0.031 C 
ATOM     18  C   UNL     1       0.392  -5.406  -0.300  1.00  0.00     0.029 A 
ATOM     19  N   UNL     1       0.974  -7.066   1.050  1.00  0.00    -0.354 N 
ATOM     20  C   UNL     1       3.438  -6.355   4.584  1.00  0.00     0.074 A 
ATOM     21  C   UNL     1       2.920  -5.092   5.034  1.00  0.00     0.031 C 
ATOM     22  C   UNL     1      -0.470  -6.422  -0.523  1.00  0.00     0.029 A 
ATOM     23  C   UNL     1      -0.155  -7.514   0.383  1.00  0.00     0.049 A 
ATOM     24  H   UNL     1       1.525  -7.646   1.625  1.00  0.00     0.167 HD
ATOM     25  C   UNL     1       3.832  -7.432   5.315  1.00  0.00     0.037 A 
ATOM     26  C   UNL     1      -0.848  -8.650   0.635  1.00  0.00     0.037 A 
ATOM     27  C   UNL     1       4.563  -8.386   4.534  1.00  0.00     0.049 A 
ATOM     28  C   UNL     1       0.014  -9.555   1.432  1.00  0.00     0.074 A 
ATOM     29  C   UNL     1       5.745  -8.351   3.819  1.00  0.00     0.029 A 
ATOM     30  N   UNL     1       3.957  -9.560   4.170  1.00  0.00    -0.354 N 
ATOM     31  N   UNL     1       1.076 -10.158   0.979  1.00  0.00    -0.248 NA
ATOM     32  C   UNL     1      -0.102  -9.497   2.882  1.00  0.00     0.031 C 
ATOM     33  C   UNL     1       5.540  -9.232   2.717  1.00  0.00     0.029 A 
ATOM     34  C   UNL     1       4.250  -9.746   2.844  1.00  0.00     0.049 A 
ATOM     35  H   UNL     1       3.419 -10.150   4.745  1.00  0.00     0.167 HD
ATOM     36  C   UNL     1       1.946 -10.202   2.058  1.00  0.00     0.074 A 
ATOM     37  C   UNL     1       1.131  -9.878   3.222  1.00  0.00     0.031 C 
ATOM     38  C   UNL     1       3.298 -10.226   1.874  1.00  0.00     0.037 A 
BRANCH  25  39
ATOM     39  C   UNL     1       3.297  -7.742   6.690  1.00  0.00     0.064 A 
ATOM     40  C   UNL     1       3.904  -8.745   7.470  1.00  0.00     0.173 A 
ATOM     41  C   UNL     1       2.038  -7.290   7.146  1.00  0.00     0.173 A 
ATOM     42  F   UNL     1       5.086  -9.267   7.112  1.00  0.00    -0.203 F 
ATOM     43  C   UNL     1       3.267  -9.297   8.585  1.00  0.00     0.198 A 
ATOM     44  C   UNL     1       1.431  -7.805   8.290  1.00  0.00     0.198 A 
ATOM     45  F   UNL     1       1.304  -6.416   6.446  1.00  0.00    -0.203 F 
ATOM     46  F   UNL     1       3.828 -10.331   9.227  1.00  0.00    -0.200 F 
ATOM     47  C   UNL     1       2.030  -8.829   8.992  1.00  0.00     0.200 A 
ATOM     48  F   UNL     1       0.225  -7.351   8.657  1.00  0.00    -0.200 F 
ATOM     49  F   UNL     1       1.394  -9.397  10.025  1.00  0.00    -0.200 F 
ENDBRANCH  25  39
BRANCH  26  50
ATOM     50  C   UNL     1      -2.310  -8.858   0.506  1.00  0.00     0.064 A 
ATOM     51  C   UNL     1      -2.860 -10.146   0.420  1.00  0.00     0.173 A 
ATOM     52  C   UNL     1      -3.219  -7.801   0.711  1.00  0.00     0.173 A 
ATOM     53  F   UNL     1      -2.059 -11.214   0.287  1.00  0.00    -0.203 F 
ATOM     54  C   UNL     1      -4.238 -10.362   0.532  1.00  0.00     0.198 A 
ATOM     55  C   UNL     1      -4.593  -8.015   0.807  1.00  0.00     0.198 A 
ATOM     56  F   UNL     1      -2.784  -6.549   0.913  1.00  0.00    -0.203 F 
ATOM     57  F   UNL     1      -4.724 -11.611   0.500  1.00  0.00    -0.200 F 
ATOM     58  C   UNL     1      -5.102  -9.296   0.728  1.00  0.00     0.200 A 
ATOM     59  F   UNL     1      -5.411  -6.978   1.036  1.00  0.00    -0.200 F 
ATOM     60  F   UNL     1      -6.417  -9.507   0.883  1.00  0.00    -0.200 F 
ENDBRANCH  26  50
BRANCH  38  61
ATOM     61  C   UNL     1       3.811 -10.464   0.485  1.00  0.00     0.064 A 
ATOM     62  C   UNL     1       3.595  -9.568  -0.576  1.00  0.00     0.173 A 
ATOM     63  C   UNL     1       4.676 -11.541   0.258  1.00  0.00     0.173 A 
ATOM     64  F   UNL     1       2.874  -8.454  -0.398  1.00  0.00    -0.203 F 
ATOM     65  C   UNL     1       4.180  -9.772  -1.823  1.00  0.00     0.198 A 
ATOM     66  C   UNL     1       5.288 -11.723  -0.979  1.00  0.00     0.198 A 
ATOM     67  F   UNL     1       4.973 -12.388   1.256  1.00  0.00    -0.203 F 
ATOM     68  F   UNL     1       3.953  -8.906  -2.821  1.00  0.00    -0.200 F 
ATOM     69  C   UNL     1       5.032 -10.846  -2.022  1.00  0.00     0.200 A 
ATOM     70  F   UNL     1       6.156 -12.730  -1.152  1.00  0.00    -0.200 F 
ATOM     71  F   UNL     1       5.633 -11.017  -3.207  1.00  0.00    -0.200 F 
ENDBRANCH  38  61
ENDBRANCH  12  13
ENDBRANCH   5   7
ENDBRANCH   2   3
ENDBRANCH   1   2
BRANCH   1  72
ATOM     72  C   UNL     1       5.290   0.168  -2.775  1.00  0.00     0.117 C 
BRANCH  72  73
ATOM     73  N   UNL     1       5.733   1.414  -3.361  1.00  0.00    -0.355 N 
ATOM     74  C   UNL     1       5.859   1.637  -4.714  1.00  0.00     0.234 C 
ATOM     75  H   UNL     1       5.959   2.153  -2.752  1.00  0.00     0.163 HD
ATOM     76  O   UNL     1       5.639   2.782  -5.115  1.00  0.00    -0.274 OA
BRANCH  74  77
ATOM     77  C   UNL     1       6.207   0.418  -5.611  1.00  0.00     0.125 C 
ATOM     78  C   UNL     1       7.343   1.327  -6.301  1.00  0.00     0.280 C 
ATOM     79  C   UNL     1       6.397  -0.538  -6.833  1.00  0.00     0.087 C 
ATOM     80  C   UNL     1       4.617   0.252  -5.845  1.00  0.00     0.143 C 
ATOM     81  N   UNL     1       8.458   0.456  -6.742  1.00  0.00    -0.345 N 
ATOM     82  C   UNL     1       7.859  -0.831  -7.024  1.00  0.00     0.267 C 
ATOM     83  C   UNL     1       5.576  -1.775  -6.564  1.00  0.00     0.130 C 
ATOM     84  N   UNL     1       4.421  -1.210  -5.928  1.00  0.00    -0.337 N 
ATOM     85  H   UNL     1       9.156   0.371  -6.003  1.00  0.00     0.346 HD
ATOM     86  H   UNL     1       8.934   0.838  -7.560  1.00  0.00     0.346 HD
BRANCH  84  87
ATOM     87  C   UNL     1       3.511  -2.077  -5.345  1.00  0.00     0.256 C 
ATOM     88  O   UNL     1       3.607  -3.297  -5.469  1.00  0.00    -0.269 OA
BRANCH  87  89
ATOM     89  C   UNL     1       2.422  -1.581  -4.472  1.00  0.00     0.065 A 
ATOM     90  C   UNL     1       2.318  -2.222  -3.228  1.00  0.00     0.016 A 
ATOM     91  C   UNL     1       1.548  -0.529  -4.770  1.00  0.00     0.079 A 
ATOM     92  C   UNL     1       1.395  -1.781  -2.286  1.00  0.00     0.001 A 
ATOM     93  C   UNL     1       0.696  -0.023  -3.772  1.00  0.00     0.029 A 
ATOM     94  C   UNL     1       0.615  -0.658  -2.535  1.00  0.00     0.002 A 
BRANCH  91  95
ATOM     95  N   UNL     1       1.449   0.015  -6.066  1.00  0.00    -0.220 N 
ATOM     96  C   UNL     1       1.673  -0.588  -7.280  1.00  0.00     0.225 A 
ATOM     97  N   UNL     1       1.092   1.305  -6.265  1.00  0.00    -0.155 NA
ATOM     98  N   UNL     1       1.595   0.297  -8.247  1.00  0.00    -0.223 NA
ATOM     99  C   UNL     1       1.254   1.435  -7.582  1.00  0.00     0.246 A 
ENDBRANCH  91  95
ENDBRANCH  87  89
ENDBRANCH  84  87
ENDBRANCH  74  77
ENDBRANCH  72  73
ENDBRANCH   1  72
TORSDOF 13
