REMARK SMILES COc1ccc(NS(=O)(=O)c2ccc(NC(=O)[C@H]3CCCC[C@@H]3C(=O)NCCCNC(=O)c3ccc(-c4c5nc(c(-c6c(F)c(F)c(F)c(F)c6F)c6ccc([nH]6)c(-c6c(F)c(F)c(F)c(F)c6F)c6nc(c(-c7c(F)c(F)c(F)c(F)c7F)c7ccc4[nH]7)C=C6)C=C5)cc3)cc2)cc1
REMARK SMILES IDX 24 1 25 2 26 3 23 5 18 6 19 7 20 8 22 9 21 10 16 11 15 12
REMARK SMILES IDX 17 14 14 15 11 16 12 17 97 18 13 19 96 20 8 21 9 22 10 23
REMARK SMILES IDX 7 24 6 26 3 27 4 28 99 29 5 30 98 31 2 32 1 33 27 34 28 35
REMARK SMILES IDX 29 36 30 37 31 38 32 40 33 41 34 42 95 43 35 44 94 45 36 46
REMARK SMILES IDX 37 47 38 48 88 49 39 50 93 51 87 52 89 53 40 54 92 55 86 56
REMARK SMILES IDX 85 57 41 59 73 60 53 61 72 62 54 63 57 64 71 65 90 66 55 67
REMARK SMILES IDX 56 68 70 70 91 71 58 72 42 73 43 74 51 75 44 76 45 77 49 78
REMARK SMILES IDX 52 79 46 80 47 81 50 82 48 83 74 84 75 85 83 86 76 87 77 88
REMARK SMILES IDX 81 89 84 90 78 91 79 92 82 93 80 94 59 95 60 96 68 97 61 98
REMARK SMILES IDX 62 99 66 100 69 101 63 102 64 103 67 104 65 105
REMARK H PARENT 26 4 15 13 7 25 30 39 89 58 57 69
REMARK Flexibility Score: inf
ROOT
ATOM      1  C   UNL     1      -4.793   6.098  -4.577  1.00  0.00     0.223 C 
ATOM      2  O   UNL     1      -3.740   5.655  -5.061  1.00  0.00    -0.275 OA
ATOM      3  N   UNL     1      -5.925   5.644  -5.181  1.00  0.00    -0.356 N 
ATOM      4  H   UNL     1      -5.839   5.506  -6.152  1.00  0.00     0.163 HD
ENDROOT
BRANCH   1   5
ATOM      5  C   UNL     1      -4.701   7.267  -3.572  1.00  0.00     0.091 C 
ATOM      6  C   UNL     1      -5.631   7.382  -2.359  1.00  0.00     0.091 C 
ATOM      7  C   UNL     1      -6.987   8.037  -2.610  1.00  0.00     0.014 C 
ATOM      8  C   UNL     1      -7.050   9.111  -3.692  1.00  0.00     0.001 C 
ATOM      9  C   UNL     1      -4.633   8.549  -4.395  1.00  0.00     0.014 C 
ATOM     10  C   UNL     1      -5.994   9.089  -4.794  1.00  0.00     0.001 C 
BRANCH   6  11
ATOM     11  C   UNL     1      -4.916   7.848  -1.052  1.00  0.00     0.228 C 
ATOM     12  N   UNL     1      -5.126   9.062  -0.444  1.00  0.00    -0.326 N 
ATOM     13  H   UNL     1      -4.971   9.071   0.528  1.00  0.00     0.169 HD
ATOM     14  O   UNL     1      -4.199   7.039  -0.447  1.00  0.00    -0.274 OA
BRANCH  12  15
ATOM     15  C   UNL     1      -5.525  10.287  -0.988  1.00  0.00     0.041 A 
ATOM     16  C   UNL     1      -6.566  12.465  -2.381  1.00  0.00     0.087 A 
ATOM     17  C   UNL     1      -5.292  11.984  -2.703  1.00  0.00     0.024 A 
ATOM     18  C   UNL     1      -7.254  11.952  -1.271  1.00  0.00     0.024 A 
ATOM     19  C   UNL     1      -4.767  10.905  -1.983  1.00  0.00     0.027 A 
ATOM     20  C   UNL     1      -6.709  10.883  -0.547  1.00  0.00     0.027 A 
BRANCH  16  21
ATOM     21  S   UNL     1      -7.414  13.545  -3.520  1.00  0.00     0.261 S 
ATOM     22  O   UNL     1      -8.836  13.376  -3.309  1.00  0.00    -0.201 OA
ATOM     23  O   UNL     1      -6.849  13.326  -4.838  1.00  0.00    -0.201 OA
BRANCH  21  24
ATOM     24  N   UNL     1      -7.034  15.148  -3.082  1.00  0.00    -0.280 N 
ATOM     25  H   UNL     1      -6.833  15.836  -3.758  1.00  0.00     0.180 HD
BRANCH  24  26
ATOM     26  C   UNL     1      -7.021  15.442  -1.682  1.00  0.00     0.049 A 
ATOM     27  C   UNL     1      -7.071  15.691   1.096  1.00  0.00     0.119 A 
ATOM     28  C   UNL     1      -5.966  15.126   0.463  1.00  0.00     0.048 A 
ATOM     29  C   UNL     1      -8.117  16.208   0.328  1.00  0.00     0.048 A 
ATOM     30  C   UNL     1      -5.928  15.030  -0.924  1.00  0.00     0.030 A 
ATOM     31  C   UNL     1      -8.106  16.062  -1.065  1.00  0.00     0.030 A 
BRANCH  27  32
ATOM     32  O   UNL     1      -7.007  15.693   2.460  1.00  0.00    -0.497 OA
ATOM     33  C   UNL     1      -8.252  15.802   3.139  1.00  0.00     0.278 C 
ENDBRANCH  27  32
ENDBRANCH  24  26
ENDBRANCH  21  24
ENDBRANCH  16  21
ENDBRANCH  12  15
ENDBRANCH   6  11
ENDBRANCH   1   5
BRANCH   3  34
ATOM     34  C   UNL     1      -7.237   5.329  -4.647  1.00  0.00     0.117 C 
BRANCH  34  35
ATOM     35  C   UNL     1      -8.344   6.282  -5.082  1.00  0.00     0.042 C 
BRANCH  35  36
ATOM     36  C   UNL     1      -8.901   6.107  -6.481  1.00  0.00     0.118 C 
BRANCH  36  37
ATOM     37  N   UNL     1      -9.760   4.945  -6.571  1.00  0.00    -0.352 N 
ATOM     38  C   UNL     1     -11.125   4.832  -6.636  1.00  0.00     0.251 C 
ATOM     39  H   UNL     1      -9.280   4.086  -6.589  1.00  0.00     0.163 HD
ATOM     40  O   UNL     1     -11.622   3.734  -6.384  1.00  0.00    -0.269 OA
BRANCH  38  41
ATOM     41  C   UNL     1     -12.019   5.959  -7.016  1.00  0.00     0.039 A 
ATOM     42  C   UNL     1     -13.355   5.898  -6.598  1.00  0.00     0.014 A 
ATOM     43  C   UNL     1     -11.630   6.992  -7.875  1.00  0.00     0.014 A 
ATOM     44  C   UNL     1     -14.286   6.837  -7.052  1.00  0.00     0.010 A 
ATOM     45  C   UNL     1     -12.534   7.992  -8.241  1.00  0.00     0.010 A 
ATOM     46  C   UNL     1     -13.884   7.894  -7.882  1.00  0.00    -0.014 A 
BRANCH  46  47
ATOM     47  C   UNL     1     -14.889   8.833  -8.450  1.00  0.00     0.031 A 
ATOM     48  C   UNL     1     -15.123   8.882  -9.940  1.00  0.00     0.074 A 
ATOM     49  C   UNL     1     -15.597   9.633  -7.631  1.00  0.00     0.049 A 
ATOM     50  N   UNL     1     -15.974   9.605 -10.625  1.00  0.00    -0.248 NA
ATOM     51  C   UNL     1     -14.269   8.024 -10.777  1.00  0.00     0.031 C 
ATOM     52  C   UNL     1     -15.430   9.712  -6.180  1.00  0.00     0.029 A 
ATOM     53  N   UNL     1     -16.606  10.524  -7.899  1.00  0.00    -0.354 N 
ATOM     54  C   UNL     1     -15.747   9.298 -11.962  1.00  0.00     0.074 A 
ATOM     55  C   UNL     1     -14.635   8.376 -12.000  1.00  0.00     0.031 C 
ATOM     56  C   UNL     1     -16.332  10.572  -5.680  1.00  0.00     0.029 A 
ATOM     57  C   UNL     1     -17.119  11.127  -6.777  1.00  0.00     0.049 A 
ATOM     58  H   UNL     1     -16.931  10.712  -8.809  1.00  0.00     0.167 HD
ATOM     59  C   UNL     1     -16.423   9.720 -13.058  1.00  0.00     0.037 A 
ATOM     60  C   UNL     1     -18.117  12.022  -6.649  1.00  0.00     0.037 A 
ATOM     61  C   UNL     1     -17.549  10.615 -13.013  1.00  0.00     0.049 A 
ATOM     62  C   UNL     1     -18.861  12.466  -7.880  1.00  0.00     0.074 A 
ATOM     63  C   UNL     1     -18.342  11.062 -14.055  1.00  0.00     0.029 A 
ATOM     64  N   UNL     1     -18.042  11.200 -11.855  1.00  0.00    -0.354 N 
ATOM     65  N   UNL     1     -18.683  12.111  -9.129  1.00  0.00    -0.248 NA
ATOM     66  C   UNL     1     -19.954  13.426  -7.679  1.00  0.00     0.031 C 
ATOM     67  C   UNL     1     -19.284  11.956 -13.535  1.00  0.00     0.029 A 
ATOM     68  C   UNL     1     -19.115  12.023 -12.161  1.00  0.00     0.049 A 
ATOM     69  H   UNL     1     -17.683  11.053 -10.950  1.00  0.00     0.167 HD
ATOM     70  C   UNL     1     -19.653  12.784  -9.860  1.00  0.00     0.074 A 
ATOM     71  C   UNL     1     -20.434  13.547  -8.908  1.00  0.00     0.031 C 
ATOM     72  C   UNL     1     -19.876  12.777 -11.198  1.00  0.00     0.037 A 
BRANCH  59  73
ATOM     73  C   UNL     1     -15.964   9.214 -14.398  1.00  0.00     0.064 A 
ATOM     74  C   UNL     1     -16.111   7.868 -14.770  1.00  0.00     0.173 A 
ATOM     75  C   UNL     1     -15.394  10.090 -15.335  1.00  0.00     0.173 A 
ATOM     76  F   UNL     1     -16.639   6.984 -13.910  1.00  0.00    -0.203 F 
ATOM     77  C   UNL     1     -15.673   7.413 -16.011  1.00  0.00     0.198 A 
ATOM     78  C   UNL     1     -14.989   9.638 -16.588  1.00  0.00     0.198 A 
ATOM     79  F   UNL     1     -15.235  11.389 -15.037  1.00  0.00    -0.203 F 
ATOM     80  F   UNL     1     -15.773   6.112 -16.319  1.00  0.00    -0.200 F 
ATOM     81  C   UNL     1     -15.120   8.299 -16.922  1.00  0.00     0.200 A 
ATOM     82  F   UNL     1     -14.467  10.499 -17.473  1.00  0.00    -0.200 F 
ATOM     83  F   UNL     1     -14.705   7.861 -18.119  1.00  0.00    -0.200 F 
ENDBRANCH  59  73
BRANCH  60  84
ATOM     84  C   UNL     1     -18.494  12.527  -5.302  1.00  0.00     0.064 A 
ATOM     85  C   UNL     1     -19.724  12.187  -4.720  1.00  0.00     0.173 A 
ATOM     86  C   UNL     1     -17.637  13.362  -4.570  1.00  0.00     0.173 A 
ATOM     87  F   UNL     1     -20.587  11.408  -5.388  1.00  0.00    -0.203 F 
ATOM     88  C   UNL     1     -20.091  12.680  -3.470  1.00  0.00     0.198 A 
ATOM     89  C   UNL     1     -17.991  13.829  -3.306  1.00  0.00     0.198 A 
ATOM     90  F   UNL     1     -16.446  13.713  -5.077  1.00  0.00    -0.203 F 
ATOM     91  F   UNL     1     -21.293  12.379  -2.960  1.00  0.00    -0.200 F 
ATOM     92  C   UNL     1     -19.222  13.495  -2.761  1.00  0.00     0.200 A 
ATOM     93  F   UNL     1     -17.142  14.603  -2.617  1.00  0.00    -0.200 F 
ATOM     94  F   UNL     1     -19.573  13.966  -1.556  1.00  0.00    -0.200 F 
ENDBRANCH  60  84
BRANCH  72  95
ATOM     95  C   UNL     1     -21.024  13.604 -11.701  1.00  0.00     0.064 A 
ATOM     96  C   UNL     1     -20.985  15.006 -11.685  1.00  0.00     0.173 A 
ATOM     97  C   UNL     1     -22.171  12.985 -12.222  1.00  0.00     0.173 A 
ATOM     98  F   UNL     1     -19.917  15.646 -11.185  1.00  0.00    -0.203 F 
ATOM     99  C   UNL     1     -22.067  15.757 -12.134  1.00  0.00     0.198 A 
ATOM    100  C   UNL     1     -23.237  13.740 -12.703  1.00  0.00     0.198 A 
ATOM    101  F   UNL     1     -22.256  11.647 -12.270  1.00  0.00    -0.203 F 
ATOM    102  F   UNL     1     -22.033  17.094 -12.049  1.00  0.00    -0.200 F 
ATOM    103  C   UNL     1     -23.189  15.124 -12.648  1.00  0.00     0.200 A 
ATOM    104  F   UNL     1     -24.314  13.127 -13.214  1.00  0.00    -0.200 F 
ATOM    105  F   UNL     1     -24.230  15.849 -13.080  1.00  0.00    -0.200 F 
ENDBRANCH  72  95
ENDBRANCH  46  47
ENDBRANCH  38  41
ENDBRANCH  36  37
ENDBRANCH  35  36
ENDBRANCH  34  35
ENDBRANCH   3  34
TORSDOF 16
