REMARK SMILES Cc1ccc(S(=O)(=O)/C=C/C(=O)NCCCNC(=O)c2ccc(-c3c4nc(c(-c5c(F)c(F)c(F)c(F)c5F)c5ccc([nH]5)c(-c5c(F)c(F)c(F)c(F)c5F)c5nc(c(-c6c(F)c(F)c(F)c(F)c6F)c6ccc3[nH]6)C=C5)C=C4)cc2)cc1
REMARK SMILES IDX 15 1 14 2 13 3 11 4 12 5 10 7 9 8 6 9 7 10 8 11 5 12 1 13
REMARK SMILES IDX 2 14 3 15 84 16 4 17 83 18 16 19 17 20 18 21 19 23 20 24
REMARK SMILES IDX 21 25 82 26 22 27 81 28 23 29 24 30 25 31 75 32 26 33 80 34
REMARK SMILES IDX 74 35 76 36 27 37 79 38 73 39 72 40 28 42 60 43 40 44 59 45
REMARK SMILES IDX 41 46 44 47 58 48 77 49 42 50 43 51 57 53 78 54 45 55 29 56
REMARK SMILES IDX 30 57 38 58 31 59 32 60 36 61 39 62 33 63 34 64 37 65 35 66
REMARK SMILES IDX 61 67 62 68 70 69 63 70 64 71 68 72 71 73 65 74 66 75 69 76
REMARK SMILES IDX 67 77 46 78 47 79 55 80 48 81 49 82 53 83 56 84 50 85 51 86
REMARK SMILES IDX 54 87 52 88
REMARK H PARENT 13 6 17 22 76 41 44 52
REMARK Flexibility Score: inf
ROOT
ATOM      1  C   UNL     1      -7.112   2.703   0.301  1.00  0.00     0.042 C 
ENDROOT
BRANCH   1   2
ATOM      2  C   UNL     1      -6.374   3.279  -0.905  1.00  0.00     0.118 C 
BRANCH   2   3
ATOM      3  N   UNL     1      -5.321   4.205  -0.500  1.00  0.00    -0.352 N 
ATOM      4  C   UNL     1      -3.992   3.948  -0.339  1.00  0.00     0.244 C 
ATOM      5  O   UNL     1      -3.193   4.815  -0.008  1.00  0.00    -0.270 OA
ATOM      6  H   UNL     1      -5.606   5.131  -0.322  1.00  0.00     0.163 HD
BRANCH   4   7
ATOM      7  C   UNL     1      -3.540   2.576  -0.593  1.00  0.00     0.083 C 
ATOM      8  C   UNL     1      -3.669   1.675   0.389  1.00  0.00     0.117 C 
BRANCH   8   9
ATOM      9  S   UNL     1      -3.213   0.039   0.087  1.00  0.00     0.200 S 
ATOM     10  O   UNL     1      -3.598  -0.308  -1.262  1.00  0.00    -0.219 OA
ATOM     11  O   UNL     1      -3.677  -0.756   1.217  1.00  0.00    -0.219 OA
BRANCH   9  12
ATOM     12  C   UNL     1      -1.437  -0.016   0.140  1.00  0.00     0.071 A 
ATOM     13  C   UNL     1       2.847  -0.321   0.012  1.00  0.00     0.044 C 
ATOM     14  C   UNL     1       1.352  -0.212   0.064  1.00  0.00    -0.051 A 
ATOM     15  C   UNL     1       0.559  -1.350  -0.133  1.00  0.00     0.005 A 
ATOM     16  C   UNL     1       0.735   1.016   0.333  1.00  0.00     0.005 A 
ATOM     17  C   UNL     1      -0.832  -1.253  -0.102  1.00  0.00     0.021 A 
ATOM     18  C   UNL     1      -0.656   1.118   0.376  1.00  0.00     0.021 A 
ENDBRANCH   9  12
ENDBRANCH   8   9
ENDBRANCH   4   7
ENDBRANCH   2   3
ENDBRANCH   1   2
BRANCH   1  19
ATOM     19  C   UNL     1      -8.208   3.631   0.804  1.00  0.00     0.118 C 
BRANCH  19  20
ATOM     20  N   UNL     1      -9.508   3.422   0.174  1.00  0.00    -0.352 N 
ATOM     21  C   UNL     1     -10.657   4.191   0.230  1.00  0.00     0.251 C 
ATOM     22  H   UNL     1      -9.579   2.608  -0.375  1.00  0.00     0.163 HD
ATOM     23  O   UNL     1     -11.682   3.795  -0.316  1.00  0.00    -0.269 OA
BRANCH  21  24
ATOM     24  C   UNL     1     -10.620   5.546   0.833  1.00  0.00     0.039 A 
ATOM     25  C   UNL     1     -11.300   6.590   0.186  1.00  0.00     0.014 A 
ATOM     26  C   UNL     1      -9.788   5.827   1.909  1.00  0.00     0.014 A 
ATOM     27  C   UNL     1     -10.953   7.914   0.459  1.00  0.00     0.010 A 
ATOM     28  C   UNL     1      -9.351   7.120   2.088  1.00  0.00     0.010 A 
ATOM     29  C   UNL     1      -9.894   8.161   1.325  1.00  0.00    -0.014 A 
BRANCH  29  30
ATOM     30  C   UNL     1      -9.220   9.443   1.494  1.00  0.00     0.031 A 
ATOM     31  C   UNL     1      -9.329  10.168   2.779  1.00  0.00     0.074 A 
ATOM     32  C   UNL     1      -8.303   9.822   0.577  1.00  0.00     0.049 A 
ATOM     33  N   UNL     1      -8.854  11.345   3.002  1.00  0.00    -0.248 NA
ATOM     34  C   UNL     1     -10.037   9.615   3.926  1.00  0.00     0.031 C 
ATOM     35  C   UNL     1      -7.201  10.761   0.767  1.00  0.00     0.029 A 
ATOM     36  N   UNL     1      -8.296   9.556  -0.803  1.00  0.00    -0.354 N 
ATOM     37  C   UNL     1      -8.955  11.605   4.350  1.00  0.00     0.074 A 
ATOM     38  C   UNL     1      -9.759  10.523   4.866  1.00  0.00     0.031 C 
ATOM     39  C   UNL     1      -6.813  11.225  -0.431  1.00  0.00     0.029 A 
ATOM     40  C   UNL     1      -7.770  10.732  -1.402  1.00  0.00     0.049 A 
ATOM     41  H   UNL     1      -8.591   8.733  -1.256  1.00  0.00     0.167 HD
ATOM     42  C   UNL     1      -8.257  12.659   4.866  1.00  0.00     0.037 A 
ATOM     43  C   UNL     1      -8.548  11.524  -2.199  1.00  0.00     0.037 A 
ATOM     44  C   UNL     1      -7.663  13.463   3.794  1.00  0.00     0.049 A 
ATOM     45  C   UNL     1      -8.732  12.946  -1.711  1.00  0.00     0.074 A 
ATOM     46  C   UNL     1      -6.402  13.570   3.230  1.00  0.00     0.029 A 
ATOM     47  N   UNL     1      -8.517  14.143   2.948  1.00  0.00    -0.354 N 
ATOM     48  N   UNL     1      -8.308  13.389  -0.561  1.00  0.00    -0.248 NA
ATOM     49  C   UNL     1      -9.511  13.950  -2.439  1.00  0.00     0.031 C 
ATOM     50  C   UNL     1      -6.523  14.309   2.016  1.00  0.00     0.029 A 
ATOM     51  C   UNL     1      -7.853  14.652   1.852  1.00  0.00     0.049 A 
ATOM     52  H   UNL     1      -9.483  14.252   3.108  1.00  0.00     0.167 HD
ATOM     53  C   UNL     1      -8.799  14.648  -0.354  1.00  0.00     0.074 A 
ATOM     54  C   UNL     1      -9.532  14.969  -1.562  1.00  0.00     0.031 C 
ATOM     55  C   UNL     1      -8.622  15.319   0.818  1.00  0.00     0.037 A 
BRANCH  42  56
ATOM     56  C   UNL     1      -7.948  12.912   6.332  1.00  0.00     0.064 A 
ATOM     57  C   UNL     1      -6.913  13.807   6.694  1.00  0.00     0.173 A 
ATOM     58  C   UNL     1      -8.571  12.285   7.428  1.00  0.00     0.173 A 
ATOM     59  F   UNL     1      -6.278  14.553   5.779  1.00  0.00    -0.203 F 
ATOM     60  C   UNL     1      -6.485  13.979   8.014  1.00  0.00     0.198 A 
ATOM     61  C   UNL     1      -8.122  12.430   8.745  1.00  0.00     0.198 A 
ATOM     62  F   UNL     1      -9.673  11.549   7.296  1.00  0.00    -0.203 F 
ATOM     63  F   UNL     1      -5.489  14.834   8.284  1.00  0.00    -0.200 F 
ATOM     64  C   UNL     1      -7.071  13.268   9.039  1.00  0.00     0.200 A 
ATOM     65  F   UNL     1      -8.731  11.750   9.728  1.00  0.00    -0.200 F 
ATOM     66  F   UNL     1      -6.646  13.408  10.300  1.00  0.00    -0.200 F 
ENDBRANCH  42  56
BRANCH  43  67
ATOM     67  C   UNL     1      -9.586  10.745  -2.924  1.00  0.00     0.064 A 
ATOM     68  C   UNL     1      -9.165   9.772  -3.850  1.00  0.00     0.173 A 
ATOM     69  C   UNL     1     -10.889  10.650  -2.422  1.00  0.00     0.173 A 
ATOM     70  F   UNL     1      -7.922   9.820  -4.355  1.00  0.00    -0.203 F 
ATOM     71  C   UNL     1      -9.967   8.675  -4.153  1.00  0.00     0.198 A 
ATOM     72  C   UNL     1     -11.695   9.559  -2.743  1.00  0.00     0.198 A 
ATOM     73  F   UNL     1     -11.338  11.539  -1.524  1.00  0.00    -0.203 F 
ATOM     74  F   UNL     1      -9.492   7.696  -4.936  1.00  0.00    -0.200 F 
ATOM     75  C   UNL     1     -11.219   8.554  -3.574  1.00  0.00     0.200 A 
ATOM     76  F   UNL     1     -12.896   9.427  -2.163  1.00  0.00    -0.200 F 
ATOM     77  F   UNL     1     -11.949   7.448  -3.776  1.00  0.00    -0.200 F 
ENDBRANCH  43  67
BRANCH  55  78
ATOM     78  C   UNL     1      -9.192  16.677   1.077  1.00  0.00     0.064 A 
ATOM     79  C   UNL     1      -8.957  17.757   0.215  1.00  0.00     0.173 A 
ATOM     80  C   UNL     1      -9.882  16.960   2.273  1.00  0.00     0.173 A 
ATOM     81  F   UNL     1      -8.293  17.577  -0.937  1.00  0.00    -0.203 F 
ATOM     82  C   UNL     1      -9.390  19.045   0.531  1.00  0.00     0.198 A 
ATOM     83  C   UNL     1     -10.270  18.254   2.609  1.00  0.00     0.198 A 
ATOM     84  F   UNL     1     -10.213  15.983   3.131  1.00  0.00    -0.203 F 
ATOM     85  F   UNL     1      -9.180  20.049  -0.332  1.00  0.00    -0.200 F 
ATOM     86  C   UNL     1     -10.028  19.297   1.736  1.00  0.00     0.200 A 
ATOM     87  F   UNL     1     -10.878  18.483   3.781  1.00  0.00    -0.200 F 
ATOM     88  F   UNL     1     -10.415  20.540   2.051  1.00  0.00    -0.200 F 
ENDBRANCH  55  78
ENDBRANCH  29  30
ENDBRANCH  21  24
ENDBRANCH  19  20
ENDBRANCH   1  19
TORSDOF 12
