REMARK SMILES O=C(NCCCNC(=O)[C@H](F)[C@H](O)C1CCOCC1)c1ccc(-c2c3nc(c(-c4c(F)c(F)c(F)c(F)c4F)c4ccc([nH]4)c(-c4c(F)c(F)c(F)c(F)c4F)c4nc(c(-c5c(F)c(F)c(F)c(F)c5F)c5ccc2[nH]5)C=C4)C=C3)cc1
REMARK SMILES IDX 5 1 4 2 3 3 1 4 2 5 20 7 21 8 82 9 22 10 81 11 23 12 24 13
REMARK SMILES IDX 25 14 75 15 26 16 80 17 74 18 76 19 27 20 79 21 73 22 72 23
REMARK SMILES IDX 28 25 60 26 40 27 59 28 41 29 44 30 58 31 77 32 42 33 43 34
REMARK SMILES IDX 57 36 78 37 45 38 29 39 30 40 38 41 31 42 32 43 36 44 39 45
REMARK SMILES IDX 33 46 34 47 37 48 35 49 61 50 62 51 70 52 63 53 64 54 68 55
REMARK SMILES IDX 71 56 65 57 66 58 69 59 67 60 46 61 47 62 55 63 48 64 49 65
REMARK SMILES IDX 53 66 56 67 50 68 51 69 54 70 52 71 6 72 7 73 8 74 9 76
REMARK SMILES IDX 10 77 11 78 12 79 14 80 15 81 19 82 16 83 18 84 17 85 13 86
REMARK H PARENT 3 6 76 24 44 35 7 75 13 87
REMARK Flexibility Score: inf
ROOT
ATOM      1  C   UNL     1       6.699   6.856  -7.650  1.00  0.00     0.042 C 
ENDROOT
BRANCH   1   2
ATOM      2  C   UNL     1       6.478   8.294  -8.099  1.00  0.00     0.118 C 
BRANCH   2   3
ATOM      3  N   UNL     1       7.713   8.967  -8.461  1.00  0.00    -0.352 N 
ATOM      4  O   UNL     1       9.423   9.632  -9.758  1.00  0.00    -0.269 OA
ATOM      5  C   UNL     1       8.270   9.217  -9.694  1.00  0.00     0.251 C 
ATOM      6  H   UNL     1       8.239   9.298  -7.697  1.00  0.00     0.163 HD
BRANCH   5   7
ATOM      7  C   UNL     1       7.511   8.977 -10.946  1.00  0.00     0.039 A 
ATOM      8  C   UNL     1       6.154   9.279 -11.045  1.00  0.00     0.014 A 
ATOM      9  C   UNL     1       8.190   8.507 -12.078  1.00  0.00     0.014 A 
ATOM     10  C   UNL     1       5.447   8.962 -12.199  1.00  0.00     0.010 A 
ATOM     11  C   UNL     1       7.502   8.309 -13.284  1.00  0.00     0.010 A 
ATOM     12  C   UNL     1       6.117   8.518 -13.351  1.00  0.00    -0.014 A 
BRANCH  12  13
ATOM     13  C   UNL     1       5.352   8.406 -14.624  1.00  0.00     0.031 A 
ATOM     14  C   UNL     1       5.205   7.100 -15.353  1.00  0.00     0.074 A 
ATOM     15  C   UNL     1       4.742   9.513 -15.098  1.00  0.00     0.049 A 
ATOM     16  N   UNL     1       4.530   6.841 -16.447  1.00  0.00    -0.248 NA
ATOM     17  C   UNL     1       5.909   5.936 -14.796  1.00  0.00     0.031 C 
ATOM     18  C   UNL     1       4.836  10.847 -14.496  1.00  0.00     0.029 A 
ATOM     19  N   UNL     1       3.902   9.696 -16.167  1.00  0.00    -0.354 N 
ATOM     20  C   UNL     1       4.730   5.492 -16.711  1.00  0.00     0.074 A 
ATOM     21  C   UNL     1       5.620   4.992 -15.683  1.00  0.00     0.031 C 
ATOM     22  C   UNL     1       4.038  11.691 -15.162  1.00  0.00     0.029 A 
ATOM     23  C   UNL     1       3.437  10.984 -16.285  1.00  0.00     0.049 A 
ATOM     24  H   UNL     1       3.656   8.974 -16.790  1.00  0.00     0.167 HD
ATOM     25  C   UNL     1       4.209   4.741 -17.712  1.00  0.00     0.037 A 
ATOM     26  C   UNL     1       2.634  11.546 -17.207  1.00  0.00     0.037 A 
ATOM     27  C   UNL     1       3.320   5.243 -18.731  1.00  0.00     0.049 A 
ATOM     28  C   UNL     1       2.094  10.689 -18.315  1.00  0.00     0.074 A 
ATOM     29  C   UNL     1       2.728   4.554 -19.777  1.00  0.00     0.029 A 
ATOM     30  N   UNL     1       2.895   6.560 -18.835  1.00  0.00    -0.354 N 
ATOM     31  N   UNL     1       2.266   9.408 -18.530  1.00  0.00    -0.248 NA
ATOM     32  C   UNL     1       1.248  11.358 -19.312  1.00  0.00     0.031 C 
ATOM     33  C   UNL     1       1.986   5.462 -20.539  1.00  0.00     0.029 A 
ATOM     34  C   UNL     1       2.066   6.706 -19.938  1.00  0.00     0.049 A 
ATOM     35  H   UNL     1       3.145   7.285 -18.217  1.00  0.00     0.167 HD
ATOM     36  C   UNL     1       1.543   9.115 -19.677  1.00  0.00     0.074 A 
ATOM     37  C   UNL     1       0.897  10.344 -20.088  1.00  0.00     0.031 C 
ATOM     38  C   UNL     1       1.433   7.937 -20.338  1.00  0.00     0.037 A 
BRANCH  25  39
ATOM     39  C   UNL     1       4.582   3.286 -17.768  1.00  0.00     0.064 A 
ATOM     40  C   UNL     1       4.082   2.363 -16.836  1.00  0.00     0.173 A 
ATOM     41  C   UNL     1       5.380   2.793 -18.812  1.00  0.00     0.173 A 
ATOM     42  F   UNL     1       3.321   2.782 -15.814  1.00  0.00    -0.203 F 
ATOM     43  C   UNL     1       4.378   1.006 -16.940  1.00  0.00     0.198 A 
ATOM     44  C   UNL     1       5.651   1.431 -18.929  1.00  0.00     0.198 A 
ATOM     45  F   UNL     1       5.876   3.629 -19.736  1.00  0.00    -0.203 F 
ATOM     46  F   UNL     1       3.914   0.148 -16.020  1.00  0.00    -0.200 F 
ATOM     47  C   UNL     1       5.153   0.540 -17.991  1.00  0.00     0.200 A 
ATOM     48  F   UNL     1       6.386   0.981 -19.955  1.00  0.00    -0.200 F 
ATOM     49  F   UNL     1       5.421  -0.769 -18.100  1.00  0.00    -0.200 F 
ENDBRANCH  25  39
BRANCH  26  50
ATOM     50  C   UNL     1       2.316  12.997 -17.135  1.00  0.00     0.064 A 
ATOM     51  C   UNL     1       1.008  13.447 -16.909  1.00  0.00     0.173 A 
ATOM     52  C   UNL     1       3.315  13.967 -17.316  1.00  0.00     0.173 A 
ATOM     53  F   UNL     1       0.014  12.561 -16.747  1.00  0.00    -0.203 F 
ATOM     54  C   UNL     1       0.706  14.807 -16.898  1.00  0.00     0.198 A 
ATOM     55  C   UNL     1       3.019  15.326 -17.265  1.00  0.00     0.198 A 
ATOM     56  F   UNL     1       4.585  13.592 -17.529  1.00  0.00    -0.203 F 
ATOM     57  F   UNL     1      -0.563  15.207 -16.742  1.00  0.00    -0.200 F 
ATOM     58  C   UNL     1       1.713  15.745 -17.069  1.00  0.00     0.200 A 
ATOM     59  F   UNL     1       3.999  16.228 -17.410  1.00  0.00    -0.200 F 
ATOM     60  F   UNL     1       1.422  17.053 -17.058  1.00  0.00    -0.200 F 
ENDBRANCH  26  50
BRANCH  38  61
ATOM     61  C   UNL     1       0.561   7.926 -21.560  1.00  0.00     0.064 A 
ATOM     62  C   UNL     1       0.932   8.601 -22.734  1.00  0.00     0.173 A 
ATOM     63  C   UNL     1      -0.662   7.240 -21.556  1.00  0.00     0.173 A 
ATOM     64  F   UNL     1       2.083   9.287 -22.784  1.00  0.00    -0.203 F 
ATOM     65  C   UNL     1       0.090   8.624 -23.843  1.00  0.00     0.198 A 
ATOM     66  C   UNL     1      -1.485   7.235 -22.679  1.00  0.00     0.198 A 
ATOM     67  F   UNL     1      -1.061   6.574 -20.462  1.00  0.00    -0.203 F 
ATOM     68  F   UNL     1       0.432   9.334 -24.927  1.00  0.00    -0.200 F 
ATOM     69  C   UNL     1      -1.115   7.938 -23.816  1.00  0.00     0.200 A 
ATOM     70  F   UNL     1      -2.643   6.560 -22.657  1.00  0.00    -0.200 F 
ATOM     71  F   UNL     1      -1.926   7.964 -24.882  1.00  0.00    -0.200 F 
ENDBRANCH  38  61
ENDBRANCH  12  13
ENDBRANCH   5   7
ENDBRANCH   2   3
ENDBRANCH   1   2
BRANCH   1  72
ATOM     72  C   UNL     1       6.961   6.697  -6.158  1.00  0.00     0.117 C 
BRANCH  72  73
ATOM     73  N   UNL     1       5.904   7.269  -5.345  1.00  0.00    -0.353 N 
ATOM     74  C   UNL     1       4.777   6.830  -4.751  1.00  0.00     0.257 C 
ATOM     75  H   UNL     1       6.048   8.229  -5.185  1.00  0.00     0.163 HD
ATOM     76  O   UNL     1       4.160   7.734  -4.159  1.00  0.00    -0.272 OA
BRANCH  74  77
ATOM     77  C   UNL     1       4.170   5.418  -4.725  1.00  0.00     0.283 C 
ATOM     78  F   UNL     1       3.820   5.150  -3.409  1.00  0.00    -0.234 F 
BRANCH  77  79
ATOM     79  C   UNL     1       4.858   4.130  -5.177  1.00  0.00     0.161 C 
BRANCH  79  80
ATOM     80  C   UNL     1       4.995   3.836  -6.685  1.00  0.00     0.026 C 
ATOM     81  C   UNL     1       3.915   4.454  -7.583  1.00  0.00     0.035 C 
ATOM     82  C   UNL     1       4.988   2.310  -6.937  1.00  0.00     0.035 C 
ATOM     83  C   UNL     1       4.208   4.091  -9.037  1.00  0.00     0.160 C 
ATOM     84  C   UNL     1       5.149   2.001  -8.422  1.00  0.00     0.160 C 
ATOM     85  O   UNL     1       4.164   2.677  -9.204  1.00  0.00    -0.381 OA
ENDBRANCH  79  80
BRANCH  79  86
ATOM     86  O   UNL     1       6.143   3.979  -4.556  1.00  0.00    -0.389 OA
ATOM     87  H   UNL     1       6.746   4.662  -4.891  1.00  0.00     0.211 HD
ENDBRANCH  79  86
ENDBRANCH  77  79
ENDBRANCH  74  77
ENDBRANCH  72  73
ENDBRANCH   1  72
TORSDOF 13
