REMARK SMILES CC(C)(C)c1ccc(CSc2ccnc(C(=O)NCCCNC(=O)c3ccc(-c4c5nc(c(-c6c(F)c(F)c(F)c(F)c6F)c6ccc([nH]6)c(-c6c(F)c(F)c(F)c(F)c6F)c6nc(c(-c7c(F)c(F)c(F)c(F)c7F)c7ccc4[nH]7)C=C6)C=C5)cc3)c2)cc1
REMARK SMILES IDX 19 1 18 2 16 3 17 4 15 6 11 7 12 8 88 9 13 10 14 11 10 12
REMARK SMILES IDX 9 13 8 14 5 15 6 16 90 17 7 18 89 19 2 20 1 21 3 22 4 23
REMARK SMILES IDX 20 24 21 25 22 26 23 27 24 29 25 30 26 31 87 32 27 33 86 34
REMARK SMILES IDX 28 35 29 36 30 37 80 38 31 39 85 40 79 41 81 42 32 43 84 44
REMARK SMILES IDX 78 45 77 46 33 48 65 49 45 50 64 51 46 52 49 53 63 54 82 55
REMARK SMILES IDX 47 56 48 57 62 59 83 60 50 61 34 62 35 63 43 64 36 65 37 66
REMARK SMILES IDX 41 67 44 68 38 69 39 70 42 71 40 72 66 73 67 74 75 75 68 76
REMARK SMILES IDX 69 77 73 78 76 79 70 80 71 81 74 82 72 83 51 84 52 85 60 86
REMARK SMILES IDX 53 87 54 88 58 89 61 90 55 91 56 92 59 93 57 94
REMARK H PARENT 18 5 22 28 81 47 49 58
REMARK Flexibility Score: inf
ROOT
ATOM      1  C   UNL     1      -3.597  -7.699   6.725  1.00  0.00     0.118 C 
ENDROOT
BRANCH   1   2
ATOM      2  N   UNL     1      -3.930  -6.691   7.715  1.00  0.00    -0.351 N 
ATOM      3  C   UNL     1      -3.464  -5.416   7.943  1.00  0.00     0.269 C 
ATOM      4  O   UNL     1      -3.977  -4.808   8.884  1.00  0.00    -0.268 OA
ATOM      5  H   UNL     1      -4.628  -6.976   8.349  1.00  0.00     0.163 HD
BRANCH   3   6
ATOM      6  C   UNL     1      -2.423  -4.746   7.090  1.00  0.00     0.129 A 
ATOM      7  C   UNL     1      -0.555  -4.727   5.567  1.00  0.00     0.011 A 
ATOM      8  C   UNL     1      -0.715  -3.351   5.467  1.00  0.00     0.035 A 
ATOM      9  C   UNL     1      -1.413  -5.425   6.423  1.00  0.00     0.049 A 
ATOM     10  C   UNL     1      -1.696  -2.733   6.221  1.00  0.00     0.113 A 
ATOM     11  N   UNL     1      -2.552  -3.397   7.016  1.00  0.00    -0.251 NA
BRANCH   7  12
ATOM     12  S   UNL     1       0.548  -5.727   4.568  1.00  0.00    -0.121 SA
BRANCH  12  13
ATOM     13  C   UNL     1       2.044  -4.704   4.294  1.00  0.00     0.110 C 
BRANCH  13  14
ATOM     14  C   UNL     1       1.839  -3.493   3.421  1.00  0.00    -0.038 A 
ATOM     15  C   UNL     1       1.170  -1.130   1.991  1.00  0.00    -0.043 A 
ATOM     16  C   UNL     1       0.849  -2.405   1.490  1.00  0.00     0.004 A 
ATOM     17  C   UNL     1       1.926  -1.075   3.171  1.00  0.00     0.004 A 
ATOM     18  C   UNL     1       1.185  -3.570   2.187  1.00  0.00     0.005 A 
ATOM     19  C   UNL     1       2.267  -2.238   3.869  1.00  0.00     0.005 A 
BRANCH  15  20
ATOM     20  C   UNL     1       0.651   0.132   1.281  1.00  0.00    -0.013 C 
ATOM     21  C   UNL     1       1.160   0.173  -0.174  1.00  0.00     0.016 C 
ATOM     22  C   UNL     1       1.084   1.451   1.960  1.00  0.00     0.016 C 
ATOM     23  C   UNL     1      -0.894   0.109   1.281  1.00  0.00     0.016 C 
ENDBRANCH  15  20
ENDBRANCH  13  14
ENDBRANCH  12  13
ENDBRANCH   7  12
ENDBRANCH   3   6
ENDBRANCH   1   2
BRANCH   1  24
ATOM     24  C   UNL     1      -2.622  -8.727   7.299  1.00  0.00     0.042 C 
BRANCH  24  25
ATOM     25  C   UNL     1      -3.252  -9.657   8.334  1.00  0.00     0.118 C 
BRANCH  25  26
ATOM     26  N   UNL     1      -4.215 -10.566   7.733  1.00  0.00    -0.352 N 
ATOM     27  C   UNL     1      -4.266 -11.935   7.731  1.00  0.00     0.251 C 
ATOM     28  H   UNL     1      -4.949 -10.126   7.248  1.00  0.00     0.163 HD
ATOM     29  O   UNL     1      -5.043 -12.502   6.967  1.00  0.00    -0.269 OA
BRANCH  27  30
ATOM     30  C   UNL     1      -3.405 -12.744   8.624  1.00  0.00     0.039 A 
ATOM     31  C   UNL     1      -2.914 -13.962   8.141  1.00  0.00     0.014 A 
ATOM     32  C   UNL     1      -3.143 -12.368   9.945  1.00  0.00     0.014 A 
ATOM     33  C   UNL     1      -2.140 -14.781   8.964  1.00  0.00     0.010 A 
ATOM     34  C   UNL     1      -2.316 -13.156  10.748  1.00  0.00     0.010 A 
ATOM     35  C   UNL     1      -1.817 -14.376  10.269  1.00  0.00    -0.014 A 
BRANCH  35  36
ATOM     36  C   UNL     1      -0.958 -15.228  11.129  1.00  0.00     0.031 A 
ATOM     37  C   UNL     1      -1.514 -15.885  12.362  1.00  0.00     0.074 A 
ATOM     38  C   UNL     1       0.340 -15.390  10.808  1.00  0.00     0.049 A 
ATOM     39  N   UNL     1      -0.917 -16.675  13.220  1.00  0.00    -0.248 NA
ATOM     40  C   UNL     1      -2.919 -15.599  12.689  1.00  0.00     0.031 C 
ATOM     41  C   UNL     1       1.011 -14.758   9.671  1.00  0.00     0.029 A 
ATOM     42  N   UNL     1       1.326 -16.134  11.405  1.00  0.00    -0.354 N 
ATOM     43  C   UNL     1      -1.867 -16.970  14.189  1.00  0.00     0.074 A 
ATOM     44  C   UNL     1      -3.065 -16.236  13.842  1.00  0.00     0.031 C 
ATOM     45  C   UNL     1       2.289 -15.165   9.634  1.00  0.00     0.029 A 
ATOM     46  C   UNL     1       2.534 -16.066  10.756  1.00  0.00     0.049 A 
ATOM     47  H   UNL     1       1.181 -16.667  12.220  1.00  0.00     0.167 HD
ATOM     48  C   UNL     1      -1.756 -17.795  15.258  1.00  0.00     0.037 A 
ATOM     49  C   UNL     1       3.705 -16.670  11.031  1.00  0.00     0.037 A 
ATOM     50  C   UNL     1      -0.571 -18.544  15.587  1.00  0.00     0.049 A 
ATOM     51  C   UNL     1       3.792 -17.605  12.205  1.00  0.00     0.074 A 
ATOM     52  C   UNL     1      -0.380 -19.456  16.611  1.00  0.00     0.029 A 
ATOM     53  N   UNL     1       0.629 -18.465  14.895  1.00  0.00    -0.354 N 
ATOM     54  N   UNL     1       2.864 -17.935  13.070  1.00  0.00    -0.248 NA
ATOM     55  C   UNL     1       5.087 -18.261  12.432  1.00  0.00     0.031 C 
ATOM     56  C   UNL     1       0.947 -19.901  16.561  1.00  0.00     0.029 A 
ATOM     57  C   UNL     1       1.570 -19.297  15.481  1.00  0.00     0.049 A 
ATOM     58  H   UNL     1       0.789 -17.900  14.105  1.00  0.00     0.167 HD
ATOM     59  C   UNL     1       3.455 -18.847  13.933  1.00  0.00     0.074 A 
ATOM     60  C   UNL     1       4.815 -19.037  13.471  1.00  0.00     0.031 C 
ATOM     61  C   UNL     1       2.922 -19.468  15.013  1.00  0.00     0.037 A 
BRANCH  48  62
ATOM     62  C   UNL     1      -2.955 -17.936  16.151  1.00  0.00     0.064 A 
ATOM     63  C   UNL     1      -4.107 -18.621  15.732  1.00  0.00     0.173 A 
ATOM     64  C   UNL     1      -2.942 -17.412  17.453  1.00  0.00     0.173 A 
ATOM     65  F   UNL     1      -4.175 -19.132  14.494  1.00  0.00    -0.203 F 
ATOM     66  C   UNL     1      -5.210 -18.750  16.572  1.00  0.00     0.198 A 
ATOM     67  C   UNL     1      -4.036 -17.567  18.300  1.00  0.00     0.198 A 
ATOM     68  F   UNL     1      -1.864 -16.755  17.906  1.00  0.00    -0.203 F 
ATOM     69  F   UNL     1      -6.316 -19.367  16.133  1.00  0.00    -0.200 F 
ATOM     70  C   UNL     1      -5.172 -18.229  17.857  1.00  0.00     0.200 A 
ATOM     71  F   UNL     1      -3.994 -17.074  19.545  1.00  0.00    -0.200 F 
ATOM     72  F   UNL     1      -6.232 -18.358  18.665  1.00  0.00    -0.200 F 
ENDBRANCH  48  62
BRANCH  49  73
ATOM     73  C   UNL     1       4.878 -16.439  10.150  1.00  0.00     0.064 A 
ATOM     74  C   UNL     1       5.343 -17.449   9.296  1.00  0.00     0.173 A 
ATOM     75  C   UNL     1       5.548 -15.208  10.134  1.00  0.00     0.173 A 
ATOM     76  F   UNL     1       4.745 -18.649   9.291  1.00  0.00    -0.203 F 
ATOM     77  C   UNL     1       6.447 -17.241   8.472  1.00  0.00     0.198 A 
ATOM     78  C   UNL     1       6.636 -14.993   9.291  1.00  0.00     0.198 A 
ATOM     79  F   UNL     1       5.136 -14.209  10.928  1.00  0.00    -0.203 F 
ATOM     80  F   UNL     1       6.895 -18.236   7.694  1.00  0.00    -0.200 F 
ATOM     81  C   UNL     1       7.088 -16.012   8.466  1.00  0.00     0.200 A 
ATOM     82  F   UNL     1       7.245 -13.800   9.277  1.00  0.00    -0.200 F 
ATOM     83  F   UNL     1       8.146 -15.810   7.668  1.00  0.00    -0.200 F 
ENDBRANCH  49  73
BRANCH  61  84
ATOM     84  C   UNL     1       3.813 -20.417  15.759  1.00  0.00     0.064 A 
ATOM     85  C   UNL     1       4.875 -19.955  16.551  1.00  0.00     0.173 A 
ATOM     86  C   UNL     1       3.598 -21.802  15.688  1.00  0.00     0.173 A 
ATOM     87  F   UNL     1       5.131 -18.641  16.636  1.00  0.00    -0.203 F 
ATOM     88  C   UNL     1       5.709 -20.847  17.219  1.00  0.00     0.198 A 
ATOM     89  C   UNL     1       4.417 -22.689  16.381  1.00  0.00     0.198 A 
ATOM     90  F   UNL     1       2.593 -22.293  14.948  1.00  0.00    -0.203 F 
ATOM     91  F   UNL     1       6.750 -20.386  17.926  1.00  0.00    -0.200 F 
ATOM     92  C   UNL     1       5.476 -22.212  17.138  1.00  0.00     0.200 A 
ATOM     93  F   UNL     1       4.186 -24.007  16.309  1.00  0.00    -0.200 F 
ATOM     94  F   UNL     1       6.282 -23.069  17.780  1.00  0.00    -0.200 F 
ENDBRANCH  61  84
ENDBRANCH  35  36
ENDBRANCH  27  30
ENDBRANCH  25  26
ENDBRANCH  24  25
ENDBRANCH   1  24
TORSDOF 14
