REMARK SMILES CS(=O)(=O)Nc1ccc(-c2cc(Cl)cc3c2O[C@H](C(F)(F)F)C(C(=O)NCCCNC(=O)c2ccc(-c4c5nc(c(-c6c(F)c(F)c(F)c(F)c6F)c6ccc([nH]6)c(-c6c(F)c(F)c(F)c(F)c6F)c6nc(c(-c7c(F)c(F)c(F)c(F)c7F)c7ccc4[nH]7)C=C6)C=C5)cc2)=C3)cc1
REMARK SMILES IDX 27 1 26 2 24 3 25 4 23 6 10 7 11 8 16 9 12 10 15 11 17 12
REMARK SMILES IDX 13 13 14 14 96 15 18 16 9 17 6 18 7 19 98 20 8 21 97 22 5 23
REMARK SMILES IDX 2 25 1 26 3 27 4 28 19 29 20 30 21 31 22 32 28 33 29 34
REMARK SMILES IDX 30 35 31 36 32 38 33 39 34 40 95 41 35 42 94 43 36 44 37 45
REMARK SMILES IDX 38 46 88 47 39 48 93 49 87 50 89 51 40 52 92 53 86 54 85 55
REMARK SMILES IDX 41 57 73 58 53 59 72 60 54 61 57 62 71 63 90 64 55 65 56 66
REMARK SMILES IDX 70 68 91 69 58 70 42 71 43 72 51 73 44 74 45 75 49 76 52 77
REMARK SMILES IDX 46 78 47 79 50 80 48 81 74 82 75 83 83 84 76 85 77 86 81 87
REMARK SMILES IDX 84 88 78 89 79 90 82 91 80 92 59 93 60 94 68 95 61 96 62 97
REMARK SMILES IDX 66 98 69 99 63 100 64 101 67 102 65 103
REMARK H PARENT 26 5 5 24 30 37 89 56 57 67
REMARK Flexibility Score: inf
ROOT
ATOM      1  C   UNL     1      10.876   5.635  -6.675  1.00  0.00     0.118 C 
ENDROOT
BRANCH   1   2
ATOM      2  N   UNL     1       9.443   5.850  -6.673  1.00  0.00    -0.352 N 
ATOM      3  C   UNL     1       8.496   4.956  -6.294  1.00  0.00     0.251 C 
ATOM      4  O   UNL     1       7.470   4.839  -6.952  1.00  0.00    -0.270 OA
ATOM      5  H   UNL     1       9.126   6.731  -6.976  1.00  0.00     0.163 HD
BRANCH   3   6
ATOM      6  C   UNL     1       8.704   4.271  -4.985  1.00  0.00     0.067 C 
ATOM      7  C   UNL     1       5.098   2.436  -4.546  1.00  0.00     0.026 A 
ATOM      8  C   UNL     1       4.106   3.391  -4.899  1.00  0.00     0.033 A 
ATOM      9  C   UNL     1       6.396   2.937  -4.354  1.00  0.00     0.135 A 
ATOM     10  C   UNL     1       4.343   4.763  -4.886  1.00  0.00     0.042 A 
ATOM     11  C   UNL     1       6.586   4.336  -4.223  1.00  0.00     0.019 A 
ATOM     12  O   UNL     1       7.527   2.133  -4.336  1.00  0.00    -0.475 OA
ATOM     13  Cl  UNL     1       3.095   5.850  -5.349  1.00  0.00    -0.084 Cl
ATOM     14  C   UNL     1       5.566   5.249  -4.473  1.00  0.00     0.032 A 
ATOM     15  C   UNL     1       7.965   4.827  -4.005  1.00  0.00     0.025 C 
ATOM     16  C   UNL     1       8.695   2.749  -5.036  1.00  0.00     0.314 C 
BRANCH   7  17
ATOM     17  C   UNL     1       4.571   1.086  -4.199  1.00  0.00    -0.014 A 
ATOM     18  C   UNL     1       2.611  -0.632  -3.060  1.00  0.00     0.048 A 
ATOM     19  C   UNL     1       2.588  -0.330  -4.423  1.00  0.00     0.027 A 
ATOM     20  C   UNL     1       3.717  -0.233  -2.314  1.00  0.00     0.027 A 
ATOM     21  C   UNL     1       3.572   0.492  -4.993  1.00  0.00     0.011 A 
ATOM     22  C   UNL     1       4.691   0.616  -2.879  1.00  0.00     0.011 A 
BRANCH  18  23
ATOM     23  N   UNL     1       1.424  -1.202  -2.517  1.00  0.00    -0.284 N 
ATOM     24  H   UNL     1       0.716  -1.427  -3.162  1.00  0.00     0.180 HD
BRANCH  23  25
ATOM     25  S   UNL     1       1.094  -1.530  -0.922  1.00  0.00     0.229 S 
ATOM     26  C   UNL     1       1.022   0.076  -0.146  1.00  0.00     0.183 C 
ATOM     27  O   UNL     1       2.187  -2.283  -0.346  1.00  0.00    -0.207 OA
ATOM     28  O   UNL     1      -0.254  -2.059  -0.923  1.00  0.00    -0.207 OA
ENDBRANCH  23  25
ENDBRANCH  18  23
ENDBRANCH   7  17
BRANCH  16  29
ATOM     29  C   UNL     1      10.041   2.243  -4.470  1.00  0.00     0.429 C 
ATOM     30  F   UNL     1       9.897   1.527  -3.333  1.00  0.00    -0.167 F 
ATOM     31  F   UNL     1      10.686   1.462  -5.370  1.00  0.00    -0.167 F 
ATOM     32  F   UNL     1      10.896   3.260  -4.176  1.00  0.00    -0.167 F 
ENDBRANCH  16  29
ENDBRANCH   3   6
ENDBRANCH   1   2
BRANCH   1  33
ATOM     33  C   UNL     1      11.413   5.683  -8.107  1.00  0.00     0.042 C 
BRANCH  33  34
ATOM     34  C   UNL     1      11.190   7.012  -8.827  1.00  0.00     0.118 C 
BRANCH  34  35
ATOM     35  N   UNL     1      11.855   8.134  -8.182  1.00  0.00    -0.352 N 
ATOM     36  C   UNL     1      12.707   9.066  -8.725  1.00  0.00     0.251 C 
ATOM     37  H   UNL     1      11.669   8.241  -7.221  1.00  0.00     0.163 HD
ATOM     38  O   UNL     1      13.294   9.864  -8.002  1.00  0.00    -0.269 OA
BRANCH  36  39
ATOM     39  C   UNL     1      12.940   9.079 -10.184  1.00  0.00     0.039 A 
ATOM     40  C   UNL     1      14.252   9.137 -10.658  1.00  0.00     0.014 A 
ATOM     41  C   UNL     1      11.869   9.003 -11.078  1.00  0.00     0.014 A 
ATOM     42  C   UNL     1      14.495   9.036 -12.029  1.00  0.00     0.010 A 
ATOM     43  C   UNL     1      12.117   8.818 -12.435  1.00  0.00     0.010 A 
ATOM     44  C   UNL     1      13.432   8.828 -12.925  1.00  0.00    -0.014 A 
BRANCH  44  45
ATOM     45  C   UNL     1      13.673   8.610 -14.375  1.00  0.00     0.031 A 
ATOM     46  C   UNL     1      13.113   9.574 -15.385  1.00  0.00     0.074 A 
ATOM     47  C   UNL     1      14.329   7.507 -14.786  1.00  0.00     0.049 A 
ATOM     48  N   UNL     1      13.131   9.508 -16.692  1.00  0.00    -0.248 NA
ATOM     49  C   UNL     1      12.414  10.754 -14.854  1.00  0.00     0.031 C 
ATOM     50  C   UNL     1      14.882   6.475 -13.907  1.00  0.00     0.029 A 
ATOM     51  N   UNL     1      14.632   7.062 -16.049  1.00  0.00    -0.354 N 
ATOM     52  C   UNL     1      12.437  10.626 -17.136  1.00  0.00     0.074 A 
ATOM     53  C   UNL     1      11.957  11.320 -15.961  1.00  0.00     0.031 C 
ATOM     54  C   UNL     1      15.477   5.532 -14.655  1.00  0.00     0.029 A 
ATOM     55  C   UNL     1      15.308   5.866 -16.066  1.00  0.00     0.049 A 
ATOM     56  H   UNL     1      14.388   7.554 -16.866  1.00  0.00     0.167 HD
ATOM     57  C   UNL     1      12.240  11.049 -18.407  1.00  0.00     0.037 A 
ATOM     58  C   UNL     1      15.732   5.117 -17.102  1.00  0.00     0.037 A 
ATOM     59  C   UNL     1      12.737  10.367 -19.572  1.00  0.00     0.049 A 
ATOM     60  C   UNL     1      15.476   5.597 -18.506  1.00  0.00     0.074 A 
ATOM     61  C   UNL     1      12.638  10.742 -20.900  1.00  0.00     0.029 A 
ATOM     62  N   UNL     1      13.426   9.162 -19.548  1.00  0.00    -0.354 N 
ATOM     63  N   UNL     1      14.877   6.691 -18.911  1.00  0.00    -0.248 NA
ATOM     64  C   UNL     1      15.958   4.739 -19.598  1.00  0.00     0.031 C 
ATOM     65  C   UNL     1      13.219   9.740 -21.683  1.00  0.00     0.029 A 
ATOM     66  C   UNL     1      13.734   8.768 -20.840  1.00  0.00     0.049 A 
ATOM     67  H   UNL     1      13.660   8.662 -18.733  1.00  0.00     0.167 HD
ATOM     68  C   UNL     1      14.938   6.668 -20.298  1.00  0.00     0.074 A 
ATOM     69  C   UNL     1      15.646   5.460 -20.665  1.00  0.00     0.031 C 
ATOM     70  C   UNL     1      14.451   7.567 -21.188  1.00  0.00     0.037 A 
BRANCH  57  71
ATOM     71  C   UNL     1      11.455  12.315 -18.604  1.00  0.00     0.064 A 
ATOM     72  C   UNL     1      11.965  13.565 -18.218  1.00  0.00     0.173 A 
ATOM     73  C   UNL     1      10.194  12.285 -19.218  1.00  0.00     0.173 A 
ATOM     74  F   UNL     1      13.161  13.650 -17.617  1.00  0.00    -0.203 F 
ATOM     75  C   UNL     1      11.228  14.731 -18.408  1.00  0.00     0.198 A 
ATOM     76  C   UNL     1       9.474  13.457 -19.438  1.00  0.00     0.198 A 
ATOM     77  F   UNL     1       9.661  11.119 -19.613  1.00  0.00    -0.203 F 
ATOM     78  F   UNL     1      11.713  15.905 -17.980  1.00  0.00    -0.200 F 
ATOM     79  C   UNL     1       9.987  14.677 -19.024  1.00  0.00     0.200 A 
ATOM     80  F   UNL     1       8.282  13.405 -20.047  1.00  0.00    -0.200 F 
ATOM     81  F   UNL     1       9.282  15.801 -19.214  1.00  0.00    -0.200 F 
ENDBRANCH  57  71
BRANCH  58  82
ATOM     82  C   UNL     1      16.458   3.843 -16.856  1.00  0.00     0.064 A 
ATOM     83  C   UNL     1      17.814   3.712 -17.188  1.00  0.00     0.173 A 
ATOM     84  C   UNL     1      15.814   2.727 -16.301  1.00  0.00     0.173 A 
ATOM     85  F   UNL     1      18.471   4.743 -17.740  1.00  0.00    -0.203 F 
ATOM     86  C   UNL     1      18.491   2.508 -16.999  1.00  0.00     0.198 A 
ATOM     87  C   UNL     1      16.499   1.533 -16.083  1.00  0.00     0.198 A 
ATOM     88  F   UNL     1      14.519   2.799 -15.961  1.00  0.00    -0.203 F 
ATOM     89  F   UNL     1      19.772   2.396 -17.375  1.00  0.00    -0.200 F 
ATOM     90  C   UNL     1      17.834   1.421 -16.442  1.00  0.00     0.200 A 
ATOM     91  F   UNL     1      15.865   0.491 -15.530  1.00  0.00    -0.200 F 
ATOM     92  F   UNL     1      18.485   0.265 -16.258  1.00  0.00    -0.200 F 
ENDBRANCH  58  82
BRANCH  70  93
ATOM     93  C   UNL     1      14.700   7.303 -22.645  1.00  0.00     0.064 A 
ATOM     94  C   UNL     1      14.040   6.274 -23.332  1.00  0.00     0.173 A 
ATOM     95  C   UNL     1      15.574   8.125 -23.374  1.00  0.00     0.173 A 
ATOM     96  F   UNL     1      13.207   5.451 -22.678  1.00  0.00    -0.203 F 
ATOM     97  C   UNL     1      14.264   6.063 -24.691  1.00  0.00     0.198 A 
ATOM     98  C   UNL     1      15.770   7.932 -24.738  1.00  0.00     0.198 A 
ATOM     99  F   UNL     1      16.225   9.128 -22.766  1.00  0.00    -0.203 F 
ATOM    100  F   UNL     1      13.659   5.044 -25.316  1.00  0.00    -0.200 F 
ATOM    101  C   UNL     1      15.121   6.897 -25.394  1.00  0.00     0.200 A 
ATOM    102  F   UNL     1      16.585   8.749 -25.419  1.00  0.00    -0.200 F 
ATOM    103  F   UNL     1      15.325   6.699 -26.703  1.00  0.00    -0.200 F 
ENDBRANCH  70  93
ENDBRANCH  44  45
ENDBRANCH  36  39
ENDBRANCH  34  35
ENDBRANCH  33  34
ENDBRANCH   1  33
TORSDOF 14
