REMARK SMILES C=CCCCOC(F)(F)C(=O)NCCCNC(=O)c1ccc(-c2c3nc(c(-c4c(F)c(F)c(F)c(F)c4F)c4ccc([nH]4)c(-c4c(F)c(F)c(F)c(F)c4F)c4nc(c(-c5c(F)c(F)c(F)c(F)c5F)c5ccc2[nH]5)C=C4)C=C3)cc1
REMARK SMILES IDX 10 1 11 2 12 3 7 5 8 6 9 7 6 8 5 9 4 10 3 11 2 12 1 13 13 14
REMARK SMILES IDX 14 15 15 16 16 17 17 18 18 20 19 21 20 22 81 23 21 24 80 25
REMARK SMILES IDX 22 26 23 27 24 28 74 29 25 30 79 31 73 32 75 33 26 34 78 35
REMARK SMILES IDX 72 36 71 37 27 39 59 40 39 41 58 42 40 43 43 44 57 45 76 46
REMARK SMILES IDX 41 47 42 48 56 50 77 51 44 52 28 53 29 54 37 55 30 56 31 57
REMARK SMILES IDX 35 58 38 59 32 60 33 61 36 62 34 63 60 64 61 65 69 66 62 67
REMARK SMILES IDX 63 68 67 69 70 70 64 71 65 72 68 73 66 74 45 75 46 76 54 77
REMARK SMILES IDX 47 78 48 79 52 80 55 81 49 82 50 83 53 84 51 85
REMARK H PARENT 12 4 16 19 75 38 43 49
REMARK Flexibility Score: inf
ROOT
ATOM      1  C   UNL     1      -1.717  -4.752  -1.664  1.00  0.00     0.320 C 
ATOM      2  O   UNL     1      -2.297  -5.473  -2.477  1.00  0.00    -0.265 OA
ATOM      3  N   UNL     1      -1.201  -5.332  -0.512  1.00  0.00    -0.348 N 
ATOM      4  H   UNL     1      -1.377  -6.293  -0.385  1.00  0.00     0.163 HD
ENDROOT
BRANCH   1   5
ATOM      5  C   UNL     1      -1.533  -3.200  -1.815  1.00  0.00     0.436 C 
ATOM      6  F   UNL     1      -0.200  -2.912  -1.739  1.00  0.00    -0.165 F 
ATOM      7  F   UNL     1      -2.123  -2.623  -0.730  1.00  0.00    -0.165 F 
BRANCH   5   8
ATOM      8  O   UNL     1      -2.040  -2.518  -2.934  1.00  0.00    -0.313 OA
BRANCH   8   9
ATOM      9  C   UNL     1      -1.389  -1.272  -3.192  1.00  0.00     0.168 C 
BRANCH   9  10
ATOM     10  C   UNL     1      -1.740  -0.118  -2.237  1.00  0.00     0.033 C 
BRANCH  10  11
ATOM     11  C   UNL     1      -1.072  -0.038  -0.850  1.00  0.00     0.029 C 
BRANCH  11  12
ATOM     12  C   UNL     1       0.423  -0.179  -0.797  1.00  0.00    -0.035 C 
ATOM     13  C   UNL     1       1.183   0.426   0.126  1.00  0.00     0.004 C 
ENDBRANCH  11  12
ENDBRANCH  10  11
ENDBRANCH   9  10
ENDBRANCH   8   9
ENDBRANCH   5   8
ENDBRANCH   1   5
BRANCH   3  14
ATOM     14  C   UNL     1      -0.426  -4.667   0.527  1.00  0.00     0.118 C 
BRANCH  14  15
ATOM     15  C   UNL     1      -1.225  -4.381   1.792  1.00  0.00     0.042 C 
BRANCH  15  16
ATOM     16  C   UNL     1      -1.686  -5.630   2.530  1.00  0.00     0.118 C 
BRANCH  16  17
ATOM     17  N   UNL     1      -0.585  -6.502   2.911  1.00  0.00    -0.352 N 
ATOM     18  C   UNL     1      -0.249  -7.042   4.127  1.00  0.00     0.251 C 
ATOM     19  H   UNL     1       0.020  -6.745   2.174  1.00  0.00     0.163 HD
ATOM     20  O   UNL     1       0.819  -7.633   4.248  1.00  0.00    -0.269 OA
BRANCH  18  21
ATOM     21  C   UNL     1      -1.145  -6.897   5.294  1.00  0.00     0.039 A 
ATOM     22  C   UNL     1      -0.571  -6.676   6.550  1.00  0.00     0.014 A 
ATOM     23  C   UNL     1      -2.532  -7.005   5.172  1.00  0.00     0.014 A 
ATOM     24  C   UNL     1      -1.389  -6.499   7.667  1.00  0.00     0.010 A 
ATOM     25  C   UNL     1      -3.349  -6.742   6.268  1.00  0.00     0.010 A 
ATOM     26  C   UNL     1      -2.787  -6.491   7.528  1.00  0.00    -0.014 A 
BRANCH  26  27
ATOM     27  C   UNL     1      -3.671  -6.215   8.689  1.00  0.00     0.031 A 
ATOM     28  C   UNL     1      -4.635  -7.259   9.177  1.00  0.00     0.074 A 
ATOM     29  C   UNL     1      -3.642  -4.999   9.270  1.00  0.00     0.049 A 
ATOM     30  N   UNL     1      -5.522  -7.184  10.138  1.00  0.00    -0.248 NA
ATOM     31  C   UNL     1      -4.621  -8.553   8.476  1.00  0.00     0.031 C 
ATOM     32  C   UNL     1      -2.783  -3.887   8.860  1.00  0.00     0.029 A 
ATOM     33  N   UNL     1      -4.360  -4.493  10.324  1.00  0.00    -0.354 N 
ATOM     34  C   UNL     1      -6.173  -8.410  10.149  1.00  0.00     0.074 A 
ATOM     35  C   UNL     1      -5.623  -9.191   9.062  1.00  0.00     0.031 C 
ATOM     36  C   UNL     1      -3.003  -2.840   9.670  1.00  0.00     0.029 A 
ATOM     37  C   UNL     1      -4.050  -3.189  10.626  1.00  0.00     0.049 A 
ATOM     38  H   UNL     1      -5.034  -5.014  10.817  1.00  0.00     0.167 HD
ATOM     39  C   UNL     1      -7.125  -8.854  11.005  1.00  0.00     0.037 A 
ATOM     40  C   UNL     1      -4.558  -2.365  11.561  1.00  0.00     0.037 A 
ATOM     41  C   UNL     1      -7.660  -8.079  12.094  1.00  0.00     0.049 A 
ATOM     42  C   UNL     1      -5.633  -2.875  12.482  1.00  0.00     0.074 A 
ATOM     43  C   UNL     1      -8.590  -8.457  13.047  1.00  0.00     0.029 A 
ATOM     44  N   UNL     1      -7.318  -6.763  12.371  1.00  0.00    -0.354 N 
ATOM     45  N   UNL     1      -6.191  -4.061  12.529  1.00  0.00    -0.248 NA
ATOM     46  C   UNL     1      -6.144  -1.933  13.487  1.00  0.00     0.031 C 
ATOM     47  C   UNL     1      -8.853  -7.353  13.864  1.00  0.00     0.029 A 
ATOM     48  C   UNL     1      -8.039  -6.306  13.463  1.00  0.00     0.049 A 
ATOM     49  H   UNL     1      -6.660  -6.232  11.866  1.00  0.00     0.167 HD
ATOM     50  C   UNL     1      -7.093  -4.018  13.584  1.00  0.00     0.074 A 
ATOM     51  C   UNL     1      -6.994  -2.693  14.162  1.00  0.00     0.031 C 
ATOM     52  C   UNL     1      -7.927  -4.987  14.033  1.00  0.00     0.037 A 
BRANCH  39  53
ATOM     53  C   UNL     1      -7.653 -10.246  10.796  1.00  0.00     0.064 A 
ATOM     54  C   UNL     1      -6.856 -11.379  11.024  1.00  0.00     0.173 A 
ATOM     55  C   UNL     1      -8.984 -10.453  10.402  1.00  0.00     0.173 A 
ATOM     56  F   UNL     1      -5.573 -11.239  11.392  1.00  0.00    -0.203 F 
ATOM     57  C   UNL     1      -7.361 -12.663  10.833  1.00  0.00     0.198 A 
ATOM     58  C   UNL     1      -9.496 -11.738  10.246  1.00  0.00     0.198 A 
ATOM     59  F   UNL     1      -9.793  -9.406  10.178  1.00  0.00    -0.203 F 
ATOM     60  F   UNL     1      -6.564 -13.726  11.004  1.00  0.00    -0.200 F 
ATOM     61  C   UNL     1      -8.682 -12.841  10.453  1.00  0.00     0.200 A 
ATOM     62  F   UNL     1     -10.777 -11.909   9.895  1.00  0.00    -0.200 F 
ATOM     63  F   UNL     1      -9.169 -14.078  10.279  1.00  0.00    -0.200 F 
ENDBRANCH  39  53
BRANCH  40  64
ATOM     64  C   UNL     1      -4.043  -0.975  11.688  1.00  0.00     0.064 A 
ATOM     65  C   UNL     1      -3.314  -0.578  12.817  1.00  0.00     0.173 A 
ATOM     66  C   UNL     1      -4.278  -0.015  10.692  1.00  0.00     0.173 A 
ATOM     67  F   UNL     1      -3.080  -1.454  13.806  1.00  0.00    -0.203 F 
ATOM     68  C   UNL     1      -2.861   0.733  12.958  1.00  0.00     0.198 A 
ATOM     69  C   UNL     1      -3.796   1.286  10.819  1.00  0.00     0.198 A 
ATOM     70  F   UNL     1      -4.965  -0.345   9.589  1.00  0.00    -0.203 F 
ATOM     71  F   UNL     1      -2.212   1.099  14.072  1.00  0.00    -0.200 F 
ATOM     72  C   UNL     1      -3.097   1.661  11.956  1.00  0.00     0.200 A 
ATOM     73  F   UNL     1      -4.012   2.176   9.841  1.00  0.00    -0.200 F 
ATOM     74  F   UNL     1      -2.659   2.921  12.090  1.00  0.00    -0.200 F 
ENDBRANCH  40  64
BRANCH  52  75
ATOM     75  C   UNL     1      -8.771  -4.668  15.236  1.00  0.00     0.064 A 
ATOM     76  C   UNL     1      -9.834  -3.755  15.174  1.00  0.00     0.173 A 
ATOM     77  C   UNL     1      -8.530  -5.312  16.460  1.00  0.00     0.173 A 
ATOM     78  F   UNL     1     -10.097  -3.102  14.031  1.00  0.00    -0.203 F 
ATOM     79  C   UNL     1     -10.603  -3.474  16.300  1.00  0.00     0.198 A 
ATOM     80  C   UNL     1      -9.324  -5.055  17.574  1.00  0.00     0.198 A 
ATOM     81  F   UNL     1      -7.531  -6.200  16.573  1.00  0.00    -0.203 F 
ATOM     82  F   UNL     1     -11.577  -2.556  16.231  1.00  0.00    -0.200 F 
ATOM     83  C   UNL     1     -10.353  -4.130  17.496  1.00  0.00     0.200 A 
ATOM     84  F   UNL     1      -9.091  -5.702  18.724  1.00  0.00    -0.200 F 
ATOM     85  F   UNL     1     -11.100  -3.863  18.577  1.00  0.00    -0.200 F 
ENDBRANCH  52  75
ENDBRANCH  26  27
ENDBRANCH  18  21
ENDBRANCH  16  17
ENDBRANCH  15  16
ENDBRANCH  14  15
ENDBRANCH   3  14
TORSDOF 15
