REMARK SMILES CC[NH2+][C@]1(C(=O)NCCCNC(=O)c2ccc(-c3c4nc(c(-c5c(F)c(F)c(F)c(F)c5F)c5ccc([nH]5)c(-c5c(F)c(F)c(F)c(F)c5F)c5nc(c(-c6c(F)c(F)c(F)c(F)c6F)c6ccc3[nH]6)C=C5)C=C4)cc2)CCC[C@@H]1CCSc1ccc(C)cc1
REMARK SMILES IDX 8 1 7 2 5 3 6 4 4 6 77 7 80 8 78 9 79 10 3 11 2 14 1 15
REMARK SMILES IDX 81 16 82 17 83 18 84 19 85 20 90 21 86 22 89 23 87 24 88 25
REMARK SMILES IDX 9 26 10 27 11 28 12 29 13 31 14 32 15 33 76 34 16 35 75 36
REMARK SMILES IDX 17 37 18 38 19 39 69 40 20 41 74 42 68 43 70 44 21 45 73 46
REMARK SMILES IDX 67 47 66 48 22 50 54 51 34 52 53 53 35 54 38 55 52 56 71 57
REMARK SMILES IDX 36 58 37 59 51 61 72 62 39 63 23 64 24 65 32 66 25 67 26 68
REMARK SMILES IDX 30 69 33 70 27 71 28 72 31 73 29 74 55 75 56 76 64 77 57 78
REMARK SMILES IDX 58 79 62 80 65 81 59 82 60 83 63 84 61 85 40 86 41 87 49 88
REMARK SMILES IDX 42 89 43 90 47 91 50 92 44 93 45 94 48 95 46 96
REMARK H PARENT 7 5 3 12 3 13 11 30 70 49 38 60
REMARK Flexibility Score: inf
ROOT
ATOM      1  C   UNL     1       2.238  -0.287  -2.999  1.00  0.00     0.118 C 
ENDROOT
BRANCH   1   2
ATOM      2  N   UNL     1       1.288  -0.677  -1.979  1.00  0.00    -0.351 N 
ATOM      3  C   UNL     1       0.494  -1.752  -1.784  1.00  0.00     0.281 C 
ATOM      4  O   UNL     1      -0.097  -1.724  -0.694  1.00  0.00    -0.268 OA
ATOM      5  H   UNL     1       1.200  -0.005  -1.265  1.00  0.00     0.163 HD
BRANCH   3   6
ATOM      6  C   UNL     1       0.172  -2.866  -2.845  1.00  0.00     0.178 C 
ATOM      7  C   UNL     1       1.087  -2.921  -4.079  1.00  0.00     0.079 C 
ATOM      8  C   UNL     1       0.539  -4.241  -2.203  1.00  0.00     0.061 C 
ATOM      9  C   UNL     1       1.084  -4.357  -4.586  1.00  0.00     0.008 C 
ATOM     10  C   UNL     1       0.723  -5.217  -3.380  1.00  0.00     0.011 C 
BRANCH   6  11
ATOM     11  N   UNL     1      -1.272  -2.702  -3.113  1.00  0.00    -0.334 N 
ATOM     12  H   UNL     1      -1.760  -3.101  -2.311  1.00  0.00     0.347 HD
ATOM     13  H   UNL     1      -1.351  -1.700  -3.283  1.00  0.00     0.347 HD
BRANCH  11  14
ATOM     14  C   UNL     1      -1.889  -3.268  -4.290  1.00  0.00     0.257 C 
ATOM     15  C   UNL     1      -3.376  -2.933  -4.246  1.00  0.00     0.071 C 
ENDBRANCH  11  14
ENDBRANCH   6  11
BRANCH   8  16
ATOM     16  C   UNL     1      -0.397  -4.786  -1.108  1.00  0.00     0.022 C 
BRANCH  16  17
ATOM     17  C   UNL     1       0.331  -5.490   0.048  1.00  0.00     0.075 C 
BRANCH  17  18
ATOM     18  S   UNL     1       0.953  -4.387   1.388  1.00  0.00    -0.126 SA
BRANCH  18  19
ATOM     19  C   UNL     1       2.444  -3.694   0.697  1.00  0.00     0.007 A 
ATOM     20  C   UNL     1       3.393  -4.475   0.037  1.00  0.00     0.015 A 
ATOM     21  C   UNL     1       2.678  -2.320   0.825  1.00  0.00     0.015 A 
ATOM     22  C   UNL     1       4.490  -3.880  -0.593  1.00  0.00     0.004 A 
ATOM     23  C   UNL     1       3.790  -1.725   0.217  1.00  0.00     0.004 A 
ATOM     24  C   UNL     1       4.677  -2.496  -0.542  1.00  0.00    -0.051 A 
ATOM     25  C   UNL     1       5.836  -1.869  -1.258  1.00  0.00     0.044 C 
ENDBRANCH  18  19
ENDBRANCH  17  18
ENDBRANCH  16  17
ENDBRANCH   8  16
ENDBRANCH   3   6
ENDBRANCH   1   2
BRANCH   1  26
ATOM     26  C   UNL     1       2.388   1.221  -3.101  1.00  0.00     0.042 C 
BRANCH  26  27
ATOM     27  C   UNL     1       2.837   1.903  -1.819  1.00  0.00     0.118 C 
BRANCH  27  28
ATOM     28  N   UNL     1       4.256   1.735  -1.546  1.00  0.00    -0.352 N 
ATOM     29  C   UNL     1       5.297   2.629  -1.659  1.00  0.00     0.251 C 
ATOM     30  H   UNL     1       4.513   0.839  -1.230  1.00  0.00     0.163 HD
ATOM     31  O   UNL     1       6.452   2.249  -1.553  1.00  0.00    -0.269 OA
BRANCH  29  32
ATOM     32  C   UNL     1       5.001   4.048  -1.945  1.00  0.00     0.039 A 
ATOM     33  C   UNL     1       5.747   4.724  -2.912  1.00  0.00     0.014 A 
ATOM     34  C   UNL     1       3.958   4.695  -1.284  1.00  0.00     0.014 A 
ATOM     35  C   UNL     1       5.382   6.022  -3.277  1.00  0.00     0.010 A 
ATOM     36  C   UNL     1       3.514   5.925  -1.742  1.00  0.00     0.010 A 
ATOM     37  C   UNL     1       4.232   6.613  -2.729  1.00  0.00    -0.014 A 
BRANCH  37  38
ATOM     38  C   UNL     1       3.773   7.966  -3.133  1.00  0.00     0.031 A 
ATOM     39  C   UNL     1       3.649   9.046  -2.091  1.00  0.00     0.074 A 
ATOM     40  C   UNL     1       3.384   8.196  -4.402  1.00  0.00     0.049 A 
ATOM     41  N   UNL     1       3.155  10.253  -2.200  1.00  0.00    -0.248 NA
ATOM     42  C   UNL     1       4.098   8.707  -0.730  1.00  0.00     0.031 C 
ATOM     43  C   UNL     1       3.397   7.213  -5.487  1.00  0.00     0.029 A 
ATOM     44  N   UNL     1       2.888   9.332  -4.992  1.00  0.00    -0.354 N 
ATOM     45  C   UNL     1       3.207  10.796  -0.923  1.00  0.00     0.074 A 
ATOM     46  C   UNL     1       3.709   9.767  -0.042  1.00  0.00     0.031 C 
ATOM     47  C   UNL     1       2.961   7.795  -6.615  1.00  0.00     0.029 A 
ATOM     48  C   UNL     1       2.596   9.178  -6.326  1.00  0.00     0.049 A 
ATOM     49  H   UNL     1       2.753  10.177  -4.505  1.00  0.00     0.167 HD
ATOM     50  C   UNL     1       2.897  12.052  -0.525  1.00  0.00     0.037 A 
ATOM     51  C   UNL     1       2.086  10.056  -7.211  1.00  0.00     0.037 A 
ATOM     52  C   UNL     1       2.442  13.084  -1.417  1.00  0.00     0.049 A 
ATOM     53  C   UNL     1       1.768  11.453  -6.749  1.00  0.00     0.074 A 
ATOM     54  C   UNL     1       2.167  14.410  -1.135  1.00  0.00     0.029 A 
ATOM     55  N   UNL     1       2.200  12.902  -2.771  1.00  0.00    -0.354 N 
ATOM     56  N   UNL     1       1.889  11.979  -5.554  1.00  0.00    -0.248 NA
ATOM     57  C   UNL     1       1.250  12.383  -7.762  1.00  0.00     0.031 C 
ATOM     58  C   UNL     1       1.713  15.019  -2.309  1.00  0.00     0.029 A 
ATOM     59  C   UNL     1       1.762  14.088  -3.335  1.00  0.00     0.049 A 
ATOM     60  H   UNL     1       2.322  12.055  -3.259  1.00  0.00     0.167 HD
ATOM     61  C   UNL     1       1.498  13.305  -5.677  1.00  0.00     0.074 A 
ATOM     62  C   UNL     1       1.147  13.507  -7.068  1.00  0.00     0.031 C 
ATOM     63  C   UNL     1       1.434  14.270  -4.727  1.00  0.00     0.037 A 
BRANCH  50  64
ATOM     64  C   UNL     1       3.053  12.378   0.933  1.00  0.00     0.064 A 
ATOM     65  C   UNL     1       4.315  12.428   1.548  1.00  0.00     0.173 A 
ATOM     66  C   UNL     1       1.930  12.664   1.724  1.00  0.00     0.173 A 
ATOM     67  F   UNL     1       5.422  12.150   0.842  1.00  0.00    -0.203 F 
ATOM     68  C   UNL     1       4.443  12.714   2.904  1.00  0.00     0.198 A 
ATOM     69  C   UNL     1       2.065  12.986   3.072  1.00  0.00     0.198 A 
ATOM     70  F   UNL     1       0.700  12.635   1.188  1.00  0.00    -0.203 F 
ATOM     71  F   UNL     1       5.653  12.695   3.480  1.00  0.00    -0.200 F 
ATOM     72  C   UNL     1       3.319  13.001   3.663  1.00  0.00     0.200 A 
ATOM     73  F   UNL     1       0.978  13.277   3.801  1.00  0.00    -0.200 F 
ATOM     74  F   UNL     1       3.443  13.283   4.967  1.00  0.00    -0.200 F 
ENDBRANCH  50  64
BRANCH  51  75
ATOM     75  C   UNL     1       1.879   9.653  -8.627  1.00  0.00     0.064 A 
ATOM     76  C   UNL     1       2.665  10.200  -9.652  1.00  0.00     0.173 A 
ATOM     77  C   UNL     1       0.894   8.724  -8.990  1.00  0.00     0.173 A 
ATOM     78  F   UNL     1       3.610  11.106  -9.359  1.00  0.00    -0.203 F 
ATOM     79  C   UNL     1       2.457   9.853 -10.985  1.00  0.00     0.198 A 
ATOM     80  C   UNL     1       0.707   8.354 -10.320  1.00  0.00     0.198 A 
ATOM     81  F   UNL     1       0.120   8.164  -8.049  1.00  0.00    -0.203 F 
ATOM     82  F   UNL     1       3.190  10.429 -11.948  1.00  0.00    -0.200 F 
ATOM     83  C   UNL     1       1.482   8.925 -11.318  1.00  0.00     0.200 A 
ATOM     84  F   UNL     1      -0.226   7.444 -10.636  1.00  0.00    -0.200 F 
ATOM     85  F   UNL     1       1.284   8.589 -12.600  1.00  0.00    -0.200 F 
ENDBRANCH  51  75
BRANCH  63  86
ATOM     86  C   UNL     1       1.017  15.643  -5.166  1.00  0.00     0.064 A 
ATOM     87  C   UNL     1      -0.303  15.931  -5.541  1.00  0.00     0.173 A 
ATOM     88  C   UNL     1       1.946  16.696  -5.165  1.00  0.00     0.173 A 
ATOM     89  F   UNL     1      -1.224  14.956  -5.571  1.00  0.00    -0.203 F 
ATOM     90  C   UNL     1      -0.672  17.217  -5.926  1.00  0.00     0.198 A 
ATOM     91  C   UNL     1       1.565  17.987  -5.517  1.00  0.00     0.198 A 
ATOM     92  F   UNL     1       3.219  16.475  -4.806  1.00  0.00    -0.203 F 
ATOM     93  F   UNL     1      -1.927  17.459  -6.329  1.00  0.00    -0.200 F 
ATOM     94  C   UNL     1       0.260  18.245  -5.905  1.00  0.00     0.200 A 
ATOM     95  F   UNL     1       2.463  18.982  -5.481  1.00  0.00    -0.200 F 
ATOM     96  F   UNL     1      -0.101  19.484  -6.266  1.00  0.00    -0.200 F 
ENDBRANCH  63  86
ENDBRANCH  37  38
ENDBRANCH  29  32
ENDBRANCH  27  28
ENDBRANCH  26  27
ENDBRANCH   1  26
TORSDOF 16
