REMARK SMILES Cc1noc(C)c1[C@@H](C)NC(=O)N(CC(=O)NCCCNC(=O)c1ccc(-c2c3nc(c(-c4c(F)c(F)c(F)c(F)c4F)c4ccc([nH]4)c(-c4c(F)c(F)c(F)c(F)c4F)c4nc(c(-c5c(F)c(F)c(F)c(F)c5F)c5ccc2[nH]5)C=C4)C=C3)cc1)C(C)C
REMARK SMILES IDX 18 1 17 2 15 3 16 4 14 6 13 7 11 8 10 9 12 11 8 12 9 13 7 14
REMARK SMILES IDX 1 15 2 16 3 17 4 18 5 19 6 20 87 21 88 22 89 23 19 24 20 25
REMARK SMILES IDX 21 26 22 27 23 29 24 30 25 31 86 32 26 33 85 34 27 35 28 36
REMARK SMILES IDX 29 37 79 38 30 39 84 40 78 41 80 42 31 43 83 44 77 45 76 46
REMARK SMILES IDX 32 48 64 49 44 50 63 51 45 52 48 53 62 54 81 55 46 56 47 57
REMARK SMILES IDX 61 59 82 60 49 61 33 62 34 63 42 64 35 65 36 66 40 67 43 68
REMARK SMILES IDX 37 69 38 70 41 71 39 72 65 73 66 74 74 75 67 76 68 77 72 78
REMARK SMILES IDX 75 79 69 80 70 81 73 82 71 83 50 84 51 85 59 86 52 87 53 88
REMARK SMILES IDX 57 89 60 90 54 91 55 92 58 93 56 94
REMARK H PARENT 17 5 10 10 21 28 80 47 48 58
REMARK Flexibility Score: inf
ROOT
ATOM      1  C   UNL     1       0.537   5.882  -0.666  1.00  0.00     0.117 C 
ENDROOT
BRANCH   1   2
ATOM      2  N   UNL     1       1.955   6.103  -0.512  1.00  0.00    -0.354 N 
ATOM      3  C   UNL     1       2.891   5.299   0.072  1.00  0.00     0.239 C 
ATOM      4  O   UNL     1       4.076   5.559  -0.159  1.00  0.00    -0.273 OA
ATOM      5  H   UNL     1       2.294   6.951  -0.878  1.00  0.00     0.163 HD
BRANCH   3   6
ATOM      6  C   UNL     1       2.511   4.031   0.860  1.00  0.00     0.221 C 
BRANCH   6   7
ATOM      7  N   UNL     1       1.539   4.208   1.942  1.00  0.00    -0.313 N 
BRANCH   7   8
ATOM      8  C   UNL     1       0.260   3.735   2.027  1.00  0.00     0.318 C 
ATOM      9  N   UNL     1      -0.359   2.956   1.127  1.00  0.00    -0.331 N 
ATOM     10  H   UNL     1      -1.253   2.722   1.468  1.00  0.00     0.165 HD
ATOM     11  O   UNL     1      -0.463   4.013   2.991  1.00  0.00    -0.249 OA
BRANCH   9  12
ATOM     12  C   UNL     1      -0.172   2.333  -0.183  1.00  0.00     0.116 C 
ATOM     13  C   UNL     1      -1.276   2.773  -1.155  1.00  0.00     0.036 C 
BRANCH  12  14
ATOM     14  C   UNL     1      -0.118   0.850   0.004  1.00  0.00     0.040 A 
ATOM     15  C   UNL     1      -2.647   0.117   0.152  1.00  0.00     0.071 C 
ATOM     16  C   UNL     1      -1.180  -0.099   0.138  1.00  0.00     0.086 A 
ATOM     17  N   UNL     1      -0.712  -1.347   0.245  1.00  0.00    -0.085 NA
ATOM     18  O   UNL     1       0.659  -1.243   0.208  1.00  0.00    -0.361 OA
ATOM     19  C   UNL     1       1.014   0.059   0.066  1.00  0.00     0.139 A 
ATOM     20  C   UNL     1       2.464   0.324   0.013  1.00  0.00     0.091 C 
ENDBRANCH  12  14
ENDBRANCH   9  12
ENDBRANCH   7   8
BRANCH   7  21
ATOM     21  C   UNL     1       2.099   4.964   3.103  1.00  0.00     0.081 C 
ATOM     22  C   UNL     1       1.484   6.350   3.302  1.00  0.00     0.031 C 
ATOM     23  C   UNL     1       2.102   4.162   4.409  1.00  0.00     0.031 C 
ENDBRANCH   7  21
ENDBRANCH   6   7
ENDBRANCH   3   6
ENDBRANCH   1   2
BRANCH   1  24
ATOM     24  C   UNL     1      -0.348   6.861   0.086  1.00  0.00     0.042 C 
BRANCH  24  25
ATOM     25  C   UNL     1      -0.279   8.280  -0.452  1.00  0.00     0.118 C 
BRANCH  25  26
ATOM     26  N   UNL     1      -0.900   8.399  -1.762  1.00  0.00    -0.352 N 
ATOM     27  C   UNL     1      -1.826   9.305  -2.214  1.00  0.00     0.251 C 
ATOM     28  H   UNL     1      -0.612   7.729  -2.424  1.00  0.00     0.163 HD
ATOM     29  O   UNL     1      -2.374   9.117  -3.296  1.00  0.00    -0.269 OA
BRANCH  27  30
ATOM     30  C   UNL     1      -2.182  10.493  -1.404  1.00  0.00     0.039 A 
ATOM     31  C   UNL     1      -3.510  10.928  -1.407  1.00  0.00     0.014 A 
ATOM     32  C   UNL     1      -1.220  11.204  -0.680  1.00  0.00     0.014 A 
ATOM     33  C   UNL     1      -3.877  12.047  -0.657  1.00  0.00     0.010 A 
ATOM     34  C   UNL     1      -1.602  12.267   0.134  1.00  0.00     0.010 A 
ATOM     35  C   UNL     1      -2.931  12.712   0.139  1.00  0.00    -0.014 A 
BRANCH  35  36
ATOM     36  C   UNL     1      -3.325  13.883   0.963  1.00  0.00     0.031 A 
ATOM     37  C   UNL     1      -2.748  15.244   0.681  1.00  0.00     0.074 A 
ATOM     38  C   UNL     1      -4.181  13.712   1.989  1.00  0.00     0.049 A 
ATOM     39  N   UNL     1      -2.984  16.384   1.283  1.00  0.00    -0.248 NA
ATOM     40  C   UNL     1      -1.752  15.336  -0.399  1.00  0.00     0.031 C 
ATOM     41  C   UNL     1      -4.747  12.429   2.412  1.00  0.00     0.029 A 
ATOM     42  N   UNL     1      -4.721  14.618   2.866  1.00  0.00    -0.354 N 
ATOM     43  C   UNL     1      -2.158  17.316   0.668  1.00  0.00     0.074 A 
ATOM     44  C   UNL     1      -1.375  16.604  -0.317  1.00  0.00     0.031 C 
ATOM     45  C   UNL     1      -5.577  12.635   3.447  1.00  0.00     0.029 A 
ATOM     46  C   UNL     1      -5.584  14.057   3.775  1.00  0.00     0.049 A 
ATOM     47  H   UNL     1      -4.511  15.580   2.845  1.00  0.00     0.167 HD
ATOM     48  C   UNL     1      -2.078  18.650   0.889  1.00  0.00     0.037 A 
ATOM     49  C   UNL     1      -6.305  14.627   4.759  1.00  0.00     0.037 A 
ATOM     50  C   UNL     1      -2.888  19.362   1.842  1.00  0.00     0.049 A 
ATOM     51  C   UNL     1      -6.240  16.120   4.941  1.00  0.00     0.074 A 
ATOM     52  C   UNL     1      -2.945  20.724   2.080  1.00  0.00     0.029 A 
ATOM     53  N   UNL     1      -3.786  18.766   2.715  1.00  0.00    -0.354 N 
ATOM     54  N   UNL     1      -5.527  17.004   4.287  1.00  0.00    -0.248 NA
ATOM     55  C   UNL     1      -7.096  16.695   5.988  1.00  0.00     0.031 C 
ATOM     56  C   UNL     1      -3.845  20.949   3.127  1.00  0.00     0.029 A 
ATOM     57  C   UNL     1      -4.387  19.732   3.507  1.00  0.00     0.049 A 
ATOM     58  H   UNL     1      -3.970  17.800   2.764  1.00  0.00     0.167 HD
ATOM     59  C   UNL     1      -5.863  18.238   4.825  1.00  0.00     0.074 A 
ATOM     60  C   UNL     1      -6.866  17.991   5.840  1.00  0.00     0.031 C 
ATOM     61  C   UNL     1      -5.382  19.467   4.513  1.00  0.00     0.037 A 
BRANCH  48  62
ATOM     62  C   UNL     1      -1.088  19.436   0.078  1.00  0.00     0.064 A 
ATOM     63  C   UNL     1      -1.278  19.669  -1.292  1.00  0.00     0.173 A 
ATOM     64  C   UNL     1       0.035  20.013   0.691  1.00  0.00     0.173 A 
ATOM     65  F   UNL     1      -2.329  19.130  -1.930  1.00  0.00    -0.203 F 
ATOM     66  C   UNL     1      -0.370  20.431  -2.023  1.00  0.00     0.198 A 
ATOM     67  C   UNL     1       0.924  20.799  -0.036  1.00  0.00     0.198 A 
ATOM     68  F   UNL     1       0.262  19.825   2.000  1.00  0.00    -0.203 F 
ATOM     69  F   UNL     1      -0.551  20.606  -3.339  1.00  0.00    -0.200 F 
ATOM     70  C   UNL     1       0.725  21.003  -1.393  1.00  0.00     0.200 A 
ATOM     71  F   UNL     1       1.975  21.361   0.577  1.00  0.00    -0.200 F 
ATOM     72  F   UNL     1       1.590  21.748  -2.094  1.00  0.00    -0.200 F 
ENDBRANCH  48  62
BRANCH  49  73
ATOM     73  C   UNL     1      -7.177  13.792   5.625  1.00  0.00     0.064 A 
ATOM     74  C   UNL     1      -8.574  13.883   5.547  1.00  0.00     0.173 A 
ATOM     75  C   UNL     1      -6.633  12.898   6.558  1.00  0.00     0.173 A 
ATOM     76  F   UNL     1      -9.142  14.737   4.682  1.00  0.00    -0.203 F 
ATOM     77  C   UNL     1      -9.393  13.136   6.391  1.00  0.00     0.198 A 
ATOM     78  C   UNL     1      -7.453  12.128   7.380  1.00  0.00     0.198 A 
ATOM     79  F   UNL     1      -5.303  12.767   6.667  1.00  0.00    -0.203 F 
ATOM     80  F   UNL     1     -10.723  13.284   6.333  1.00  0.00    -0.200 F 
ATOM     81  C   UNL     1      -8.832  12.256   7.304  1.00  0.00     0.200 A 
ATOM     82  F   UNL     1      -6.908  11.268   8.251  1.00  0.00    -0.200 F 
ATOM     83  F   UNL     1      -9.620  11.538   8.116  1.00  0.00    -0.200 F 
ENDBRANCH  49  73
BRANCH  61  84
ATOM     84  C   UNL     1      -5.955  20.634   5.263  1.00  0.00     0.064 A 
ATOM     85  C   UNL     1      -5.674  20.844   6.622  1.00  0.00     0.173 A 
ATOM     86  C   UNL     1      -6.788  21.557   4.614  1.00  0.00     0.173 A 
ATOM     87  F   UNL     1      -4.894  19.982   7.291  1.00  0.00    -0.203 F 
ATOM     88  C   UNL     1      -6.239  21.913   7.311  1.00  0.00     0.198 A 
ATOM     89  C   UNL     1      -7.325  22.643   5.299  1.00  0.00     0.198 A 
ATOM     90  F   UNL     1      -7.081  21.407   3.313  1.00  0.00    -0.203 F 
ATOM     91  F   UNL     1      -6.007  22.058   8.623  1.00  0.00    -0.200 F 
ATOM     92  C   UNL     1      -7.059  22.814   6.649  1.00  0.00     0.200 A 
ATOM     93  F   UNL     1      -8.106  23.521   4.654  1.00  0.00    -0.200 F 
ATOM     94  F   UNL     1      -7.604  23.841   7.316  1.00  0.00    -0.200 F 
ENDBRANCH  61  84
ENDBRANCH  35  36
ENDBRANCH  27  30
ENDBRANCH  25  26
ENDBRANCH  24  25
ENDBRANCH   1  24
TORSDOF 15
