REMARK SMILES Cc1cc(C)c(C(=O)NCCCNC(=O)c2ccc(-c3c4nc(c(-c5c(F)c(F)c(F)c(F)c5F)c5ccc([nH]5)c(-c5c(F)c(F)c(F)c(F)c5F)c5nc(c(-c6c(F)c(F)c(F)c(F)c6F)c6ccc3[nH]6)C=C5)C=C4)cc2)c(N[C@@H](CO)C(C)C)n1
REMARK SMILES IDX 10 1 9 2 7 3 8 4 6 6 1 7 2 8 3 9 87 10 4 11 79 12 5 13 80 14
REMARK SMILES IDX 81 16 82 17 83 18 84 20 85 21 86 22 11 23 12 24 13 25 14 26
REMARK SMILES IDX 15 28 16 29 17 30 78 31 18 32 77 33 19 34 20 35 21 36 71 37
REMARK SMILES IDX 22 38 76 39 70 40 72 41 23 42 75 43 69 44 68 45 24 47 56 48
REMARK SMILES IDX 36 49 55 50 37 51 40 52 54 53 73 54 38 55 39 56 53 58 74 59
REMARK SMILES IDX 41 60 25 61 26 62 34 63 27 64 28 65 32 66 35 67 29 68 30 69
REMARK SMILES IDX 33 70 31 71 57 72 58 73 66 74 59 75 60 76 64 77 67 78 61 79
REMARK SMILES IDX 62 80 65 81 63 82 42 83 43 84 51 85 44 86 45 87 49 88 52 89
REMARK SMILES IDX 46 90 47 91 50 92 48 93
REMARK H PARENT 9 5 80 15 83 19 13 27 72 46 40 57
REMARK Flexibility Score: inf
ROOT
ATOM      1  C   UNL     1       3.777   0.113   0.658  1.00  0.00     0.118 C 
ENDROOT
BRANCH   1   2
ATOM      2  N   UNL     1       3.415  -1.173   0.090  1.00  0.00    -0.352 N 
ATOM      3  C   UNL     1       2.226  -1.637  -0.430  1.00  0.00     0.255 C 
ATOM      4  O   UNL     1       2.225  -2.781  -0.891  1.00  0.00    -0.269 OA
ATOM      5  H   UNL     1       4.148  -1.831   0.074  1.00  0.00     0.163 HD
BRANCH   3   6
ATOM      6  C   UNL     1       0.952  -0.860  -0.386  1.00  0.00     0.085 A 
ATOM      7  C   UNL     1      -2.805   1.076   0.127  1.00  0.00     0.067 C 
ATOM      8  C   UNL     1      -1.482   0.414  -0.106  1.00  0.00     0.040 A 
ATOM      9  C   UNL     1      -0.391   1.145  -0.537  1.00  0.00     0.028 A 
ATOM     10  N   UNL     1      -1.413  -0.913   0.104  1.00  0.00    -0.236 NA
ATOM     11  C   UNL     1       0.835   0.498  -0.748  1.00  0.00    -0.033 A 
ATOM     12  C   UNL     1      -0.231  -1.558  -0.046  1.00  0.00     0.139 A 
ATOM     13  C   UNL     1       1.906   1.309  -1.417  1.00  0.00     0.045 C 
BRANCH  12  14
ATOM     14  N   UNL     1      -0.256  -2.932   0.147  1.00  0.00    -0.364 N 
ATOM     15  H   UNL     1       0.584  -3.408   0.338  1.00  0.00     0.162 HD
BRANCH  14  16
ATOM     16  C   UNL     1      -1.513  -3.688   0.072  1.00  0.00     0.108 C 
BRANCH  16  17
ATOM     17  C   UNL     1      -1.550  -4.455  -1.273  1.00  0.00     0.181 C 
BRANCH  17  18
ATOM     18  O   UNL     1      -0.535  -5.455  -1.353  1.00  0.00    -0.394 OA
ATOM     19  H   UNL     1       0.338  -5.036  -1.290  1.00  0.00     0.210 HD
ENDBRANCH  17  18
ENDBRANCH  16  17
BRANCH  16  20
ATOM     20  C   UNL     1      -1.631  -4.612   1.312  1.00  0.00     0.007 C 
ATOM     21  C   UNL     1      -1.546  -3.799   2.612  1.00  0.00     0.009 C 
ATOM     22  C   UNL     1      -2.952  -5.393   1.310  1.00  0.00     0.009 C 
ENDBRANCH  16  20
ENDBRANCH  14  16
ENDBRANCH  12  14
ENDBRANCH   3   6
ENDBRANCH   1   2
BRANCH   1  23
ATOM     23  C   UNL     1       4.821   0.061   1.763  1.00  0.00     0.042 C 
BRANCH  23  24
ATOM     24  C   UNL     1       6.137  -0.614   1.394  1.00  0.00     0.118 C 
BRANCH  24  25
ATOM     25  N   UNL     1       6.878   0.044   0.323  1.00  0.00    -0.352 N 
ATOM     26  C   UNL     1       8.014   0.819   0.316  1.00  0.00     0.251 C 
ATOM     27  H   UNL     1       6.487  -0.094  -0.571  1.00  0.00     0.163 HD
ATOM     28  O   UNL     1       8.385   1.320  -0.745  1.00  0.00    -0.269 OA
BRANCH  26  29
ATOM     29  C   UNL     1       8.775   1.110   1.555  1.00  0.00     0.039 A 
ATOM     30  C   UNL     1       9.352   2.377   1.710  1.00  0.00     0.014 A 
ATOM     31  C   UNL     1       8.951   0.160   2.557  1.00  0.00     0.014 A 
ATOM     32  C   UNL     1      10.005   2.712   2.902  1.00  0.00     0.010 A 
ATOM     33  C   UNL     1       9.482   0.532   3.788  1.00  0.00     0.010 A 
ATOM     34  C   UNL     1      10.024   1.811   3.977  1.00  0.00    -0.014 A 
BRANCH  34  35
ATOM     35  C   UNL     1      10.614   2.168   5.296  1.00  0.00     0.031 A 
ATOM     36  C   UNL     1      11.725   1.332   5.879  1.00  0.00     0.074 A 
ATOM     37  C   UNL     1      10.093   3.183   6.016  1.00  0.00     0.049 A 
ATOM     38  N   UNL     1      12.281   1.397   7.064  1.00  0.00    -0.248 NA
ATOM     39  C   UNL     1      12.252   0.249   5.033  1.00  0.00     0.031 C 
ATOM     40  C   UNL     1       8.974   4.030   5.601  1.00  0.00     0.029 A 
ATOM     41  N   UNL     1      10.429   3.665   7.257  1.00  0.00    -0.354 N 
ATOM     42  C   UNL     1      13.187   0.345   7.114  1.00  0.00     0.074 A 
ATOM     43  C   UNL     1      13.065  -0.379   5.868  1.00  0.00     0.031 C 
ATOM     44  C   UNL     1       8.738   4.947   6.553  1.00  0.00     0.029 A 
ATOM     45  C   UNL     1       9.658   4.727   7.664  1.00  0.00     0.049 A 
ATOM     46  H   UNL     1      11.155   3.286   7.804  1.00  0.00     0.167 HD
ATOM     47  C   UNL     1      14.065   0.027   8.096  1.00  0.00     0.037 A 
ATOM     48  C   UNL     1       9.686   5.441   8.806  1.00  0.00     0.037 A 
ATOM     49  C   UNL     1      14.228   0.782   9.310  1.00  0.00     0.049 A 
ATOM     50  C   UNL     1      10.700   5.095   9.863  1.00  0.00     0.074 A 
ATOM     51  C   UNL     1      15.141   0.589  10.331  1.00  0.00     0.029 A 
ATOM     52  N   UNL     1      13.463   1.885   9.659  1.00  0.00    -0.354 N 
ATOM     53  N   UNL     1      11.595   4.138   9.870  1.00  0.00    -0.248 NA
ATOM     54  C   UNL     1      10.712   5.936  11.068  1.00  0.00     0.031 C 
ATOM     55  C   UNL     1      14.906   1.554  11.316  1.00  0.00     0.029 A 
ATOM     56  C   UNL     1      13.877   2.376  10.887  1.00  0.00     0.049 A 
ATOM     57  H   UNL     1      12.733   2.262   9.116  1.00  0.00     0.167 HD
ATOM     58  C   UNL     1      12.295   4.279  11.060  1.00  0.00     0.074 A 
ATOM     59  C   UNL     1      11.730   5.424  11.744  1.00  0.00     0.031 C 
ATOM     60  C   UNL     1      13.313   3.526  11.545  1.00  0.00     0.037 A 
BRANCH  47  61
ATOM     61  C   UNL     1      14.931  -1.183   7.888  1.00  0.00     0.064 A 
ATOM     62  C   UNL     1      15.945  -1.205   6.918  1.00  0.00     0.173 A 
ATOM     63  C   UNL     1      14.762  -2.327   8.683  1.00  0.00     0.173 A 
ATOM     64  F   UNL     1      16.141  -0.143   6.122  1.00  0.00    -0.203 F 
ATOM     65  C   UNL     1      16.732  -2.338   6.727  1.00  0.00     0.198 A 
ATOM     66  C   UNL     1      15.573  -3.446   8.513  1.00  0.00     0.198 A 
ATOM     67  F   UNL     1      13.812  -2.358   9.630  1.00  0.00    -0.203 F 
ATOM     68  F   UNL     1      17.654  -2.355   5.755  1.00  0.00    -0.200 F 
ATOM     69  C   UNL     1      16.550  -3.454   7.529  1.00  0.00     0.200 A 
ATOM     70  F   UNL     1      15.406  -4.519   9.297  1.00  0.00    -0.200 F 
ATOM     71  F   UNL     1      17.312  -4.542   7.347  1.00  0.00    -0.200 F 
ENDBRANCH  47  61
BRANCH  48  72
ATOM     72  C   UNL     1       8.752   6.582   8.993  1.00  0.00     0.064 A 
ATOM     73  C   UNL     1       9.223   7.902   8.984  1.00  0.00     0.173 A 
ATOM     74  C   UNL     1       7.378   6.381   9.188  1.00  0.00     0.173 A 
ATOM     75  F   UNL     1      10.533   8.143   8.821  1.00  0.00    -0.203 F 
ATOM     76  C   UNL     1       8.361   8.977   9.184  1.00  0.00     0.198 A 
ATOM     77  C   UNL     1       6.511   7.459   9.361  1.00  0.00     0.198 A 
ATOM     78  F   UNL     1       6.875   5.138   9.199  1.00  0.00    -0.203 F 
ATOM     79  F   UNL     1       8.846  10.226   9.216  1.00  0.00    -0.200 F 
ATOM     80  C   UNL     1       7.004   8.756   9.367  1.00  0.00     0.200 A 
ATOM     81  F   UNL     1       5.199   7.242   9.522  1.00  0.00    -0.200 F 
ATOM     82  F   UNL     1       6.174   9.790   9.556  1.00  0.00    -0.200 F 
ENDBRANCH  48  72
BRANCH  60  83
ATOM     83  C   UNL     1      13.911   3.942  12.857  1.00  0.00     0.064 A 
ATOM     84  C   UNL     1      13.226   3.764  14.068  1.00  0.00     0.173 A 
ATOM     85  C   UNL     1      15.201   4.492  12.904  1.00  0.00     0.173 A 
ATOM     86  F   UNL     1      11.985   3.256  14.073  1.00  0.00    -0.203 F 
ATOM     87  C   UNL     1      13.802   4.147  15.276  1.00  0.00     0.198 A 
ATOM     88  C   UNL     1      15.784   4.846  14.116  1.00  0.00     0.198 A 
ATOM     89  F   UNL     1      15.899   4.677  11.773  1.00  0.00    -0.203 F 
ATOM     90  F   UNL     1      13.111   4.012  16.417  1.00  0.00    -0.200 F 
ATOM     91  C   UNL     1      15.082   4.681  15.300  1.00  0.00     0.200 A 
ATOM     92  F   UNL     1      17.026   5.350  14.139  1.00  0.00    -0.200 F 
ATOM     93  F   UNL     1      15.636   5.043  16.465  1.00  0.00    -0.200 F 
ENDBRANCH  60  83
ENDBRANCH  34  35
ENDBRANCH  26  29
ENDBRANCH  24  25
ENDBRANCH  23  24
ENDBRANCH   1  23
TORSDOF 15
