REMARK SMILES CCC[C@@](C)(NC(=O)N1CCN(C)C(=O)C1(C)C)C(=O)NCCCNC(=O)c1ccc(-c2c3nc(c(-c4c(F)c(F)c(F)c(F)c4F)c4ccc([nH]4)c(-c4c(F)c(F)c(F)c(F)c4F)c4nc(c(-c5c(F)c(F)c(F)c(F)c5F)c5ccc2[nH]5)C=C4)C=C3)cc1
REMARK SMILES IDX 23 1 22 2 21 3 19 4 20 5 4 7 5 8 3 9 2 10 1 11 6 12 7 13
REMARK SMILES IDX 8 15 9 16 10 17 16 18 11 19 14 20 17 21 18 22 12 23 15 24
REMARK SMILES IDX 13 25 24 26 25 27 26 28 27 30 28 31 29 32 90 33 30 34 89 35
REMARK SMILES IDX 31 36 32 37 33 38 83 39 34 40 88 41 82 42 84 43 35 44 87 45
REMARK SMILES IDX 81 46 80 47 36 49 68 50 48 51 67 52 49 53 52 54 66 55 85 56
REMARK SMILES IDX 50 57 51 58 65 60 86 61 53 62 37 63 38 64 46 65 39 66 40 67
REMARK SMILES IDX 44 68 47 69 41 70 42 71 45 72 43 73 69 74 70 75 78 76 71 77
REMARK SMILES IDX 72 78 76 79 79 80 73 81 74 82 77 83 75 84 54 85 55 86 63 87
REMARK SMILES IDX 56 88 57 89 61 90 64 91 58 92 59 93 62 94 60 95
REMARK H PARENT 21 6 6 14 25 29 84 48 52 59
REMARK Flexibility Score: inf
ROOT
ATOM      1  C   UNL     1      -1.389   5.709  -2.089  1.00  0.00     0.042 C 
ENDROOT
BRANCH   1   2
ATOM      2  C   UNL     1      -1.644   4.161  -2.074  1.00  0.00     0.117 C 
BRANCH   2   3
ATOM      3  N   UNL     1      -0.908   2.961  -1.480  1.00  0.00    -0.354 N 
ATOM      4  C   UNL     1      -0.353   2.179  -0.512  1.00  0.00     0.245 C 
ATOM      5  O   UNL     1      -0.618   0.991  -0.817  1.00  0.00    -0.272 OA
ATOM      6  H   UNL     1      -0.721   2.430  -2.288  1.00  0.00     0.163 HD
BRANCH   4   7
ATOM      7  C   UNL     1       0.360   2.344   0.959  1.00  0.00     0.117 C 
ATOM      8  C   UNL     1      -0.852   2.610   1.885  1.00  0.00     0.045 C 
BRANCH   7   9
ATOM      9  C   UNL     1       1.051   0.980   1.412  1.00  0.00     0.038 C 
BRANCH   9  10
ATOM     10  C   UNL     1       0.296  -0.355   1.528  1.00  0.00    -0.000 C 
ATOM     11  C   UNL     1       0.720  -1.380   0.477  1.00  0.00     0.004 C 
ENDBRANCH   9  10
ENDBRANCH   7   9
BRANCH   7  12
ATOM     12  N   UNL     1       1.431   3.363   1.409  1.00  0.00    -0.324 N 
ATOM     13  C   UNL     1       2.774   3.521   1.134  1.00  0.00     0.319 C 
ATOM     14  H   UNL     1       1.079   4.046   2.025  1.00  0.00     0.166 HD
ATOM     15  O   UNL     1       3.573   3.404   2.064  1.00  0.00    -0.249 OA
BRANCH  13  16
ATOM     16  N   UNL     1       3.166   4.014  -0.098  1.00  0.00    -0.309 N 
ATOM     17  C   UNL     1       4.555   4.041  -0.485  1.00  0.00     0.144 C 
ATOM     18  C   UNL     1       2.236   4.160  -1.190  1.00  0.00     0.118 C 
ATOM     19  C   UNL     1       4.830   2.765  -1.274  1.00  0.00     0.140 C 
ATOM     20  C   UNL     1       2.335   2.714  -1.855  1.00  0.00     0.247 C 
ATOM     21  C   UNL     1       1.141   5.054  -0.595  1.00  0.00     0.045 C 
ATOM     22  C   UNL     1       2.589   4.930  -2.495  1.00  0.00     0.045 C 
ATOM     23  N   UNL     1       3.683   2.289  -2.075  1.00  0.00    -0.342 N 
ATOM     24  O   UNL     1       1.426   2.188  -2.496  1.00  0.00    -0.272 OA
ATOM     25  C   UNL     1       3.990   1.457  -3.225  1.00  0.00     0.146 C 
ENDBRANCH  13  16
ENDBRANCH   7  12
ENDBRANCH   4   7
ENDBRANCH   2   3
ENDBRANCH   1   2
BRANCH   1  26
ATOM     26  C   UNL     1      -0.642   6.425  -3.256  1.00  0.00     0.118 C 
BRANCH  26  27
ATOM     27  N   UNL     1      -1.210   6.288  -4.589  1.00  0.00    -0.352 N 
ATOM     28  C   UNL     1      -0.938   7.057  -5.704  1.00  0.00     0.251 C 
ATOM     29  H   UNL     1      -1.865   5.563  -4.710  1.00  0.00     0.163 HD
ATOM     30  O   UNL     1      -1.555   6.880  -6.755  1.00  0.00    -0.269 OA
BRANCH  28  31
ATOM     31  C   UNL     1       0.081   8.130  -5.647  1.00  0.00     0.039 A 
ATOM     32  C   UNL     1      -0.320   9.459  -5.825  1.00  0.00     0.014 A 
ATOM     33  C   UNL     1       1.436   7.826  -5.493  1.00  0.00     0.014 A 
ATOM     34  C   UNL     1       0.632  10.485  -5.809  1.00  0.00     0.010 A 
ATOM     35  C   UNL     1       2.383   8.859  -5.444  1.00  0.00     0.010 A 
ATOM     36  C   UNL     1       1.993  10.199  -5.611  1.00  0.00    -0.014 A 
BRANCH  36  37
ATOM     37  C   UNL     1       3.000  11.301  -5.642  1.00  0.00     0.031 A 
ATOM     38  C   UNL     1       3.981  11.396  -6.783  1.00  0.00     0.074 A 
ATOM     39  C   UNL     1       3.018  12.230  -4.664  1.00  0.00     0.049 A 
ATOM     40  N   UNL     1       4.903  12.297  -7.015  1.00  0.00    -0.248 NA
ATOM     41  C   UNL     1       3.927  10.326  -7.792  1.00  0.00     0.031 C 
ATOM     42  C   UNL     1       2.142  12.234  -3.492  1.00  0.00     0.029 A 
ATOM     43  N   UNL     1       3.791  13.355  -4.502  1.00  0.00    -0.354 N 
ATOM     44  C   UNL     1       5.531  11.906  -8.192  1.00  0.00     0.074 A 
ATOM     45  C   UNL     1       4.931  10.652  -8.593  1.00  0.00     0.031 C 
ATOM     46  C   UNL     1       2.403  13.323  -2.749  1.00  0.00     0.029 A 
ATOM     47  C   UNL     1       3.482  14.082  -3.375  1.00  0.00     0.049 A 
ATOM     48  H   UNL     1       4.499  13.617  -5.133  1.00  0.00     0.167 HD
ATOM     49  C   UNL     1       6.496  12.548  -8.895  1.00  0.00     0.037 A 
ATOM     50  C   UNL     1       4.009  15.231  -2.905  1.00  0.00     0.037 A 
ATOM     51  C   UNL     1       7.077  13.806  -8.505  1.00  0.00     0.049 A 
ATOM     52  C   UNL     1       5.098  15.912  -3.697  1.00  0.00     0.074 A 
ATOM     53  C   UNL     1       8.043  14.552  -9.158  1.00  0.00     0.029 A 
ATOM     54  N   UNL     1       6.739  14.506  -7.356  1.00  0.00    -0.354 N 
ATOM     55  N   UNL     1       5.638  15.558  -4.838  1.00  0.00    -0.248 NA
ATOM     56  C   UNL     1       5.644  17.159  -3.140  1.00  0.00     0.031 C 
ATOM     57  C   UNL     1       8.321  15.682  -8.382  1.00  0.00     0.029 A 
ATOM     58  C   UNL     1       7.489  15.668  -7.274  1.00  0.00     0.049 A 
ATOM     59  H   UNL     1       6.067  14.219  -6.697  1.00  0.00     0.167 HD
ATOM     60  C   UNL     1       6.556  16.552  -5.152  1.00  0.00     0.074 A 
ATOM     61  C   UNL     1       6.487  17.534  -4.091  1.00  0.00     0.031 C 
ATOM     62  C   UNL     1       7.387  16.643  -6.219  1.00  0.00     0.037 A 
BRANCH  49  63
ATOM     63  C   UNL     1       6.976  11.910 -10.169  1.00  0.00     0.064 A 
ATOM     64  C   UNL     1       6.159  11.844 -11.308  1.00  0.00     0.173 A 
ATOM     65  C   UNL     1       8.280  11.403 -10.270  1.00  0.00     0.173 A 
ATOM     66  F   UNL     1       4.899  12.305 -11.263  1.00  0.00    -0.203 F 
ATOM     67  C   UNL     1       6.620  11.271 -12.491  1.00  0.00     0.198 A 
ATOM     68  C   UNL     1       8.749  10.859 -11.464  1.00  0.00     0.198 A 
ATOM     69  F   UNL     1       9.107  11.447  -9.215  1.00  0.00    -0.203 F 
ATOM     70  F   UNL     1       5.804  11.178 -13.551  1.00  0.00    -0.200 F 
ATOM     71  C   UNL     1       7.916  10.787 -12.571  1.00  0.00     0.200 A 
ATOM     72  F   UNL     1      10.007  10.405 -11.544  1.00  0.00    -0.200 F 
ATOM     73  F   UNL     1       8.362  10.246 -13.713  1.00  0.00    -0.200 F 
ENDBRANCH  49  63
BRANCH  50  74
ATOM     74  C   UNL     1       3.514  15.830  -1.633  1.00  0.00     0.064 A 
ATOM     75  C   UNL     1       2.858  17.071  -1.620  1.00  0.00     0.173 A 
ATOM     76  C   UNL     1       3.728  15.200  -0.398  1.00  0.00     0.173 A 
ATOM     77  F   UNL     1       2.645  17.728  -2.769  1.00  0.00    -0.203 F 
ATOM     78  C   UNL     1       2.470  17.672  -0.422  1.00  0.00     0.198 A 
ATOM     79  C   UNL     1       3.309  15.786   0.796  1.00  0.00     0.198 A 
ATOM     80  F   UNL     1       4.348  14.011  -0.349  1.00  0.00    -0.203 F 
ATOM     81  F   UNL     1       1.906  18.887  -0.437  1.00  0.00    -0.200 F 
ATOM     82  C   UNL     1       2.693  17.027   0.784  1.00  0.00     0.200 A 
ATOM     83  F   UNL     1       3.514  15.151   1.958  1.00  0.00    -0.200 F 
ATOM     84  F   UNL     1       2.326  17.607   1.935  1.00  0.00    -0.200 F 
ENDBRANCH  50  74
BRANCH  62  85
ATOM     85  C   UNL     1       8.253  17.865  -6.317  1.00  0.00     0.064 A 
ATOM     86  C   UNL     1       9.338  18.072  -5.453  1.00  0.00     0.173 A 
ATOM     87  C   UNL     1       8.020  18.820  -7.319  1.00  0.00     0.173 A 
ATOM     88  F   UNL     1       9.596  17.196  -4.470  1.00  0.00    -0.203 F 
ATOM     89  C   UNL     1      10.140  19.204  -5.570  1.00  0.00     0.198 A 
ATOM     90  C   UNL     1       8.844  19.933  -7.455  1.00  0.00     0.198 A 
ATOM     91  F   UNL     1       7.000  18.664  -8.177  1.00  0.00    -0.203 F 
ATOM     92  F   UNL     1      11.140  19.407  -4.701  1.00  0.00    -0.200 F 
ATOM     93  C   UNL     1       9.898  20.128  -6.576  1.00  0.00     0.200 A 
ATOM     94  F   UNL     1       8.618  20.816  -8.438  1.00  0.00    -0.200 F 
ATOM     95  F   UNL     1      10.677  21.212  -6.693  1.00  0.00    -0.200 F 
ENDBRANCH  62  85
ENDBRANCH  36  37
ENDBRANCH  28  31
ENDBRANCH  26  27
ENDBRANCH   1  26
TORSDOF 14
