REMARK SMILES Cc1ccc2nc(NC(=O)[C@H]3CC=CC[C@@H]3C(=O)NCCCNC(=O)c3ccc(-c4c5nc(c(-c6c(F)c(F)c(F)c(F)c6F)c6ccc([nH]6)c(-c6c(F)c(F)c(F)c(F)c6F)c6nc(c(-c7c(F)c(F)c(F)c(F)c7F)c7ccc4[nH]7)C=C6)C=C5)cc3)sc2c1
REMARK SMILES IDX 21 1 20 2 19 3 17 4 18 5 16 7 11 8 12 9 13 10 15 11 14 12
REMARK SMILES IDX 9 13 8 14 10 16 7 17 1 18 2 19 3 20 91 21 4 22 90 23 5 24
REMARK SMILES IDX 89 25 6 26 22 27 23 28 24 29 25 31 26 32 27 33 88 34 28 35
REMARK SMILES IDX 87 36 29 37 30 38 31 39 81 40 32 41 86 42 80 43 82 44 33 45
REMARK SMILES IDX 85 46 79 47 78 48 34 50 66 51 46 52 65 53 47 54 50 55 64 56
REMARK SMILES IDX 83 57 48 58 49 59 63 61 84 62 51 63 35 64 36 65 44 66 37 67
REMARK SMILES IDX 38 68 42 69 45 70 39 71 40 72 43 73 41 74 67 75 68 76 76 77
REMARK SMILES IDX 69 78 70 79 74 80 77 81 71 82 72 83 75 84 73 85 52 86 53 87
REMARK SMILES IDX 61 88 54 89 55 90 59 91 62 92 56 93 57 94 60 95 58 96
REMARK H PARENT 19 6 8 15 23 30 82 49 50 60
REMARK Flexibility Score: inf
ROOT
ATOM      1  C   UNL     1      -1.144   1.597  -1.575  1.00  0.00     0.042 C 
ENDROOT
BRANCH   1   2
ATOM      2  C   UNL     1      -1.282   0.485  -2.615  1.00  0.00     0.117 C 
BRANCH   2   3
ATOM      3  N   UNL     1      -0.717  -0.789  -2.201  1.00  0.00    -0.356 N 
ATOM      4  C   UNL     1      -1.324  -1.954  -1.812  1.00  0.00     0.224 C 
ATOM      5  O   UNL     1      -0.613  -2.953  -1.703  1.00  0.00    -0.275 OA
ATOM      6  H   UNL     1       0.268  -0.820  -2.200  1.00  0.00     0.163 HD
BRANCH   4   7
ATOM      7  C   UNL     1      -2.834  -1.979  -1.559  1.00  0.00     0.095 C 
ATOM      8  C   UNL     1      -3.199  -2.984  -0.423  1.00  0.00     0.095 C 
ATOM      9  C   UNL     1      -3.859  -4.312  -0.844  1.00  0.00     0.041 C 
ATOM     10  C   UNL     1      -3.889  -4.598  -2.310  1.00  0.00    -0.030 C 
ATOM     11  C   UNL     1      -3.570  -2.211  -2.885  1.00  0.00     0.041 C 
ATOM     12  C   UNL     1      -3.765  -3.647  -3.240  1.00  0.00    -0.030 C 
BRANCH   8  13
ATOM     13  C   UNL     1      -4.034  -2.223   0.628  1.00  0.00     0.230 C 
ATOM     14  N   UNL     1      -3.433  -1.339   1.492  1.00  0.00    -0.302 N 
ATOM     15  H   UNL     1      -4.010  -0.703   1.973  1.00  0.00     0.172 HD
ATOM     16  O   UNL     1      -5.269  -2.249   0.608  1.00  0.00    -0.274 OA
BRANCH  14  17
ATOM     17  C   UNL     1      -2.091  -1.282   1.729  1.00  0.00     0.190 A 
ATOM     18  C   UNL     1       3.754   0.369   0.962  1.00  0.00     0.044 C 
ATOM     19  C   UNL     1       2.473  -0.358   1.255  1.00  0.00    -0.050 A 
ATOM     20  C   UNL     1       2.378  -1.708   0.908  1.00  0.00     0.006 A 
ATOM     21  C   UNL     1       1.353   0.327   1.770  1.00  0.00     0.024 A 
ATOM     22  C   UNL     1       1.178  -2.397   1.051  1.00  0.00     0.030 A 
ATOM     23  C   UNL     1       0.131  -0.362   1.845  1.00  0.00     0.057 A 
ATOM     24  C   UNL     1       0.036  -1.706   1.484  1.00  0.00     0.084 A 
ATOM     25  S   UNL     1      -1.455   0.192   2.293  1.00  0.00    -0.097 S 
ATOM     26  N   UNL     1      -1.229  -2.230   1.512  1.00  0.00    -0.220 NA
ENDBRANCH  14  17
ENDBRANCH   8  13
ENDBRANCH   4   7
ENDBRANCH   2   3
ENDBRANCH   1   2
BRANCH   1  27
ATOM     27  C   UNL     1       0.289   2.002  -1.224  1.00  0.00     0.118 C 
BRANCH  27  28
ATOM     28  N   UNL     1       0.976   2.715  -2.288  1.00  0.00    -0.352 N 
ATOM     29  C   UNL     1       1.796   3.817  -2.260  1.00  0.00     0.251 C 
ATOM     30  H   UNL     1       0.828   2.343  -3.188  1.00  0.00     0.163 HD
ATOM     31  O   UNL     1       2.196   4.273  -3.335  1.00  0.00    -0.269 OA
BRANCH  29  32
ATOM     32  C   UNL     1       2.212   4.493  -1.002  1.00  0.00     0.039 A 
ATOM     33  C   UNL     1       2.406   5.880  -1.028  1.00  0.00     0.014 A 
ATOM     34  C   UNL     1       2.504   3.799   0.173  1.00  0.00     0.014 A 
ATOM     35  C   UNL     1       2.847   6.561   0.114  1.00  0.00     0.010 A 
ATOM     36  C   UNL     1       2.902   4.480   1.331  1.00  0.00     0.010 A 
ATOM     37  C   UNL     1       3.085   5.869   1.312  1.00  0.00    -0.014 A 
BRANCH  37  38
ATOM     38  C   UNL     1       3.501   6.607   2.536  1.00  0.00     0.031 A 
ATOM     39  C   UNL     1       4.892   6.476   3.093  1.00  0.00     0.074 A 
ATOM     40  C   UNL     1       2.607   7.393   3.167  1.00  0.00     0.049 A 
ATOM     41  N   UNL     1       5.441   7.107   4.102  1.00  0.00    -0.248 NA
ATOM     42  C   UNL     1       5.776   5.495   2.448  1.00  0.00     0.031 C 
ATOM     43  C   UNL     1       1.207   7.556   2.775  1.00  0.00     0.029 A 
ATOM     44  N   UNL     1       2.742   8.201   4.269  1.00  0.00    -0.354 N 
ATOM     45  C   UNL     1       6.734   6.612   4.205  1.00  0.00     0.074 A 
ATOM     46  C   UNL     1       6.869   5.583   3.194  1.00  0.00     0.031 C 
ATOM     47  C   UNL     1       0.617   8.424   3.612  1.00  0.00     0.029 A 
ATOM     48  C   UNL     1       1.592   8.873   4.602  1.00  0.00     0.049 A 
ATOM     49  H   UNL     1       3.584   8.290   4.772  1.00  0.00     0.167 HD
ATOM     50  C   UNL     1       7.727   6.996   5.045  1.00  0.00     0.037 A 
ATOM     51  C   UNL     1       1.351   9.762   5.585  1.00  0.00     0.037 A 
ATOM     52  C   UNL     1       7.597   8.021   6.050  1.00  0.00     0.049 A 
ATOM     53  C   UNL     1       2.473  10.189   6.492  1.00  0.00     0.074 A 
ATOM     54  C   UNL     1       8.565   8.520   6.906  1.00  0.00     0.029 A 
ATOM     55  N   UNL     1       6.423   8.700   6.340  1.00  0.00    -0.354 N 
ATOM     56  N   UNL     1       3.721   9.789   6.508  1.00  0.00    -0.248 NA
ATOM     57  C   UNL     1       2.156  11.209   7.502  1.00  0.00     0.031 C 
ATOM     58  C   UNL     1       7.966   9.470   7.742  1.00  0.00     0.029 A 
ATOM     59  C   UNL     1       6.636   9.597   7.375  1.00  0.00     0.049 A 
ATOM     60  H   UNL     1       5.564   8.564   5.879  1.00  0.00     0.167 HD
ATOM     61  C   UNL     1       4.344  10.525   7.508  1.00  0.00     0.074 A 
ATOM     62  C   UNL     1       3.340  11.408   8.065  1.00  0.00     0.031 C 
ATOM     63  C   UNL     1       5.633  10.473   7.923  1.00  0.00     0.037 A 
BRANCH  50  64
ATOM     64  C   UNL     1       9.058   6.313   4.907  1.00  0.00     0.064 A 
ATOM     65  C   UNL     1       9.887   6.548   3.800  1.00  0.00     0.173 A 
ATOM     66  C   UNL     1       9.535   5.460   5.913  1.00  0.00     0.173 A 
ATOM     67  F   UNL     1       9.476   7.351   2.807  1.00  0.00    -0.203 F 
ATOM     68  C   UNL     1      11.132   5.933   3.692  1.00  0.00     0.198 A 
ATOM     69  C   UNL     1      10.792   4.868   5.816  1.00  0.00     0.198 A 
ATOM     70  F   UNL     1       8.787   5.209   6.998  1.00  0.00    -0.203 F 
ATOM     71  F   UNL     1      11.887   6.139   2.604  1.00  0.00    -0.200 F 
ATOM     72  C   UNL     1      11.586   5.099   4.702  1.00  0.00     0.200 A 
ATOM     73  F   UNL     1      11.236   4.074   6.800  1.00  0.00    -0.200 F 
ATOM     74  F   UNL     1      12.788   4.515   4.601  1.00  0.00    -0.200 F 
ENDBRANCH  50  64
BRANCH  51  75
ATOM     75  C   UNL     1      -0.005  10.349   5.726  1.00  0.00     0.064 A 
ATOM     76  C   UNL     1      -0.253  11.684   5.381  1.00  0.00     0.173 A 
ATOM     77  C   UNL     1      -1.081   9.584   6.199  1.00  0.00     0.173 A 
ATOM     78  F   UNL     1       0.750  12.459   4.942  1.00  0.00    -0.203 F 
ATOM     79  C   UNL     1      -1.524  12.238   5.518  1.00  0.00     0.198 A 
ATOM     80  C   UNL     1      -2.357  10.132   6.311  1.00  0.00     0.198 A 
ATOM     81  F   UNL     1      -0.895   8.299   6.536  1.00  0.00    -0.203 F 
ATOM     82  F   UNL     1      -1.726  13.528   5.216  1.00  0.00    -0.200 F 
ATOM     83  C   UNL     1      -2.576  11.460   5.977  1.00  0.00     0.200 A 
ATOM     84  F   UNL     1      -3.374   9.373   6.742  1.00  0.00    -0.200 F 
ATOM     85  F   UNL     1      -3.800  11.991   6.102  1.00  0.00    -0.200 F 
ENDBRANCH  51  75
BRANCH  63  86
ATOM     86  C   UNL     1       6.041  11.416   9.019  1.00  0.00     0.064 A 
ATOM     87  C   UNL     1       5.618  11.232  10.343  1.00  0.00     0.173 A 
ATOM     88  C   UNL     1       6.886  12.502   8.744  1.00  0.00     0.173 A 
ATOM     89  F   UNL     1       4.797  10.218  10.655  1.00  0.00    -0.203 F 
ATOM     90  C   UNL     1       6.003  12.117  11.347  1.00  0.00     0.198 A 
ATOM     91  C   UNL     1       7.291  13.369   9.755  1.00  0.00     0.198 A 
ATOM     92  F   UNL     1       7.323  12.720   7.495  1.00  0.00    -0.203 F 
ATOM     93  F   UNL     1       5.547  11.950  12.597  1.00  0.00    -0.200 F 
ATOM     94  C   UNL     1       6.844  13.181  11.054  1.00  0.00     0.200 A 
ATOM     95  F   UNL     1       8.112  14.390   9.472  1.00  0.00    -0.200 F 
ATOM     96  F   UNL     1       7.215  14.030  12.022  1.00  0.00    -0.200 F 
ENDBRANCH  63  86
ENDBRANCH  37  38
ENDBRANCH  29  32
ENDBRANCH  27  28
ENDBRANCH   1  27
TORSDOF 12
