REMARK SMILES CC(C)Nc1ncc(C(=O)N2CCC[C@H](c3cccc(C(=O)NCCCNC(=O)c4ccc(-c5c6nc(c(-c7c(F)c(F)c(F)c(F)c7F)c7ccc([nH]7)c(-c7c(F)c(F)c(F)c(F)c7F)c7nc(c(-c8c(F)c(F)c(F)c(F)c8F)c8ccc5[nH]8)C=C7)C=C6)cc4)c3)C2)cn1
REMARK SMILES IDX 21 1 22 2 23 3 20 5 16 6 17 7 93 8 18 9 19 10 15 11 11 12
REMARK SMILES IDX 12 13 94 14 13 15 14 16 9 17 10 18 8 19 5 20 6 21 96 22 7 23
REMARK SMILES IDX 95 24 4 25 2 27 1 28 3 29 24 30 25 31 26 32 27 33 28 34
REMARK SMILES IDX 29 36 30 37 31 38 92 39 32 40 91 41 33 42 34 43 35 44 85 45
REMARK SMILES IDX 36 46 90 47 84 48 86 49 37 50 89 51 83 52 82 53 38 55 70 56
REMARK SMILES IDX 50 57 69 58 51 59 54 60 68 61 87 62 52 63 53 64 67 66 88 67
REMARK SMILES IDX 55 68 39 69 40 70 48 71 41 72 42 73 46 74 49 75 43 76 44 77
REMARK SMILES IDX 47 78 45 79 71 80 72 81 80 82 73 83 74 84 78 85 81 86 75 87
REMARK SMILES IDX 76 88 79 89 77 90 56 91 57 92 65 93 58 94 59 95 63 96 66 97
REMARK SMILES IDX 60 98 61 99 64 100 62 101
REMARK H PARENT 23 4 4 26 27 35 86 54 54 65
REMARK Flexibility Score: inf
ROOT
ATOM      1  C   UNL     1      -3.994  11.339  -3.933  1.00  0.00     0.251 C 
ATOM      2  O   UNL     1      -3.255  12.037  -4.630  1.00  0.00    -0.269 OA
ATOM      3  N   UNL     1      -5.090  11.956  -3.372  1.00  0.00    -0.352 N 
ATOM      4  H   UNL     1      -5.165  12.902  -3.633  1.00  0.00     0.163 HD
ENDROOT
BRANCH   1   5
ATOM      5  C   UNL     1      -3.623   9.915  -3.696  1.00  0.00     0.040 A 
ATOM      6  C   UNL     1      -4.161   7.660  -2.878  1.00  0.00    -0.042 A 
ATOM      7  C   UNL     1      -2.808   7.321  -3.012  1.00  0.00     0.004 A 
ATOM      8  C   UNL     1      -4.543   8.933  -3.334  1.00  0.00     0.018 A 
ATOM      9  C   UNL     1      -1.889   8.236  -3.538  1.00  0.00     0.001 A 
ATOM     10  C   UNL     1      -2.286   9.539  -3.843  1.00  0.00     0.014 A 
BRANCH   6  11
ATOM     11  C   UNL     1      -5.177   6.789  -2.124  1.00  0.00     0.039 C 
ATOM     12  N   UNL     1      -5.120   4.643  -3.378  1.00  0.00    -0.338 N 
ATOM     13  C   UNL     1      -6.429   4.872  -3.985  1.00  0.00     0.120 C 
ATOM     14  C   UNL     1      -4.875   5.274  -2.077  1.00  0.00     0.128 C 
ATOM     15  C   UNL     1      -6.839   6.339  -3.976  1.00  0.00     0.022 C 
ATOM     16  C   UNL     1      -6.646   6.942  -2.586  1.00  0.00     0.012 C 
BRANCH  12  17
ATOM     17  C   UNL     1      -4.196   3.859  -4.057  1.00  0.00     0.257 C 
ATOM     18  O   UNL     1      -4.174   3.740  -5.277  1.00  0.00    -0.269 OA
BRANCH  17  19
ATOM     19  C   UNL     1      -3.267   3.034  -3.275  1.00  0.00     0.076 A 
ATOM     20  C   UNL     1      -1.643   1.281  -1.977  1.00  0.00     0.222 A 
ATOM     21  N   UNL     1      -2.892   1.444  -1.517  1.00  0.00    -0.221 NA
ATOM     22  N   UNL     1      -1.147   1.938  -3.037  1.00  0.00    -0.221 NA
ATOM     23  C   UNL     1      -3.680   2.313  -2.180  1.00  0.00     0.130 A 
ATOM     24  C   UNL     1      -1.982   2.784  -3.687  1.00  0.00     0.130 A 
BRANCH  20  25
ATOM     25  N   UNL     1      -0.890   0.379  -1.287  1.00  0.00    -0.352 N 
ATOM     26  H   UNL     1      -1.347  -0.205  -0.639  1.00  0.00     0.163 HD
BRANCH  25  27
ATOM     27  C   UNL     1       0.535   0.226  -1.449  1.00  0.00     0.076 C 
ATOM     28  C   UNL     1       1.147   0.046  -0.059  1.00  0.00     0.030 C 
ATOM     29  C   UNL     1       0.839  -0.983  -2.328  1.00  0.00     0.030 C 
ENDBRANCH  25  27
ENDBRANCH  20  25
ENDBRANCH  17  19
ENDBRANCH  12  17
ENDBRANCH   6  11
ENDBRANCH   1   5
BRANCH   3  30
ATOM     30  C   UNL     1      -6.164  11.536  -2.481  1.00  0.00     0.118 C 
BRANCH  30  31
ATOM     31  C   UNL     1      -6.023  12.047  -1.056  1.00  0.00     0.042 C 
BRANCH  31  32
ATOM     32  C   UNL     1      -6.327  13.529  -0.901  1.00  0.00     0.118 C 
BRANCH  32  33
ATOM     33  N   UNL     1      -7.687  13.866  -1.308  1.00  0.00    -0.352 N 
ATOM     34  C   UNL     1      -8.798  14.223  -0.586  1.00  0.00     0.251 C 
ATOM     35  H   UNL     1      -7.835  13.831  -2.280  1.00  0.00     0.163 HD
ATOM     36  O   UNL     1      -9.893  14.223  -1.143  1.00  0.00    -0.269 OA
BRANCH  34  37
ATOM     37  C   UNL     1      -8.709  14.607   0.841  1.00  0.00     0.039 A 
ATOM     38  C   UNL     1      -9.790  14.324   1.683  1.00  0.00     0.014 A 
ATOM     39  C   UNL     1      -7.614  15.312   1.342  1.00  0.00     0.014 A 
ATOM     40  C   UNL     1      -9.749  14.704   3.027  1.00  0.00     0.010 A 
ATOM     41  C   UNL     1      -7.528  15.599   2.701  1.00  0.00     0.010 A 
ATOM     42  C   UNL     1      -8.604  15.321   3.554  1.00  0.00    -0.014 A 
BRANCH  42  43
ATOM     43  C   UNL     1      -8.527  15.726   4.980  1.00  0.00     0.031 A 
ATOM     44  C   UNL     1      -8.370  17.180   5.342  1.00  0.00     0.074 A 
ATOM     45  C   UNL     1      -8.531  14.785   5.943  1.00  0.00     0.049 A 
ATOM     46  N   UNL     1      -8.208  17.728   6.520  1.00  0.00    -0.248 NA
ATOM     47  C   UNL     1      -8.355  18.143   4.229  1.00  0.00     0.031 C 
ATOM     48  C   UNL     1      -8.620  13.341   5.715  1.00  0.00     0.029 A 
ATOM     49  N   UNL     1      -8.450  14.901   7.307  1.00  0.00    -0.354 N 
ATOM     50  C   UNL     1      -8.041  19.087   6.284  1.00  0.00     0.074 A 
ATOM     51  C   UNL     1      -8.070  19.277   4.851  1.00  0.00     0.031 C 
ATOM     52  C   UNL     1      -8.619  12.709   6.899  1.00  0.00     0.029 A 
ATOM     53  C   UNL     1      -8.495  13.697   7.966  1.00  0.00     0.049 A 
ATOM     54  H   UNL     1      -8.367  15.765   7.771  1.00  0.00     0.167 HD
ATOM     55  C   UNL     1      -7.901  20.090   7.183  1.00  0.00     0.037 A 
ATOM     56  C   UNL     1      -8.442  13.424   9.283  1.00  0.00     0.037 A 
ATOM     57  C   UNL     1      -7.934  19.904   8.609  1.00  0.00     0.049 A 
ATOM     58  C   UNL     1      -8.324  14.561  10.261  1.00  0.00     0.074 A 
ATOM     59  C   UNL     1      -7.899  20.862   9.606  1.00  0.00     0.029 A 
ATOM     60  N   UNL     1      -8.017  18.671   9.239  1.00  0.00    -0.354 N 
ATOM     61  N   UNL     1      -8.250  15.849  10.029  1.00  0.00    -0.248 NA
ATOM     62  C   UNL     1      -8.290  14.205  11.687  1.00  0.00     0.031 C 
ATOM     63  C   UNL     1      -7.921  20.207  10.842  1.00  0.00     0.029 A 
ATOM     64  C   UNL     1      -8.013  18.843  10.614  1.00  0.00     0.049 A 
ATOM     65  H   UNL     1      -8.070  17.803   8.778  1.00  0.00     0.167 HD
ATOM     66  C   UNL     1      -8.190  16.458  11.275  1.00  0.00     0.074 A 
ATOM     67  C   UNL     1      -8.252  15.399  12.261  1.00  0.00     0.031 C 
ATOM     68  C   UNL     1      -8.089  17.775  11.577  1.00  0.00     0.037 A 
BRANCH  55  69
ATOM     69  C   UNL     1      -7.713  21.482   6.654  1.00  0.00     0.064 A 
ATOM     70  C   UNL     1      -8.754  22.179   6.022  1.00  0.00     0.173 A 
ATOM     71  C   UNL     1      -6.486  22.143   6.814  1.00  0.00     0.173 A 
ATOM     72  F   UNL     1      -9.944  21.588   5.832  1.00  0.00    -0.203 F 
ATOM     73  C   UNL     1      -8.566  23.473   5.545  1.00  0.00     0.198 A 
ATOM     74  C   UNL     1      -6.310  23.449   6.363  1.00  0.00     0.198 A 
ATOM     75  F   UNL     1      -5.458  21.525   7.416  1.00  0.00    -0.203 F 
ATOM     76  F   UNL     1      -9.561  24.100   4.902  1.00  0.00    -0.200 F 
ATOM     77  C   UNL     1      -7.347  24.110   5.723  1.00  0.00     0.200 A 
ATOM     78  F   UNL     1      -5.135  24.067   6.546  1.00  0.00    -0.200 F 
ATOM     79  F   UNL     1      -7.169  25.359   5.271  1.00  0.00    -0.200 F 
ENDBRANCH  55  69
BRANCH  56  80
ATOM     80  C   UNL     1      -8.542  12.020   9.759  1.00  0.00     0.064 A 
ATOM     81  C   UNL     1      -9.685  11.574  10.438  1.00  0.00     0.173 A 
ATOM     82  C   UNL     1      -7.503  11.101   9.556  1.00  0.00     0.173 A 
ATOM     83  F   UNL     1     -10.697  12.423  10.672  1.00  0.00    -0.203 F 
ATOM     84  C   UNL     1      -9.774  10.270  10.919  1.00  0.00     0.198 A 
ATOM     85  C   UNL     1      -7.605   9.788  10.014  1.00  0.00     0.198 A 
ATOM     86  F   UNL     1      -6.392  11.475   8.905  1.00  0.00    -0.203 F 
ATOM     87  F   UNL     1     -10.858   9.885  11.607  1.00  0.00    -0.200 F 
ATOM     88  C   UNL     1      -8.736   9.377  10.703  1.00  0.00     0.200 A 
ATOM     89  F   UNL     1      -6.607   8.923   9.790  1.00  0.00    -0.200 F 
ATOM     90  F   UNL     1      -8.823   8.122  11.164  1.00  0.00    -0.200 F 
ENDBRANCH  56  80
BRANCH  68  91
ATOM     91  C   UNL     1      -8.074  18.145  13.030  1.00  0.00     0.064 A 
ATOM     92  C   UNL     1      -6.956  17.896  13.839  1.00  0.00     0.173 A 
ATOM     93  C   UNL     1      -9.179  18.786  13.610  1.00  0.00     0.173 A 
ATOM     94  F   UNL     1      -5.883  17.270  13.333  1.00  0.00    -0.203 F 
ATOM     95  C   UNL     1      -6.955  18.253  15.184  1.00  0.00     0.198 A 
ATOM     96  C   UNL     1      -9.163  19.168  14.948  1.00  0.00     0.198 A 
ATOM     97  F   UNL     1     -10.270  19.052  12.876  1.00  0.00    -0.203 F 
ATOM     98  F   UNL     1      -5.895  17.962  15.951  1.00  0.00    -0.200 F 
ATOM     99  C   UNL     1      -8.055  18.894  15.736  1.00  0.00     0.200 A 
ATOM    100  F   UNL     1     -10.221  19.798  15.476  1.00  0.00    -0.200 F 
ATOM    101  F   UNL     1      -8.050  19.241  17.030  1.00  0.00    -0.200 F 
ENDBRANCH  68  91
ENDBRANCH  42  43
ENDBRANCH  34  37
ENDBRANCH  32  33
ENDBRANCH  31  32
ENDBRANCH  30  31
ENDBRANCH   3  30
TORSDOF 15
