REMARK SMILES CC[C@H](NC(=O)Cc1c(C)c2cc(Cl)c(OC)cc2oc1=O)C(=O)NCCCNC(=O)c1ccc(-c2c3nc(c(-c4c(F)c(F)c(F)c(F)c4F)c4ccc([nH]4)c(-c4c(F)c(F)c(F)c(F)c4F)c4nc(c(-c5c(F)c(F)c(F)c(F)c5F)c5ccc2[nH]5)C=C4)C=C3)cc1
REMARK SMILES IDX 26 1 25 2 23 3 24 4 3 6 2 7 1 8 4 9 5 10 6 12 7 13 8 14 9 15
REMARK SMILES IDX 21 16 10 17 11 18 20 19 22 20 12 21 19 22 13 23 18 24 14 25
REMARK SMILES IDX 15 26 16 27 17 28 27 29 28 30 29 31 30 32 31 34 32 35 33 36
REMARK SMILES IDX 94 37 34 38 93 39 35 40 36 41 37 42 87 43 38 44 92 45 86 46
REMARK SMILES IDX 88 47 39 48 91 49 85 50 84 51 40 53 72 54 52 55 71 56 53 57
REMARK SMILES IDX 56 58 70 59 89 60 54 61 55 62 69 64 90 65 57 66 41 67 42 68
REMARK SMILES IDX 50 69 43 70 44 71 48 72 51 73 45 74 46 75 49 76 47 77 73 78
REMARK SMILES IDX 74 79 82 80 75 81 76 82 80 83 83 84 77 85 78 86 81 87 79 88
REMARK SMILES IDX 58 89 59 90 67 91 60 92 61 93 65 94 68 95 62 96 63 97 66 98
REMARK SMILES IDX 64 99
REMARK H PARENT 25 5 4 11 29 33 88 52 56 63
REMARK Flexibility Score: inf
ROOT
ATOM      1  C   UNL     1      -2.513  -0.868  -2.787  1.00  0.00     0.117 C 
ENDROOT
BRANCH   1   2
ATOM      2  N   UNL     1      -1.488  -0.475  -3.727  1.00  0.00    -0.354 N 
ATOM      3  C   UNL     1      -0.147  -0.316  -3.582  1.00  0.00     0.242 C 
ATOM      4  O   UNL     1       0.526  -0.457  -4.612  1.00  0.00    -0.273 OA
ATOM      5  H   UNL     1      -1.822  -0.289  -4.635  1.00  0.00     0.163 HD
BRANCH   3   6
ATOM      6  C   UNL     1       0.574  -0.083  -2.239  1.00  0.00     0.171 C 
BRANCH   6   7
ATOM      7  C   UNL     1       0.749  -1.438  -1.505  1.00  0.00     0.031 C 
ATOM      8  C   UNL     1      -0.170  -1.710  -0.313  1.00  0.00     0.006 C 
ENDBRANCH   6   7
BRANCH   6   9
ATOM      9  N   UNL     1       0.106   0.972  -1.342  1.00  0.00    -0.344 N 
ATOM     10  C   UNL     1      -0.042   2.312  -1.550  1.00  0.00     0.225 C 
ATOM     11  H   UNL     1      -0.143   0.665  -0.441  1.00  0.00     0.164 HD
ATOM     12  O   UNL     1       0.006   3.033  -0.550  1.00  0.00    -0.275 OA
BRANCH  10  13
ATOM     13  C   UNL     1      -0.492   2.870  -2.901  1.00  0.00     0.143 C 
BRANCH  13  14
ATOM     14  C   UNL     1       0.506   3.004  -4.018  1.00  0.00     0.051 A 
ATOM     15  C   UNL     1       0.286   2.606  -5.293  1.00  0.00    -0.029 A 
ATOM     16  C   UNL     1       1.753   3.733  -3.654  1.00  0.00     0.340 A 
ATOM     17  C   UNL     1      -1.036   2.130  -5.847  1.00  0.00     0.046 C 
ATOM     18  C   UNL     1       1.412   2.627  -6.240  1.00  0.00     0.023 A 
ATOM     19  O   UNL     1       2.665   3.982  -4.664  1.00  0.00    -0.422 OA
ATOM     20  O   UNL     1       1.942   4.169  -2.526  1.00  0.00    -0.246 OA
ATOM     21  C   UNL     1       1.423   1.921  -7.449  1.00  0.00     0.036 A 
ATOM     22  C   UNL     1       2.553   3.339  -5.903  1.00  0.00     0.142 A 
ATOM     23  C   UNL     1       2.547   1.952  -8.285  1.00  0.00     0.083 A 
ATOM     24  C   UNL     1       3.666   3.418  -6.742  1.00  0.00     0.095 A 
ATOM     25  Cl  UNL     1       2.498   1.006  -9.733  1.00  0.00    -0.080 Cl
ATOM     26  C   UNL     1       3.677   2.711  -7.945  1.00  0.00     0.141 A 
BRANCH  26  27
ATOM     27  O   UNL     1       4.730   2.686  -8.819  1.00  0.00    -0.495 OA
ATOM     28  C   UNL     1       5.877   3.453  -8.479  1.00  0.00     0.278 C 
ENDBRANCH  26  27
ENDBRANCH  13  14
ENDBRANCH  10  13
ENDBRANCH   6   9
ENDBRANCH   3   6
ENDBRANCH   1   2
BRANCH   1  29
ATOM     29  C   UNL     1      -3.254   0.261  -2.089  1.00  0.00     0.042 C 
BRANCH  29  30
ATOM     30  C   UNL     1      -3.979   1.262  -2.982  1.00  0.00     0.118 C 
BRANCH  30  31
ATOM     31  N   UNL     1      -4.861   0.685  -3.979  1.00  0.00    -0.352 N 
ATOM     32  C   UNL     1      -6.088   1.141  -4.395  1.00  0.00     0.251 C 
ATOM     33  H   UNL     1      -4.538  -0.138  -4.413  1.00  0.00     0.163 HD
ATOM     34  O   UNL     1      -6.725   0.527  -5.246  1.00  0.00    -0.269 OA
BRANCH  32  35
ATOM     35  C   UNL     1      -6.657   2.357  -3.779  1.00  0.00     0.039 A 
ATOM     36  C   UNL     1      -5.925   3.547  -3.736  1.00  0.00     0.014 A 
ATOM     37  C   UNL     1      -7.929   2.288  -3.206  1.00  0.00     0.014 A 
ATOM     38  C   UNL     1      -6.414   4.626  -3.005  1.00  0.00     0.010 A 
ATOM     39  C   UNL     1      -8.446   3.396  -2.528  1.00  0.00     0.010 A 
ATOM     40  C   UNL     1      -7.676   4.561  -2.388  1.00  0.00    -0.014 A 
BRANCH  40  41
ATOM     41  C   UNL     1      -8.173   5.730  -1.617  1.00  0.00     0.031 A 
ATOM     42  C   UNL     1      -8.343   5.657  -0.124  1.00  0.00     0.074 A 
ATOM     43  C   UNL     1      -8.422   6.883  -2.267  1.00  0.00     0.049 A 
ATOM     44  N   UNL     1      -8.696   6.602   0.712  1.00  0.00    -0.248 NA
ATOM     45  C   UNL     1      -8.089   4.358   0.517  1.00  0.00     0.031 C 
ATOM     46  C   UNL     1      -8.303   7.070  -3.714  1.00  0.00     0.029 A 
ATOM     47  N   UNL     1      -8.795   8.118  -1.800  1.00  0.00    -0.354 N 
ATOM     48  C   UNL     1      -8.711   6.013   1.969  1.00  0.00     0.074 A 
ATOM     49  C   UNL     1      -8.368   4.620   1.787  1.00  0.00     0.031 C 
ATOM     50  C   UNL     1      -8.537   8.357  -4.010  1.00  0.00     0.029 A 
ATOM     51  C   UNL     1      -8.870   9.075  -2.783  1.00  0.00     0.049 A 
ATOM     52  H   UNL     1      -8.990   8.300  -0.853  1.00  0.00     0.167 HD
ATOM     53  C   UNL     1      -8.969   6.590   3.167  1.00  0.00     0.037 A 
ATOM     54  C   UNL     1      -9.169  10.386  -2.706  1.00  0.00     0.037 A 
ATOM     55  C   UNL     1      -9.287   7.982   3.348  1.00  0.00     0.049 A 
ATOM     56  C   UNL     1      -9.479  10.993  -1.367  1.00  0.00     0.074 A 
ATOM     57  C   UNL     1      -9.533   8.663   4.529  1.00  0.00     0.029 A 
ATOM     58  N   UNL     1      -9.401   8.908   2.322  1.00  0.00    -0.354 N 
ATOM     59  N   UNL     1      -9.458  10.431  -0.183  1.00  0.00    -0.248 NA
ATOM     60  C   UNL     1      -9.862  12.412  -1.351  1.00  0.00     0.031 C 
ATOM     61  C   UNL     1      -9.838   9.989   4.214  1.00  0.00     0.029 A 
ATOM     62  C   UNL     1      -9.737  10.148   2.841  1.00  0.00     0.049 A 
ATOM     63  H   UNL     1      -9.264   8.713   1.366  1.00  0.00     0.167 HD
ATOM     64  C   UNL     1      -9.807  11.427   0.718  1.00  0.00     0.074 A 
ATOM     65  C   UNL     1     -10.023  12.633  -0.053  1.00  0.00     0.031 C 
ATOM     66  C   UNL     1      -9.939  11.343   2.063  1.00  0.00     0.037 A 
BRANCH  53  67
ATOM     67  C   UNL     1      -8.912   5.727   4.394  1.00  0.00     0.064 A 
ATOM     68  C   UNL     1      -7.691   5.283   4.920  1.00  0.00     0.173 A 
ATOM     69  C   UNL     1     -10.084   5.419   5.103  1.00  0.00     0.173 A 
ATOM     70  F   UNL     1      -6.544   5.545   4.276  1.00  0.00    -0.203 F 
ATOM     71  C   UNL     1      -7.644   4.555   6.106  1.00  0.00     0.198 A 
ATOM     72  C   UNL     1     -10.031   4.712   6.301  1.00  0.00     0.198 A 
ATOM     73  F   UNL     1     -11.277   5.827   4.647  1.00  0.00    -0.203 F 
ATOM     74  F   UNL     1      -6.467   4.120   6.578  1.00  0.00    -0.200 F 
ATOM     75  C   UNL     1      -8.812   4.279   6.801  1.00  0.00     0.200 A 
ATOM     76  F   UNL     1     -11.160   4.458   6.979  1.00  0.00    -0.200 F 
ATOM     77  F   UNL     1      -8.764   3.594   7.952  1.00  0.00    -0.200 F 
ENDBRANCH  53  67
BRANCH  54  78
ATOM     78  C   UNL     1      -9.154  11.211  -3.940  1.00  0.00     0.064 A 
ATOM     79  C   UNL     1      -8.153  12.168  -4.152  1.00  0.00     0.173 A 
ATOM     80  C   UNL     1     -10.110  11.031  -4.951  1.00  0.00     0.173 A 
ATOM     81  F   UNL     1      -7.227  12.389  -3.206  1.00  0.00    -0.203 F 
ATOM     82  C   UNL     1      -8.109  12.915  -5.327  1.00  0.00     0.198 A 
ATOM     83  C   UNL     1     -10.050  11.758  -6.137  1.00  0.00     0.198 A 
ATOM     84  F   UNL     1     -11.086  10.124  -4.797  1.00  0.00    -0.203 F 
ATOM     85  F   UNL     1      -7.155  13.841  -5.495  1.00  0.00    -0.200 F 
ATOM     86  C   UNL     1      -9.051  12.702  -6.323  1.00  0.00     0.200 A 
ATOM     87  F   UNL     1     -10.951  11.537  -7.103  1.00  0.00    -0.200 F 
ATOM     88  F   UNL     1      -8.997  13.407  -7.461  1.00  0.00    -0.200 F 
ENDBRANCH  54  78
BRANCH  66  89
ATOM     89  C   UNL     1     -10.324  12.585   2.808  1.00  0.00     0.064 A 
ATOM     90  C   UNL     1     -11.642  13.061   2.796  1.00  0.00     0.173 A 
ATOM     91  C   UNL     1      -9.392  13.241   3.626  1.00  0.00     0.173 A 
ATOM     92  F   UNL     1     -12.565  12.473   2.021  1.00  0.00    -0.203 F 
ATOM     93  C   UNL     1     -12.014  14.150   3.579  1.00  0.00     0.198 A 
ATOM     94  C   UNL     1      -9.772  14.315   4.425  1.00  0.00     0.198 A 
ATOM     95  F   UNL     1      -8.120  12.816   3.676  1.00  0.00    -0.203 F 
ATOM     96  F   UNL     1     -13.276  14.600   3.543  1.00  0.00    -0.200 F 
ATOM     97  C   UNL     1     -11.083  14.768   4.401  1.00  0.00     0.200 A 
ATOM     98  F   UNL     1      -8.875  14.901   5.229  1.00  0.00    -0.200 F 
ATOM     99  F   UNL     1     -11.449  15.800   5.174  1.00  0.00    -0.200 F 
ENDBRANCH  66  89
ENDBRANCH  40  41
ENDBRANCH  32  35
ENDBRANCH  30  31
ENDBRANCH  29  30
ENDBRANCH   1  29
TORSDOF 15
