REMARK SMILES C[C@H](O)C[NH2+][C@H](CC(=O)Nc1cccc2ccccc12)C(=O)NCCCNC(=O)c1ccc(-c2c3nc(c(-c4c(F)c(F)c(F)c(F)c4F)c4ccc([nH]4)c(-c4c(F)c(F)c(F)c(F)c4F)c4nc(c(-c5c(F)c(F)c(F)c(F)c5F)c5ccc2[nH]5)C=C4)C=C3)cc1
REMARK SMILES IDX 24 1 23 2 21 3 22 4 6 6 5 7 4 10 2 11 1 12 3 13 7 15 8 16
REMARK SMILES IDX 9 17 10 18 11 20 12 21 20 22 13 23 15 24 19 25 14 26 16 27
REMARK SMILES IDX 18 28 17 29 25 30 26 31 27 32 28 33 29 35 30 36 31 37 92 38
REMARK SMILES IDX 32 39 91 40 33 41 34 42 35 43 85 44 36 45 90 46 84 47 86 48
REMARK SMILES IDX 37 49 89 50 83 51 82 52 38 54 70 55 50 56 69 57 51 58 54 59
REMARK SMILES IDX 68 60 87 61 52 62 53 63 67 65 88 66 55 67 39 68 40 69 48 70
REMARK SMILES IDX 41 71 42 72 46 73 49 74 43 75 44 76 47 77 45 78 71 79 72 80
REMARK SMILES IDX 80 81 73 82 74 83 78 84 81 85 75 86 76 87 79 88 77 89 56 90
REMARK SMILES IDX 57 91 65 92 58 93 59 94 63 95 66 96 60 97 61 98 64 99 62 100
REMARK H PARENT 23 5 5 8 5 9 3 14 10 19 27 34 86 53 54 64
REMARK Flexibility Score: inf
ROOT
ATOM      1  C   UNL     1      -2.289  -0.805   2.673  1.00  0.00     0.118 C 
ENDROOT
BRANCH   1   2
ATOM      2  N   UNL     1      -3.224   0.302   2.769  1.00  0.00    -0.351 N 
ATOM      3  C   UNL     1      -3.690   1.142   1.807  1.00  0.00     0.278 C 
ATOM      4  O   UNL     1      -4.561   1.957   2.122  1.00  0.00    -0.268 OA
ATOM      5  H   UNL     1      -3.576   0.471   3.673  1.00  0.00     0.163 HD
BRANCH   3   6
ATOM      6  C   UNL     1      -3.144   1.089   0.369  1.00  0.00     0.282 C 
BRANCH   6   7
ATOM      7  N   UNL     1      -3.362  -0.276  -0.178  1.00  0.00    -0.333 N 
ATOM      8  H   UNL     1      -2.792  -0.933   0.355  1.00  0.00     0.347 HD
ATOM      9  H   UNL     1      -4.359  -0.476  -0.098  1.00  0.00     0.347 HD
BRANCH   7  10
ATOM     10  C   UNL     1      -3.010  -0.401  -1.599  1.00  0.00     0.292 C 
BRANCH  10  11
ATOM     11  C   UNL     1      -3.414  -1.802  -2.098  1.00  0.00     0.166 C 
ATOM     12  C   UNL     1      -3.058  -1.995  -3.562  1.00  0.00     0.044 C 
BRANCH  11  13
ATOM     13  O   UNL     1      -4.827  -1.976  -1.960  1.00  0.00    -0.388 OA
ATOM     14  H   UNL     1      -5.288  -1.317  -2.501  1.00  0.00     0.211 HD
ENDBRANCH  11  13
ENDBRANCH  10  11
ENDBRANCH   7  10
ENDBRANCH   6   7
BRANCH   6  15
ATOM     15  C   UNL     1      -1.737   1.681   0.253  1.00  0.00     0.175 C 
BRANCH  15  16
ATOM     16  C   UNL     1      -1.326   2.671   1.338  1.00  0.00     0.230 C 
ATOM     17  O   UNL     1      -0.662   2.284   2.307  1.00  0.00    -0.274 OA
ATOM     18  N   UNL     1      -1.528   4.013   1.245  1.00  0.00    -0.325 N 
ATOM     19  H   UNL     1      -1.077   4.532   1.950  1.00  0.00     0.169 HD
BRANCH  18  20
ATOM     20  C   UNL     1      -2.255   4.804   0.338  1.00  0.00     0.049 A 
ATOM     21  C   UNL     1      -3.507   4.396  -0.118  1.00  0.00     0.027 A 
ATOM     22  C   UNL     1      -1.762   6.085  -0.036  1.00  0.00     0.005 A 
ATOM     23  C   UNL     1      -4.221   5.140  -1.049  1.00  0.00     0.003 A 
ATOM     24  C   UNL     1      -2.505   6.845  -0.976  1.00  0.00    -0.016 A 
ATOM     25  C   UNL     1      -0.561   6.652   0.459  1.00  0.00     0.011 A 
ATOM     26  C   UNL     1      -3.707   6.347  -1.496  1.00  0.00     0.009 A 
ATOM     27  C   UNL     1      -2.047   8.107  -1.382  1.00  0.00     0.009 A 
ATOM     28  C   UNL     1      -0.131   7.920   0.062  1.00  0.00     0.001 A 
ATOM     29  C   UNL     1      -0.873   8.645  -0.860  1.00  0.00     0.001 A 
ENDBRANCH  18  20
ENDBRANCH  15  16
ENDBRANCH   6  15
ENDBRANCH   3   6
ENDBRANCH   1   2
BRANCH   1  30
ATOM     30  C   UNL     1      -1.043  -0.628   3.531  1.00  0.00     0.042 C 
BRANCH  30  31
ATOM     31  C   UNL     1      -1.324  -0.169   4.951  1.00  0.00     0.118 C 
BRANCH  31  32
ATOM     32  N   UNL     1      -2.074  -1.169   5.702  1.00  0.00    -0.352 N 
ATOM     33  C   UNL     1      -1.664  -1.948   6.751  1.00  0.00     0.251 C 
ATOM     34  H   UNL     1      -3.006  -1.303   5.415  1.00  0.00     0.163 HD
ATOM     35  O   UNL     1      -2.331  -2.924   7.096  1.00  0.00    -0.269 OA
BRANCH  33  36
ATOM     36  C   UNL     1      -0.412  -1.623   7.461  1.00  0.00     0.039 A 
ATOM     37  C   UNL     1       0.467  -2.653   7.802  1.00  0.00     0.014 A 
ATOM     38  C   UNL     1      -0.110  -0.300   7.794  1.00  0.00     0.014 A 
ATOM     39  C   UNL     1       1.675  -2.348   8.430  1.00  0.00     0.010 A 
ATOM     40  C   UNL     1       1.132   0.011   8.333  1.00  0.00     0.010 A 
ATOM     41  C   UNL     1       2.030  -1.011   8.674  1.00  0.00    -0.014 A 
BRANCH  41  42
ATOM     42  C   UNL     1       3.324  -0.659   9.309  1.00  0.00     0.031 A 
ATOM     43  C   UNL     1       3.342   0.028  10.646  1.00  0.00     0.074 A 
ATOM     44  C   UNL     1       4.477  -0.904   8.657  1.00  0.00     0.049 A 
ATOM     45  N   UNL     1       4.362   0.464  11.341  1.00  0.00    -0.248 NA
ATOM     46  C   UNL     1       2.036   0.287  11.271  1.00  0.00     0.031 C 
ATOM     47  C   UNL     1       4.586  -1.519   7.334  1.00  0.00     0.029 A 
ATOM     48  N   UNL     1       5.777  -0.658   9.019  1.00  0.00    -0.354 N 
ATOM     49  C   UNL     1       3.819   1.060  12.472  1.00  0.00     0.074 A 
ATOM     50  C   UNL     1       2.381   0.990  12.338  1.00  0.00     0.031 C 
ATOM     51  C   UNL     1       5.884  -1.635   7.010  1.00  0.00     0.029 A 
ATOM     52  C   UNL     1       6.694  -1.066   8.083  1.00  0.00     0.049 A 
ATOM     53  H   UNL     1       6.029  -0.230   9.869  1.00  0.00     0.167 HD
ATOM     54  C   UNL     1       4.461   1.593  13.539  1.00  0.00     0.037 A 
ATOM     55  C   UNL     1       8.039  -0.989   8.091  1.00  0.00     0.037 A 
ATOM     56  C   UNL     1       5.893   1.642  13.674  1.00  0.00     0.049 A 
ATOM     57  C   UNL     1       8.730  -0.381   9.280  1.00  0.00     0.074 A 
ATOM     58  C   UNL     1       6.645   2.108  14.738  1.00  0.00     0.029 A 
ATOM     59  N   UNL     1       6.791   1.213  12.707  1.00  0.00    -0.354 N 
ATOM     60  N   UNL     1       8.211   0.116  10.377  1.00  0.00    -0.248 NA
ATOM     61  C   UNL     1      10.198  -0.330   9.235  1.00  0.00     0.031 C 
ATOM     62  C   UNL     1       7.997   2.008  14.393  1.00  0.00     0.029 A 
ATOM     63  C   UNL     1       8.090   1.426  13.139  1.00  0.00     0.049 A 
ATOM     64  H   UNL     1       6.541   0.816  11.841  1.00  0.00     0.167 HD
ATOM     65  C   UNL     1       9.284   0.510  11.164  1.00  0.00     0.074 A 
ATOM     66  C   UNL     1      10.485   0.183  10.423  1.00  0.00     0.031 C 
ATOM     67  C   UNL     1       9.275   1.089  12.390  1.00  0.00     0.037 A 
BRANCH  54  68
ATOM     68  C   UNL     1       3.612   2.164  14.639  1.00  0.00     0.064 A 
ATOM     69  C   UNL     1       2.804   1.348  15.448  1.00  0.00     0.173 A 
ATOM     70  C   UNL     1       3.607   3.544  14.893  1.00  0.00     0.173 A 
ATOM     71  F   UNL     1       2.762   0.023  15.241  1.00  0.00    -0.203 F 
ATOM     72  C   UNL     1       1.991   1.896  16.437  1.00  0.00     0.198 A 
ATOM     73  C   UNL     1       2.820   4.084  15.908  1.00  0.00     0.198 A 
ATOM     74  F   UNL     1       4.364   4.371  14.157  1.00  0.00    -0.203 F 
ATOM     75  F   UNL     1       1.179   1.103  17.149  1.00  0.00    -0.200 F 
ATOM     76  C   UNL     1       2.004   3.262  16.670  1.00  0.00     0.200 A 
ATOM     77  F   UNL     1       2.844   5.404  16.141  1.00  0.00    -0.200 F 
ATOM     78  F   UNL     1       1.222   3.788  17.622  1.00  0.00    -0.200 F 
ENDBRANCH  54  68
BRANCH  55  79
ATOM     79  C   UNL     1       8.817  -1.541   6.952  1.00  0.00     0.064 A 
ATOM     80  C   UNL     1       9.586  -2.703   7.107  1.00  0.00     0.173 A 
ATOM     81  C   UNL     1       8.799  -0.935   5.688  1.00  0.00     0.173 A 
ATOM     82  F   UNL     1       9.651  -3.307   8.303  1.00  0.00    -0.203 F 
ATOM     83  C   UNL     1      10.320  -3.228   6.046  1.00  0.00     0.198 A 
ATOM     84  C   UNL     1       9.510  -1.477   4.619  1.00  0.00     0.198 A 
ATOM     85  F   UNL     1       8.074   0.175   5.485  1.00  0.00    -0.203 F 
ATOM     86  F   UNL     1      11.078  -4.317   6.233  1.00  0.00    -0.200 F 
ATOM     87  C   UNL     1      10.276  -2.619   4.801  1.00  0.00     0.200 A 
ATOM     88  F   UNL     1       9.454  -0.894   3.414  1.00  0.00    -0.200 F 
ATOM     89  F   UNL     1      10.974  -3.130   3.778  1.00  0.00    -0.200 F 
ENDBRANCH  55  79
BRANCH  67  90
ATOM     90  C   UNL     1      10.606   1.372  13.026  1.00  0.00     0.064 A 
ATOM     91  C   UNL     1      11.451   2.386  12.552  1.00  0.00     0.173 A 
ATOM     92  C   UNL     1      11.023   0.641  14.150  1.00  0.00     0.173 A 
ATOM     93  F   UNL     1      11.106   3.103  11.472  1.00  0.00    -0.203 F 
ATOM     94  C   UNL     1      12.677   2.639  13.163  1.00  0.00     0.198 A 
ATOM     95  C   UNL     1      12.234   0.919  14.777  1.00  0.00     0.198 A 
ATOM     96  F   UNL     1      10.249  -0.335  14.648  1.00  0.00    -0.203 F 
ATOM     97  F   UNL     1      13.491   3.579  12.662  1.00  0.00    -0.200 F 
ATOM     98  C   UNL     1      13.063   1.912  14.279  1.00  0.00     0.200 A 
ATOM     99  F   UNL     1      12.598   0.226  15.864  1.00  0.00    -0.200 F 
ATOM    100  F   UNL     1      14.240   2.163  14.869  1.00  0.00    -0.200 F 
ENDBRANCH  67  90
ENDBRANCH  41  42
ENDBRANCH  33  36
ENDBRANCH  31  32
ENDBRANCH  30  31
ENDBRANCH   1  30
TORSDOF 17
