REMARK SMILES C[C@@H]1CN(C(=O)C[NH+]2CCC(CC(=O)NCCCNC(=O)c3ccc(-c4c5nc(c(-c6c(F)c(F)c(F)c(F)c6F)c6ccc([nH]6)c(-c6c(F)c(F)c(F)c(F)c6F)c6nc(c(-c7c(F)c(F)c(F)c(F)c7F)c7ccc4[nH]7)C=C6)C=C5)cc3)CC2)C[C@@H](C)O1
REMARK SMILES IDX 16 1 15 2 13 3 14 4 12 6 11 7 8 8 9 9 86 10 10 12 85 13 7 14
REMARK SMILES IDX 5 15 1 16 2 17 3 18 90 19 4 20 88 21 87 22 89 23 6 24 17 25
REMARK SMILES IDX 18 26 19 27 20 28 21 30 22 31 23 32 84 33 24 34 83 35 25 36
REMARK SMILES IDX 26 37 27 38 77 39 28 40 82 41 76 42 78 43 29 44 81 45 75 46
REMARK SMILES IDX 74 47 30 49 62 50 42 51 61 52 43 53 46 54 60 55 79 56 44 57
REMARK SMILES IDX 45 58 59 60 80 61 47 62 31 63 32 64 40 65 33 66 34 67 38 68
REMARK SMILES IDX 41 69 35 70 36 71 39 72 37 73 63 74 64 75 72 76 65 77 66 78
REMARK SMILES IDX 70 79 73 80 67 81 68 82 71 83 69 84 48 85 49 86 57 87 50 88
REMARK SMILES IDX 51 89 55 90 58 91 52 92 53 93 56 94 54 95
REMARK H PARENT 15 5 8 11 19 29 78 48 46 59
REMARK Flexibility Score: inf
ROOT
ATOM      1  C   UNL     1       2.116  -2.299  -6.656  1.00  0.00     0.117 C 
ENDROOT
BRANCH   1   2
ATOM      2  N   UNL     1       3.523  -2.612  -6.874  1.00  0.00    -0.356 N 
ATOM      3  C   UNL     1       4.383  -3.451  -6.234  1.00  0.00     0.220 C 
ATOM      4  O   UNL     1       5.545  -3.505  -6.644  1.00  0.00    -0.275 OA
ATOM      5  H   UNL     1       3.929  -2.123  -7.627  1.00  0.00     0.163 HD
BRANCH   3   6
ATOM      6  C   UNL     1       3.948  -4.291  -5.048  1.00  0.00     0.104 C 
BRANCH   6   7
ATOM      7  C   UNL     1       4.321  -3.659  -3.689  1.00  0.00     0.009 C 
ATOM      8  N   UNL     1       2.910  -3.136  -1.111  1.00  0.00    -0.327 N 
ATOM      9  C   UNL     1       4.014  -4.112  -1.170  1.00  0.00     0.262 C 
ATOM     10  C   UNL     1       3.252  -2.020  -1.991  1.00  0.00     0.262 C 
ATOM     11  H   UNL     1       2.784  -2.753  -0.174  1.00  0.00     0.348 HD
ATOM     12  C   UNL     1       4.233  -4.710  -2.567  1.00  0.00     0.066 C 
ATOM     13  C   UNL     1       3.440  -2.431  -3.440  1.00  0.00     0.066 C 
BRANCH   8  14
ATOM     14  C   UNL     1       1.623  -3.804  -1.425  1.00  0.00     0.363 C 
BRANCH  14  15
ATOM     15  C   UNL     1       0.398  -2.889  -1.526  1.00  0.00     0.277 C 
ATOM     16  C   UNL     1       1.093   0.169   0.299  1.00  0.00     0.040 C 
ATOM     17  C   UNL     1       0.274  -0.737   1.219  1.00  0.00     0.135 C 
ATOM     18  C   UNL     1       0.436  -2.240   0.898  1.00  0.00     0.151 C 
ATOM     19  O   UNL     1      -1.116  -0.350   1.216  1.00  0.00    -0.372 OA
ATOM     20  N   UNL     1      -0.248  -2.551  -0.354  1.00  0.00    -0.333 N 
ATOM     21  C   UNL     1      -1.800  -0.659  -0.017  1.00  0.00     0.135 C 
ATOM     22  C   UNL     1      -1.649  -2.144  -0.374  1.00  0.00     0.151 C 
ATOM     23  C   UNL     1      -3.269  -0.305   0.177  1.00  0.00     0.040 C 
ATOM     24  O   UNL     1      -0.056  -2.580  -2.632  1.00  0.00    -0.268 OA
ENDBRANCH  14  15
ENDBRANCH   8  14
ENDBRANCH   6   7
ENDBRANCH   3   6
ENDBRANCH   1   2
BRANCH   1  25
ATOM     25  C   UNL     1       1.896  -0.896  -6.085  1.00  0.00     0.042 C 
BRANCH  25  26
ATOM     26  C   UNL     1       2.367   0.245  -6.979  1.00  0.00     0.118 C 
BRANCH  26  27
ATOM     27  N   UNL     1       1.326   0.683  -7.888  1.00  0.00    -0.352 N 
ATOM     28  C   UNL     1       0.714   1.907  -7.997  1.00  0.00     0.251 C 
ATOM     29  H   UNL     1       1.011   0.000  -8.523  1.00  0.00     0.163 HD
ATOM     30  O   UNL     1      -0.310   2.003  -8.669  1.00  0.00    -0.269 OA
BRANCH  28  31
ATOM     31  C   UNL     1       1.259   3.119  -7.330  1.00  0.00     0.039 A 
ATOM     32  C   UNL     1       0.355   4.083  -6.865  1.00  0.00     0.014 A 
ATOM     33  C   UNL     1       2.631   3.375  -7.251  1.00  0.00     0.014 A 
ATOM     34  C   UNL     1       0.821   5.290  -6.331  1.00  0.00     0.010 A 
ATOM     35  C   UNL     1       3.097   4.548  -6.652  1.00  0.00     0.010 A 
ATOM     36  C   UNL     1       2.197   5.535  -6.221  1.00  0.00    -0.014 A 
BRANCH  36  37
ATOM     37  C   UNL     1       2.705   6.853  -5.754  1.00  0.00     0.031 A 
ATOM     38  C   UNL     1       3.449   7.750  -6.710  1.00  0.00     0.074 A 
ATOM     39  C   UNL     1       2.524   7.243  -4.478  1.00  0.00     0.049 A 
ATOM     40  N   UNL     1       4.017   8.911  -6.493  1.00  0.00    -0.248 NA
ATOM     41  C   UNL     1       3.597   7.264  -8.091  1.00  0.00     0.031 C 
ATOM     42  C   UNL     1       1.850   6.462  -3.442  1.00  0.00     0.029 A 
ATOM     43  N   UNL     1       2.898   8.398  -3.834  1.00  0.00    -0.354 N 
ATOM     44  C   UNL     1       4.607   9.276  -7.696  1.00  0.00     0.074 A 
ATOM     45  C   UNL     1       4.369   8.197  -8.629  1.00  0.00     0.031 C 
ATOM     46  C   UNL     1       1.841   7.166  -2.297  1.00  0.00     0.029 A 
ATOM     47  C   UNL     1       2.530   8.436  -2.511  1.00  0.00     0.049 A 
ATOM     48  H   UNL     1       3.384   9.130  -4.279  1.00  0.00     0.167 HD
ATOM     49  C   UNL     1       5.268  10.418  -8.007  1.00  0.00     0.037 A 
ATOM     50  C   UNL     1       2.728   9.387  -1.579  1.00  0.00     0.037 A 
ATOM     51  C   UNL     1       5.464  11.516  -7.098  1.00  0.00     0.049 A 
ATOM     52  C   UNL     1       3.436  10.661  -1.957  1.00  0.00     0.074 A 
ATOM     53  C   UNL     1       6.074  12.735  -7.335  1.00  0.00     0.029 A 
ATOM     54  N   UNL     1       5.040  11.530  -5.778  1.00  0.00    -0.354 N 
ATOM     55  N   UNL     1       3.947  11.013  -3.111  1.00  0.00    -0.248 NA
ATOM     56  C   UNL     1       3.584  11.675  -0.903  1.00  0.00     0.031 C 
ATOM     57  C   UNL     1       6.045  13.477  -6.149  1.00  0.00     0.029 A 
ATOM     58  C   UNL     1       5.381  12.735  -5.186  1.00  0.00     0.049 A 
ATOM     59  H   UNL     1       4.567  10.793  -5.328  1.00  0.00     0.167 HD
ATOM     60  C   UNL     1       4.446  12.296  -2.933  1.00  0.00     0.074 A 
ATOM     61  C   UNL     1       4.168  12.667  -1.561  1.00  0.00     0.031 C 
ATOM     62  C   UNL     1       5.078  13.096  -3.826  1.00  0.00     0.037 A 
BRANCH  49  63
ATOM     63  C   UNL     1       5.824  10.541  -9.395  1.00  0.00     0.064 A 
ATOM     64  C   UNL     1       4.989  10.727 -10.508  1.00  0.00     0.173 A 
ATOM     65  C   UNL     1       7.210  10.509  -9.613  1.00  0.00     0.173 A 
ATOM     66  F   UNL     1       3.657  10.753 -10.354  1.00  0.00    -0.203 F 
ATOM     67  C   UNL     1       5.519  10.846 -11.790  1.00  0.00     0.198 A 
ATOM     68  C   UNL     1       7.738  10.657 -10.893  1.00  0.00     0.198 A 
ATOM     69  F   UNL     1       8.053  10.341  -8.583  1.00  0.00    -0.203 F 
ATOM     70  F   UNL     1       4.700  10.974 -12.842  1.00  0.00    -0.200 F 
ATOM     71  C   UNL     1       6.893  10.818 -11.981  1.00  0.00     0.200 A 
ATOM     72  F   UNL     1       9.066  10.641 -11.075  1.00  0.00    -0.200 F 
ATOM     73  F   UNL     1       7.402  10.938 -13.214  1.00  0.00    -0.200 F 
ENDBRANCH  49  63
BRANCH  50  74
ATOM     74  C   UNL     1       2.215   9.190  -0.198  1.00  0.00     0.064 A 
ATOM     75  C   UNL     1       1.125   9.934   0.277  1.00  0.00     0.173 A 
ATOM     76  C   UNL     1       2.807   8.267   0.675  1.00  0.00     0.173 A 
ATOM     77  F   UNL     1       0.542  10.845  -0.515  1.00  0.00    -0.203 F 
ATOM     78  C   UNL     1       0.660   9.777   1.581  1.00  0.00     0.198 A 
ATOM     79  C   UNL     1       2.325   8.092   1.971  1.00  0.00     0.198 A 
ATOM     80  F   UNL     1       3.850   7.530   0.268  1.00  0.00    -0.203 F 
ATOM     81  F   UNL     1      -0.353  10.533   2.024  1.00  0.00    -0.200 F 
ATOM     82  C   UNL     1       1.257   8.853   2.425  1.00  0.00     0.200 A 
ATOM     83  F   UNL     1       2.897   7.192   2.781  1.00  0.00    -0.200 F 
ATOM     84  F   UNL     1       0.810   8.702   3.679  1.00  0.00    -0.200 F 
ENDBRANCH  50  74
BRANCH  62  85
ATOM     85  C   UNL     1       5.472  14.468  -3.365  1.00  0.00     0.064 A 
ATOM     86  C   UNL     1       6.548  14.670  -2.489  1.00  0.00     0.173 A 
ATOM     87  C   UNL     1       4.787  15.597  -3.840  1.00  0.00     0.173 A 
ATOM     88  F   UNL     1       7.224  13.621  -1.998  1.00  0.00    -0.203 F 
ATOM     89  C   UNL     1       6.910  15.953  -2.087  1.00  0.00     0.198 A 
ATOM     90  C   UNL     1       5.169  16.879  -3.456  1.00  0.00     0.198 A 
ATOM     91  F   UNL     1       3.755  15.456  -4.685  1.00  0.00    -0.203 F 
ATOM     92  F   UNL     1       7.915  16.121  -1.217  1.00  0.00    -0.200 F 
ATOM     93  C   UNL     1       6.225  17.056  -2.575  1.00  0.00     0.200 A 
ATOM     94  F   UNL     1       4.513  17.945  -3.937  1.00  0.00    -0.200 F 
ATOM     95  F   UNL     1       6.579  18.290  -2.191  1.00  0.00    -0.200 F 
ENDBRANCH  62  85
ENDBRANCH  36  37
ENDBRANCH  28  31
ENDBRANCH  26  27
ENDBRANCH  25  26
ENDBRANCH   1  25
TORSDOF 13
