REMARK SMILES O=C(NCCCNC(=O)c1ccc([C@@H]2CC(O)=Nc3c2ncn3-c2cccc(Cl)c2)cc1)c1ccc(-c2c3nc(c(-c4c(F)c(F)c(F)c(F)c4F)c4ccc([nH]4)c(-c4c(F)c(F)c(F)c(F)c4F)c4nc(c(-c5c(F)c(F)c(F)c(F)c5F)c5ccc2[nH]5)C=C4)C=C3)cc1
REMARK SMILES IDX 5 1 4 2 3 3 1 4 2 5 33 7 34 8 95 9 35 10 94 11 36 12 37 13
REMARK SMILES IDX 38 14 88 15 39 16 93 17 87 18 89 19 40 20 92 21 86 22 85 23
REMARK SMILES IDX 41 25 73 26 53 27 72 28 54 29 57 30 71 31 90 32 55 33 56 34
REMARK SMILES IDX 70 36 91 37 58 38 42 39 43 40 51 41 44 42 45 43 49 44 52 45
REMARK SMILES IDX 46 46 47 47 50 48 48 49 74 50 75 51 83 52 76 53 77 54 81 55
REMARK SMILES IDX 84 56 78 57 79 58 82 59 80 60 59 61 60 62 68 63 61 64 62 65
REMARK SMILES IDX 66 66 69 67 63 68 64 69 67 70 65 71 6 72 7 73 8 74 9 76
REMARK SMILES IDX 10 77 11 78 32 79 12 80 31 81 13 82 14 83 15 84 20 85 16 86
REMARK SMILES IDX 19 87 21 88 18 89 23 90 22 91 17 92 24 94 25 95 30 96 26 97
REMARK SMILES IDX 28 98 27 99 29 100
REMARK H PARENT 3 6 89 24 57 35 7 75 17 93
REMARK Flexibility Score: inf
ROOT
ATOM      1  C   UNL     1       5.020   1.983   0.449  1.00  0.00     0.042 C 
ENDROOT
BRANCH   1   2
ATOM      2  C   UNL     1       4.701   0.562   0.906  1.00  0.00     0.118 C 
BRANCH   2   3
ATOM      3  N   UNL     1       3.285   0.279   1.044  1.00  0.00    -0.352 N 
ATOM      4  O   UNL     1       1.180  -0.287   0.708  1.00  0.00    -0.269 OA
ATOM      5  C   UNL     1       2.265  -0.020   0.185  1.00  0.00     0.251 C 
ATOM      6  H   UNL     1       2.988   0.308   1.982  1.00  0.00     0.163 HD
BRANCH   5   7
ATOM      7  C   UNL     1       2.350  -0.005  -1.302  1.00  0.00     0.039 A 
ATOM      8  C   UNL     1       3.522   0.061  -2.057  1.00  0.00     0.014 A 
ATOM      9  C   UNL     1       1.120  -0.077  -1.987  1.00  0.00     0.014 A 
ATOM     10  C   UNL     1       3.466   0.108  -3.451  1.00  0.00     0.010 A 
ATOM     11  C   UNL     1       1.060  -0.051  -3.378  1.00  0.00     0.010 A 
ATOM     12  C   UNL     1       2.236   0.062  -4.114  1.00  0.00    -0.014 A 
BRANCH  12  13
ATOM     13  C   UNL     1       2.234  -0.001  -5.577  1.00  0.00     0.031 A 
ATOM     14  C   UNL     1       2.838  -1.228  -6.186  1.00  0.00     0.074 A 
ATOM     15  C   UNL     1       1.581   0.875  -6.367  1.00  0.00     0.049 A 
ATOM     16  N   UNL     1       3.756  -1.316  -7.098  1.00  0.00    -0.248 NA
ATOM     17  C   UNL     1       2.365  -2.530  -5.689  1.00  0.00     0.031 C 
ATOM     18  C   UNL     1       0.665   1.945  -5.968  1.00  0.00     0.029 A 
ATOM     19  N   UNL     1       1.529   0.914  -7.732  1.00  0.00    -0.354 N 
ATOM     20  C   UNL     1       3.889  -2.675  -7.387  1.00  0.00     0.074 A 
ATOM     21  C   UNL     1       3.066  -3.380  -6.439  1.00  0.00     0.031 C 
ATOM     22  C   UNL     1      -0.000   2.391  -7.057  1.00  0.00     0.029 A 
ATOM     23  C   UNL     1       0.533   1.734  -8.239  1.00  0.00     0.049 A 
ATOM     24  H   UNL     1       2.146   0.404  -8.305  1.00  0.00     0.167 HD
ATOM     25  C   UNL     1       4.557  -3.135  -8.482  1.00  0.00     0.037 A 
ATOM     26  C   UNL     1       0.134   1.822  -9.530  1.00  0.00     0.037 A 
ATOM     27  C   UNL     1       5.467  -2.160  -9.011  1.00  0.00     0.049 A 
ATOM     28  C   UNL     1       1.210   1.270 -10.386  1.00  0.00     0.074 A 
ATOM     29  C   UNL     1       6.588  -1.515  -8.525  1.00  0.00     0.029 A 
ATOM     30  N   UNL     1       5.123  -1.477 -10.148  1.00  0.00    -0.354 N 
ATOM     31  N   UNL     1       2.365   1.841 -10.581  1.00  0.00    -0.248 NA
ATOM     32  C   UNL     1       1.135  -0.134 -10.758  1.00  0.00     0.031 C 
ATOM     33  C   UNL     1       6.540  -0.209  -9.096  1.00  0.00     0.029 A 
ATOM     34  C   UNL     1       5.410  -0.157  -9.911  1.00  0.00     0.049 A 
ATOM     35  H   UNL     1       4.745  -1.859 -10.973  1.00  0.00     0.167 HD
ATOM     36  C   UNL     1       3.259   0.789 -10.698  1.00  0.00     0.074 A 
ATOM     37  C   UNL     1       2.434  -0.392 -10.917  1.00  0.00     0.031 C 
ATOM     38  C   UNL     1       4.566   0.934 -10.333  1.00  0.00     0.037 A 
BRANCH  25  39
ATOM     39  C   UNL     1       4.200  -4.395  -9.229  1.00  0.00     0.064 A 
ATOM     40  C   UNL     1       5.091  -4.932 -10.181  1.00  0.00     0.173 A 
ATOM     41  C   UNL     1       2.897  -4.935  -9.240  1.00  0.00     0.173 A 
ATOM     42  F   UNL     1       6.344  -4.465 -10.284  1.00  0.00    -0.203 F 
ATOM     43  C   UNL     1       4.689  -5.904 -11.102  1.00  0.00     0.198 A 
ATOM     44  C   UNL     1       2.514  -5.941 -10.127  1.00  0.00     0.198 A 
ATOM     45  F   UNL     1       1.923  -4.437  -8.468  1.00  0.00    -0.203 F 
ATOM     46  F   UNL     1       5.538  -6.307 -12.057  1.00  0.00    -0.200 F 
ATOM     47  C   UNL     1       3.401  -6.407 -11.075  1.00  0.00     0.200 A 
ATOM     48  F   UNL     1       1.255  -6.401 -10.101  1.00  0.00    -0.200 F 
ATOM     49  F   UNL     1       3.000  -7.301 -11.989  1.00  0.00    -0.200 F 
ENDBRANCH  25  39
BRANCH  26  50
ATOM     50  C   UNL     1      -1.218   2.108 -10.060  1.00  0.00     0.064 A 
ATOM     51  C   UNL     1      -1.407   2.530 -11.386  1.00  0.00     0.173 A 
ATOM     52  C   UNL     1      -2.371   1.709  -9.357  1.00  0.00     0.173 A 
ATOM     53  F   UNL     1      -0.355   2.881 -12.139  1.00  0.00    -0.203 F 
ATOM     54  C   UNL     1      -2.674   2.531 -11.980  1.00  0.00     0.198 A 
ATOM     55  C   UNL     1      -3.635   1.720  -9.947  1.00  0.00     0.198 A 
ATOM     56  F   UNL     1      -2.280   1.210  -8.116  1.00  0.00    -0.203 F 
ATOM     57  F   UNL     1      -2.808   2.880 -13.267  1.00  0.00    -0.200 F 
ATOM     58  C   UNL     1      -3.784   2.117 -11.263  1.00  0.00     0.200 A 
ATOM     59  F   UNL     1      -4.695   1.283  -9.253  1.00  0.00    -0.200 F 
ATOM     60  F   UNL     1      -4.988   2.062 -11.849  1.00  0.00    -0.200 F 
ENDBRANCH  26  50
BRANCH  38  61
ATOM     61  C   UNL     1       5.070   2.326 -10.077  1.00  0.00     0.064 A 
ATOM     62  C   UNL     1       4.569   3.165  -9.066  1.00  0.00     0.173 A 
ATOM     63  C   UNL     1       6.187   2.778 -10.793  1.00  0.00     0.173 A 
ATOM     64  F   UNL     1       3.575   2.761  -8.264  1.00  0.00    -0.203 F 
ATOM     65  C   UNL     1       5.125   4.419  -8.823  1.00  0.00     0.198 A 
ATOM     66  C   UNL     1       6.767   4.015 -10.521  1.00  0.00     0.198 A 
ATOM     67  F   UNL     1       6.749   1.996 -11.728  1.00  0.00    -0.203 F 
ATOM     68  F   UNL     1       4.617   5.206  -7.863  1.00  0.00    -0.200 F 
ATOM     69  C   UNL     1       6.228   4.840  -9.547  1.00  0.00     0.200 A 
ATOM     70  F   UNL     1       7.866   4.397 -11.187  1.00  0.00    -0.200 F 
ATOM     71  F   UNL     1       6.790   6.029  -9.284  1.00  0.00    -0.200 F 
ENDBRANCH  38  61
ENDBRANCH  12  13
ENDBRANCH   5   7
ENDBRANCH   2   3
ENDBRANCH   1   2
BRANCH   1  72
ATOM     72  C   UNL     1       4.464   3.079   1.356  1.00  0.00     0.118 C 
BRANCH  72  73
ATOM     73  N   UNL     1       5.019   3.038   2.701  1.00  0.00    -0.352 N 
ATOM     74  C   UNL     1       5.800   3.955   3.358  1.00  0.00     0.251 C 
ATOM     75  H   UNL     1       4.801   2.229   3.219  1.00  0.00     0.163 HD
ATOM     76  O   UNL     1       6.292   3.674   4.449  1.00  0.00    -0.269 OA
BRANCH  74  77
ATOM     77  C   UNL     1       6.074   5.272   2.751  1.00  0.00     0.039 A 
ATOM     78  C   UNL     1       7.398   5.704   2.665  1.00  0.00     0.014 A 
ATOM     79  C   UNL     1       5.037   6.088   2.291  1.00  0.00     0.014 A 
ATOM     80  C   UNL     1       7.689   6.919   2.043  1.00  0.00     0.005 A 
ATOM     81  C   UNL     1       5.330   7.297   1.658  1.00  0.00     0.005 A 
ATOM     82  C   UNL     1       6.663   7.722   1.513  1.00  0.00    -0.038 A 
BRANCH  82  83
ATOM     83  C   UNL     1       7.028   9.030   0.831  1.00  0.00     0.081 C 
ATOM     84  C   UNL     1       6.333  10.251   1.471  1.00  0.00     0.111 C 
ATOM     85  C   UNL     1       6.656   8.885  -0.600  1.00  0.00     0.093 A 
ATOM     86  C   UNL     1       5.179  10.824   0.663  1.00  0.00     0.188 C 
ATOM     87  C   UNL     1       5.705   9.696  -1.179  1.00  0.00     0.164 A 
ATOM     88  N   UNL     1       7.137   7.957  -1.484  1.00  0.00    -0.238 NA
ATOM     89  N   UNL     1       4.914  10.622  -0.587  1.00  0.00    -0.198 NA
ATOM     90  N   UNL     1       5.605   9.264  -2.489  1.00  0.00    -0.283 N 
ATOM     91  C   UNL     1       6.455   8.179  -2.592  1.00  0.00     0.206 A 
BRANCH  86  92
ATOM     92  O   UNL     1       4.395  11.676   1.350  1.00  0.00    -0.496 OA
ATOM     93  H   UNL     1       4.563  11.841   2.257  1.00  0.00     0.294 HD
ENDBRANCH  86  92
BRANCH  90  94
ATOM     94  C   UNL     1       4.796   9.810  -3.512  1.00  0.00     0.050 A 
ATOM     95  C   UNL     1       4.154   8.969  -4.429  1.00  0.00     0.027 A 
ATOM     96  C   UNL     1       4.636  11.200  -3.595  1.00  0.00     0.047 A 
ATOM     97  C   UNL     1       3.312   9.523  -5.397  1.00  0.00     0.004 A 
ATOM     98  C   UNL     1       3.835  11.741  -4.597  1.00  0.00     0.043 A 
ATOM     99  C   UNL     1       3.158  10.908  -5.487  1.00  0.00     0.020 A 
ATOM    100  Cl  UNL     1       3.691  13.449  -4.748  1.00  0.00    -0.084 Cl
ENDBRANCH  90  94
ENDBRANCH  82  83
ENDBRANCH  74  77
ENDBRANCH  72  73
ENDBRANCH   1  72
TORSDOF 13
