REMARK SMILES COC(=O)c1ccc([C@H]2Nc3c(C(=O)NCCCNC(=O)c4ccc(-c5c6nc(c(-c7c(F)c(F)c(F)c(F)c7F)c7ccc([nH]7)c(-c7c(F)c(F)c(F)c(F)c7F)c7nc(c(-c8c(F)c(F)c(F)c(F)c8F)c8ccc5[nH]8)C=C7)C=C6)cc4)cccc3[C@H]3[C@H]4CC[C@H](C4)[C@H]32)cc1
REMARK SMILES IDX 16 1 15 2 13 3 14 4 12 6 9 7 10 8 95 9 11 10 89 12 93 13
REMARK SMILES IDX 88 14 90 15 92 16 94 17 85 18 87 19 91 20 86 21 8 22 5 23
REMARK SMILES IDX 6 24 97 25 7 26 96 27 3 28 4 29 2 30 1 31 17 32 18 33 19 34
REMARK SMILES IDX 20 35 21 37 22 38 23 39 84 40 24 41 83 42 25 43 26 44 27 45
REMARK SMILES IDX 77 46 28 47 82 48 76 49 78 50 29 51 81 52 75 53 74 54 30 56
REMARK SMILES IDX 62 57 42 58 61 59 43 60 46 61 60 62 79 63 44 64 45 65 59 67
REMARK SMILES IDX 80 68 47 69 31 70 32 71 40 72 33 73 34 74 38 75 41 76 35 77
REMARK SMILES IDX 36 78 39 79 37 80 63 81 64 82 72 83 65 84 66 85 70 86 73 87
REMARK SMILES IDX 67 88 68 89 71 90 69 91 48 92 49 93 57 94 50 95 51 96 55 97
REMARK SMILES IDX 58 98 52 99 53 100 56 101 54 102
REMARK H PARENT 15 5 10 11 19 36 78 55 46 66
REMARK Flexibility Score: inf
ROOT
ATOM      1  C   UNL     1      -2.793   8.293  10.409  1.00  0.00     0.118 C 
ENDROOT
BRANCH   1   2
ATOM      2  N   UNL     1      -1.720   7.980   9.463  1.00  0.00    -0.352 N 
ATOM      3  C   UNL     1      -1.627   6.951   8.525  1.00  0.00     0.253 C 
ATOM      4  O   UNL     1      -0.659   6.901   7.770  1.00  0.00    -0.269 OA
ATOM      5  H   UNL     1      -0.947   8.588   9.493  1.00  0.00     0.163 HD
BRANCH   3   6
ATOM      6  C   UNL     1      -2.653   5.869   8.510  1.00  0.00     0.063 A 
ATOM      7  C   UNL     1      -1.207   2.560   7.592  1.00  0.00     0.113 C 
ATOM      8  N   UNL     1      -1.130   3.982   8.014  1.00  0.00    -0.377 N 
ATOM      9  C   UNL     1      -1.521   1.730   8.875  1.00  0.00     0.027 C 
ATOM     10  C   UNL     1      -2.260   4.530   8.635  1.00  0.00     0.051 A 
ATOM     11  H   UNL     1      -0.318   4.518   7.864  1.00  0.00     0.161 HD
ATOM     12  C   UNL     1      -2.417   2.447   9.923  1.00  0.00     0.030 C 
ATOM     13  C   UNL     1      -2.072   0.282   8.932  1.00  0.00    -0.005 C 
ATOM     14  C   UNL     1      -3.089   3.678   9.383  1.00  0.00    -0.020 A 
ATOM     15  C   UNL     1      -3.218   1.293  10.573  1.00  0.00    -0.003 C 
ATOM     16  C   UNL     1      -3.553   0.126   8.526  1.00  0.00     0.004 C 
ATOM     17  C   UNL     1      -2.217   0.132  10.462  1.00  0.00     0.008 C 
ATOM     18  C   UNL     1      -4.005   6.199   8.631  1.00  0.00     0.016 A 
ATOM     19  C   UNL     1      -4.385   4.087   9.712  1.00  0.00     0.006 A 
ATOM     20  C   UNL     1      -4.332   0.776   9.665  1.00  0.00     0.004 C 
ATOM     21  C   UNL     1      -4.877   5.298   9.232  1.00  0.00     0.001 A 
BRANCH   7  22
ATOM     22  C   UNL     1      -2.032   2.348   6.311  1.00  0.00    -0.025 A 
ATOM     23  C   UNL     1      -3.721   1.894   4.075  1.00  0.00     0.060 A 
ATOM     24  C   UNL     1      -3.367   3.194   4.434  1.00  0.00     0.016 A 
ATOM     25  C   UNL     1      -3.132   0.818   4.736  1.00  0.00     0.016 A 
ATOM     26  C   UNL     1      -2.537   3.414   5.543  1.00  0.00     0.007 A 
ATOM     27  C   UNL     1      -2.252   1.053   5.803  1.00  0.00     0.007 A 
BRANCH  23  28
ATOM     28  C   UNL     1      -4.725   1.692   3.006  1.00  0.00     0.337 C 
ATOM     29  O   UNL     1      -4.776   2.349   1.983  1.00  0.00    -0.246 OA
BRANCH  28  30
ATOM     30  O   UNL     1      -5.611   0.748   3.416  1.00  0.00    -0.465 OA
ATOM     31  C   UNL     1      -6.746   0.560   2.566  1.00  0.00     0.282 C 
ENDBRANCH  28  30
ENDBRANCH  23  28
ENDBRANCH   7  22
ENDBRANCH   3   6
ENDBRANCH   1   2
BRANCH   1  32
ATOM     32  C   UNL     1      -2.370   8.601  11.840  1.00  0.00     0.042 C 
BRANCH  32  33
ATOM     33  C   UNL     1      -1.710   9.950  12.078  1.00  0.00     0.118 C 
BRANCH  33  34
ATOM     34  N   UNL     1      -2.578  11.087  11.803  1.00  0.00    -0.352 N 
ATOM     35  C   UNL     1      -3.009  12.132  12.584  1.00  0.00     0.251 C 
ATOM     36  H   UNL     1      -2.923  11.111  10.881  1.00  0.00     0.163 HD
ATOM     37  O   UNL     1      -3.834  12.912  12.109  1.00  0.00    -0.269 OA
BRANCH  35  38
ATOM     38  C   UNL     1      -2.541  12.348  13.979  1.00  0.00     0.039 A 
ATOM     39  C   UNL     1      -3.424  12.948  14.889  1.00  0.00     0.014 A 
ATOM     40  C   UNL     1      -1.245  12.048  14.401  1.00  0.00     0.014 A 
ATOM     41  C   UNL     1      -3.030  13.193  16.210  1.00  0.00     0.010 A 
ATOM     42  C   UNL     1      -0.881  12.206  15.741  1.00  0.00     0.010 A 
ATOM     43  C   UNL     1      -1.761  12.796  16.659  1.00  0.00    -0.014 A 
BRANCH  43  44
ATOM     44  C   UNL     1      -1.334  13.024  18.067  1.00  0.00     0.031 A 
ATOM     45  C   UNL     1      -0.165  13.924  18.375  1.00  0.00     0.074 A 
ATOM     46  C   UNL     1      -1.963  12.386  19.074  1.00  0.00     0.049 A 
ATOM     47  N   UNL     1       0.384  14.208  19.531  1.00  0.00    -0.248 NA
ATOM     48  C   UNL     1       0.492  14.570  17.228  1.00  0.00     0.031 C 
ATOM     49  C   UNL     1      -3.074  11.447  18.918  1.00  0.00     0.029 A 
ATOM     50  N   UNL     1      -1.752  12.427  20.431  1.00  0.00    -0.354 N 
ATOM     51  C   UNL     1       1.457  15.044  19.247  1.00  0.00     0.074 A 
ATOM     52  C   UNL     1       1.517  15.178  17.807  1.00  0.00     0.031 C 
ATOM     53  C   UNL     1      -3.464  11.021  20.130  1.00  0.00     0.029 A 
ATOM     54  C   UNL     1      -2.612  11.630  21.148  1.00  0.00     0.049 A 
ATOM     55  H   UNL     1      -1.050  12.975  20.851  1.00  0.00     0.167 HD
ATOM     56  C   UNL     1       2.301  15.667  20.105  1.00  0.00     0.037 A 
ATOM     57  C   UNL     1      -2.705  11.414  22.474  1.00  0.00     0.037 A 
ATOM     58  C   UNL     1       2.224  15.566  21.540  1.00  0.00     0.049 A 
ATOM     59  C   UNL     1      -1.768  12.132  23.407  1.00  0.00     0.074 A 
ATOM     60  C   UNL     1       2.994  16.209  22.494  1.00  0.00     0.029 A 
ATOM     61  N   UNL     1       1.321  14.770  22.227  1.00  0.00    -0.354 N 
ATOM     62  N   UNL     1      -0.803  12.974  23.129  1.00  0.00    -0.248 NA
ATOM     63  C   UNL     1      -1.943  11.877  24.845  1.00  0.00     0.031 C 
ATOM     64  C   UNL     1       2.583  15.771  23.758  1.00  0.00     0.029 A 
ATOM     65  C   UNL     1       1.526  14.892  23.593  1.00  0.00     0.049 A 
ATOM     66  H   UNL     1       0.635  14.201  21.808  1.00  0.00     0.167 HD
ATOM     67  C   UNL     1      -0.275  13.367  24.351  1.00  0.00     0.074 A 
ATOM     68  C   UNL     1      -1.041  12.689  25.375  1.00  0.00     0.031 C 
ATOM     69  C   UNL     1       0.755  14.213  24.603  1.00  0.00     0.037 A 
BRANCH  56  70
ATOM     70  C   UNL     1       3.382  16.527  19.513  1.00  0.00     0.064 A 
ATOM     71  C   UNL     1       3.089  17.743  18.877  1.00  0.00     0.173 A 
ATOM     72  C   UNL     1       4.729  16.146  19.610  1.00  0.00     0.173 A 
ATOM     73  F   UNL     1       1.817  18.148  18.748  1.00  0.00    -0.203 F 
ATOM     74  C   UNL     1       4.101  18.529  18.331  1.00  0.00     0.198 A 
ATOM     75  C   UNL     1       5.741  16.950  19.090  1.00  0.00     0.198 A 
ATOM     76  F   UNL     1       5.066  14.997  20.215  1.00  0.00    -0.203 F 
ATOM     77  F   UNL     1       3.791  19.660  17.681  1.00  0.00    -0.200 F 
ATOM     78  C   UNL     1       5.425  18.136  18.444  1.00  0.00     0.200 A 
ATOM     79  F   UNL     1       7.022  16.576  19.212  1.00  0.00    -0.200 F 
ATOM     80  F   UNL     1       6.398  18.896  17.922  1.00  0.00    -0.200 F 
ENDBRANCH  56  70
BRANCH  57  81
ATOM     81  C   UNL     1      -3.749  10.501  23.007  1.00  0.00     0.064 A 
ATOM     82  C   UNL     1      -4.837  11.002  23.737  1.00  0.00     0.173 A 
ATOM     83  C   UNL     1      -3.676   9.114  22.812  1.00  0.00     0.173 A 
ATOM     84  F   UNL     1      -4.937  12.319  23.969  1.00  0.00    -0.203 F 
ATOM     85  C   UNL     1      -5.799  10.148  24.271  1.00  0.00     0.198 A 
ATOM     86  C   UNL     1      -4.655   8.264  23.323  1.00  0.00     0.198 A 
ATOM     87  F   UNL     1      -2.658   8.586  22.118  1.00  0.00    -0.203 F 
ATOM     88  F   UNL     1      -6.801  10.649  25.007  1.00  0.00    -0.200 F 
ATOM     89  C   UNL     1      -5.711   8.781  24.060  1.00  0.00     0.200 A 
ATOM     90  F   UNL     1      -4.573   6.945  23.106  1.00  0.00    -0.200 F 
ATOM     91  F   UNL     1      -6.638   7.960  24.573  1.00  0.00    -0.200 F 
ENDBRANCH  57  81
BRANCH  69  92
ATOM     92  C   UNL     1       1.090  14.475  26.043  1.00  0.00     0.064 A 
ATOM     93  C   UNL     1       1.686  13.494  26.851  1.00  0.00     0.173 A 
ATOM     94  C   UNL     1       0.826  15.727  26.619  1.00  0.00     0.173 A 
ATOM     95  F   UNL     1       1.945  12.276  26.353  1.00  0.00    -0.203 F 
ATOM     96  C   UNL     1       1.972  13.747  28.190  1.00  0.00     0.198 A 
ATOM     97  C   UNL     1       1.143  15.986  27.949  1.00  0.00     0.198 A 
ATOM     98  F   UNL     1       0.264  16.702  25.889  1.00  0.00    -0.203 F 
ATOM     99  F   UNL     1       2.487  12.776  28.957  1.00  0.00    -0.200 F 
ATOM    100  C   UNL     1       1.705  14.993  28.736  1.00  0.00     0.200 A 
ATOM    101  F   UNL     1       0.896  17.195  28.473  1.00  0.00    -0.200 F 
ATOM    102  F   UNL     1       1.981  15.234  30.026  1.00  0.00    -0.200 F 
ENDBRANCH  69  92
ENDBRANCH  43  44
ENDBRANCH  35  38
ENDBRANCH  33  34
ENDBRANCH  32  33
ENDBRANCH   1  32
TORSDOF 13
