REMARK SMILES Cc1ccc(S(=O)(=O)N2CCN(C(=O)[C@H]3CCCC[C@H]3C(=O)NCCCNC(=O)c3ccc(-c4c5nc(c(-c6c(F)c(F)c(F)c(F)c6F)c6ccc([nH]6)c(-c6c(F)c(F)c(F)c(F)c6F)c6nc(c(-c7c(F)c(F)c(F)c(F)c7F)c7ccc4[nH]7)C=C6)C=C5)cc3)CC2)cc1C
REMARK SMILES IDX 24 1 23 2 21 3 22 4 20 6 15 7 16 8 17 9 19 10 18 11 13 12
REMARK SMILES IDX 9 13 10 14 94 15 11 16 93 17 12 18 14 19 6 20 7 21 8 22 5 23
REMARK SMILES IDX 1 24 2 25 3 26 96 27 4 28 95 29 97 30 25 31 26 32 27 33
REMARK SMILES IDX 28 34 29 36 30 37 31 38 92 39 32 40 91 41 33 42 34 43 35 44
REMARK SMILES IDX 85 45 36 46 90 47 84 48 86 49 37 50 89 51 83 52 82 53 38 55
REMARK SMILES IDX 70 56 50 57 69 58 51 59 54 60 68 61 87 62 52 63 53 64 67 66
REMARK SMILES IDX 88 67 55 68 39 69 40 70 48 71 41 72 42 73 46 74 49 75 43 76
REMARK SMILES IDX 44 77 47 78 45 79 71 80 72 81 80 82 73 83 74 84 78 85 81 86
REMARK SMILES IDX 75 87 76 88 79 89 77 90 56 91 57 92 65 93 58 94 59 95 63 96
REMARK SMILES IDX 66 97 60 98 61 99 64 100 62 101
REMARK H PARENT 23 5 27 35 86 54 54 65
REMARK Flexibility Score: inf
ROOT
ATOM      1  C   UNL     1      -5.018   7.861   1.271  1.00  0.00     0.117 C 
ENDROOT
BRANCH   1   2
ATOM      2  N   UNL     1      -3.933   6.930   1.001  1.00  0.00    -0.356 N 
ATOM      3  C   UNL     1      -3.876   5.722   0.382  1.00  0.00     0.223 C 
ATOM      4  O   UNL     1      -2.787   5.136   0.424  1.00  0.00    -0.275 OA
ATOM      5  H   UNL     1      -3.061   7.239   1.336  1.00  0.00     0.163 HD
BRANCH   3   6
ATOM      6  C   UNL     1      -5.041   5.080  -0.380  1.00  0.00     0.091 C 
ATOM      7  C   UNL     1      -6.018   4.199   0.452  1.00  0.00     0.091 C 
ATOM      8  C   UNL     1      -7.213   3.720  -0.384  1.00  0.00     0.014 C 
ATOM      9  C   UNL     1      -7.850   4.828  -1.209  1.00  0.00     0.001 C 
ATOM     10  C   UNL     1      -5.666   6.027  -1.419  1.00  0.00     0.014 C 
ATOM     11  C   UNL     1      -6.830   5.406  -2.176  1.00  0.00     0.001 C 
BRANCH   7  12
ATOM     12  C   UNL     1      -6.329   4.722   1.855  1.00  0.00     0.226 C 
ATOM     13  N   UNL     1      -9.627   5.040   4.370  1.00  0.00    -0.194 NA
ATOM     14  C   UNL     1      -9.373   6.217   3.531  1.00  0.00     0.124 C 
ATOM     15  C   UNL     1      -9.516   3.759   3.652  1.00  0.00     0.124 C 
ATOM     16  C   UNL     1      -7.994   6.112   2.885  1.00  0.00     0.136 C 
ATOM     17  C   UNL     1      -8.149   3.620   2.969  1.00  0.00     0.136 C 
ATOM     18  N   UNL     1      -7.662   4.821   2.261  1.00  0.00    -0.340 N 
ATOM     19  O   UNL     1      -5.427   4.951   2.663  1.00  0.00    -0.275 OA
BRANCH  13  20
ATOM     20  S   UNL     1      -9.883   5.146   6.022  1.00  0.00     0.243 S 
ATOM     21  O   UNL     1     -10.554   3.928   6.435  1.00  0.00    -0.207 OA
ATOM     22  O   UNL     1     -10.461   6.445   6.288  1.00  0.00    -0.207 OA
BRANCH  20  23
ATOM     23  C   UNL     1      -8.301   5.139   6.841  1.00  0.00     0.082 A 
ATOM     24  C   UNL     1      -4.541   5.199   8.972  1.00  0.00     0.044 C 
ATOM     25  C   UNL     1      -5.867   5.172   8.264  1.00  0.00    -0.048 A 
ATOM     26  C   UNL     1      -5.890   4.997   6.874  1.00  0.00     0.005 A 
ATOM     27  C   UNL     1      -7.086   5.304   8.957  1.00  0.00    -0.047 A 
ATOM     28  C   UNL     1      -7.097   4.973   6.172  1.00  0.00     0.022 A 
ATOM     29  C   UNL     1      -8.293   5.310   8.232  1.00  0.00     0.025 A 
ATOM     30  C   UNL     1      -7.146   5.481  10.449  1.00  0.00     0.044 C 
ENDBRANCH  20  23
ENDBRANCH  13  20
ENDBRANCH   7  12
ENDBRANCH   3   6
ENDBRANCH   1   2
BRANCH   1  31
ATOM     31  C   UNL     1      -5.214   8.132   2.763  1.00  0.00     0.042 C 
BRANCH  31  32
ATOM     32  C   UNL     1      -4.078   8.879   3.440  1.00  0.00     0.118 C 
BRANCH  32  33
ATOM     33  N   UNL     1      -4.335  10.305   3.512  1.00  0.00    -0.352 N 
ATOM     34  C   UNL     1      -5.007  11.081   4.423  1.00  0.00     0.251 C 
ATOM     35  H   UNL     1      -3.953  10.815   2.762  1.00  0.00     0.163 HD
ATOM     36  O   UNL     1      -5.268  12.239   4.093  1.00  0.00    -0.269 OA
BRANCH  34  37
ATOM     37  C   UNL     1      -5.439  10.608   5.769  1.00  0.00     0.039 A 
ATOM     38  C   UNL     1      -6.533  11.258   6.361  1.00  0.00     0.014 A 
ATOM     39  C   UNL     1      -4.740   9.669   6.529  1.00  0.00     0.014 A 
ATOM     40  C   UNL     1      -6.905  10.987   7.685  1.00  0.00     0.010 A 
ATOM     41  C   UNL     1      -5.168   9.328   7.818  1.00  0.00     0.010 A 
ATOM     42  C   UNL     1      -6.224  10.016   8.431  1.00  0.00    -0.014 A 
BRANCH  42  43
ATOM     43  C   UNL     1      -6.540   9.781   9.870  1.00  0.00     0.031 A 
ATOM     44  C   UNL     1      -5.488  10.022  10.927  1.00  0.00     0.074 A 
ATOM     45  C   UNL     1      -7.748   9.312  10.237  1.00  0.00     0.049 A 
ATOM     46  N   UNL     1      -5.526   9.773  12.215  1.00  0.00    -0.248 NA
ATOM     47  C   UNL     1      -4.210  10.592  10.472  1.00  0.00     0.031 C 
ATOM     48  C   UNL     1      -8.839   8.974   9.324  1.00  0.00     0.029 A 
ATOM     49  N   UNL     1      -8.242   8.994  11.481  1.00  0.00    -0.354 N 
ATOM     50  C   UNL     1      -4.282  10.142  12.712  1.00  0.00     0.074 A 
ATOM     51  C   UNL     1      -3.487  10.570  11.582  1.00  0.00     0.031 C 
ATOM     52  C   UNL     1      -9.865   8.474  10.032  1.00  0.00     0.029 A 
ATOM     53  C   UNL     1      -9.494   8.429  11.444  1.00  0.00     0.049 A 
ATOM     54  H   UNL     1      -7.747   9.156  12.316  1.00  0.00     0.167 HD
ATOM     55  C   UNL     1      -3.847  10.161  13.996  1.00  0.00     0.037 A 
ATOM     56  C   UNL     1     -10.244   7.900  12.429  1.00  0.00     0.037 A 
ATOM     57  C   UNL     1      -4.646   9.786  15.133  1.00  0.00     0.049 A 
ATOM     58  C   UNL     1      -9.740   7.918  13.846  1.00  0.00     0.074 A 
ATOM     59  C   UNL     1      -4.325   9.862  16.478  1.00  0.00     0.029 A 
ATOM     60  N   UNL     1      -5.929   9.267  15.057  1.00  0.00    -0.354 N 
ATOM     61  N   UNL     1      -8.585   8.329  14.309  1.00  0.00    -0.248 NA
ATOM     62  C   UNL     1     -10.653   7.408  14.880  1.00  0.00     0.031 C 
ATOM     63  C   UNL     1      -5.401   9.354  17.215  1.00  0.00     0.029 A 
ATOM     64  C   UNL     1      -6.407   9.002  16.331  1.00  0.00     0.049 A 
ATOM     65  H   UNL     1      -6.427   9.110  14.223  1.00  0.00     0.167 HD
ATOM     66  C   UNL     1      -8.647   8.167  15.687  1.00  0.00     0.074 A 
ATOM     67  C   UNL     1      -9.951   7.613  15.986  1.00  0.00     0.031 C 
ATOM     68  C   UNL     1      -7.710   8.462  16.620  1.00  0.00     0.037 A 
BRANCH  55  69
ATOM     69  C   UNL     1      -2.443  10.633  14.251  1.00  0.00     0.064 A 
ATOM     70  C   UNL     1      -2.081  11.979  14.092  1.00  0.00     0.173 A 
ATOM     71  C   UNL     1      -1.460   9.741  14.707  1.00  0.00     0.173 A 
ATOM     72  F   UNL     1      -2.981  12.872  13.652  1.00  0.00    -0.203 F 
ATOM     73  C   UNL     1      -0.782  12.409  14.350  1.00  0.00     0.198 A 
ATOM     74  C   UNL     1      -0.170  10.180  14.993  1.00  0.00     0.198 A 
ATOM     75  F   UNL     1      -1.754   8.444  14.887  1.00  0.00    -0.203 F 
ATOM     76  F   UNL     1      -0.450  13.692  14.146  1.00  0.00    -0.200 F 
ATOM     77  C   UNL     1       0.170  11.512  14.807  1.00  0.00     0.200 A 
ATOM     78  F   UNL     1       0.746   9.314  15.449  1.00  0.00    -0.200 F 
ATOM     79  F   UNL     1       1.418  11.929  15.063  1.00  0.00    -0.200 F 
ENDBRANCH  55  69
BRANCH  56  80
ATOM     80  C   UNL     1     -11.564   7.304  12.104  1.00  0.00     0.064 A 
ATOM     81  C   UNL     1     -12.755   7.958  12.446  1.00  0.00     0.173 A 
ATOM     82  C   UNL     1     -11.657   6.067  11.451  1.00  0.00     0.173 A 
ATOM     83  F   UNL     1     -12.711   9.129  13.097  1.00  0.00    -0.203 F 
ATOM     84  C   UNL     1     -13.993   7.388  12.160  1.00  0.00     0.198 A 
ATOM     85  C   UNL     1     -12.896   5.508  11.146  1.00  0.00     0.198 A 
ATOM     86  F   UNL     1     -10.543   5.404  11.108  1.00  0.00    -0.203 F 
ATOM     87  F   UNL     1     -15.117   8.012  12.537  1.00  0.00    -0.200 F 
ATOM     88  C   UNL     1     -14.063   6.166  11.506  1.00  0.00     0.200 A 
ATOM     89  F   UNL     1     -12.960   4.328  10.516  1.00  0.00    -0.200 F 
ATOM     90  F   UNL     1     -15.255   5.617  11.236  1.00  0.00    -0.200 F 
ENDBRANCH  56  80
BRANCH  68  91
ATOM     91  C   UNL     1      -8.078   8.246  18.059  1.00  0.00     0.064 A 
ATOM     92  C   UNL     1      -8.159   6.963  18.616  1.00  0.00     0.173 A 
ATOM     93  C   UNL     1      -8.324   9.345  18.897  1.00  0.00     0.173 A 
ATOM     94  F   UNL     1      -7.948   5.881  17.852  1.00  0.00    -0.203 F 
ATOM     95  C   UNL     1      -8.498   6.785  19.956  1.00  0.00     0.198 A 
ATOM     96  C   UNL     1      -8.637   9.165  20.241  1.00  0.00     0.198 A 
ATOM     97  F   UNL     1      -8.252  10.594  18.413  1.00  0.00    -0.203 F 
ATOM     98  F   UNL     1      -8.614   5.548  20.457  1.00  0.00    -0.200 F 
ATOM     99  C   UNL     1      -8.731   7.886  20.768  1.00  0.00     0.200 A 
ATOM    100  F   UNL     1      -8.851  10.230  21.027  1.00  0.00    -0.200 F 
ATOM    101  F   UNL     1      -9.054   7.713  22.057  1.00  0.00    -0.200 F 
ENDBRANCH  68  91
ENDBRANCH  42  43
ENDBRANCH  34  37
ENDBRANCH  32  33
ENDBRANCH  31  32
ENDBRANCH   1  31
TORSDOF 13
