REMARK SMILES Cc1ccc(C)n1-c1ccccc1S[C@H](C)C(=O)NCCCNC(=O)c1ccc(-c2c3nc(c(-c4c(F)c(F)c(F)c(F)c4F)c4ccc([nH]4)c(-c4c(F)c(F)c(F)c(F)c4F)c4nc(c(-c5c(F)c(F)c(F)c(F)c5F)c5ccc2[nH]5)C=C4)C=C3)cc1
REMARK SMILES IDX 20 1 19 2 17 3 18 4 15 6 16 7 14 8 13 9 8 10 9 11 10 12
REMARK SMILES IDX 12 13 11 14 7 15 1 16 2 17 3 18 4 19 5 20 6 21 21 22 22 23
REMARK SMILES IDX 23 24 24 25 25 27 26 28 27 29 88 30 28 31 87 32 29 33 30 34
REMARK SMILES IDX 31 35 81 36 32 37 86 38 80 39 82 40 33 41 85 42 79 43 78 44
REMARK SMILES IDX 34 46 66 47 46 48 65 49 47 50 50 51 64 52 83 53 48 54 49 55
REMARK SMILES IDX 63 57 84 58 51 59 35 60 36 61 44 62 37 63 38 64 42 65 45 66
REMARK SMILES IDX 39 67 40 68 43 69 41 70 67 71 68 72 76 73 69 74 70 75 74 76
REMARK SMILES IDX 77 77 71 78 72 79 75 80 73 81 52 82 53 83 61 84 54 85 55 86
REMARK SMILES IDX 59 87 62 88 56 89 57 90 60 91 58 92
REMARK H PARENT 19 5 23 26 82 45 50 56
REMARK Flexibility Score: inf
ROOT
ATOM      1  C   UNL     1       0.719   3.358   1.926  1.00  0.00     0.117 C 
ENDROOT
BRANCH   1   2
ATOM      2  N   UNL     1      -0.565   2.887   2.413  1.00  0.00    -0.355 N 
ATOM      3  C   UNL     1      -1.462   1.954   2.014  1.00  0.00     0.233 C 
ATOM      4  O   UNL     1      -2.440   1.829   2.768  1.00  0.00    -0.274 OA
ATOM      5  H   UNL     1      -0.853   3.359   3.227  1.00  0.00     0.163 HD
BRANCH   3   6
ATOM      6  C   UNL     1      -1.442   1.163   0.706  1.00  0.00     0.137 C 
ATOM      7  C   UNL     1      -2.097   1.901  -0.446  1.00  0.00     0.030 C 
BRANCH   6   8
ATOM      8  S   UNL     1       0.012   0.088   0.444  1.00  0.00    -0.111 SA
BRANCH   8   9
ATOM      9  C   UNL     1       1.251   0.875  -0.589  1.00  0.00     0.032 A 
ATOM     10  C   UNL     1       2.619   0.533  -0.448  1.00  0.00     0.059 A 
ATOM     11  C   UNL     1       3.624   1.238  -1.137  1.00  0.00     0.028 A 
ATOM     12  C   UNL     1       3.286   2.273  -2.000  1.00  0.00     0.002 A 
ATOM     13  C   UNL     1       0.948   1.869  -1.526  1.00  0.00     0.017 A 
ATOM     14  C   UNL     1       1.948   2.575  -2.208  1.00  0.00     0.001 A 
BRANCH  10  15
ATOM     15  N   UNL     1       3.053  -0.509   0.421  1.00  0.00    -0.317 N 
ATOM     16  C   UNL     1       2.067  -2.479  -0.877  1.00  0.00     0.065 C 
ATOM     17  C   UNL     1       2.784  -1.869   0.280  1.00  0.00     0.020 A 
ATOM     18  C   UNL     1       3.363  -2.529   1.348  1.00  0.00     0.023 A 
ATOM     19  C   UNL     1       4.080  -1.583   2.102  1.00  0.00     0.023 A 
ATOM     20  C   UNL     1       3.915  -0.349   1.503  1.00  0.00     0.020 A 
ATOM     21  C   UNL     1       4.486   0.952   1.954  1.00  0.00     0.065 C 
ENDBRANCH  10  15
ENDBRANCH   8   9
ENDBRANCH   6   8
ENDBRANCH   3   6
ENDBRANCH   1   2
BRANCH   1  22
ATOM     22  C   UNL     1       0.633   4.615   1.052  1.00  0.00     0.042 C 
BRANCH  22  23
ATOM     23  C   UNL     1      -0.096   5.823   1.677  1.00  0.00     0.118 C 
BRANCH  23  24
ATOM     24  N   UNL     1       0.783   6.829   2.243  1.00  0.00    -0.352 N 
ATOM     25  C   UNL     1       0.559   8.187   2.397  1.00  0.00     0.251 C 
ATOM     26  H   UNL     1       1.656   6.502   2.561  1.00  0.00     0.163 HD
ATOM     27  O   UNL     1       1.417   8.865   2.951  1.00  0.00    -0.269 OA
BRANCH  25  28
ATOM     28  C   UNL     1      -0.651   8.870   1.820  1.00  0.00     0.039 A 
ATOM     29  C   UNL     1      -0.498   9.536   0.614  1.00  0.00     0.014 A 
ATOM     30  C   UNL     1      -1.849   9.092   2.522  1.00  0.00     0.014 A 
ATOM     31  C   UNL     1      -1.536  10.364   0.109  1.00  0.00     0.010 A 
ATOM     32  C   UNL     1      -2.871  10.005   2.041  1.00  0.00     0.010 A 
ATOM     33  C   UNL     1      -2.742  10.695   0.821  1.00  0.00    -0.014 A 
BRANCH  33  34
ATOM     34  C   UNL     1      -3.393  12.096   0.441  1.00  0.00     0.031 A 
ATOM     35  C   UNL     1      -2.218  13.017   0.461  1.00  0.00     0.074 A 
ATOM     36  C   UNL     1      -4.615  12.730   0.243  1.00  0.00     0.049 A 
ATOM     37  N   UNL     1      -1.497  13.133   1.544  1.00  0.00    -0.248 NA
ATOM     38  C   UNL     1      -1.574  13.501  -0.762  1.00  0.00     0.031 C 
ATOM     39  C   UNL     1      -5.962  12.177   0.448  1.00  0.00     0.029 A 
ATOM     40  N   UNL     1      -4.956  14.045  -0.204  1.00  0.00    -0.354 N 
ATOM     41  C   UNL     1      -0.460  13.967   1.210  1.00  0.00     0.074 A 
ATOM     42  C   UNL     1      -0.420  13.935  -0.244  1.00  0.00     0.031 C 
ATOM     43  C   UNL     1      -6.931  13.040   0.024  1.00  0.00     0.029 A 
ATOM     44  C   UNL     1      -6.351  14.286  -0.474  1.00  0.00     0.049 A 
ATOM     45  H   UNL     1      -4.276  14.747  -0.321  1.00  0.00     0.167 HD
ATOM     46  C   UNL     1      -0.299  15.050   2.023  1.00  0.00     0.037 A 
ATOM     47  C   UNL     1      -7.007  15.398  -0.995  1.00  0.00     0.037 A 
ATOM     48  C   UNL     1      -0.814  16.249   1.424  1.00  0.00     0.049 A 
ATOM     49  C   UNL     1      -6.129  16.550  -0.773  1.00  0.00     0.074 A 
ATOM     50  C   UNL     1      -0.692  16.810   0.168  1.00  0.00     0.029 A 
ATOM     51  N   UNL     1      -1.937  16.798   1.994  1.00  0.00    -0.354 N 
ATOM     52  N   UNL     1      -6.107  17.159   0.371  1.00  0.00    -0.248 NA
ATOM     53  C   UNL     1      -5.336  17.165  -1.829  1.00  0.00     0.031 C 
ATOM     54  C   UNL     1      -1.974  17.316  -0.141  1.00  0.00     0.029 A 
ATOM     55  C   UNL     1      -2.732  17.360   1.020  1.00  0.00     0.049 A 
ATOM     56  H   UNL     1      -2.143  16.791   2.957  1.00  0.00     0.167 HD
ATOM     57  C   UNL     1      -4.954  17.866   0.325  1.00  0.00     0.074 A 
ATOM     58  C   UNL     1      -4.688  18.067  -1.087  1.00  0.00     0.031 C 
ATOM     59  C   UNL     1      -4.105  17.646   1.355  1.00  0.00     0.037 A 
BRANCH  46  60
ATOM     60  C   UNL     1      -0.378  14.709   3.485  1.00  0.00     0.064 A 
ATOM     61  C   UNL     1       0.803  14.656   4.230  1.00  0.00     0.173 A 
ATOM     62  C   UNL     1      -1.559  14.255   4.109  1.00  0.00     0.173 A 
ATOM     63  F   UNL     1       1.945  15.136   3.713  1.00  0.00    -0.203 F 
ATOM     64  C   UNL     1       0.820  14.100   5.509  1.00  0.00     0.198 A 
ATOM     65  C   UNL     1      -1.527  13.639   5.356  1.00  0.00     0.198 A 
ATOM     66  F   UNL     1      -2.751  14.401   3.506  1.00  0.00    -0.203 F 
ATOM     67  F   UNL     1       1.961  14.077   6.212  1.00  0.00    -0.200 F 
ATOM     68  C   UNL     1      -0.335  13.555   6.053  1.00  0.00     0.200 A 
ATOM     69  F   UNL     1      -2.651  13.124   5.876  1.00  0.00    -0.200 F 
ATOM     70  F   UNL     1      -0.302  12.965   7.256  1.00  0.00    -0.200 F 
ENDBRANCH  46  60
BRANCH  47  71
ATOM     71  C   UNL     1      -8.363  15.906  -1.549  1.00  0.00     0.064 A 
ATOM     72  C   UNL     1      -8.748  17.290  -1.425  1.00  0.00     0.173 A 
ATOM     73  C   UNL     1      -9.094  15.211  -2.519  1.00  0.00     0.173 A 
ATOM     74  F   UNL     1      -8.207  18.094  -0.501  1.00  0.00    -0.203 F 
ATOM     75  C   UNL     1      -9.654  17.935  -2.280  1.00  0.00     0.198 A 
ATOM     76  C   UNL     1     -10.043  15.857  -3.353  1.00  0.00     0.198 A 
ATOM     77  F   UNL     1      -8.843  13.915  -2.742  1.00  0.00    -0.203 F 
ATOM     78  F   UNL     1      -9.845  19.261  -2.182  1.00  0.00    -0.200 F 
ATOM     79  C   UNL     1     -10.290  17.220  -3.262  1.00  0.00     0.200 A 
ATOM     80  F   UNL     1     -10.678  15.158  -4.306  1.00  0.00    -0.200 F 
ATOM     81  F   UNL     1     -11.106  17.840  -4.127  1.00  0.00    -0.200 F 
ENDBRANCH  47  71
BRANCH  59  82
ATOM     82  C   UNL     1      -4.706  17.519   2.752  1.00  0.00     0.064 A 
ATOM     83  C   UNL     1      -5.832  16.753   3.150  1.00  0.00     0.173 A 
ATOM     84  C   UNL     1      -4.096  18.273   3.767  1.00  0.00     0.173 A 
ATOM     85  F   UNL     1      -6.439  15.878   2.335  1.00  0.00    -0.203 F 
ATOM     86  C   UNL     1      -6.350  16.822   4.447  1.00  0.00     0.198 A 
ATOM     87  C   UNL     1      -4.572  18.279   5.077  1.00  0.00     0.198 A 
ATOM     88  F   UNL     1      -2.997  18.993   3.497  1.00  0.00    -0.203 F 
ATOM     89  F   UNL     1      -7.460  16.136   4.764  1.00  0.00    -0.200 F 
ATOM     90  C   UNL     1      -5.714  17.577   5.411  1.00  0.00     0.200 A 
ATOM     91  F   UNL     1      -3.907  18.963   6.017  1.00  0.00    -0.200 F 
ATOM     92  F   UNL     1      -6.184  17.608   6.666  1.00  0.00    -0.200 F 
ENDBRANCH  59  82
ENDBRANCH  33  34
ENDBRANCH  25  28
ENDBRANCH  23  24
ENDBRANCH  22  23
ENDBRANCH   1  22
TORSDOF 13
