REMARK SMILES O=C(C[NH+]1CCN(c2nccc(N3CCCCC3)n2)CC1)NCCCNC(=O)c1ccc(-c2c3nc(c(-c4c(F)c(F)c(F)c(F)c4F)c4ccc([nH]4)c(-c4c(F)c(F)c(F)c(F)c4F)c4nc(c(-c5c(F)c(F)c(F)c(F)c5F)c5ccc2[nH]5)C=C4)C=C3)cc1
REMARK SMILES IDX 23 1 22 2 1 3 2 4 3 6 4 7 5 8 21 9 6 11 20 12 7 13 8 14 9 15
REMARK SMILES IDX 19 16 10 17 12 18 11 19 13 20 14 21 18 22 15 23 17 24 16 25
REMARK SMILES IDX 24 26 25 27 26 28 27 29 28 31 29 32 30 33 91 34 31 35 90 36
REMARK SMILES IDX 32 37 33 38 34 39 84 40 35 41 89 42 83 43 85 44 36 45 88 46
REMARK SMILES IDX 82 47 81 48 37 50 69 51 49 52 68 53 50 54 53 55 67 56 86 57
REMARK SMILES IDX 51 58 52 59 66 61 87 62 54 63 38 64 39 65 47 66 40 67 41 68
REMARK SMILES IDX 45 69 48 70 42 71 43 72 46 73 44 74 70 75 71 76 79 77 72 78
REMARK SMILES IDX 73 79 77 80 80 81 74 82 75 83 78 84 76 85 55 86 56 87 64 88
REMARK SMILES IDX 57 89 58 90 62 91 65 92 59 93 60 94 63 95 61 96
REMARK H PARENT 22 5 4 10 26 30 85 49 53 60
REMARK Flexibility Score: inf
ROOT
ATOM      1  C   UNL     1       1.744   1.712   1.678  1.00  0.00     0.118 C 
ENDROOT
BRANCH   1   2
ATOM      2  N   UNL     1       2.269   0.494   1.099  1.00  0.00    -0.351 N 
ATOM      3  O   UNL     1       0.869   0.503  -0.722  1.00  0.00    -0.269 OA
ATOM      4  C   UNL     1       1.851   0.050  -0.144  1.00  0.00     0.275 C 
ATOM      5  H   UNL     1       2.937  -0.029   1.598  1.00  0.00     0.163 HD
BRANCH   4   6
ATOM      6  C   UNL     1       2.812  -0.974  -0.760  1.00  0.00     0.363 C 
BRANCH   6   7
ATOM      7  N   UNL     1       3.735  -0.402  -1.764  1.00  0.00    -0.324 N 
ATOM      8  C   UNL     1       3.987   1.057  -1.697  1.00  0.00     0.284 C 
ATOM      9  C   UNL     1       5.037  -1.114  -1.779  1.00  0.00     0.284 C 
ATOM     10  H   UNL     1       3.220  -0.544  -2.633  1.00  0.00     0.348 HD
ATOM     11  C   UNL     1       4.939   1.532  -0.578  1.00  0.00     0.181 C 
ATOM     12  C   UNL     1       6.024  -0.708  -0.652  1.00  0.00     0.181 C 
ATOM     13  N   UNL     1       6.151   0.738  -0.602  1.00  0.00    -0.329 N 
BRANCH  13  14
ATOM     14  C   UNL     1       7.241   1.252   0.051  1.00  0.00     0.227 A 
ATOM     15  N   UNL     1       7.099   1.728   1.299  1.00  0.00    -0.221 NA
ATOM     16  N   UNL     1       8.370   1.338  -0.661  1.00  0.00    -0.196 NA
ATOM     17  C   UNL     1       8.181   2.322   1.830  1.00  0.00     0.119 A 
ATOM     18  C   UNL     1       9.424   1.963  -0.118  1.00  0.00     0.134 A 
ATOM     19  C   UNL     1       9.376   2.455   1.169  1.00  0.00     0.067 A 
BRANCH  18  20
ATOM     20  N   UNL     1      10.539   2.210  -0.901  1.00  0.00    -0.356 N 
ATOM     21  C   UNL     1      10.306   2.638  -2.279  1.00  0.00     0.118 C 
ATOM     22  C   UNL     1      11.776   1.504  -0.598  1.00  0.00     0.118 C 
ATOM     23  C   UNL     1      10.532   1.498  -3.267  1.00  0.00     0.022 C 
ATOM     24  C   UNL     1      11.993   0.352  -1.583  1.00  0.00     0.022 C 
ATOM     25  C   UNL     1      11.884   0.832  -3.030  1.00  0.00     0.004 C 
ENDBRANCH  18  20
ENDBRANCH  13  14
ENDBRANCH   6   7
ENDBRANCH   4   6
ENDBRANCH   1   2
BRANCH   1  26
ATOM     26  C   UNL     1       2.157   1.898   3.132  1.00  0.00     0.042 C 
BRANCH  26  27
ATOM     27  C   UNL     1       3.659   2.050   3.367  1.00  0.00     0.118 C 
BRANCH  27  28
ATOM     28  N   UNL     1       4.198   3.329   2.935  1.00  0.00    -0.352 N 
ATOM     29  C   UNL     1       4.996   4.218   3.615  1.00  0.00     0.251 C 
ATOM     30  H   UNL     1       3.956   3.598   2.020  1.00  0.00     0.163 HD
ATOM     31  O   UNL     1       5.291   5.296   3.103  1.00  0.00    -0.269 OA
BRANCH  29  32
ATOM     32  C   UNL     1       5.478   3.913   4.983  1.00  0.00     0.039 A 
ATOM     33  C   UNL     1       5.420   4.922   5.949  1.00  0.00     0.014 A 
ATOM     34  C   UNL     1       5.998   2.661   5.321  1.00  0.00     0.014 A 
ATOM     35  C   UNL     1       5.814   4.655   7.263  1.00  0.00     0.010 A 
ATOM     36  C   UNL     1       6.317   2.373   6.649  1.00  0.00     0.010 A 
ATOM     37  C   UNL     1       6.228   3.366   7.636  1.00  0.00    -0.014 A 
BRANCH  37  38
ATOM     38  C   UNL     1       6.551   3.052   9.055  1.00  0.00     0.031 A 
ATOM     39  C   UNL     1       7.940   2.636   9.456  1.00  0.00     0.074 A 
ATOM     40  C   UNL     1       5.577   3.107   9.986  1.00  0.00     0.049 A 
ATOM     41  N   UNL     1       8.402   2.322  10.642  1.00  0.00    -0.248 NA
ATOM     42  C   UNL     1       8.939   2.538   8.381  1.00  0.00     0.031 C 
ATOM     43  C   UNL     1       4.177   3.445   9.724  1.00  0.00     0.029 A 
ATOM     44  N   UNL     1       5.614   2.879  11.341  1.00  0.00    -0.354 N 
ATOM     45  C   UNL     1       9.736   1.986  10.454  1.00  0.00     0.074 A 
ATOM     46  C   UNL     1       9.996   2.075   9.033  1.00  0.00     0.031 C 
ATOM     47  C   UNL     1       3.497   3.434  10.881  1.00  0.00     0.029 A 
ATOM     48  C   UNL     1       4.401   3.051  11.962  1.00  0.00     0.049 A 
ATOM     49  H   UNL     1       6.432   2.616  11.820  1.00  0.00     0.167 HD
ATOM     50  C   UNL     1      10.668   1.659  11.382  1.00  0.00     0.037 A 
ATOM     51  C   UNL     1       4.053   2.914  13.256  1.00  0.00     0.037 A 
ATOM     52  C   UNL     1      10.412   1.581  12.798  1.00  0.00     0.049 A 
ATOM     53  C   UNL     1       5.103   2.534  14.265  1.00  0.00     0.074 A 
ATOM     54  C   UNL     1      11.303   1.310  13.822  1.00  0.00     0.029 A 
ATOM     55  N   UNL     1       9.171   1.765  13.390  1.00  0.00    -0.354 N 
ATOM     56  N   UNL     1       6.380   2.298  14.084  1.00  0.00    -0.248 NA
ATOM     57  C   UNL     1       4.664   2.411  15.662  1.00  0.00     0.031 C 
ATOM     58  C   UNL     1      10.591   1.270  15.026  1.00  0.00     0.029 A 
ATOM     59  C   UNL     1       9.268   1.584  14.762  1.00  0.00     0.049 A 
ATOM     60  H   UNL     1       8.343   1.990  12.907  1.00  0.00     0.167 HD
ATOM     61  C   UNL     1       6.902   2.031  15.344  1.00  0.00     0.074 A 
ATOM     62  C   UNL     1       5.806   2.154  16.282  1.00  0.00     0.031 C 
ATOM     63  C   UNL     1       8.173   1.713  15.690  1.00  0.00     0.037 A 
BRANCH  50  64
ATOM     64  C   UNL     1      12.059   1.359  10.897  1.00  0.00     0.064 A 
ATOM     65  C   UNL     1      12.883   2.358  10.356  1.00  0.00     0.173 A 
ATOM     66  C   UNL     1      12.592   0.066  11.014  1.00  0.00     0.173 A 
ATOM     67  F   UNL     1      12.422   3.610  10.212  1.00  0.00    -0.203 F 
ATOM     68  C   UNL     1      14.174   2.067   9.921  1.00  0.00     0.198 A 
ATOM     69  C   UNL     1      13.895  -0.214  10.610  1.00  0.00     0.198 A 
ATOM     70  F   UNL     1      11.852  -0.927  11.531  1.00  0.00    -0.203 F 
ATOM     71  F   UNL     1      14.921   3.026   9.357  1.00  0.00    -0.200 F 
ATOM     72  C   UNL     1      14.682   0.784  10.055  1.00  0.00     0.200 A 
ATOM     73  F   UNL     1      14.389  -1.451  10.756  1.00  0.00    -0.200 F 
ATOM     74  F   UNL     1      15.927   0.508   9.643  1.00  0.00    -0.200 F 
ENDBRANCH  50  64
BRANCH  51  75
ATOM     75  C   UNL     1       2.648   3.162  13.681  1.00  0.00     0.064 A 
ATOM     76  C   UNL     1       2.322   4.255  14.498  1.00  0.00     0.173 A 
ATOM     77  C   UNL     1       1.607   2.306  13.294  1.00  0.00     0.173 A 
ATOM     78  F   UNL     1       3.285   5.091  14.913  1.00  0.00    -0.203 F 
ATOM     79  C   UNL     1       1.015   4.465  14.933  1.00  0.00     0.198 A 
ATOM     80  C   UNL     1       0.295   2.536  13.702  1.00  0.00     0.198 A 
ATOM     81  F   UNL     1       1.863   1.248  12.509  1.00  0.00    -0.203 F 
ATOM     82  F   UNL     1       0.743   5.484  15.759  1.00  0.00    -0.200 F 
ATOM     83  C   UNL     1       0.002   3.609  14.530  1.00  0.00     0.200 A 
ATOM     84  F   UNL     1      -0.684   1.716  13.297  1.00  0.00    -0.200 F 
ATOM     85  F   UNL     1      -1.255   3.813  14.947  1.00  0.00    -0.200 F 
ENDBRANCH  51  75
BRANCH  63  86
ATOM     86  C   UNL     1       8.461   1.516  17.152  1.00  0.00     0.064 A 
ATOM     87  C   UNL     1       7.958   0.417  17.866  1.00  0.00     0.173 A 
ATOM     88  C   UNL     1       9.271   2.429  17.845  1.00  0.00     0.173 A 
ATOM     89  F   UNL     1       7.168  -0.479  17.256  1.00  0.00    -0.203 F 
ATOM     90  C   UNL     1       8.225   0.260  19.224  1.00  0.00     0.198 A 
ATOM     91  C   UNL     1       9.567   2.250  19.194  1.00  0.00     0.198 A 
ATOM     92  F   UNL     1       9.786   3.493  17.211  1.00  0.00    -0.203 F 
ATOM     93  F   UNL     1       7.683  -0.764  19.897  1.00  0.00    -0.200 F 
ATOM     94  C   UNL     1       9.034   1.172  19.884  1.00  0.00     0.200 A 
ATOM     95  F   UNL     1      10.363   3.123  19.826  1.00  0.00    -0.200 F 
ATOM     96  F   UNL     1       9.293   1.017  21.190  1.00  0.00    -0.200 F 
ENDBRANCH  63  86
ENDBRANCH  37  38
ENDBRANCH  29  32
ENDBRANCH  27  28
ENDBRANCH  26  27
ENDBRANCH   1  26
TORSDOF 13
