REMARK SMILES COC[C@@H](C)CC(=O)N1CCCC[C@@H]1CC(=O)NCCCNC(=O)c1ccc(-c2c3nc(c(-c4c(F)c(F)c(F)c(F)c4F)c4ccc([nH]4)c(-c4c(F)c(F)c(F)c(F)c4F)c4nc(c(-c5c(F)c(F)c(F)c(F)c5F)c5ccc2[nH]5)C=C4)C=C3)cc1
REMARK SMILES IDX 16 1 17 2 18 3 15 5 14 6 9 7 10 8 11 9 13 10 12 11 7 12 8 13
REMARK SMILES IDX 6 14 4 15 5 16 3 17 2 18 1 19 19 20 20 21 21 22 22 23 23 24
REMARK SMILES IDX 24 26 25 27 26 28 87 29 27 30 86 31 28 32 29 33 30 34 80 35
REMARK SMILES IDX 31 36 85 37 79 38 81 39 32 40 84 41 78 42 77 43 33 45 65 46
REMARK SMILES IDX 45 47 64 48 46 49 49 50 63 51 82 52 47 53 48 54 62 56 83 57
REMARK SMILES IDX 50 58 34 59 35 60 43 61 36 62 37 63 41 64 44 65 38 66 39 67
REMARK SMILES IDX 42 68 40 69 66 70 67 71 75 72 68 73 69 74 73 75 76 76 70 77
REMARK SMILES IDX 71 78 74 79 72 80 51 81 52 82 60 83 53 84 54 85 58 86 61 87
REMARK SMILES IDX 55 88 56 89 59 90 57 91
REMARK H PARENT 18 4 22 25 81 44 49 55
REMARK Flexibility Score: inf
ROOT
ATOM      1  C   UNL     1      -0.026  -1.547   2.512  1.00  0.00     0.222 C 
ATOM      2  O   UNL     1       1.087  -1.026   2.584  1.00  0.00    -0.275 OA
ATOM      3  N   UNL     1      -1.090  -0.888   3.052  1.00  0.00    -0.356 N 
ATOM      4  H   UNL     1      -1.008   0.091   3.111  1.00  0.00     0.163 HD
ENDROOT
BRANCH   1   5
ATOM      5  C   UNL     1      -0.261  -2.855   1.790  1.00  0.00     0.125 C 
BRANCH   5   6
ATOM      6  C   UNL     1       0.809  -3.915   2.111  1.00  0.00     0.094 C 
ATOM      7  N   UNL     1       0.766  -5.037   1.138  1.00  0.00    -0.339 N 
ATOM      8  C   UNL     1       1.260  -6.341   1.566  1.00  0.00     0.120 C 
ATOM      9  C   UNL     1       0.721  -6.769   2.917  1.00  0.00     0.022 C 
ATOM     10  C   UNL     1       0.505  -4.383   3.562  1.00  0.00     0.026 C 
ATOM     11  C   UNL     1       1.088  -5.727   3.959  1.00  0.00     0.004 C 
BRANCH   7  12
ATOM     12  C   UNL     1       0.706  -4.881  -0.247  1.00  0.00     0.223 C 
ATOM     13  O   UNL     1      -0.022  -5.598  -0.936  1.00  0.00    -0.275 OA
BRANCH  12  14
ATOM     14  C   UNL     1       1.728  -3.959  -0.906  1.00  0.00     0.106 C 
BRANCH  14  15
ATOM     15  C   UNL     1       1.144  -2.630  -1.408  1.00  0.00     0.021 C 
ATOM     16  C   UNL     1       1.301  -2.464  -2.924  1.00  0.00     0.010 C 
BRANCH  15  17
ATOM     17  C   UNL     1       1.827  -1.446  -0.707  1.00  0.00     0.163 C 
BRANCH  17  18
ATOM     18  O   UNL     1       0.923  -0.342  -0.696  1.00  0.00    -0.384 OA
ATOM     19  C   UNL     1       1.572   0.864  -0.315  1.00  0.00     0.194 C 
ENDBRANCH  17  18
ENDBRANCH  15  17
ENDBRANCH  14  15
ENDBRANCH  12  14
ENDBRANCH   7  12
ENDBRANCH   5   6
ENDBRANCH   1   5
BRANCH   3  20
ATOM     20  C   UNL     1      -2.330  -1.458   3.551  1.00  0.00     0.117 C 
BRANCH  20  21
ATOM     21  C   UNL     1      -2.125  -1.995   4.965  1.00  0.00     0.042 C 
BRANCH  21  22
ATOM     22  C   UNL     1      -1.817  -0.888   5.966  1.00  0.00     0.118 C 
BRANCH  22  23
ATOM     23  N   UNL     1      -3.017  -0.142   6.308  1.00  0.00    -0.352 N 
ATOM     24  C   UNL     1      -3.758  -0.197   7.455  1.00  0.00     0.251 C 
ATOM     25  H   UNL     1      -3.340   0.486   5.621  1.00  0.00     0.163 HD
ATOM     26  O   UNL     1      -4.915   0.244   7.461  1.00  0.00    -0.269 OA
BRANCH  24  27
ATOM     27  C   UNL     1      -3.189  -0.770   8.691  1.00  0.00     0.039 A 
ATOM     28  C   UNL     1      -4.005  -1.539   9.524  1.00  0.00     0.014 A 
ATOM     29  C   UNL     1      -1.870  -0.489   9.066  1.00  0.00     0.014 A 
ATOM     30  C   UNL     1      -3.497  -2.033  10.726  1.00  0.00     0.010 A 
ATOM     31  C   UNL     1      -1.339  -1.054  10.221  1.00  0.00     0.010 A 
ATOM     32  C   UNL     1      -2.159  -1.796  11.082  1.00  0.00    -0.014 A 
BRANCH  32  33
ATOM     33  C   UNL     1      -1.629  -2.244  12.393  1.00  0.00     0.031 A 
ATOM     34  C   UNL     1      -1.208  -1.223  13.416  1.00  0.00     0.074 A 
ATOM     35  C   UNL     1      -1.491  -3.558  12.649  1.00  0.00     0.049 A 
ATOM     36  N   UNL     1      -0.691  -1.403  14.606  1.00  0.00    -0.248 NA
ATOM     37  C   UNL     1      -1.353   0.192  13.037  1.00  0.00     0.031 C 
ATOM     38  C   UNL     1      -1.803  -4.639  11.714  1.00  0.00     0.029 A 
ATOM     39  N   UNL     1      -1.046  -4.205  13.773  1.00  0.00    -0.354 N 
ATOM     40  C   UNL     1      -0.432  -0.132  15.101  1.00  0.00     0.074 A 
ATOM     41  C   UNL     1      -0.789   0.809  14.063  1.00  0.00     0.031 C 
ATOM     42  C   UNL     1      -1.562  -5.817  12.312  1.00  0.00     0.029 A 
ATOM     43  C   UNL     1      -1.062  -5.573  13.661  1.00  0.00     0.049 A 
ATOM     44  H   UNL     1      -0.745  -3.734  14.584  1.00  0.00     0.167 HD
ATOM     45  C   UNL     1       0.034   0.223  16.322  1.00  0.00     0.037 A 
ATOM     46  C   UNL     1      -0.718  -6.521  14.553  1.00  0.00     0.037 A 
ATOM     47  C   UNL     1       0.345  -0.714  17.368  1.00  0.00     0.049 A 
ATOM     48  C   UNL     1      -0.263  -6.104  15.925  1.00  0.00     0.074 A 
ATOM     49  C   UNL     1       0.761  -0.461  18.662  1.00  0.00     0.029 A 
ATOM     50  N   UNL     1       0.263  -2.093  17.235  1.00  0.00    -0.354 N 
ATOM     51  N   UNL     1      -0.086  -4.898  16.406  1.00  0.00    -0.248 NA
ATOM     52  C   UNL     1       0.023  -7.181  16.883  1.00  0.00     0.031 C 
ATOM     53  C   UNL     1       0.959  -1.689  19.305  1.00  0.00     0.029 A 
ATOM     54  C   UNL     1       0.629  -2.705  18.423  1.00  0.00     0.049 A 
ATOM     55  H   UNL     1      -0.014  -2.567  16.418  1.00  0.00     0.167 HD
ATOM     56  C   UNL     1       0.313  -5.067  17.725  1.00  0.00     0.074 A 
ATOM     57  C   UNL     1       0.332  -6.494  17.974  1.00  0.00     0.031 C 
ATOM     58  C   UNL     1       0.639  -4.128  18.646  1.00  0.00     0.037 A 
BRANCH  45  59
ATOM     59  C   UNL     1       0.221   1.688  16.590  1.00  0.00     0.064 A 
ATOM     60  C   UNL     1      -0.874   2.558  16.718  1.00  0.00     0.173 A 
ATOM     61  C   UNL     1       1.507   2.231  16.726  1.00  0.00     0.173 A 
ATOM     62  F   UNL     1      -2.125   2.092  16.582  1.00  0.00    -0.203 F 
ATOM     63  C   UNL     1      -0.687   3.921  16.934  1.00  0.00     0.198 A 
ATOM     64  C   UNL     1       1.689   3.590  16.972  1.00  0.00     0.198 A 
ATOM     65  F   UNL     1       2.588   1.445  16.616  1.00  0.00    -0.203 F 
ATOM     66  F   UNL     1      -1.747   4.739  16.992  1.00  0.00    -0.200 F 
ATOM     67  C   UNL     1       0.594   4.435  17.066  1.00  0.00     0.200 A 
ATOM     68  F   UNL     1       2.928   4.084  17.110  1.00  0.00    -0.200 F 
ATOM     69  F   UNL     1       0.772   5.747  17.273  1.00  0.00    -0.200 F 
ENDBRANCH  45  59
BRANCH  46  70
ATOM     70  C   UNL     1      -0.841  -7.954  14.186  1.00  0.00     0.064 A 
ATOM     71  C   UNL     1      -1.857  -8.751  14.730  1.00  0.00     0.173 A 
ATOM     72  C   UNL     1       0.038  -8.549  13.271  1.00  0.00     0.173 A 
ATOM     73  F   UNL     1      -2.711  -8.229  15.623  1.00  0.00    -0.203 F 
ATOM     74  C   UNL     1      -1.980 -10.095  14.384  1.00  0.00     0.198 A 
ATOM     75  C   UNL     1      -0.101  -9.887  12.907  1.00  0.00     0.198 A 
ATOM     76  F   UNL     1       1.022  -7.825  12.716  1.00  0.00    -0.203 F 
ATOM     77  F   UNL     1      -2.939 -10.844  14.945  1.00  0.00    -0.200 F 
ATOM     78  C   UNL     1      -1.106 -10.660  13.468  1.00  0.00     0.200 A 
ATOM     79  F   UNL     1       0.737 -10.425  12.010  1.00  0.00    -0.200 F 
ATOM     80  F   UNL     1      -1.230 -11.950  13.128  1.00  0.00    -0.200 F 
ENDBRANCH  46  70
BRANCH  58  81
ATOM     81  C   UNL     1       1.024  -4.616  20.011  1.00  0.00     0.064 A 
ATOM     82  C   UNL     1       2.261  -5.235  20.244  1.00  0.00     0.173 A 
ATOM     83  C   UNL     1       0.160  -4.436  21.100  1.00  0.00     0.173 A 
ATOM     84  F   UNL     1       3.114  -5.442  19.230  1.00  0.00    -0.203 F 
ATOM     85  C   UNL     1       2.607  -5.681  21.516  1.00  0.00     0.198 A 
ATOM     86  C   UNL     1       0.520  -4.859  22.376  1.00  0.00     0.198 A 
ATOM     87  F   UNL     1      -1.031  -3.843  20.928  1.00  0.00    -0.203 F 
ATOM     88  F   UNL     1       3.773  -6.311  21.709  1.00  0.00    -0.200 F 
ATOM     89  C   UNL     1       1.739  -5.488  22.582  1.00  0.00     0.200 A 
ATOM     90  F   UNL     1      -0.314  -4.663  23.406  1.00  0.00    -0.200 F 
ATOM     91  F   UNL     1       2.075  -5.916  23.806  1.00  0.00    -0.200 F 
ENDBRANCH  58  81
ENDBRANCH  32  33
ENDBRANCH  24  27
ENDBRANCH  22  23
ENDBRANCH  21  22
ENDBRANCH  20  21
ENDBRANCH   3  20
TORSDOF 16
