REMARK SMILES C[C@H](c1ccccc1)N1C(=O)c2ccc(C(=O)NCCCNC(=O)c3ccc(-c4c5nc(c(-c6c(F)c(F)c(F)c(F)c6F)c6ccc([nH]6)c(-c6c(F)c(F)c(F)c(F)c6F)c6nc(c(-c7c(F)c(F)c(F)c(F)c7F)c7ccc4[nH]7)C=C6)C=C5)cc3)cc2C1=O
REMARK SMILES IDX 20 1 19 2 18 3 16 4 17 5 15 7 9 8 10 9 90 10 11 11 12 12
REMARK SMILES IDX 89 13 91 14 13 15 88 16 14 17 2 18 1 19 3 20 4 21 8 22 5 23
REMARK SMILES IDX 7 24 6 25 21 26 22 27 23 28 24 30 25 31 26 32 87 33 27 34
REMARK SMILES IDX 86 35 28 36 29 37 30 38 80 39 31 40 85 41 79 42 81 43 32 44
REMARK SMILES IDX 84 45 78 46 77 47 33 49 65 50 45 51 64 52 46 53 49 54 63 55
REMARK SMILES IDX 82 56 47 57 48 58 62 60 83 61 50 62 34 63 35 64 43 65 36 66
REMARK SMILES IDX 37 67 41 68 44 69 38 70 39 71 42 72 40 73 66 74 67 75 75 76
REMARK SMILES IDX 68 77 69 78 73 79 76 80 70 81 71 82 74 83 72 84 51 85 52 86
REMARK SMILES IDX 60 87 53 88 54 89 58 90 61 91 55 92 56 93 59 94 57 95
REMARK H PARENT 18 6 22 29 81 48 49 59
REMARK Flexibility Score: inf
ROOT
ATOM      1  C   UNL     1      -7.691  -2.399   4.006  1.00  0.00     0.042 C 
ENDROOT
BRANCH   1   2
ATOM      2  C   UNL     1      -7.214  -2.482   2.559  1.00  0.00     0.118 C 
BRANCH   2   3
ATOM      3  N   UNL     1      -7.730  -1.411   1.722  1.00  0.00    -0.352 N 
ATOM      4  C   UNL     1      -7.155  -0.297   1.172  1.00  0.00     0.251 C 
ATOM      5  O   UNL     1      -7.883   0.511   0.599  1.00  0.00    -0.269 OA
ATOM      6  H   UNL     1      -8.686  -1.507   1.506  1.00  0.00     0.163 HD
BRANCH   4   7
ATOM      7  C   UNL     1      -5.705   0.002   1.271  1.00  0.00     0.040 A 
ATOM      8  N   UNL     1      -1.118  -0.382   1.242  1.00  0.00    -0.267 N 
ATOM      9  C   UNL     1      -1.611   0.862   1.533  1.00  0.00     0.262 C 
ATOM     10  C   UNL     1      -2.135  -1.290   1.097  1.00  0.00     0.262 C 
ATOM     11  O   UNL     1      -1.045   1.882   1.876  1.00  0.00    -0.269 OA
ATOM     12  C   UNL     1      -3.062   0.773   1.439  1.00  0.00     0.053 A 
ATOM     13  C   UNL     1      -3.391  -0.547   1.206  1.00  0.00     0.054 A 
ATOM     14  O   UNL     1      -2.082  -2.496   0.939  1.00  0.00    -0.269 OA
ATOM     15  C   UNL     1      -4.016   1.763   1.542  1.00  0.00     0.015 A 
ATOM     16  C   UNL     1      -4.707  -0.967   1.101  1.00  0.00     0.028 A 
ATOM     17  C   UNL     1      -5.351   1.365   1.450  1.00  0.00     0.015 A 
BRANCH   8  18
ATOM     18  C   UNL     1       0.300  -0.735   1.146  1.00  0.00     0.121 C 
ATOM     19  C   UNL     1       1.044  -0.528   2.468  1.00  0.00     0.037 C 
BRANCH  18  20
ATOM     20  C   UNL     1       0.971  -0.047  -0.040  1.00  0.00    -0.025 A 
ATOM     21  C   UNL     1       1.282   1.323  -0.030  1.00  0.00     0.006 A 
ATOM     22  C   UNL     1       1.254  -0.778  -1.206  1.00  0.00     0.006 A 
ATOM     23  C   UNL     1       1.812   1.952  -1.157  1.00  0.00     0.000 A 
ATOM     24  C   UNL     1       1.809  -0.153  -2.326  1.00  0.00     0.000 A 
ATOM     25  C   UNL     1       2.075   1.214  -2.306  1.00  0.00     0.000 A 
ENDBRANCH  18  20
ENDBRANCH   8  18
ENDBRANCH   4   7
ENDBRANCH   2   3
ENDBRANCH   1   2
BRANCH   1  26
ATOM     26  C   UNL     1      -9.206  -2.428   4.202  1.00  0.00     0.118 C 
BRANCH  26  27
ATOM     27  N   UNL     1      -9.828  -3.645   3.701  1.00  0.00    -0.352 N 
ATOM     28  C   UNL     1     -10.455  -4.679   4.351  1.00  0.00     0.251 C 
ATOM     29  H   UNL     1      -9.792  -3.745   2.723  1.00  0.00     0.163 HD
ATOM     30  O   UNL     1     -10.762  -5.684   3.715  1.00  0.00    -0.269 OA
BRANCH  28  31
ATOM     31  C   UNL     1     -10.755  -4.623   5.801  1.00  0.00     0.039 A 
ATOM     32  C   UNL     1     -10.597  -5.790   6.559  1.00  0.00     0.014 A 
ATOM     33  C   UNL     1     -11.255  -3.470   6.409  1.00  0.00     0.014 A 
ATOM     34  C   UNL     1     -10.876  -5.782   7.929  1.00  0.00     0.010 A 
ATOM     35  C   UNL     1     -11.469  -3.443   7.788  1.00  0.00     0.010 A 
ATOM     36  C   UNL     1     -11.284  -4.599   8.562  1.00  0.00    -0.014 A 
BRANCH  36  37
ATOM     37  C   UNL     1     -11.528  -4.552  10.028  1.00  0.00     0.031 A 
ATOM     38  C   UNL     1     -12.909  -4.286  10.561  1.00  0.00     0.074 A 
ATOM     39  C   UNL     1     -10.493  -4.682  10.881  1.00  0.00     0.049 A 
ATOM     40  N   UNL     1     -13.301  -4.116  11.799  1.00  0.00    -0.248 NA
ATOM     41  C   UNL     1     -13.988  -4.170   9.568  1.00  0.00     0.031 C 
ATOM     42  C   UNL     1      -9.100  -4.902  10.492  1.00  0.00     0.029 A 
ATOM     43  N   UNL     1     -10.451  -4.633  12.252  1.00  0.00    -0.354 N 
ATOM     44  C   UNL     1     -14.662  -3.850  11.732  1.00  0.00     0.074 A 
ATOM     45  C   UNL     1     -15.022  -3.843  10.330  1.00  0.00     0.031 C 
ATOM     46  C   UNL     1      -8.342  -4.984  11.597  1.00  0.00     0.029 A 
ATOM     47  C   UNL     1      -9.189  -4.790  12.770  1.00  0.00     0.049 A 
ATOM     48  H   UNL     1     -11.251  -4.499  12.811  1.00  0.00     0.167 HD
ATOM     49  C   UNL     1     -15.536  -3.647  12.747  1.00  0.00     0.037 A 
ATOM     50  C   UNL     1      -8.761  -4.771  14.047  1.00  0.00     0.037 A 
ATOM     51  C   UNL     1     -15.187  -3.692  14.143  1.00  0.00     0.049 A 
ATOM     52  C   UNL     1      -9.755  -4.563  15.156  1.00  0.00     0.074 A 
ATOM     53  C   UNL     1     -16.014  -3.562  15.245  1.00  0.00     0.029 A 
ATOM     54  N   UNL     1     -13.903  -3.886  14.628  1.00  0.00    -0.354 N 
ATOM     55  N   UNL     1     -11.048  -4.366  15.081  1.00  0.00    -0.248 NA
ATOM     56  C   UNL     1      -9.229  -4.582  16.529  1.00  0.00     0.031 C 
ATOM     57  C   UNL     1     -15.226  -3.647  16.398  1.00  0.00     0.029 A 
ATOM     58  C   UNL     1     -13.913  -3.866  16.014  1.00  0.00     0.049 A 
ATOM     59  H   UNL     1     -13.102  -4.019  14.071  1.00  0.00     0.167 HD
ATOM     60  C   UNL     1     -11.494  -4.261  16.391  1.00  0.00     0.074 A 
ATOM     61  C   UNL     1     -10.335  -4.429  17.243  1.00  0.00     0.031 C 
ATOM     62  C   UNL     1     -12.752  -4.044  16.847  1.00  0.00     0.037 A 
BRANCH  49  63
ATOM     63  C   UNL     1     -16.964  -3.361  12.385  1.00  0.00     0.064 A 
ATOM     64  C   UNL     1     -17.806  -4.360  11.875  1.00  0.00     0.173 A 
ATOM     65  C   UNL     1     -17.507  -2.083  12.584  1.00  0.00     0.173 A 
ATOM     66  F   UNL     1     -17.331  -5.595  11.655  1.00  0.00    -0.203 F 
ATOM     67  C   UNL     1     -19.132  -4.083  11.552  1.00  0.00     0.198 A 
ATOM     68  C   UNL     1     -18.841  -1.816  12.285  1.00  0.00     0.198 A 
ATOM     69  F   UNL     1     -16.746  -1.093  13.076  1.00  0.00    -0.203 F 
ATOM     70  F   UNL     1     -19.905  -5.042  11.024  1.00  0.00    -0.200 F 
ATOM     71  C   UNL     1     -19.650  -2.814  11.763  1.00  0.00     0.200 A 
ATOM     72  F   UNL     1     -19.343  -0.592  12.500  1.00  0.00    -0.200 F 
ATOM     73  F   UNL     1     -20.927  -2.551  11.456  1.00  0.00    -0.200 F 
ENDBRANCH  49  63
BRANCH  50  74
ATOM     74  C   UNL     1      -7.322  -4.982  14.346  1.00  0.00     0.064 A 
ATOM     75  C   UNL     1      -6.880  -6.178  14.928  1.00  0.00     0.173 A 
ATOM     76  C   UNL     1      -6.364  -4.001  14.056  1.00  0.00     0.173 A 
ATOM     77  F   UNL     1      -7.765  -7.135  15.243  1.00  0.00    -0.203 F 
ATOM     78  C   UNL     1      -5.534  -6.379  15.222  1.00  0.00     0.198 A 
ATOM     79  C   UNL     1      -5.014  -4.213  14.328  1.00  0.00     0.198 A 
ATOM     80  F   UNL     1      -6.737  -2.842  13.495  1.00  0.00    -0.203 F 
ATOM     81  F   UNL     1      -5.142  -7.516  15.812  1.00  0.00    -0.200 F 
ATOM     82  C   UNL     1      -4.601  -5.399  14.916  1.00  0.00     0.200 A 
ATOM     83  F   UNL     1      -4.114  -3.269  14.021  1.00  0.00    -0.200 F 
ATOM     84  F   UNL     1      -3.305  -5.596  15.195  1.00  0.00    -0.200 F 
ENDBRANCH  50  74
BRANCH  62  85
ATOM     85  C   UNL     1     -12.946  -4.008  18.333  1.00  0.00     0.064 A 
ATOM     86  C   UNL     1     -12.534  -2.908  19.099  1.00  0.00     0.173 A 
ATOM     87  C   UNL     1     -13.585  -5.069  18.992  1.00  0.00     0.173 A 
ATOM     88  F   UNL     1     -11.905  -1.877  18.516  1.00  0.00    -0.203 F 
ATOM     89  C   UNL     1     -12.737  -2.882  20.476  1.00  0.00     0.198 A 
ATOM     90  C   UNL     1     -13.807  -5.029  20.365  1.00  0.00     0.198 A 
ATOM     91  F   UNL     1     -14.000  -6.141  18.301  1.00  0.00    -0.203 F 
ATOM     92  F   UNL     1     -12.299  -1.839  21.196  1.00  0.00    -0.200 F 
ATOM     93  C   UNL     1     -13.378  -3.938  21.107  1.00  0.00     0.200 A 
ATOM     94  F   UNL     1     -14.434  -6.046  20.971  1.00  0.00    -0.200 F 
ATOM     95  F   UNL     1     -13.576  -3.908  22.432  1.00  0.00    -0.200 F 
ENDBRANCH  62  85
ENDBRANCH  36  37
ENDBRANCH  28  31
ENDBRANCH  26  27
ENDBRANCH   1  26
TORSDOF 12
