REMARK SMILES O=C(NCCCNC(=O)c1ccc(-c2c3nc(c(-c4c(F)c(F)c(F)c(F)c4F)c4ccc([nH]4)c(-c4c(F)c(F)c(F)c(F)c4F)c4nc(c(-c5c(F)c(F)c(F)c(F)c5F)c5ccc2[nH]5)C=C4)C=C3)cc1)c1ccc(-c2ccc(/C=C3/SC(=S)N(c4ccccc4)C3=O)o2)cc1
REMARK SMILES IDX 4 1 3 2 1 3 2 4 73 6 74 7 97 8 75 9 96 10 76 11 77 12 78 13
REMARK SMILES IDX 95 14 79 15 80 16 81 17 82 18 83 19 93 20 84 21 86 22 94 23
REMARK SMILES IDX 85 24 87 25 88 26 92 27 89 28 91 29 90 30 5 31 6 32 7 33
REMARK SMILES IDX 8 34 9 36 10 37 11 38 72 39 12 40 71 41 13 42 14 43 15 44
REMARK SMILES IDX 65 45 16 46 70 47 64 48 66 49 17 50 69 51 63 52 62 53 18 55
REMARK SMILES IDX 50 56 30 57 49 58 31 59 34 60 48 61 67 62 32 63 33 64 47 66
REMARK SMILES IDX 68 67 35 68 19 69 20 70 28 71 21 72 22 73 26 74 29 75 23 76
REMARK SMILES IDX 24 77 27 78 25 79 51 80 52 81 60 82 53 83 54 84 58 85 61 86
REMARK SMILES IDX 55 87 56 88 59 89 57 90 36 91 37 92 45 93 38 94 39 95 43 96
REMARK SMILES IDX 46 97 40 98 41 99 44 100 42 101
REMARK H PARENT 3 5 7 35 66 54 34 65
REMARK Flexibility Score: inf
ROOT
ATOM      1  C   UNL     1       4.630  -1.020  -0.608  1.00  0.00     0.118 C 
ENDROOT
BRANCH   1   2
ATOM      2  N   UNL     1       3.195  -0.784  -0.634  1.00  0.00    -0.352 N 
ATOM      3  O   UNL     1       1.233   0.157  -0.042  1.00  0.00    -0.269 OA
ATOM      4  C   UNL     1       2.458   0.215  -0.046  1.00  0.00     0.251 C 
ATOM      5  H   UNL     1       2.673  -1.440  -1.150  1.00  0.00     0.163 HD
BRANCH   4   6
ATOM      6  C   UNL     1       3.144   1.338   0.623  1.00  0.00     0.039 A 
ATOM      7  C   UNL     1       4.098   2.106  -0.051  1.00  0.00     0.014 A 
ATOM      8  C   UNL     1       2.823   1.622   1.951  1.00  0.00     0.014 A 
ATOM      9  C   UNL     1       4.816   3.082   0.642  1.00  0.00     0.013 A 
ATOM     10  C   UNL     1       3.541   2.603   2.639  1.00  0.00     0.013 A 
ATOM     11  C   UNL     1       4.569   3.315   2.003  1.00  0.00     0.017 A 
BRANCH  11  12
ATOM     12  C   UNL     1       5.389   4.249   2.756  1.00  0.00     0.134 A 
ATOM     13  C   UNL     1       5.885   4.265   4.040  1.00  0.00     0.051 A 
ATOM     14  O   UNL     1       5.785   5.371   2.097  1.00  0.00    -0.457 OA
ATOM     15  C   UNL     1       6.617   5.470   4.167  1.00  0.00     0.051 A 
ATOM     16  C   UNL     1       6.493   6.161   2.971  1.00  0.00     0.128 A 
BRANCH  16  17
ATOM     17  C   UNL     1       6.972   7.447   2.622  1.00  0.00     0.068 C 
ATOM     18  C   UNL     1       6.143   8.457   2.322  1.00  0.00     0.084 C 
ATOM     19  S   UNL     1       6.714   9.988   1.784  1.00  0.00    -0.054 SA
ATOM     20  C   UNL     1       4.647   8.460   2.386  1.00  0.00     0.270 C 
ATOM     21  C   UNL     1       5.086  10.624   1.541  1.00  0.00     0.152 C 
ATOM     22  N   UNL     1       4.146   9.651   1.851  1.00  0.00    -0.261 N 
ATOM     23  O   UNL     1       4.002   7.544   2.866  1.00  0.00    -0.268 OA
ATOM     24  S   UNL     1       4.882  12.231   1.114  1.00  0.00    -0.051 S 
BRANCH  22  25
ATOM     25  C   UNL     1       2.731   9.805   1.682  1.00  0.00     0.051 A 
ATOM     26  C   UNL     1       1.832   9.355   2.662  1.00  0.00     0.027 A 
ATOM     27  C   UNL     1       2.199  10.347   0.502  1.00  0.00     0.027 A 
ATOM     28  C   UNL     1       0.450   9.459   2.478  1.00  0.00     0.002 A 
ATOM     29  C   UNL     1       0.816  10.447   0.315  1.00  0.00     0.002 A 
ATOM     30  C   UNL     1      -0.057  10.005   1.304  1.00  0.00     0.000 A 
ENDBRANCH  22  25
ENDBRANCH  16  17
ENDBRANCH  11  12
ENDBRANCH   4   6
ENDBRANCH   1   2
BRANCH   1  31
ATOM     31  C   UNL     1       5.025  -2.181   0.297  1.00  0.00     0.042 C 
BRANCH  31  32
ATOM     32  C   UNL     1       4.488  -3.542  -0.134  1.00  0.00     0.118 C 
BRANCH  32  33
ATOM     33  N   UNL     1       4.909  -3.924  -1.473  1.00  0.00    -0.352 N 
ATOM     34  C   UNL     1       5.612  -5.007  -1.935  1.00  0.00     0.251 C 
ATOM     35  H   UNL     1       4.640  -3.290  -2.176  1.00  0.00     0.163 HD
ATOM     36  O   UNL     1       5.975  -5.017  -3.109  1.00  0.00    -0.269 OA
BRANCH  34  37
ATOM     37  C   UNL     1       5.961  -6.151  -1.059  1.00  0.00     0.039 A 
ATOM     38  C   UNL     1       7.180  -6.802  -1.282  1.00  0.00     0.014 A 
ATOM     39  C   UNL     1       5.094  -6.638  -0.078  1.00  0.00     0.014 A 
ATOM     40  C   UNL     1       7.547  -7.897  -0.496  1.00  0.00     0.010 A 
ATOM     41  C   UNL     1       5.496  -7.679   0.760  1.00  0.00     0.010 A 
ATOM     42  C   UNL     1       6.721  -8.328   0.554  1.00  0.00    -0.014 A 
BRANCH  42  43
ATOM     43  C   UNL     1       7.136  -9.454   1.430  1.00  0.00     0.031 A 
ATOM     44  C   UNL     1       6.352 -10.739   1.454  1.00  0.00     0.074 A 
ATOM     45  C   UNL     1       8.203  -9.307   2.239  1.00  0.00     0.049 A 
ATOM     46  N   UNL     1       6.565 -11.826   2.154  1.00  0.00    -0.248 NA
ATOM     47  C   UNL     1       5.156 -10.803   0.600  1.00  0.00     0.031 C 
ATOM     48  C   UNL     1       9.007  -8.089   2.362  1.00  0.00     0.029 A 
ATOM     49  N   UNL     1       8.796 -10.185   3.111  1.00  0.00    -0.354 N 
ATOM     50  C   UNL     1       5.525 -12.691   1.839  1.00  0.00     0.074 A 
ATOM     51  C   UNL     1       4.654 -11.987   0.923  1.00  0.00     0.031 C 
ATOM     52  C   UNL     1      10.004  -8.307   3.234  1.00  0.00     0.029 A 
ATOM     53  C   UNL     1       9.897  -9.669   3.748  1.00  0.00     0.049 A 
ATOM     54  H   UNL     1       8.463 -11.099   3.265  1.00  0.00     0.167 HD
ATOM     55  C   UNL     1       5.326 -13.964   2.258  1.00  0.00     0.037 A 
ATOM     56  C   UNL     1      10.732 -10.233   4.641  1.00  0.00     0.037 A 
ATOM     57  C   UNL     1       6.211 -14.679   3.140  1.00  0.00     0.049 A 
ATOM     58  C   UNL     1      10.519 -11.665   5.047  1.00  0.00     0.074 A 
ATOM     59  C   UNL     1       6.133 -15.994   3.565  1.00  0.00     0.029 A 
ATOM     60  N   UNL     1       7.342 -14.136   3.732  1.00  0.00    -0.354 N 
ATOM     61  N   UNL     1       9.576 -12.498   4.679  1.00  0.00    -0.248 NA
ATOM     62  C   UNL     1      11.498 -12.240   5.979  1.00  0.00     0.031 C 
ATOM     63  C   UNL     1       7.197 -16.237   4.441  1.00  0.00     0.029 A 
ATOM     64  C   UNL     1       7.962 -15.086   4.529  1.00  0.00     0.049 A 
ATOM     65  H   UNL     1       7.657 -13.212   3.605  1.00  0.00     0.167 HD
ATOM     66  C   UNL     1       9.859 -13.698   5.316  1.00  0.00     0.074 A 
ATOM     67  C   UNL     1      11.075 -13.492   6.075  1.00  0.00     0.031 C 
ATOM     68  C   UNL     1       9.171 -14.866   5.278  1.00  0.00     0.037 A 
BRANCH  55  69
ATOM     69  C   UNL     1       4.103 -14.676   1.756  1.00  0.00     0.064 A 
ATOM     70  C   UNL     1       3.993 -15.095   0.421  1.00  0.00     0.173 A 
ATOM     71  C   UNL     1       3.047 -14.979   2.628  1.00  0.00     0.173 A 
ATOM     72  F   UNL     1       4.971 -14.820  -0.455  1.00  0.00    -0.203 F 
ATOM     73  C   UNL     1       2.860 -15.768  -0.028  1.00  0.00     0.198 A 
ATOM     74  C   UNL     1       1.927 -15.677   2.182  1.00  0.00     0.198 A 
ATOM     75  F   UNL     1       3.104 -14.606   3.915  1.00  0.00    -0.203 F 
ATOM     76  F   UNL     1       2.758 -16.119  -1.317  1.00  0.00    -0.200 F 
ATOM     77  C   UNL     1       1.831 -16.064   0.854  1.00  0.00     0.200 A 
ATOM     78  F   UNL     1       0.939 -15.973   3.038  1.00  0.00    -0.200 F 
ATOM     79  F   UNL     1       0.744 -16.718   0.422  1.00  0.00    -0.200 F 
ENDBRANCH  55  69
BRANCH  56  80
ATOM     80  C   UNL     1      11.877  -9.454   5.178  1.00  0.00     0.064 A 
ATOM     81  C   UNL     1      13.192  -9.752   4.793  1.00  0.00     0.173 A 
ATOM     82  C   UNL     1      11.682  -8.402   6.083  1.00  0.00     0.173 A 
ATOM     83  F   UNL     1      13.428 -10.763   3.944  1.00  0.00    -0.203 F 
ATOM     84  C   UNL     1      14.271  -9.040   5.311  1.00  0.00     0.198 A 
ATOM     85  C   UNL     1      12.761  -7.673   6.580  1.00  0.00     0.198 A 
ATOM     86  F   UNL     1      10.442  -8.074   6.476  1.00  0.00    -0.203 F 
ATOM     87  F   UNL     1      15.521  -9.374   4.962  1.00  0.00    -0.200 F 
ATOM     88  C   UNL     1      14.054  -7.998   6.201  1.00  0.00     0.200 A 
ATOM     89  F   UNL     1      12.547  -6.659   7.429  1.00  0.00    -0.200 F 
ATOM     90  F   UNL     1      15.093  -7.312   6.697  1.00  0.00    -0.200 F 
ENDBRANCH  56  80
BRANCH  68  91
ATOM     91  C   UNL     1       9.735 -16.014   6.062  1.00  0.00     0.064 A 
ATOM     92  C   UNL     1       9.691 -16.037   7.464  1.00  0.00     0.173 A 
ATOM     93  C   UNL     1      10.317 -17.107   5.404  1.00  0.00     0.173 A 
ATOM     94  F   UNL     1       9.159 -15.007   8.140  1.00  0.00    -0.203 F 
ATOM     95  C   UNL     1      10.240 -17.098   8.180  1.00  0.00     0.198 A 
ATOM     96  C   UNL     1      10.840 -18.180   6.122  1.00  0.00     0.198 A 
ATOM     97  F   UNL     1      10.378 -17.136   4.064  1.00  0.00    -0.203 F 
ATOM     98  F   UNL     1      10.237 -17.073   9.519  1.00  0.00    -0.200 F 
ATOM     99  C   UNL     1      10.810 -18.170   7.508  1.00  0.00     0.200 A 
ATOM    100  F   UNL     1      11.381 -19.219   5.471  1.00  0.00    -0.200 F 
ATOM    101  F   UNL     1      11.341 -19.188   8.198  1.00  0.00    -0.200 F 
ENDBRANCH  68  91
ENDBRANCH  42  43
ENDBRANCH  34  37
ENDBRANCH  32  33
ENDBRANCH  31  32
ENDBRANCH   1  31
TORSDOF 13
