REMARK SMILES CC(C)c1cc(C2CC[NH+](Cc3c[nH]nc3C(=O)NCCCNC(=O)c3ccc(-c4c5nc(c(-c6c(F)c(F)c(F)c(F)c6F)c6ccc([nH]6)c(-c6c(F)c(F)c(F)c(F)c6F)c6nc(c(-c7c(F)c(F)c(F)c(F)c7F)c7ccc4[nH]7)C=C6)C=C5)cc3)CC2)n[nH]1
REMARK SMILES IDX 20 1 19 2 17 3 18 4 16 6 12 7 13 8 14 9 15 10 11 12 10 13
REMARK SMILES IDX 7 14 8 15 90 16 9 17 89 18 6 20 4 21 5 22 92 23 91 24 2 26
REMARK SMILES IDX 1 27 3 28 21 29 22 30 23 31 24 32 25 34 26 35 27 36 88 37
REMARK SMILES IDX 28 38 87 39 29 40 30 41 31 42 81 43 32 44 86 45 80 46 82 47
REMARK SMILES IDX 33 48 85 49 79 50 78 51 34 53 66 54 46 55 65 56 47 57 50 58
REMARK SMILES IDX 64 59 83 60 48 61 49 62 63 64 84 65 51 66 35 67 36 68 44 69
REMARK SMILES IDX 37 70 38 71 42 72 45 73 39 74 40 75 43 76 41 77 67 78 68 79
REMARK SMILES IDX 76 80 69 81 70 82 74 83 77 84 71 85 72 86 75 87 73 88 52 89
REMARK SMILES IDX 53 90 61 91 54 92 55 93 59 94 62 95 56 96 57 97 60 98 58 99
REMARK H PARENT 19 5 14 11 10 19 92 25 23 33 82 52 50 63
REMARK Flexibility Score: inf
ROOT
ATOM      1  C   UNL     1      -4.900   8.344   0.586  1.00  0.00     0.118 C 
ENDROOT
BRANCH   1   2
ATOM      2  N   UNL     1      -3.628   8.225   1.246  1.00  0.00    -0.351 N 
ATOM      3  C   UNL     1      -2.412   7.689   0.921  1.00  0.00     0.272 C 
ATOM      4  O   UNL     1      -1.604   7.778   1.858  1.00  0.00    -0.267 OA
ATOM      5  H   UNL     1      -3.634   8.624   2.146  1.00  0.00     0.163 HD
BRANCH   3   6
ATOM      6  C   UNL     1      -2.000   7.102  -0.389  1.00  0.00     0.158 A 
ATOM      7  C   UNL     1      -2.634   6.492  -1.550  1.00  0.00     0.057 A 
ATOM      8  C   UNL     1      -1.577   6.171  -2.390  1.00  0.00     0.115 A 
ATOM      9  N   UNL     1      -0.441   6.507  -1.745  1.00  0.00    -0.284 N 
ATOM     10  N   UNL     1      -0.656   7.077  -0.571  1.00  0.00    -0.170 NA
ATOM     11  H   UNL     1       0.459   6.344  -2.111  1.00  0.00     0.189 HD
BRANCH   7  12
ATOM     12  C   UNL     1      -4.049   6.201  -1.936  1.00  0.00     0.303 C 
BRANCH  12  13
ATOM     13  N   UNL     1      -4.475   4.806  -1.768  1.00  0.00    -0.331 N 
ATOM     14  C   UNL     1      -4.580   1.900  -1.413  1.00  0.00     0.051 C 
ATOM     15  C   UNL     1      -4.814   2.570  -2.773  1.00  0.00     0.071 C 
ATOM     16  C   UNL     1      -4.852   2.887  -0.275  1.00  0.00     0.071 C 
ATOM     17  C   UNL     1      -4.146   3.942  -2.902  1.00  0.00     0.263 C 
ATOM     18  C   UNL     1      -4.130   4.214  -0.479  1.00  0.00     0.263 C 
ATOM     19  H   UNL     1      -5.493   4.868  -1.760  1.00  0.00     0.348 HD
BRANCH  14  20
ATOM     20  C   UNL     1      -3.231   1.240  -1.289  1.00  0.00     0.066 A 
ATOM     21  C   UNL     1      -1.061   0.770  -1.137  1.00  0.00     0.038 A 
ATOM     22  C   UNL     1      -1.937   1.806  -1.371  1.00  0.00     0.049 A 
ATOM     23  N   UNL     1      -1.850  -0.331  -0.951  1.00  0.00    -0.282 N 
ATOM     24  N   UNL     1      -3.163  -0.074  -1.036  1.00  0.00    -0.180 NA
ATOM     25  H   UNL     1      -1.488  -1.228  -0.772  1.00  0.00     0.190 HD
BRANCH  21  26
ATOM     26  C   UNL     1       0.434   0.754  -1.095  1.00  0.00     0.031 C 
ATOM     27  C   UNL     1       0.973  -0.054   0.084  1.00  0.00     0.014 C 
ATOM     28  C   UNL     1       0.999   0.243  -2.420  1.00  0.00     0.014 C 
ENDBRANCH  21  26
ENDBRANCH  14  20
ENDBRANCH  12  13
ENDBRANCH   7  12
ENDBRANCH   3   6
ENDBRANCH   1   2
BRANCH   1  29
ATOM     29  C   UNL     1      -5.788   7.164   0.970  1.00  0.00     0.042 C 
BRANCH  29  30
ATOM     30  C   UNL     1      -6.810   7.492   2.041  1.00  0.00     0.118 C 
BRANCH  30  31
ATOM     31  N   UNL     1      -7.838   8.395   1.557  1.00  0.00    -0.352 N 
ATOM     32  C   UNL     1      -9.204   8.286   1.601  1.00  0.00     0.251 C 
ATOM     33  H   UNL     1      -7.501   9.214   1.128  1.00  0.00     0.163 HD
ATOM     34  O   UNL     1      -9.887   9.089   0.975  1.00  0.00    -0.269 OA
BRANCH  32  35
ATOM     35  C   UNL     1      -9.859   7.209   2.379  1.00  0.00     0.039 A 
ATOM     36  C   UNL     1     -11.070   6.692   1.909  1.00  0.00     0.014 A 
ATOM     37  C   UNL     1      -9.328   6.738   3.582  1.00  0.00     0.014 A 
ATOM     38  C   UNL     1     -11.732   5.700   2.634  1.00  0.00     0.010 A 
ATOM     39  C   UNL     1      -9.922   5.665   4.236  1.00  0.00     0.010 A 
ATOM     40  C   UNL     1     -11.155   5.168   3.798  1.00  0.00    -0.014 A 
BRANCH  40  41
ATOM     41  C   UNL     1     -11.871   4.160   4.619  1.00  0.00     0.031 A 
ATOM     42  C   UNL     1     -12.248   4.490   6.041  1.00  0.00     0.074 A 
ATOM     43  C   UNL     1     -12.154   2.950   4.103  1.00  0.00     0.049 A 
ATOM     44  N   UNL     1     -12.842   3.743   6.938  1.00  0.00    -0.248 NA
ATOM     45  C   UNL     1     -11.874   5.826   6.536  1.00  0.00     0.031 C 
ATOM     46  C   UNL     1     -11.792   2.496   2.760  1.00  0.00     0.029 A 
ATOM     47  N   UNL     1     -12.813   1.878   4.650  1.00  0.00    -0.354 N 
ATOM     48  C   UNL     1     -12.889   4.510   8.095  1.00  0.00     0.074 A 
ATOM     49  C   UNL     1     -12.196   5.745   7.816  1.00  0.00     0.031 C 
ATOM     50  C   UNL     1     -12.266   1.254   2.573  1.00  0.00     0.029 A 
ATOM     51  C   UNL     1     -12.930   0.810   3.795  1.00  0.00     0.049 A 
ATOM     52  H   UNL     1     -13.168   1.875   5.568  1.00  0.00     0.167 HD
ATOM     53  C   UNL     1     -13.491   4.227   9.275  1.00  0.00     0.037 A 
ATOM     54  C   UNL     1     -13.511  -0.390   3.980  1.00  0.00     0.037 A 
ATOM     55  C   UNL     1     -14.209   3.008   9.534  1.00  0.00     0.049 A 
ATOM     56  C   UNL     1     -14.184  -0.677   5.296  1.00  0.00     0.074 A 
ATOM     57  C   UNL     1     -14.899   2.637  10.674  1.00  0.00     0.029 A 
ATOM     58  N   UNL     1     -14.332   1.961   8.632  1.00  0.00    -0.354 N 
ATOM     59  N   UNL     1     -14.281   0.082   6.361  1.00  0.00    -0.248 NA
ATOM     60  C   UNL     1     -14.844  -1.982   5.428  1.00  0.00     0.031 C 
ATOM     61  C   UNL     1     -15.395   1.344  10.480  1.00  0.00     0.029 A 
ATOM     62  C   UNL     1     -15.074   0.937   9.195  1.00  0.00     0.049 A 
ATOM     63  H   UNL     1     -13.948   1.949   7.725  1.00  0.00     0.167 HD
ATOM     64  C   UNL     1     -15.046  -0.635   7.273  1.00  0.00     0.074 A 
ATOM     65  C   UNL     1     -15.397  -1.883   6.628  1.00  0.00     0.031 C 
ATOM     66  C   UNL     1     -15.427  -0.291   8.528  1.00  0.00     0.037 A 
BRANCH  53  67
ATOM     67  C   UNL     1     -13.400   5.257  10.367  1.00  0.00     0.064 A 
ATOM     68  C   UNL     1     -14.036   6.505  10.261  1.00  0.00     0.173 A 
ATOM     69  C   UNL     1     -12.681   4.989  11.542  1.00  0.00     0.173 A 
ATOM     70  F   UNL     1     -14.725   6.821   9.154  1.00  0.00    -0.203 F 
ATOM     71  C   UNL     1     -13.924   7.457  11.271  1.00  0.00     0.198 A 
ATOM     72  C   UNL     1     -12.603   5.929  12.566  1.00  0.00     0.198 A 
ATOM     73  F   UNL     1     -12.056   3.813  11.700  1.00  0.00    -0.203 F 
ATOM     74  F   UNL     1     -14.486   8.664  11.117  1.00  0.00    -0.200 F 
ATOM     75  C   UNL     1     -13.215   7.166  12.426  1.00  0.00     0.200 A 
ATOM     76  F   UNL     1     -11.930   5.641  13.688  1.00  0.00    -0.200 F 
ATOM     77  F   UNL     1     -13.113   8.081  13.400  1.00  0.00    -0.200 F 
ENDBRANCH  53  67
BRANCH  54  78
ATOM     78  C   UNL     1     -13.518  -1.392   2.881  1.00  0.00     0.064 A 
ATOM     79  C   UNL     1     -14.711  -1.749   2.236  1.00  0.00     0.173 A 
ATOM     80  C   UNL     1     -12.337  -2.020   2.458  1.00  0.00     0.173 A 
ATOM     81  F   UNL     1     -15.870  -1.189   2.615  1.00  0.00    -0.203 F 
ATOM     82  C   UNL     1     -14.727  -2.716   1.233  1.00  0.00     0.198 A 
ATOM     83  C   UNL     1     -12.350  -2.963   1.432  1.00  0.00     0.198 A 
ATOM     84  F   UNL     1     -11.167  -1.709   3.035  1.00  0.00    -0.203 F 
ATOM     85  F   UNL     1     -15.890  -3.077   0.673  1.00  0.00    -0.200 F 
ATOM     86  C   UNL     1     -13.546  -3.318   0.828  1.00  0.00     0.200 A 
ATOM     87  F   UNL     1     -11.204  -3.530   1.032  1.00  0.00    -0.200 F 
ATOM     88  F   UNL     1     -13.562  -4.247  -0.137  1.00  0.00    -0.200 F 
ENDBRANCH  54  78
BRANCH  66  89
ATOM     89  C   UNL     1     -16.322  -1.249   9.262  1.00  0.00     0.064 A 
ATOM     90  C   UNL     1     -15.867  -2.495   9.715  1.00  0.00     0.173 A 
ATOM     91  C   UNL     1     -17.652  -0.895   9.540  1.00  0.00     0.173 A 
ATOM     92  F   UNL     1     -14.607  -2.886   9.466  1.00  0.00    -0.203 F 
ATOM     93  C   UNL     1     -16.721  -3.369  10.383  1.00  0.00     0.198 A 
ATOM     94  C   UNL     1     -18.491  -1.755  10.242  1.00  0.00     0.198 A 
ATOM     95  F   UNL     1     -18.135   0.291   9.140  1.00  0.00    -0.203 F 
ATOM     96  F   UNL     1     -16.282  -4.581  10.749  1.00  0.00    -0.200 F 
ATOM     97  C   UNL     1     -18.029  -2.996  10.652  1.00  0.00     0.200 A 
ATOM     98  F   UNL     1     -19.749  -1.383  10.518  1.00  0.00    -0.200 F 
ATOM     99  F   UNL     1     -18.848  -3.836  11.298  1.00  0.00    -0.200 F 
ENDBRANCH  66  89
ENDBRANCH  40  41
ENDBRANCH  32  35
ENDBRANCH  30  31
ENDBRANCH  29  30
ENDBRANCH   1  29
TORSDOF 14
