REMARK SMILES COc1cc2c(cc1OC)-c1c(c(C(=O)Nc3ccc(C(=O)NCCCNC(=O)c4ccc(-c5c6nc(c(-c7c(F)c(F)c(F)c(F)c7F)c7ccc([nH]7)c(-c7c(F)c(F)c(F)c(F)c7F)c7nc(c(-c8c(F)c(F)c(F)c(F)c8F)c8ccc5[nH]8)C=C7)C=C6)cc4)cc3)nn1-c1ccc(F)cc1)C2
REMARK SMILES IDX 24 1 23 2 21 3 22 4 20 6 17 7 18 8 94 9 19 10 93 11 16 12
REMARK SMILES IDX 14 13 15 14 13 16 3 17 4 18 8 19 5 20 7 21 6 22 104 23 11 24
REMARK SMILES IDX 12 25 96 26 95 27 2 28 1 29 9 30 10 31 97 32 98 33 103 34
REMARK SMILES IDX 99 35 102 36 100 37 101 38 25 39 26 40 27 41 28 42 29 44
REMARK SMILES IDX 30 45 31 46 92 47 32 48 91 49 33 50 34 51 35 52 85 53 36 54
REMARK SMILES IDX 90 55 84 56 86 57 37 58 89 59 83 60 82 61 38 63 70 64 50 65
REMARK SMILES IDX 69 66 51 67 54 68 68 69 87 70 52 71 53 72 67 74 88 75 55 76
REMARK SMILES IDX 39 77 40 78 48 79 41 80 42 81 46 82 49 83 43 84 44 85 47 86
REMARK SMILES IDX 45 87 71 88 72 89 80 90 73 91 74 92 78 93 81 94 75 95 76 96
REMARK SMILES IDX 79 97 77 98 56 99 57 100 65 101 58 102 59 103 63 104 66 105
REMARK SMILES IDX 60 106 61 107 64 108 62 109
REMARK H PARENT 23 5 16 15 27 43 86 62 54 73
REMARK Flexibility Score: inf
ROOT
ATOM      1  C   UNL     1      -5.357  -1.530  -5.917  1.00  0.00     0.118 C 
ENDROOT
BRANCH   1   2
ATOM      2  N   UNL     1      -4.676  -0.769  -4.886  1.00  0.00    -0.352 N 
ATOM      3  C   UNL     1      -4.232   0.531  -4.789  1.00  0.00     0.251 C 
ATOM      4  O   UNL     1      -3.946   0.909  -3.648  1.00  0.00    -0.269 OA
ATOM      5  H   UNL     1      -4.489  -1.300  -4.078  1.00  0.00     0.163 HD
BRANCH   3   6
ATOM      6  C   UNL     1      -3.905   1.446  -5.937  1.00  0.00     0.039 A 
ATOM      7  C   UNL     1      -2.279   2.606  -7.893  1.00  0.00     0.041 A 
ATOM      8  C   UNL     1      -2.260   3.126  -6.610  1.00  0.00     0.027 A 
ATOM      9  C   UNL     1      -3.323   1.764  -8.265  1.00  0.00     0.027 A 
ATOM     10  C   UNL     1      -3.089   2.554  -5.633  1.00  0.00     0.016 A 
ATOM     11  C   UNL     1      -4.136   1.187  -7.284  1.00  0.00     0.016 A 
BRANCH   7  12
ATOM     12  N   UNL     1      -1.301   2.874  -8.846  1.00  0.00    -0.321 N 
ATOM     13  C   UNL     1       0.055   3.096  -8.754  1.00  0.00     0.276 C 
ATOM     14  O   UNL     1       0.560   3.602  -9.773  1.00  0.00    -0.267 OA
ATOM     15  H   UNL     1      -1.647   2.913  -9.767  1.00  0.00     0.170 HD
BRANCH  13  16
ATOM     16  C   UNL     1       0.918   2.632  -7.629  1.00  0.00     0.155 A 
ATOM     17  C   UNL     1       1.000  -0.213  -2.375  1.00  0.00     0.161 A 
ATOM     18  C   UNL     1       0.120  -0.118  -3.461  1.00  0.00     0.055 A 
ATOM     19  C   UNL     1       2.352   0.173  -2.499  1.00  0.00     0.161 A 
ATOM     20  C   UNL     1       0.593   0.441  -4.643  1.00  0.00    -0.030 A 
ATOM     21  C   UNL     1       2.802   0.786  -3.670  1.00  0.00     0.061 A 
ATOM     22  C   UNL     1       1.921   0.904  -4.725  1.00  0.00     0.008 A 
ATOM     23  C   UNL     1      -0.239   0.805  -5.884  1.00  0.00     0.076 C 
ATOM     24  C   UNL     1       1.981   1.614  -5.963  1.00  0.00     0.079 A 
ATOM     25  C   UNL     1       0.754   1.685  -6.575  1.00  0.00     0.016 A 
ATOM     26  N   UNL     1       2.847   2.404  -6.634  1.00  0.00    -0.232 N 
ATOM     27  N   UNL     1       2.188   3.134  -7.567  1.00  0.00    -0.162 NA
BRANCH  17  28
ATOM     28  O   UNL     1       0.481  -0.686  -1.196  1.00  0.00    -0.493 OA
ATOM     29  C   UNL     1       0.347   0.372  -0.239  1.00  0.00     0.278 C 
ENDBRANCH  17  28
BRANCH  19  30
ATOM     30  O   UNL     1       3.292   0.077  -1.505  1.00  0.00    -0.493 OA
ATOM     31  C   UNL     1       3.306  -1.185  -0.842  1.00  0.00     0.278 C 
ENDBRANCH  19  30
BRANCH  26  32
ATOM     32  C   UNL     1       4.239   2.503  -6.425  1.00  0.00     0.065 A 
ATOM     33  C   UNL     1       4.864   3.752  -6.469  1.00  0.00     0.031 A 
ATOM     34  C   UNL     1       4.970   1.348  -6.098  1.00  0.00     0.031 A 
ATOM     35  C   UNL     1       6.200   3.853  -6.073  1.00  0.00     0.041 A 
ATOM     36  C   UNL     1       6.309   1.455  -5.732  1.00  0.00     0.041 A 
ATOM     37  C   UNL     1       6.904   2.709  -5.699  1.00  0.00     0.123 A 
ATOM     38  F   UNL     1       8.174   2.820  -5.289  1.00  0.00    -0.207 F 
ENDBRANCH  26  32
ENDBRANCH  13  16
ENDBRANCH   7  12
ENDBRANCH   3   6
ENDBRANCH   1   2
BRANCH   1  39
ATOM     39  C   UNL     1      -4.926  -2.991  -6.046  1.00  0.00     0.042 C 
BRANCH  39  40
ATOM     40  C   UNL     1      -5.362  -3.939  -4.931  1.00  0.00     0.118 C 
BRANCH  40  41
ATOM     41  N   UNL     1      -6.730  -3.775  -4.487  1.00  0.00    -0.352 N 
ATOM     42  C   UNL     1      -7.946  -4.304  -4.814  1.00  0.00     0.251 C 
ATOM     43  H   UNL     1      -6.802  -3.112  -3.762  1.00  0.00     0.163 HD
ATOM     44  O   UNL     1      -8.869  -4.014  -4.050  1.00  0.00    -0.269 OA
BRANCH  42  45
ATOM     45  C   UNL     1      -8.263  -5.120  -6.020  1.00  0.00     0.039 A 
ATOM     46  C   UNL     1      -7.393  -5.412  -7.066  1.00  0.00     0.014 A 
ATOM     47  C   UNL     1      -9.607  -5.530  -6.138  1.00  0.00     0.014 A 
ATOM     48  C   UNL     1      -7.886  -5.975  -8.248  1.00  0.00     0.010 A 
ATOM     49  C   UNL     1     -10.097  -6.115  -7.302  1.00  0.00     0.010 A 
ATOM     50  C   UNL     1      -9.249  -6.277  -8.389  1.00  0.00    -0.014 A 
BRANCH  50  51
ATOM     51  C   UNL     1      -9.725  -6.813  -9.668  1.00  0.00     0.031 A 
ATOM     52  C   UNL     1      -9.012  -8.029 -10.150  1.00  0.00     0.074 A 
ATOM     53  C   UNL     1     -10.757  -6.314 -10.385  1.00  0.00     0.049 A 
ATOM     54  N   UNL     1      -8.243  -8.132 -11.186  1.00  0.00    -0.248 NA
ATOM     55  C   UNL     1      -9.079  -9.247  -9.332  1.00  0.00     0.031 C 
ATOM     56  C   UNL     1     -11.737  -5.293 -10.006  1.00  0.00     0.029 A 
ATOM     57  N   UNL     1     -11.174  -6.681 -11.635  1.00  0.00    -0.354 N 
ATOM     58  C   UNL     1      -7.834  -9.463 -11.243  1.00  0.00     0.074 A 
ATOM     59  C   UNL     1      -8.293 -10.077 -10.023  1.00  0.00     0.031 C 
ATOM     60  C   UNL     1     -12.741  -5.267 -10.915  1.00  0.00     0.029 A 
ATOM     61  C   UNL     1     -12.400  -6.151 -12.016  1.00  0.00     0.049 A 
ATOM     62  H   UNL     1     -10.646  -7.274 -12.218  1.00  0.00     0.167 HD
ATOM     63  C   UNL     1      -7.291  -9.990 -12.377  1.00  0.00     0.037 A 
ATOM     64  C   UNL     1     -13.091  -6.427 -13.152  1.00  0.00     0.037 A 
ATOM     65  C   UNL     1      -6.829  -8.955 -13.264  1.00  0.00     0.049 A 
ATOM     66  C   UNL     1     -12.118  -6.922 -14.152  1.00  0.00     0.074 A 
ATOM     67  C   UNL     1      -5.854  -7.978 -13.208  1.00  0.00     0.029 A 
ATOM     68  N   UNL     1      -7.623  -8.614 -14.329  1.00  0.00    -0.354 N 
ATOM     69  N   UNL     1     -11.199  -6.180 -14.701  1.00  0.00    -0.248 NA
ATOM     70  C   UNL     1     -11.901  -8.357 -14.235  1.00  0.00     0.031 C 
ATOM     71  C   UNL     1      -6.404  -6.864 -13.911  1.00  0.00     0.029 A 
ATOM     72  C   UNL     1      -7.658  -7.247 -14.388  1.00  0.00     0.049 A 
ATOM     73  H   UNL     1      -8.083  -9.237 -14.937  1.00  0.00     0.167 HD
ATOM     74  C   UNL     1     -10.095  -7.011 -14.797  1.00  0.00     0.074 A 
ATOM     75  C   UNL     1     -10.613  -8.360 -14.585  1.00  0.00     0.031 C 
ATOM     76  C   UNL     1      -8.831  -6.499 -14.767  1.00  0.00     0.037 A 
BRANCH  63  77
ATOM     77  C   UNL     1      -7.485 -11.411 -12.855  1.00  0.00     0.064 A 
ATOM     78  C   UNL     1      -6.807 -11.841 -14.017  1.00  0.00     0.173 A 
ATOM     79  C   UNL     1      -8.538 -12.244 -12.426  1.00  0.00     0.173 A 
ATOM     80  F   UNL     1      -5.784 -11.131 -14.516  1.00  0.00    -0.203 F 
ATOM     81  C   UNL     1      -7.230 -12.951 -14.753  1.00  0.00     0.198 A 
ATOM     82  C   UNL     1      -8.926 -13.380 -13.137  1.00  0.00     0.198 A 
ATOM     83  F   UNL     1      -9.304 -11.938 -11.373  1.00  0.00    -0.203 F 
ATOM     84  F   UNL     1      -6.645 -13.233 -15.925  1.00  0.00    -0.200 F 
ATOM     85  C   UNL     1      -8.299 -13.711 -14.320  1.00  0.00     0.200 A 
ATOM     86  F   UNL     1      -9.973 -14.099 -12.708  1.00  0.00    -0.200 F 
ATOM     87  F   UNL     1      -8.756 -14.728 -15.062  1.00  0.00    -0.200 F 
ENDBRANCH  63  77
BRANCH  64  88
ATOM     88  C   UNL     1     -14.551  -6.621 -13.327  1.00  0.00     0.064 A 
ATOM     89  C   UNL     1     -15.129  -6.665 -14.609  1.00  0.00     0.173 A 
ATOM     90  C   UNL     1     -15.349  -7.090 -12.267  1.00  0.00     0.173 A 
ATOM     91  F   UNL     1     -14.422  -6.278 -15.681  1.00  0.00    -0.203 F 
ATOM     92  C   UNL     1     -16.409  -7.188 -14.821  1.00  0.00     0.198 A 
ATOM     93  C   UNL     1     -16.628  -7.608 -12.479  1.00  0.00     0.198 A 
ATOM     94  F   UNL     1     -14.862  -7.152 -11.019  1.00  0.00    -0.203 F 
ATOM     95  F   UNL     1     -16.896  -7.283 -16.067  1.00  0.00    -0.200 F 
ATOM     96  C   UNL     1     -17.151  -7.673 -13.758  1.00  0.00     0.200 A 
ATOM     97  F   UNL     1     -17.320  -8.111 -11.447  1.00  0.00    -0.200 F 
ATOM     98  F   UNL     1     -18.346  -8.243 -13.967  1.00  0.00    -0.200 F 
ENDBRANCH  64  88
BRANCH  76  99
ATOM     99  C   UNL     1      -8.681  -5.010 -14.899  1.00  0.00     0.064 A 
ATOM    100  C   UNL     1      -9.180  -4.085 -13.965  1.00  0.00     0.173 A 
ATOM    101  C   UNL     1      -7.895  -4.510 -15.945  1.00  0.00     0.173 A 
ATOM    102  F   UNL     1      -9.854  -4.492 -12.883  1.00  0.00    -0.203 F 
ATOM    103  C   UNL     1      -8.940  -2.719 -14.101  1.00  0.00     0.198 A 
ATOM    104  C   UNL     1      -7.626  -3.149 -16.058  1.00  0.00     0.198 A 
ATOM    105  F   UNL     1      -7.345  -5.351 -16.834  1.00  0.00    -0.203 F 
ATOM    106  F   UNL     1      -9.434  -1.855 -13.202  1.00  0.00    -0.200 F 
ATOM    107  C   UNL     1      -8.157  -2.253 -15.144  1.00  0.00     0.200 A 
ATOM    108  F   UNL     1      -6.825  -2.708 -17.038  1.00  0.00    -0.200 F 
ATOM    109  F   UNL     1      -7.888  -0.944 -15.251  1.00  0.00    -0.200 F 
ENDBRANCH  76  99
ENDBRANCH  50  51
ENDBRANCH  42  45
ENDBRANCH  40  41
ENDBRANCH  39  40
ENDBRANCH   1  39
TORSDOF 15
