REMARK SMILES C[NH+](C)CCNC(=O)NC1(CC(=O)NCCCNC(=O)c2ccc(-c3c4nc(c(-c5c(F)c(F)c(F)c(F)c5F)c5ccc([nH]5)c(-c5c(F)c(F)c(F)c(F)c5F)c5nc(c(-c6c(F)c(F)c(F)c(F)c6F)c6ccc3[nH]6)C=C5)C=C4)cc2)CCC1
REMARK SMILES IDX 12 1 13 2 14 3 11 5 10 6 84 7 86 8 85 9 9 10 6 11 7 12 8 14
REMARK SMILES IDX 5 16 4 17 2 18 1 19 3 20 15 22 16 23 17 24 18 25 19 26 20 28
REMARK SMILES IDX 21 29 22 30 83 31 23 32 82 33 24 34 25 35 26 36 76 37 27 38
REMARK SMILES IDX 81 39 75 40 77 41 28 42 80 43 74 44 73 45 29 47 61 48 41 49
REMARK SMILES IDX 60 50 42 51 45 52 59 53 78 54 43 55 44 56 58 58 79 59 46 60
REMARK SMILES IDX 30 61 31 62 39 63 32 64 33 65 37 66 40 67 34 68 35 69 38 70
REMARK SMILES IDX 36 71 62 72 63 73 71 74 64 75 65 76 69 77 72 78 66 79 67 80
REMARK SMILES IDX 70 81 68 82 47 83 48 84 56 85 49 86 50 87 54 88 57 89 51 90
REMARK SMILES IDX 52 91 55 92 53 93
REMARK H PARENT 14 4 6 13 9 15 2 21 18 27 77 46 45 57
REMARK Flexibility Score: inf
ROOT
ATOM      1  C   UNL     1       3.152   3.488   1.872  1.00  0.00     0.222 C 
ATOM      2  O   UNL     1       3.373   2.287   1.725  1.00  0.00    -0.275 OA
ATOM      3  N   UNL     1       4.130   4.345   1.474  1.00  0.00    -0.356 N 
ATOM      4  H   UNL     1       4.810   3.957   0.877  1.00  0.00     0.163 HD
ENDROOT
BRANCH   1   5
ATOM      5  C   UNL     1       1.831   4.026   2.379  1.00  0.00     0.128 C 
BRANCH   5   6
ATOM      6  C   UNL     1       1.360   3.576   3.767  1.00  0.00     0.051 C 
ATOM      7  C   UNL     1      -0.064   4.047   4.228  1.00  0.00     0.029 C 
ATOM      8  C   UNL     1       1.887   4.534   4.903  1.00  0.00     0.029 C 
ATOM      9  C   UNL     1       0.581   5.333   4.771  1.00  0.00     0.005 C 
BRANCH   6  10
ATOM     10  N   UNL     1       1.656   2.172   4.097  1.00  0.00    -0.332 N 
ATOM     11  N   UNL     1       0.444   0.716   2.653  1.00  0.00    -0.332 N 
ATOM     12  C   UNL     1       1.303   0.960   3.643  1.00  0.00     0.315 C 
ATOM     13  H   UNL     1       0.359  -0.246   2.463  1.00  0.00     0.165 HD
ATOM     14  O   UNL     1       1.803  -0.017   4.212  1.00  0.00    -0.249 OA
ATOM     15  H   UNL     1       2.282   2.104   4.854  1.00  0.00     0.165 HD
BRANCH  11  16
ATOM     16  C   UNL     1      -0.393   1.519   1.787  1.00  0.00     0.179 C 
BRANCH  16  17
ATOM     17  C   UNL     1       0.169   1.709   0.358  1.00  0.00     0.283 C 
BRANCH  17  18
ATOM     18  N   UNL     1      -0.121   0.702  -0.672  1.00  0.00    -0.338 N 
ATOM     19  C   UNL     1       0.507  -0.584  -0.403  1.00  0.00     0.332 C 
ATOM     20  C   UNL     1      -1.542   0.567  -0.962  1.00  0.00     0.332 C 
ATOM     21  H   UNL     1       0.308   1.062  -1.525  1.00  0.00     0.347 HD
ENDBRANCH  17  18
ENDBRANCH  16  17
ENDBRANCH  11  16
ENDBRANCH   6  10
ENDBRANCH   5   6
ENDBRANCH   1   5
BRANCH   3  22
ATOM     22  C   UNL     1       4.318   5.745   1.796  1.00  0.00     0.117 C 
BRANCH  22  23
ATOM     23  C   UNL     1       5.127   5.881   3.079  1.00  0.00     0.042 C 
BRANCH  23  24
ATOM     24  C   UNL     1       6.559   5.389   2.922  1.00  0.00     0.118 C 
BRANCH  24  25
ATOM     25  N   UNL     1       7.334   6.277   2.070  1.00  0.00    -0.352 N 
ATOM     26  C   UNL     1       8.195   7.283   2.423  1.00  0.00     0.251 C 
ATOM     27  H   UNL     1       7.226   6.135   1.102  1.00  0.00     0.163 HD
ATOM     28  O   UNL     1       8.507   8.140   1.597  1.00  0.00    -0.269 OA
BRANCH  26  29
ATOM     29  C   UNL     1       8.747   7.343   3.791  1.00  0.00     0.039 A 
ATOM     30  C   UNL     1       8.906   8.585   4.411  1.00  0.00     0.014 A 
ATOM     31  C   UNL     1       9.160   6.177   4.442  1.00  0.00     0.014 A 
ATOM     32  C   UNL     1       9.445   8.651   5.698  1.00  0.00     0.010 A 
ATOM     33  C   UNL     1       9.601   6.235   5.758  1.00  0.00     0.010 A 
ATOM     34  C   UNL     1       9.779   7.474   6.387  1.00  0.00    -0.014 A 
BRANCH  34  35
ATOM     35  C   UNL     1      10.380   7.513   7.742  1.00  0.00     0.031 A 
ATOM     36  C   UNL     1      11.774   6.983   7.950  1.00  0.00     0.074 A 
ATOM     37  C   UNL     1       9.657   7.959   8.785  1.00  0.00     0.049 A 
ATOM     38  N   UNL     1      12.448   6.836   9.062  1.00  0.00    -0.248 NA
ATOM     39  C   UNL     1      12.492   6.522   6.750  1.00  0.00     0.031 C 
ATOM     40  C   UNL     1       8.280   8.451   8.713  1.00  0.00     0.029 A 
ATOM     41  N   UNL     1       9.978   8.063  10.115  1.00  0.00    -0.354 N 
ATOM     42  C   UNL     1      13.651   6.245   8.697  1.00  0.00     0.074 A 
ATOM     43  C   UNL     1      13.594   6.006   7.272  1.00  0.00     0.031 C 
ATOM     44  C   UNL     1       7.883   8.827   9.940  1.00  0.00     0.029 A 
ATOM     45  C   UNL     1       8.963   8.571  10.888  1.00  0.00     0.049 A 
ATOM     46  H   UNL     1      10.853   7.797  10.480  1.00  0.00     0.167 HD
ATOM     47  C   UNL     1      14.720   5.954   9.475  1.00  0.00     0.037 A 
ATOM     48  C   UNL     1       8.915   8.802  12.213  1.00  0.00     0.037 A 
ATOM     49  C   UNL     1      14.789   6.237  10.883  1.00  0.00     0.049 A 
ATOM     50  C   UNL     1      10.124   8.491  13.052  1.00  0.00     0.074 A 
ATOM     51  C   UNL     1      15.845   6.042  11.754  1.00  0.00     0.029 A 
ATOM     52  N   UNL     1      13.753   6.787  11.624  1.00  0.00    -0.354 N 
ATOM     53  N   UNL     1      11.278   7.987  12.687  1.00  0.00    -0.248 NA
ATOM     54  C   UNL     1      10.027   8.788  14.488  1.00  0.00     0.031 C 
ATOM     55  C   UNL     1      15.438   6.444  13.030  1.00  0.00     0.029 A 
ATOM     56  C   UNL     1      14.142   6.928  12.946  1.00  0.00     0.049 A 
ATOM     57  H   UNL     1      12.872   7.040  11.264  1.00  0.00     0.167 HD
ATOM     58  C   UNL     1      12.052   7.932  13.837  1.00  0.00     0.074 A 
ATOM     59  C   UNL     1      11.242   8.468  14.911  1.00  0.00     0.031 C 
ATOM     60  C   UNL     1      13.320   7.478  13.993  1.00  0.00     0.037 A 
BRANCH  47  61
ATOM     61  C   UNL     1      15.905   5.311   8.815  1.00  0.00     0.064 A 
ATOM     62  C   UNL     1      16.720   6.019   7.918  1.00  0.00     0.173 A 
ATOM     63  C   UNL     1      16.246   3.981   9.101  1.00  0.00     0.173 A 
ATOM     64  F   UNL     1      16.429   7.289   7.600  1.00  0.00    -0.203 F 
ATOM     65  C   UNL     1      17.814   5.409   7.309  1.00  0.00     0.198 A 
ATOM     66  C   UNL     1      17.359   3.384   8.513  1.00  0.00     0.198 A 
ATOM     67  F   UNL     1      15.504   3.260   9.954  1.00  0.00    -0.203 F 
ATOM     68  F   UNL     1      18.546   6.090   6.417  1.00  0.00    -0.200 F 
ATOM     69  C   UNL     1      18.137   4.095   7.612  1.00  0.00     0.200 A 
ATOM     70  F   UNL     1      17.676   2.117   8.815  1.00  0.00    -0.200 F 
ATOM     71  F   UNL     1      19.193   3.512   7.029  1.00  0.00    -0.200 F 
ENDBRANCH  47  61
BRANCH  48  72
ATOM     72  C   UNL     1       7.694   9.390  12.820  1.00  0.00     0.064 A 
ATOM     73  C   UNL     1       7.698  10.706  13.304  1.00  0.00     0.173 A 
ATOM     74  C   UNL     1       6.503   8.658  12.930  1.00  0.00     0.173 A 
ATOM     75  F   UNL     1       8.819  11.440  13.238  1.00  0.00    -0.203 F 
ATOM     76  C   UNL     1       6.564  11.261  13.893  1.00  0.00     0.198 A 
ATOM     77  C   UNL     1       5.361   9.223  13.495  1.00  0.00     0.198 A 
ATOM     78  F   UNL     1       6.445   7.398  12.475  1.00  0.00    -0.203 F 
ATOM     79  F   UNL     1       6.608  12.506  14.385  1.00  0.00    -0.200 F 
ATOM     80  C   UNL     1       5.395  10.521  13.983  1.00  0.00     0.200 A 
ATOM     81  F   UNL     1       4.229   8.510  13.566  1.00  0.00    -0.200 F 
ATOM     82  F   UNL     1       4.302  11.055  14.546  1.00  0.00    -0.200 F 
ENDBRANCH  48  72
BRANCH  60  83
ATOM     83  C   UNL     1      13.918   7.575  15.364  1.00  0.00     0.064 A 
ATOM     84  C   UNL     1      13.521   6.719  16.401  1.00  0.00     0.173 A 
ATOM     85  C   UNL     1      14.931   8.509  15.630  1.00  0.00     0.173 A 
ATOM     86  F   UNL     1      12.546   5.821  16.198  1.00  0.00    -0.203 F 
ATOM     87  C   UNL     1      14.102   6.809  17.662  1.00  0.00     0.198 A 
ATOM     88  C   UNL     1      15.529   8.578  16.884  1.00  0.00     0.198 A 
ATOM     89  F   UNL     1      15.350   9.345  14.668  1.00  0.00    -0.203 F 
ATOM     90  F   UNL     1      13.677   6.011  18.651  1.00  0.00    -0.200 F 
ATOM     91  C   UNL     1      15.109   7.733  17.901  1.00  0.00     0.200 A 
ATOM     92  F   UNL     1      16.510   9.462  17.110  1.00  0.00    -0.200 F 
ATOM     93  F   UNL     1      15.671   7.813  19.115  1.00  0.00    -0.200 F 
ENDBRANCH  60  83
ENDBRANCH  34  35
ENDBRANCH  26  29
ENDBRANCH  24  25
ENDBRANCH  23  24
ENDBRANCH  22  23
ENDBRANCH   3  22
TORSDOF 15
