REMARK SMILES Cc1nnc(SCC(=O)Nc2cccc(C(=O)NCCCNC(=O)c3ccc(-c4c5nc(c(-c6c(F)c(F)c(F)c(F)c6F)c6ccc([nH]6)c(-c6c(F)c(F)c(F)c(F)c6F)c6nc(c(-c7c(F)c(F)c(F)c(F)c7F)c7ccc4[nH]7)C=C6)C=C5)cc3)c2)n1-c1ccccc1
REMARK SMILES IDX 16 1 17 2 18 3 15 5 11 6 12 7 88 8 13 9 14 10 10 11 8 12
REMARK SMILES IDX 9 13 7 15 6 16 5 17 1 18 2 19 3 20 89 21 4 22 90 23 91 24
REMARK SMILES IDX 95 25 92 26 94 27 93 28 19 29 20 30 21 31 22 32 23 33 24 35
REMARK SMILES IDX 25 36 26 37 87 38 27 39 86 40 28 41 29 42 30 43 80 44 31 45
REMARK SMILES IDX 85 46 79 47 81 48 32 49 84 50 78 51 77 52 33 54 65 55 45 56
REMARK SMILES IDX 64 57 46 58 49 59 63 60 82 61 47 62 48 63 62 65 83 66 50 67
REMARK SMILES IDX 34 68 35 69 43 70 36 71 37 72 41 73 44 74 38 75 39 76 42 77
REMARK SMILES IDX 40 78 66 79 67 80 75 81 68 82 69 83 73 84 76 85 70 86 71 87
REMARK SMILES IDX 74 88 72 89 51 90 52 91 60 92 53 93 54 94 58 95 61 96 55 97
REMARK SMILES IDX 56 98 59 99 57 100
REMARK H PARENT 18 4 10 14 22 34 81 53 49 64
REMARK Flexibility Score: inf
ROOT
ATOM      1  C   UNL     1      -3.641  -7.574   0.285  1.00  0.00     0.251 C 
ATOM      2  O   UNL     1      -3.914  -8.743   0.566  1.00  0.00    -0.269 OA
ATOM      3  N   UNL     1      -2.497  -7.383  -0.435  1.00  0.00    -0.352 N 
ATOM      4  H   UNL     1      -2.016  -8.221  -0.625  1.00  0.00     0.163 HD
ENDROOT
BRANCH   1   5
ATOM      5  C   UNL     1      -4.564  -6.489   0.739  1.00  0.00     0.041 A 
ATOM      6  C   UNL     1      -5.246  -4.205   1.196  1.00  0.00     0.041 A 
ATOM      7  C   UNL     1      -6.403  -4.662   1.827  1.00  0.00     0.026 A 
ATOM      8  C   UNL     1      -4.319  -5.112   0.684  1.00  0.00     0.040 A 
ATOM      9  C   UNL     1      -6.680  -6.021   1.867  1.00  0.00     0.003 A 
ATOM     10  C   UNL     1      -5.770  -6.923   1.321  1.00  0.00     0.014 A 
BRANCH   6  11
ATOM     11  N   UNL     1      -5.046  -2.828   1.188  1.00  0.00    -0.325 N 
ATOM     12  C   UNL     1      -4.615  -1.970   0.228  1.00  0.00     0.234 C 
ATOM     13  O   UNL     1      -4.686  -0.781   0.557  1.00  0.00    -0.274 OA
ATOM     14  H   UNL     1      -5.257  -2.391   2.045  1.00  0.00     0.169 HD
BRANCH  12  15
ATOM     15  C   UNL     1      -4.355  -2.366  -1.206  1.00  0.00     0.178 C 
BRANCH  15  16
ATOM     16  S   UNL     1      -2.702  -2.644  -1.832  1.00  0.00    -0.076 SA
BRANCH  16  17
ATOM     17  C   UNL     1      -1.463  -1.991  -0.820  1.00  0.00     0.196 A 
ATOM     18  C   UNL     1       1.074   0.426   0.148  1.00  0.00     0.090 C 
ATOM     19  C   UNL     1       0.226  -0.735  -0.185  1.00  0.00     0.135 A 
ATOM     20  N   UNL     1       0.527  -1.986   0.083  1.00  0.00    -0.134 NA
ATOM     21  N   UNL     1      -1.025  -0.687  -0.768  1.00  0.00    -0.274 N 
ATOM     22  N   UNL     1      -0.522  -2.752  -0.321  1.00  0.00    -0.123 NA
BRANCH  21  23
ATOM     23  C   UNL     1      -1.721   0.428  -1.224  1.00  0.00     0.049 A 
ATOM     24  C   UNL     1      -2.754   0.903  -0.425  1.00  0.00     0.027 A 
ATOM     25  C   UNL     1      -1.593   0.793  -2.562  1.00  0.00     0.027 A 
ATOM     26  C   UNL     1      -3.758   1.666  -1.006  1.00  0.00     0.002 A 
ATOM     27  C   UNL     1      -2.580   1.597  -3.123  1.00  0.00     0.002 A 
ATOM     28  C   UNL     1      -3.679   1.999  -2.357  1.00  0.00     0.000 A 
ENDBRANCH  21  23
ENDBRANCH  16  17
ENDBRANCH  15  16
ENDBRANCH  12  15
ENDBRANCH   6  11
ENDBRANCH   1   5
BRANCH   3  29
ATOM     29  C   UNL     1      -1.840  -6.216  -0.978  1.00  0.00     0.118 C 
BRANCH  29  30
ATOM     30  C   UNL     1      -0.906  -5.585   0.050  1.00  0.00     0.042 C 
BRANCH  30  31
ATOM     31  C   UNL     1       0.504  -5.402  -0.492  1.00  0.00     0.118 C 
BRANCH  31  32
ATOM     32  N   UNL     1       0.648  -4.727  -1.804  1.00  0.00    -0.352 N 
ATOM     33  C   UNL     1       1.794  -4.559  -2.595  1.00  0.00     0.251 C 
ATOM     34  H   UNL     1      -0.179  -4.341  -2.173  1.00  0.00     0.163 HD
ATOM     35  O   UNL     1       1.871  -3.720  -3.473  1.00  0.00    -0.269 OA
BRANCH  33  36
ATOM     36  C   UNL     1       2.919  -5.476  -2.348  1.00  0.00     0.039 A 
ATOM     37  C   UNL     1       4.289  -5.176  -2.299  1.00  0.00     0.014 A 
ATOM     38  C   UNL     1       2.529  -6.740  -2.026  1.00  0.00     0.014 A 
ATOM     39  C   UNL     1       5.156  -6.159  -1.786  1.00  0.00     0.010 A 
ATOM     40  C   UNL     1       3.208  -7.207  -0.962  1.00  0.00     0.010 A 
ATOM     41  C   UNL     1       4.561  -7.241  -1.151  1.00  0.00    -0.014 A 
BRANCH  41  42
ATOM     42  C   UNL     1       5.109  -8.426  -0.525  1.00  0.00     0.031 A 
ATOM     43  C   UNL     1       5.782  -8.196   0.779  1.00  0.00     0.074 A 
ATOM     44  C   UNL     1       4.556  -9.624  -0.856  1.00  0.00     0.049 A 
ATOM     45  N   UNL     1       7.035  -8.346   1.055  1.00  0.00    -0.248 NA
ATOM     46  C   UNL     1       5.012  -7.577   1.877  1.00  0.00     0.031 C 
ATOM     47  C   UNL     1       3.513  -9.929  -1.858  1.00  0.00     0.029 A 
ATOM     48  N   UNL     1       4.723 -10.830  -0.256  1.00  0.00    -0.354 N 
ATOM     49  C   UNL     1       7.161  -8.045   2.408  1.00  0.00     0.074 A 
ATOM     50  C   UNL     1       5.968  -7.334   2.775  1.00  0.00     0.031 C 
ATOM     51  C   UNL     1       2.996 -11.158  -1.638  1.00  0.00     0.029 A 
ATOM     52  C   UNL     1       3.791 -11.802  -0.617  1.00  0.00     0.049 A 
ATOM     53  H   UNL     1       5.449 -11.006   0.386  1.00  0.00     0.167 HD
ATOM     54  C   UNL     1       8.096  -8.658   3.188  1.00  0.00     0.037 A 
ATOM     55  C   UNL     1       3.693 -13.040  -0.074  1.00  0.00     0.037 A 
ATOM     56  C   UNL     1       9.033  -9.393   2.373  1.00  0.00     0.049 A 
ATOM     57  C   UNL     1       4.986 -13.297   0.621  1.00  0.00     0.074 A 
ATOM     58  C   UNL     1       9.915  -9.045   1.368  1.00  0.00     0.029 A 
ATOM     59  N   UNL     1       8.824 -10.745   2.230  1.00  0.00    -0.354 N 
ATOM     60  N   UNL     1       6.132 -13.389  -0.005  1.00  0.00    -0.248 NA
ATOM     61  C   UNL     1       5.070 -12.916   2.023  1.00  0.00     0.031 C 
ATOM     62  C   UNL     1       9.780 -10.076   0.390  1.00  0.00     0.029 A 
ATOM     63  C   UNL     1       8.901 -11.039   0.890  1.00  0.00     0.049 A 
ATOM     64  H   UNL     1       8.650 -11.387   2.957  1.00  0.00     0.167 HD
ATOM     65  C   UNL     1       7.034 -12.693   0.791  1.00  0.00     0.074 A 
ATOM     66  C   UNL     1       6.331 -12.471   2.055  1.00  0.00     0.031 C 
ATOM     67  C   UNL     1       8.136 -12.088   0.251  1.00  0.00     0.037 A 
BRANCH  54  68
ATOM     68  C   UNL     1       7.966  -8.908   4.670  1.00  0.00     0.064 A 
ATOM     69  C   UNL     1       9.098  -9.348   5.385  1.00  0.00     0.173 A 
ATOM     70  C   UNL     1       6.740  -8.996   5.366  1.00  0.00     0.173 A 
ATOM     71  F   UNL     1      10.314  -9.321   4.819  1.00  0.00    -0.203 F 
ATOM     72  C   UNL     1       8.996  -9.903   6.664  1.00  0.00     0.198 A 
ATOM     73  C   UNL     1       6.651  -9.494   6.665  1.00  0.00     0.198 A 
ATOM     74  F   UNL     1       5.567  -8.713   4.788  1.00  0.00    -0.203 F 
ATOM     75  F   UNL     1      10.083 -10.421   7.252  1.00  0.00    -0.200 F 
ATOM     76  C   UNL     1       7.772  -9.979   7.301  1.00  0.00     0.200 A 
ATOM     77  F   UNL     1       5.451  -9.573   7.259  1.00  0.00    -0.200 F 
ATOM     78  F   UNL     1       7.663 -10.562   8.501  1.00  0.00    -0.200 F 
ENDBRANCH  54  68
BRANCH  55  79
ATOM     79  C   UNL     1       2.463 -13.830   0.173  1.00  0.00     0.064 A 
ATOM     80  C   UNL     1       2.513 -15.216   0.382  1.00  0.00     0.173 A 
ATOM     81  C   UNL     1       1.240 -13.195   0.471  1.00  0.00     0.173 A 
ATOM     82  F   UNL     1       3.652 -15.888   0.164  1.00  0.00    -0.203 F 
ATOM     83  C   UNL     1       1.410 -15.924   0.878  1.00  0.00     0.198 A 
ATOM     84  C   UNL     1       0.141 -13.901   0.964  1.00  0.00     0.198 A 
ATOM     85  F   UNL     1       1.119 -11.863   0.376  1.00  0.00    -0.203 F 
ATOM     86  F   UNL     1       1.511 -17.239   1.116  1.00  0.00    -0.200 F 
ATOM     87  C   UNL     1       0.229 -15.264   1.179  1.00  0.00     0.200 A 
ATOM     88  F   UNL     1      -0.982 -13.244   1.289  1.00  0.00    -0.200 F 
ATOM     89  F   UNL     1      -0.805 -15.930   1.711  1.00  0.00    -0.200 F 
ENDBRANCH  55  79
BRANCH  67  90
ATOM     90  C   UNL     1       8.452 -12.363  -1.200  1.00  0.00     0.064 A 
ATOM     91  C   UNL     1       7.643 -11.956  -2.277  1.00  0.00     0.173 A 
ATOM     92  C   UNL     1       9.700 -12.906  -1.521  1.00  0.00     0.173 A 
ATOM     93  F   UNL     1       6.481 -11.335  -2.068  1.00  0.00    -0.203 F 
ATOM     94  C   UNL     1       8.043 -12.118  -3.603  1.00  0.00     0.198 A 
ATOM     95  C   UNL     1      10.115 -13.040  -2.845  1.00  0.00     0.198 A 
ATOM     96  F   UNL     1      10.547 -13.258  -0.542  1.00  0.00    -0.203 F 
ATOM     97  F   UNL     1       7.243 -11.718  -4.603  1.00  0.00    -0.200 F 
ATOM     98  C   UNL     1       9.284 -12.655  -3.886  1.00  0.00     0.200 A 
ATOM     99  F   UNL     1      11.339 -13.515  -3.112  1.00  0.00    -0.200 F 
ATOM    100  F   UNL     1       9.693 -12.775  -5.157  1.00  0.00    -0.200 F 
ENDBRANCH  67  90
ENDBRANCH  41  42
ENDBRANCH  33  36
ENDBRANCH  31  32
ENDBRANCH  30  31
ENDBRANCH  29  30
ENDBRANCH   3  29
TORSDOF 15
