REMARK SMILES Cc1ccc(C(=O)NCCCNC(=O)c2ccc(-c3c4nc(c(-c5c(F)c(F)c(F)c(F)c5F)c5ccc([nH]5)c(-c5c(F)c(F)c(F)c(F)c5F)c5nc(c(-c6c(F)c(F)c(F)c(F)c6F)c6ccc3[nH]6)C=C5)C=C4)cc2)cc1N1C(=O)/C(=C/c2ccc([N+](=O)[O-])cc2)SC1=S
REMARK SMILES IDX 9 1 8 2 6 3 7 4 5 6 1 7 2 8 3 9 79 10 4 11 78 12 80 13 81 14
REMARK SMILES IDX 95 15 82 16 83 17 94 18 96 19 84 20 85 21 86 22 93 23 87 24
REMARK SMILES IDX 92 25 88 26 89 27 90 28 91 29 10 30 11 31 12 32 13 33 14 35
REMARK SMILES IDX 15 36 16 37 77 38 17 39 76 40 18 41 19 42 20 43 70 44 21 45
REMARK SMILES IDX 75 46 69 47 71 48 22 49 74 50 68 51 67 52 23 54 55 55 35 56
REMARK SMILES IDX 54 57 36 58 39 59 53 60 72 61 37 62 38 63 52 65 73 66 40 67
REMARK SMILES IDX 24 68 25 69 33 70 26 71 27 72 31 73 34 74 28 75 29 76 32 77
REMARK SMILES IDX 30 78 56 79 57 80 65 81 58 82 59 83 63 84 66 85 60 86 61 87
REMARK SMILES IDX 64 88 62 89 41 90 42 91 50 92 43 93 44 94 48 95 51 96 45 97
REMARK SMILES IDX 46 98 49 99 47 100
REMARK H PARENT 8 5 12 34 71 53 39 64
REMARK Flexibility Score: inf
ROOT
ATOM      1  C   UNL     1      -3.341   2.828   0.353  1.00  0.00     0.118 C 
ENDROOT
BRANCH   1   2
ATOM      2  N   UNL     1      -3.691   1.417   0.278  1.00  0.00    -0.352 N 
ATOM      3  C   UNL     1      -2.981   0.243   0.216  1.00  0.00     0.251 C 
ATOM      4  O   UNL     1      -3.653  -0.792   0.225  1.00  0.00    -0.269 OA
ATOM      5  H   UNL     1      -4.664   1.269   0.269  1.00  0.00     0.163 HD
BRANCH   3   6
ATOM      6  C   UNL     1      -1.492   0.124   0.122  1.00  0.00     0.041 A 
ATOM      7  C   UNL     1       2.789  -0.591  -0.263  1.00  0.00     0.046 C 
ATOM      8  C   UNL     1       1.317  -0.310  -0.154  1.00  0.00    -0.027 A 
ATOM      9  C   UNL     1       0.430  -1.387  -0.036  1.00  0.00     0.006 A 
ATOM     10  C   UNL     1       0.780   0.984  -0.136  1.00  0.00     0.054 A 
ATOM     11  C   UNL     1      -0.950  -1.172   0.082  1.00  0.00     0.014 A 
ATOM     12  C   UNL     1      -0.605   1.189   0.023  1.00  0.00     0.041 A 
BRANCH  10  13
ATOM     13  N   UNL     1       1.573   2.128  -0.397  1.00  0.00    -0.261 N 
ATOM     14  C   UNL     1       2.230   2.766   0.650  1.00  0.00     0.270 C 
ATOM     15  C   UNL     1       1.588   2.754  -1.634  1.00  0.00     0.152 C 
ATOM     16  O   UNL     1       2.330   2.396   1.800  1.00  0.00    -0.268 OA
ATOM     17  C   UNL     1       2.770   4.068   0.155  1.00  0.00     0.081 C 
ATOM     18  S   UNL     1       2.596   4.191  -1.549  1.00  0.00    -0.054 SA
ATOM     19  S   UNL     1       0.797   2.320  -3.042  1.00  0.00    -0.051 S 
ATOM     20  C   UNL     1       3.236   5.006   0.989  1.00  0.00     0.029 C 
BRANCH  20  21
ATOM     21  C   UNL     1       3.764   6.308   0.575  1.00  0.00    -0.024 A 
ATOM     22  C   UNL     1       2.928   7.426   0.453  1.00  0.00     0.015 A 
ATOM     23  C   UNL     1       5.133   6.432   0.311  1.00  0.00     0.015 A 
ATOM     24  C   UNL     1       3.464   8.672   0.108  1.00  0.00     0.086 A 
ATOM     25  C   UNL     1       5.678   7.670  -0.032  1.00  0.00     0.086 A 
ATOM     26  C   UNL     1       4.843   8.792  -0.115  1.00  0.00     0.269 A 
BRANCH  26  27
ATOM     27  N   UNL     1       5.425  10.107  -0.410  1.00  0.00     0.062 N 
ATOM     28  O   UNL     1       4.656  11.076  -0.482  1.00  0.00    -0.258 OA
ATOM     29  O   UNL     1       6.654  10.173  -0.557  1.00  0.00    -0.258 OA
ENDBRANCH  26  27
ENDBRANCH  20  21
ENDBRANCH  10  13
ENDBRANCH   3   6
ENDBRANCH   1   2
BRANCH   1  30
ATOM     30  C   UNL     1      -3.042   3.426  -1.022  1.00  0.00     0.042 C 
BRANCH  30  31
ATOM     31  C   UNL     1      -4.191   4.273  -1.554  1.00  0.00     0.118 C 
BRANCH  31  32
ATOM     32  N   UNL     1      -4.194   5.659  -1.078  1.00  0.00    -0.352 N 
ATOM     33  C   UNL     1      -5.159   6.633  -1.286  1.00  0.00     0.251 C 
ATOM     34  H   UNL     1      -3.414   5.932  -0.543  1.00  0.00     0.163 HD
ATOM     35  O   UNL     1      -5.038   7.760  -0.824  1.00  0.00    -0.269 OA
BRANCH  33  36
ATOM     36  C   UNL     1      -6.401   6.232  -1.981  1.00  0.00     0.039 A 
ATOM     37  C   UNL     1      -7.593   6.285  -1.254  1.00  0.00     0.014 A 
ATOM     38  C   UNL     1      -6.305   5.488  -3.154  1.00  0.00     0.014 A 
ATOM     39  C   UNL     1      -8.594   5.364  -1.544  1.00  0.00     0.010 A 
ATOM     40  C   UNL     1      -7.249   4.506  -3.375  1.00  0.00     0.010 A 
ATOM     41  C   UNL     1      -8.354   4.397  -2.522  1.00  0.00    -0.014 A 
BRANCH  41  42
ATOM     42  C   UNL     1      -9.182   3.207  -2.669  1.00  0.00     0.031 A 
ATOM     43  C   UNL     1     -10.174   3.151  -3.759  1.00  0.00     0.074 A 
ATOM     44  C   UNL     1      -9.061   2.157  -1.825  1.00  0.00     0.049 A 
ATOM     45  N   UNL     1     -11.311   2.547  -3.668  1.00  0.00    -0.248 NA
ATOM     46  C   UNL     1      -9.975   3.824  -5.035  1.00  0.00     0.031 C 
ATOM     47  C   UNL     1      -9.681   0.842  -1.976  1.00  0.00     0.029 A 
ATOM     48  N   UNL     1      -8.473   2.119  -0.549  1.00  0.00    -0.354 N 
ATOM     49  C   UNL     1     -11.875   2.528  -4.923  1.00  0.00     0.074 A 
ATOM     50  C   UNL     1     -11.036   3.391  -5.723  1.00  0.00     0.031 C 
ATOM     51  C   UNL     1      -9.711   0.233  -0.781  1.00  0.00     0.029 A 
ATOM     52  C   UNL     1      -9.218   1.176   0.203  1.00  0.00     0.049 A 
ATOM     53  H   UNL     1      -7.698   2.643  -0.240  1.00  0.00     0.167 HD
ATOM     54  C   UNL     1     -12.912   1.678  -5.180  1.00  0.00     0.037 A 
ATOM     55  C   UNL     1      -9.851   1.506   1.367  1.00  0.00     0.037 A 
ATOM     56  C   UNL     1     -13.262   0.901  -3.993  1.00  0.00     0.049 A 
ATOM     57  C   UNL     1     -11.344   1.308   1.327  1.00  0.00     0.074 A 
ATOM     58  C   UNL     1     -12.891  -0.369  -3.582  1.00  0.00     0.029 A 
ATOM     59  N   UNL     1     -13.832   1.523  -2.888  1.00  0.00    -0.354 N 
ATOM     60  N   UNL     1     -12.016   1.132   0.226  1.00  0.00    -0.248 NA
ATOM     61  C   UNL     1     -12.204   1.370   2.506  1.00  0.00     0.031 C 
ATOM     62  C   UNL     1     -13.208  -0.498  -2.210  1.00  0.00     0.029 A 
ATOM     63  C   UNL     1     -13.784   0.687  -1.786  1.00  0.00     0.049 A 
ATOM     64  H   UNL     1     -14.216   2.430  -2.889  1.00  0.00     0.167 HD
ATOM     65  C   UNL     1     -13.356   1.143   0.507  1.00  0.00     0.074 A 
ATOM     66  C   UNL     1     -13.422   1.249   1.952  1.00  0.00     0.031 C 
ATOM     67  C   UNL     1     -14.292   1.106  -0.487  1.00  0.00     0.037 A 
BRANCH  54  68
ATOM     68  C   UNL     1     -13.380   1.323  -6.575  1.00  0.00     0.064 A 
ATOM     69  C   UNL     1     -13.913   0.046  -6.859  1.00  0.00     0.173 A 
ATOM     70  C   UNL     1     -13.280   2.175  -7.690  1.00  0.00     0.173 A 
ATOM     71  F   UNL     1     -14.195  -0.829  -5.885  1.00  0.00    -0.203 F 
ATOM     72  C   UNL     1     -14.181  -0.385  -8.161  1.00  0.00     0.198 A 
ATOM     73  C   UNL     1     -13.490   1.727  -8.999  1.00  0.00     0.198 A 
ATOM     74  F   UNL     1     -13.033   3.483  -7.544  1.00  0.00    -0.203 F 
ATOM     75  F   UNL     1     -14.674  -1.615  -8.365  1.00  0.00    -0.200 F 
ATOM     76  C   UNL     1     -13.926   0.440  -9.235  1.00  0.00     0.200 A 
ATOM     77  F   UNL     1     -13.268   2.555 -10.029  1.00  0.00    -0.200 F 
ATOM     78  F   UNL     1     -14.130   0.009 -10.487  1.00  0.00    -0.200 F 
ENDBRANCH  54  68
BRANCH  55  79
ATOM     79  C   UNL     1      -9.161   2.599   2.097  1.00  0.00     0.064 A 
ATOM     80  C   UNL     1      -7.859   2.340   2.562  1.00  0.00     0.173 A 
ATOM     81  C   UNL     1      -9.537   3.933   1.903  1.00  0.00     0.173 A 
ATOM     82  F   UNL     1      -7.466   1.077   2.788  1.00  0.00    -0.203 F 
ATOM     83  C   UNL     1      -6.911   3.355   2.627  1.00  0.00     0.198 A 
ATOM     84  C   UNL     1      -8.589   4.950   1.998  1.00  0.00     0.198 A 
ATOM     85  F   UNL     1     -10.774   4.237   1.486  1.00  0.00    -0.203 F 
ATOM     86  F   UNL     1      -5.632   3.058   2.900  1.00  0.00    -0.200 F 
ATOM     87  C   UNL     1      -7.267   4.652   2.297  1.00  0.00     0.200 A 
ATOM     88  F   UNL     1      -8.933   6.209   1.691  1.00  0.00    -0.200 F 
ATOM     89  F   UNL     1      -6.324   5.601   2.216  1.00  0.00    -0.200 F 
ENDBRANCH  55  79
BRANCH  67  90
ATOM     90  C   UNL     1     -15.768   1.351  -0.303  1.00  0.00     0.064 A 
ATOM     91  C   UNL     1     -16.307   2.172   0.701  1.00  0.00     0.173 A 
ATOM     92  C   UNL     1     -16.700   0.840  -1.237  1.00  0.00     0.173 A 
ATOM     93  F   UNL     1     -15.518   2.835   1.558  1.00  0.00    -0.203 F 
ATOM     94  C   UNL     1     -17.682   2.386   0.824  1.00  0.00     0.198 A 
ATOM     95  C   UNL     1     -18.066   1.106  -1.148  1.00  0.00     0.198 A 
ATOM     96  F   UNL     1     -16.310   0.087  -2.275  1.00  0.00    -0.203 F 
ATOM     97  F   UNL     1     -18.150   3.129   1.837  1.00  0.00    -0.200 F 
ATOM     98  C   UNL     1     -18.561   1.858  -0.103  1.00  0.00     0.200 A 
ATOM     99  F   UNL     1     -18.898   0.640  -2.091  1.00  0.00    -0.200 F 
ATOM    100  F   UNL     1     -19.875   2.094  -0.002  1.00  0.00    -0.200 F 
ENDBRANCH  67  90
ENDBRANCH  41  42
ENDBRANCH  33  36
ENDBRANCH  31  32
ENDBRANCH  30  31
ENDBRANCH   1  30
TORSDOF 13
