REMARK SMILES Cc1ccccc1C[C@H](CCSc1ccccc1)C(=O)NCCCNC(=O)c1ccc(-c2c3nc(c(-c4c(F)c(F)c(F)c(F)c4F)c4ccc([nH]4)c(-c4c(F)c(F)c(F)c(F)c4F)c4nc(c(-c5c(F)c(F)c(F)c(F)c5F)c5ccc2[nH]5)C=C4)C=C3)cc1
REMARK SMILES IDX 22 1 21 2 19 3 20 4 9 6 8 7 7 8 1 9 2 10 3 11 4 12 6 13 5 14
REMARK SMILES IDX 10 15 11 16 12 17 13 18 14 19 18 20 15 21 17 22 16 23 23 24
REMARK SMILES IDX 24 25 25 26 26 27 27 29 28 30 29 31 90 32 30 33 89 34 31 35
REMARK SMILES IDX 32 36 33 37 83 38 34 39 88 40 82 41 84 42 35 43 87 44 81 45
REMARK SMILES IDX 80 46 36 48 68 49 48 50 67 51 49 52 52 53 66 54 85 55 50 56
REMARK SMILES IDX 51 57 65 59 86 60 53 61 37 62 38 63 46 64 39 65 40 66 44 67
REMARK SMILES IDX 47 68 41 69 42 70 45 71 43 72 69 73 70 74 78 75 71 76 72 77
REMARK SMILES IDX 76 78 79 79 73 80 74 81 77 82 75 83 54 84 55 85 63 86 56 87
REMARK SMILES IDX 57 88 61 89 64 90 58 91 59 92 62 93 60 94
REMARK H PARENT 21 5 25 28 84 47 52 58
REMARK Flexibility Score: inf
ROOT
ATOM      1  C   UNL     1       0.115   4.898   1.750  1.00  0.00     0.117 C 
ENDROOT
BRANCH   1   2
ATOM      2  N   UNL     1       1.172   5.095   0.771  1.00  0.00    -0.356 N 
ATOM      3  C   UNL     1       1.292   4.616  -0.497  1.00  0.00     0.223 C 
ATOM      4  O   UNL     1       2.267   4.992  -1.154  1.00  0.00    -0.275 OA
ATOM      5  H   UNL     1       1.918   5.663   1.073  1.00  0.00     0.163 HD
BRANCH   3   6
ATOM      6  C   UNL     1       0.303   3.608  -1.068  1.00  0.00     0.083 C 
BRANCH   6   7
ATOM      7  C   UNL     1      -1.179   4.057  -1.092  1.00  0.00     0.049 C 
BRANCH   7   8
ATOM      8  C   UNL     1      -1.528   5.321  -1.867  1.00  0.00    -0.044 A 
ATOM      9  C   UNL     1      -3.277   4.152  -3.365  1.00  0.00     0.044 C 
ATOM     10  C   UNL     1      -2.474   5.343  -2.916  1.00  0.00    -0.048 A 
ATOM     11  C   UNL     1      -2.789   6.569  -3.540  1.00  0.00     0.004 A 
ATOM     12  C   UNL     1      -2.197   7.763  -3.141  1.00  0.00     0.000 A 
ATOM     13  C   UNL     1      -0.972   6.553  -1.465  1.00  0.00     0.004 A 
ATOM     14  C   UNL     1      -1.292   7.756  -2.095  1.00  0.00     0.000 A 
ENDBRANCH   7   8
ENDBRANCH   6   7
BRANCH   6  15
ATOM     15  C   UNL     1       0.581   2.253  -0.367  1.00  0.00     0.025 C 
BRANCH  15  16
ATOM     16  C   UNL     1      -0.228   1.032  -0.807  1.00  0.00     0.076 C 
BRANCH  16  17
ATOM     17  S   UNL     1       0.482   0.145  -2.236  1.00  0.00    -0.126 SA
BRANCH  17  18
ATOM     18  C   UNL     1      -0.318   0.963  -3.597  1.00  0.00     0.007 A 
ATOM     19  C   UNL     1       0.297   2.057  -4.211  1.00  0.00     0.015 A 
ATOM     20  C   UNL     1      -1.515   0.470  -4.124  1.00  0.00     0.015 A 
ATOM     21  C   UNL     1      -0.308   2.698  -5.292  1.00  0.00     0.001 A 
ATOM     22  C   UNL     1      -2.100   1.084  -5.235  1.00  0.00     0.001 A 
ATOM     23  C   UNL     1      -1.502   2.205  -5.811  1.00  0.00     0.000 A 
ENDBRANCH  17  18
ENDBRANCH  16  17
ENDBRANCH  15  16
ENDBRANCH   6  15
ENDBRANCH   3   6
ENDBRANCH   1   2
BRANCH   1  24
ATOM     24  C   UNL     1       0.658   4.590   3.132  1.00  0.00     0.042 C 
BRANCH  24  25
ATOM     25  C   UNL     1       1.208   5.832   3.793  1.00  0.00     0.118 C 
BRANCH  25  26
ATOM     26  N   UNL     1       0.210   6.699   4.394  1.00  0.00    -0.352 N 
ATOM     27  C   UNL     1       0.348   7.941   4.993  1.00  0.00     0.251 C 
ATOM     28  H   UNL     1      -0.710   6.349   4.373  1.00  0.00     0.163 HD
ATOM     29  O   UNL     1      -0.609   8.424   5.574  1.00  0.00    -0.269 OA
BRANCH  27  30
ATOM     30  C   UNL     1       1.583   8.754   4.795  1.00  0.00     0.039 A 
ATOM     31  C   UNL     1       1.473  10.153   4.835  1.00  0.00     0.014 A 
ATOM     32  C   UNL     1       2.764   8.185   4.346  1.00  0.00     0.014 A 
ATOM     33  C   UNL     1       2.433  10.940   4.199  1.00  0.00     0.010 A 
ATOM     34  C   UNL     1       3.590   8.923   3.543  1.00  0.00     0.010 A 
ATOM     35  C   UNL     1       3.413  10.301   3.453  1.00  0.00    -0.014 A 
BRANCH  35  36
ATOM     36  C   UNL     1       4.360  10.940   2.563  1.00  0.00     0.031 A 
ATOM     37  C   UNL     1       5.771  11.029   2.988  1.00  0.00     0.074 A 
ATOM     38  C   UNL     1       3.986  11.184   1.289  1.00  0.00     0.049 A 
ATOM     39  N   UNL     1       6.646  11.776   2.416  1.00  0.00    -0.248 NA
ATOM     40  C   UNL     1       6.319  10.272   4.112  1.00  0.00     0.031 C 
ATOM     41  C   UNL     1       4.849  11.440   0.140  1.00  0.00     0.029 A 
ATOM     42  N   UNL     1       2.688  11.423   0.804  1.00  0.00    -0.354 N 
ATOM     43  C   UNL     1       7.885  11.409   2.885  1.00  0.00     0.074 A 
ATOM     44  C   UNL     1       7.628  10.496   3.971  1.00  0.00     0.031 C 
ATOM     45  C   UNL     1       4.142  12.096  -0.793  1.00  0.00     0.029 A 
ATOM     46  C   UNL     1       2.853  12.407  -0.201  1.00  0.00     0.049 A 
ATOM     47  H   UNL     1       1.849  11.000   1.099  1.00  0.00     0.167 HD
ATOM     48  C   UNL     1       8.987  11.836   2.208  1.00  0.00     0.037 A 
ATOM     49  C   UNL     1       2.362  13.669  -0.028  1.00  0.00     0.037 A 
ATOM     50  C   UNL     1       8.597  12.694   1.094  1.00  0.00     0.049 A 
ATOM     51  C   UNL     1       3.427  14.741  -0.050  1.00  0.00     0.074 A 
ATOM     52  C   UNL     1       8.411  12.456  -0.258  1.00  0.00     0.029 A 
ATOM     53  N   UNL     1       7.981  13.909   1.368  1.00  0.00    -0.354 N 
ATOM     54  N   UNL     1       4.692  14.520   0.186  1.00  0.00    -0.248 NA
ATOM     55  C   UNL     1       3.156  16.142  -0.352  1.00  0.00     0.031 C 
ATOM     56  C   UNL     1       7.657  13.530  -0.794  1.00  0.00     0.029 A 
ATOM     57  C   UNL     1       7.402  14.428   0.228  1.00  0.00     0.049 A 
ATOM     58  H   UNL     1       7.960  14.339   2.253  1.00  0.00     0.167 HD
ATOM     59  C   UNL     1       5.400  15.691   0.062  1.00  0.00     0.074 A 
ATOM     60  C   UNL     1       4.391  16.673  -0.286  1.00  0.00     0.031 C 
ATOM     61  C   UNL     1       6.755  15.731   0.259  1.00  0.00     0.037 A 
BRANCH  48  62
ATOM     62  C   UNL     1      10.378  11.287   2.397  1.00  0.00     0.064 A 
ATOM     63  C   UNL     1      11.291  11.254   1.319  1.00  0.00     0.173 A 
ATOM     64  C   UNL     1      10.870  10.759   3.604  1.00  0.00     0.173 A 
ATOM     65  F   UNL     1      10.992  11.790   0.130  1.00  0.00    -0.203 F 
ATOM     66  C   UNL     1      12.551  10.660   1.420  1.00  0.00     0.198 A 
ATOM     67  C   UNL     1      12.110  10.117   3.691  1.00  0.00     0.198 A 
ATOM     68  F   UNL     1      10.193  10.896   4.751  1.00  0.00    -0.203 F 
ATOM     69  F   UNL     1      13.372  10.662   0.360  1.00  0.00    -0.200 F 
ATOM     70  C   UNL     1      12.949  10.063   2.597  1.00  0.00     0.200 A 
ATOM     71  F   UNL     1      12.488   9.556   4.849  1.00  0.00    -0.200 F 
ATOM     72  F   UNL     1      14.142   9.461   2.684  1.00  0.00    -0.200 F 
ENDBRANCH  48  62
BRANCH  49  73
ATOM     73  C   UNL     1       1.115  13.677   0.787  1.00  0.00     0.064 A 
ATOM     74  C   UNL     1      -0.008  13.005   0.261  1.00  0.00     0.173 A 
ATOM     75  C   UNL     1       1.145  13.894   2.170  1.00  0.00     0.173 A 
ATOM     76  F   UNL     1      -0.090  12.776  -1.060  1.00  0.00    -0.203 F 
ATOM     77  C   UNL     1      -0.971  12.437   1.093  1.00  0.00     0.198 A 
ATOM     78  C   UNL     1       0.161  13.345   2.999  1.00  0.00     0.198 A 
ATOM     79  F   UNL     1       2.190  14.514   2.736  1.00  0.00    -0.203 F 
ATOM     80  F   UNL     1      -1.946  11.681   0.568  1.00  0.00    -0.200 F 
ATOM     81  C   UNL     1      -0.866  12.579   2.465  1.00  0.00     0.200 A 
ATOM     82  F   UNL     1       0.266  13.470   4.330  1.00  0.00    -0.200 F 
ATOM     83  F   UNL     1      -1.726  11.944   3.274  1.00  0.00    -0.200 F 
ENDBRANCH  49  73
BRANCH  61  84
ATOM     84  C   UNL     1       7.650  16.950   0.432  1.00  0.00     0.064 A 
ATOM     85  C   UNL     1       7.198  18.240   0.746  1.00  0.00     0.173 A 
ATOM     86  C   UNL     1       9.067  16.802   0.435  1.00  0.00     0.173 A 
ATOM     87  F   UNL     1       5.897  18.517   0.883  1.00  0.00    -0.203 F 
ATOM     88  C   UNL     1       8.080  19.297   1.002  1.00  0.00     0.198 A 
ATOM     89  C   UNL     1       9.939  17.838   0.762  1.00  0.00     0.198 A 
ATOM     90  F   UNL     1       9.663  15.635   0.150  1.00  0.00    -0.203 F 
ATOM     91  F   UNL     1       7.590  20.518   1.257  1.00  0.00    -0.200 F 
ATOM     92  C   UNL     1       9.446  19.093   1.032  1.00  0.00     0.200 A 
ATOM     93  F   UNL     1      11.256  17.600   0.838  1.00  0.00    -0.200 F 
ATOM     94  F   UNL     1      10.280  20.094   1.339  1.00  0.00    -0.200 F 
ENDBRANCH  61  84
ENDBRANCH  35  36
ENDBRANCH  27  30
ENDBRANCH  25  26
ENDBRANCH  24  25
ENDBRANCH   1  24
TORSDOF 16
