REMARK SMILES O=C(NCCCNC(=O)c1cc(-c2ccccc2)nc(Nc2nc3ccccc3s2)n1)c1ccc(-c2c3nc(c(-c4c(F)c(F)c(F)c(F)c4F)c4ccc([nH]4)c(-c4c(F)c(F)c(F)c(F)c4F)c4nc(c(-c5c(F)c(F)c(F)c(F)c5F)c5ccc2[nH]5)C=C4)C=C3)cc1
REMARK SMILES IDX 5 1 4 2 3 3 1 4 2 5 32 7 33 8 94 9 34 10 93 11 35 12 36 13
REMARK SMILES IDX 37 14 87 15 38 16 92 17 86 18 88 19 39 20 91 21 85 22 84 23
REMARK SMILES IDX 40 25 72 26 52 27 71 28 53 29 56 30 70 31 89 32 54 33 55 34
REMARK SMILES IDX 69 36 90 37 57 38 41 39 42 40 50 41 43 42 44 43 48 44 51 45
REMARK SMILES IDX 45 46 46 47 49 48 47 49 73 50 74 51 82 52 75 53 76 54 80 55
REMARK SMILES IDX 83 56 77 57 78 58 81 59 79 60 58 61 59 62 67 63 60 64 61 65
REMARK SMILES IDX 65 66 68 67 62 68 63 69 66 70 64 71 6 72 7 73 8 74 9 76
REMARK SMILES IDX 10 77 11 78 31 79 12 80 20 81 19 82 13 83 14 84 18 85 15 86
REMARK SMILES IDX 17 87 16 88 21 89 22 91 23 92 30 93 24 94 29 95 25 96 28 97
REMARK SMILES IDX 26 98 27 99
REMARK H PARENT 3 6 88 24 56 35 7 75 21 90
REMARK Flexibility Score: inf
ROOT
ATOM      1  C   UNL     1       5.024  -0.220   2.365  1.00  0.00     0.042 C 
ENDROOT
BRANCH   1   2
ATOM      2  C   UNL     1       4.618  -0.771   1.006  1.00  0.00     0.118 C 
BRANCH   2   3
ATOM      3  N   UNL     1       3.176  -0.773   0.808  1.00  0.00    -0.352 N 
ATOM      4  O   UNL     1       1.174  -0.032   0.097  1.00  0.00    -0.269 OA
ATOM      5  C   UNL     1       2.394  -0.017  -0.029  1.00  0.00     0.251 C 
ATOM      6  H   UNL     1       2.682  -1.419   1.363  1.00  0.00     0.163 HD
BRANCH   5   7
ATOM      7  C   UNL     1       3.015   0.832  -1.067  1.00  0.00     0.039 A 
ATOM      8  C   UNL     1       4.080   0.365  -1.841  1.00  0.00     0.014 A 
ATOM      9  C   UNL     1       2.492   2.108  -1.296  1.00  0.00     0.014 A 
ATOM     10  C   UNL     1       4.717   1.217  -2.736  1.00  0.00     0.010 A 
ATOM     11  C   UNL     1       3.072   2.931  -2.262  1.00  0.00     0.010 A 
ATOM     12  C   UNL     1       4.207   2.502  -2.969  1.00  0.00    -0.014 A 
BRANCH  12  13
ATOM     13  C   UNL     1       4.822   3.372  -3.999  1.00  0.00     0.031 A 
ATOM     14  C   UNL     1       5.450   4.680  -3.621  1.00  0.00     0.074 A 
ATOM     15  C   UNL     1       4.771   2.992  -5.290  1.00  0.00     0.049 A 
ATOM     16  N   UNL     1       5.938   5.619  -4.393  1.00  0.00    -0.248 NA
ATOM     17  C   UNL     1       5.530   4.981  -2.184  1.00  0.00     0.031 C 
ATOM     18  C   UNL     1       4.184   1.742  -5.775  1.00  0.00     0.029 A 
ATOM     19  N   UNL     1       5.201   3.624  -6.428  1.00  0.00    -0.354 N 
ATOM     20  C   UNL     1       6.357   6.631  -3.540  1.00  0.00     0.074 A 
ATOM     21  C   UNL     1       6.042   6.203  -2.193  1.00  0.00     0.031 C 
ATOM     22  C   UNL     1       4.290   1.697  -7.109  1.00  0.00     0.029 A 
ATOM     23  C   UNL     1       4.888   2.942  -7.578  1.00  0.00     0.049 A 
ATOM     24  H   UNL     1       5.685   4.481  -6.422  1.00  0.00     0.167 HD
ATOM     25  C   UNL     1       6.951   7.807  -3.858  1.00  0.00     0.037 A 
ATOM     26  C   UNL     1       5.024   3.297  -8.869  1.00  0.00     0.037 A 
ATOM     27  C   UNL     1       7.258   8.216  -5.205  1.00  0.00     0.049 A 
ATOM     28  C   UNL     1       5.641   4.624  -9.202  1.00  0.00     0.074 A 
ATOM     29  C   UNL     1       7.901   9.365  -5.633  1.00  0.00     0.029 A 
ATOM     30  N   UNL     1       6.926   7.497  -6.346  1.00  0.00    -0.354 N 
ATOM     31  N   UNL     1       6.072   5.558  -8.390  1.00  0.00    -0.248 NA
ATOM     32  C   UNL     1       5.792   4.948 -10.626  1.00  0.00     0.031 C 
ATOM     33  C   UNL     1       7.896   9.373  -7.031  1.00  0.00     0.029 A 
ATOM     34  C   UNL     1       7.318   8.195  -7.477  1.00  0.00     0.049 A 
ATOM     35  H   UNL     1       6.479   6.620  -6.350  1.00  0.00     0.167 HD
ATOM     36  C   UNL     1       6.572   6.568  -9.200  1.00  0.00     0.074 A 
ATOM     37  C   UNL     1       6.389   6.131 -10.569  1.00  0.00     0.031 C 
ATOM     38  C   UNL     1       7.138   7.745  -8.837  1.00  0.00     0.037 A 
BRANCH  25  39
ATOM     39  C   UNL     1       7.264   8.752  -2.732  1.00  0.00     0.064 A 
ATOM     40  C   UNL     1       8.236   8.461  -1.762  1.00  0.00     0.173 A 
ATOM     41  C   UNL     1       6.583   9.975  -2.625  1.00  0.00     0.173 A 
ATOM     42  F   UNL     1       8.914   7.305  -1.810  1.00  0.00    -0.203 F 
ATOM     43  C   UNL     1       8.478   9.334  -0.703  1.00  0.00     0.198 A 
ATOM     44  C   UNL     1       6.854  10.862  -1.586  1.00  0.00     0.198 A 
ATOM     45  F   UNL     1       5.652  10.313  -3.530  1.00  0.00    -0.203 F 
ATOM     46  F   UNL     1       9.361   9.001   0.249  1.00  0.00    -0.200 F 
ATOM     47  C   UNL     1       7.790  10.535  -0.618  1.00  0.00     0.200 A 
ATOM     48  F   UNL     1       6.199  12.030  -1.516  1.00  0.00    -0.200 F 
ATOM     49  F   UNL     1       8.021  11.371   0.404  1.00  0.00    -0.200 F 
ENDBRANCH  25  39
BRANCH  26  50
ATOM     50  C   UNL     1       4.541   2.370  -9.924  1.00  0.00     0.064 A 
ATOM     51  C   UNL     1       5.439   1.670 -10.738  1.00  0.00     0.173 A 
ATOM     52  C   UNL     1       3.170   2.118 -10.092  1.00  0.00     0.173 A 
ATOM     53  F   UNL     1       6.757   1.888 -10.623  1.00  0.00    -0.203 F 
ATOM     54  C   UNL     1       4.985   0.752 -11.683  1.00  0.00     0.198 A 
ATOM     55  C   UNL     1       2.719   1.179 -11.015  1.00  0.00     0.198 A 
ATOM     56  F   UNL     1       2.271   2.756  -9.327  1.00  0.00    -0.203 F 
ATOM     57  F   UNL     1       5.863   0.111 -12.466  1.00  0.00    -0.200 F 
ATOM     58  C   UNL     1       3.627   0.499 -11.813  1.00  0.00     0.200 A 
ATOM     59  F   UNL     1       1.408   0.922 -11.121  1.00  0.00    -0.200 F 
ATOM     60  F   UNL     1       3.193  -0.400 -12.706  1.00  0.00    -0.200 F 
ENDBRANCH  26  50
BRANCH  38  61
ATOM     61  C   UNL     1       7.653   8.636  -9.930  1.00  0.00     0.064 A 
ATOM     62  C   UNL     1       6.790   9.363 -10.762  1.00  0.00     0.173 A 
ATOM     63  C   UNL     1       9.035   8.827 -10.087  1.00  0.00     0.173 A 
ATOM     64  F   UNL     1       5.462   9.202 -10.663  1.00  0.00    -0.203 F 
ATOM     65  C   UNL     1       7.293  10.245 -11.715  1.00  0.00     0.198 A 
ATOM     66  C   UNL     1       9.532   9.732 -11.019  1.00  0.00     0.198 A 
ATOM     67  F   UNL     1       9.902   8.157  -9.313  1.00  0.00    -0.203 F 
ATOM     68  F   UNL     1       6.452  10.909 -12.520  1.00  0.00    -0.200 F 
ATOM     69  C   UNL     1       8.661  10.438 -11.834  1.00  0.00     0.200 A 
ATOM     70  F   UNL     1      10.854   9.928 -11.121  1.00  0.00    -0.200 F 
ATOM     71  F   UNL     1       9.141  11.306 -12.736  1.00  0.00    -0.200 F 
ENDBRANCH  38  61
ENDBRANCH  12  13
ENDBRANCH   5   7
ENDBRANCH   2   3
ENDBRANCH   1   2
BRANCH   1  72
ATOM     72  C   UNL     1       4.477  -1.008   3.544  1.00  0.00     0.118 C 
BRANCH  72  73
ATOM     73  N   UNL     1       4.888  -2.403   3.522  1.00  0.00    -0.351 N 
ATOM     74  C   UNL     1       5.624  -3.119   4.437  1.00  0.00     0.270 C 
ATOM     75  H   UNL     1       4.593  -2.913   2.733  1.00  0.00     0.163 HD
ATOM     76  O   UNL     1       5.957  -4.269   4.164  1.00  0.00    -0.268 OA
BRANCH  74  77
ATOM     77  C   UNL     1       5.980  -2.512   5.744  1.00  0.00     0.134 A 
ATOM     78  C   UNL     1       5.023  -1.924   6.521  1.00  0.00     0.063 A 
ATOM     79  N   UNL     1       7.267  -2.584   6.090  1.00  0.00    -0.207 NA
ATOM     80  C   UNL     1       5.482  -1.315   7.666  1.00  0.00     0.077 A 
ATOM     81  C   UNL     1       7.641  -2.023   7.243  1.00  0.00     0.230 A 
ATOM     82  N   UNL     1       6.782  -1.370   8.046  1.00  0.00    -0.213 NA
BRANCH  80  83
ATOM     83  C   UNL     1       4.560  -0.502   8.474  1.00  0.00     0.000 A 
ATOM     84  C   UNL     1       4.883   0.817   8.833  1.00  0.00     0.010 A 
ATOM     85  C   UNL     1       3.280  -0.982   8.812  1.00  0.00     0.010 A 
ATOM     86  C   UNL     1       3.949   1.635   9.476  1.00  0.00     0.001 A 
ATOM     87  C   UNL     1       2.348  -0.166   9.455  1.00  0.00     0.001 A 
ATOM     88  C   UNL     1       2.681   1.145   9.780  1.00  0.00     0.000 A 
ENDBRANCH  80  83
BRANCH  81  89
ATOM     89  N   UNL     1       8.952  -2.189   7.683  1.00  0.00    -0.300 N 
ATOM     90  H   UNL     1       9.195  -1.870   8.582  1.00  0.00     0.172 HD
BRANCH  89  91
ATOM     91  C   UNL     1       9.903  -2.772   6.922  1.00  0.00     0.190 A 
ATOM     92  N   UNL     1      10.005  -2.638   5.619  1.00  0.00    -0.220 NA
ATOM     93  S   UNL     1      11.106  -3.796   7.618  1.00  0.00    -0.097 S 
ATOM     94  C   UNL     1      10.906  -3.536   5.098  1.00  0.00     0.084 A 
ATOM     95  C   UNL     1      11.607  -4.287   6.040  1.00  0.00     0.056 A 
ATOM     96  C   UNL     1      11.144  -3.753   3.727  1.00  0.00     0.030 A 
ATOM     97  C   UNL     1      12.541  -5.263   5.652  1.00  0.00     0.021 A 
ATOM     98  C   UNL     1      12.060  -4.728   3.329  1.00  0.00     0.002 A 
ATOM     99  C   UNL     1      12.748  -5.474   4.282  1.00  0.00     0.002 A 
ENDBRANCH  89  91
ENDBRANCH  81  89
ENDBRANCH  74  77
ENDBRANCH  72  73
ENDBRANCH   1  72
TORSDOF 13
