REMARK SMILES NS(=O)(=O)c1ccc(/N=C/c2ccc(O)c(C(=O)NCCCNC(=O)c3ccc(-c4c5nc(c(-c6c(F)c(F)c(F)c(F)c6F)c6ccc([nH]6)c(-c6c(F)c(F)c(F)c(F)c6F)c6nc(c(-c7c(F)c(F)c(F)c(F)c7F)c7ccc4[nH]7)C=C6)C=C5)cc3)c2)cc1
REMARK SMILES IDX 20 1 19 2 17 3 18 4 16 6 11 7 12 8 89 9 13 10 14 11 10 12
REMARK SMILES IDX 9 13 8 14 5 15 6 16 91 17 7 18 90 19 2 20 3 21 4 22 1 23
REMARK SMILES IDX 15 26 21 28 22 29 23 30 24 31 25 33 26 34 27 35 88 36 28 37
REMARK SMILES IDX 87 38 29 39 30 40 31 41 81 42 32 43 86 44 80 45 82 46 33 47
REMARK SMILES IDX 85 48 79 49 78 50 34 52 66 53 46 54 65 55 47 56 50 57 64 58
REMARK SMILES IDX 83 59 48 60 49 61 63 63 84 64 51 65 35 66 36 67 44 68 37 69
REMARK SMILES IDX 38 70 42 71 45 72 39 73 40 74 43 75 41 76 67 77 68 78 76 79
REMARK SMILES IDX 69 80 70 81 74 82 77 83 71 84 72 85 75 86 73 87 52 88 53 89
REMARK SMILES IDX 61 90 54 91 55 92 59 93 62 94 56 95 57 96 60 97 58 98
REMARK H PARENT 19 5 1 24 1 25 15 27 23 32 82 51 50 62
REMARK Flexibility Score: inf
ROOT
ATOM      1  C   UNL     1       4.631  -4.275   7.537  1.00  0.00     0.118 C 
ENDROOT
BRANCH   1   2
ATOM      2  N   UNL     1       4.765  -4.672   8.934  1.00  0.00    -0.352 N 
ATOM      3  C   UNL     1       4.234  -4.192  10.109  1.00  0.00     0.255 C 
ATOM      4  O   UNL     1       4.577  -4.737  11.161  1.00  0.00    -0.269 OA
ATOM      5  H   UNL     1       5.361  -5.445   9.064  1.00  0.00     0.163 HD
BRANCH   3   6
ATOM      6  C   UNL     1       3.338  -3.007  10.200  1.00  0.00     0.082 A 
ATOM      7  C   UNL     1       1.964  -1.312   9.145  1.00  0.00    -0.006 A 
ATOM      8  C   UNL     1       1.965  -0.546  10.308  1.00  0.00     0.013 A 
ATOM      9  C   UNL     1       2.547  -2.581   9.137  1.00  0.00     0.027 A 
ATOM     10  C   UNL     1       2.598  -1.046  11.447  1.00  0.00     0.047 A 
ATOM     11  C   UNL     1       3.303  -2.252  11.384  1.00  0.00     0.128 A 
BRANCH   7  12
ATOM     12  C   UNL     1       1.481  -0.744   7.865  1.00  0.00     0.119 C 
ATOM     13  N   UNL     1       1.771  -1.331   6.746  1.00  0.00    -0.256 NA
BRANCH  13  14
ATOM     14  C   UNL     1       1.413  -0.755   5.518  1.00  0.00     0.063 A 
ATOM     15  C   UNL     1       0.808   0.251   2.966  1.00  0.00     0.082 A 
ATOM     16  C   UNL     1       0.733  -1.122   3.203  1.00  0.00     0.024 A 
ATOM     17  C   UNL     1       1.205   1.123   3.982  1.00  0.00     0.024 A 
ATOM     18  C   UNL     1       1.040  -1.615   4.476  1.00  0.00     0.030 A 
ATOM     19  C   UNL     1       1.514   0.616   5.250  1.00  0.00     0.030 A 
BRANCH  15  20
ATOM     20  S   UNL     1       0.421   0.903   1.369  1.00  0.00     0.238 S 
ATOM     21  O   UNL     1       1.091   2.170   1.202  1.00  0.00    -0.207 OA
ATOM     22  O   UNL     1      -0.994   0.730   1.135  1.00  0.00    -0.207 OA
BRANCH  20  23
ATOM     23  N   UNL     1       1.203  -0.143   0.310  1.00  0.00    -0.225 NA
ATOM     24  H   UNL     1       1.035   0.157  -0.650  1.00  0.00     0.137 HD
ATOM     25  H   UNL     1       0.844  -1.089   0.439  1.00  0.00     0.137 HD
ENDBRANCH  20  23
ENDBRANCH  15  20
ENDBRANCH  13  14
ENDBRANCH   7  12
BRANCH  11  26
ATOM     26  O   UNL     1       3.946  -2.631  12.534  1.00  0.00    -0.507 OA
ATOM     27  H   UNL     1       3.892  -2.093  13.299  1.00  0.00     0.293 HD
ENDBRANCH  11  26
ENDBRANCH   3   6
ENDBRANCH   1   2
BRANCH   1  28
ATOM     28  C   UNL     1       5.941  -3.892   6.871  1.00  0.00     0.042 C 
BRANCH  28  29
ATOM     29  C   UNL     1       6.908  -5.044   6.676  1.00  0.00     0.118 C 
BRANCH  29  30
ATOM     30  N   UNL     1       6.371  -6.098   5.824  1.00  0.00    -0.352 N 
ATOM     31  C   UNL     1       6.681  -6.464   4.536  1.00  0.00     0.251 C 
ATOM     32  H   UNL     1       5.665  -6.641   6.243  1.00  0.00     0.163 HD
ATOM     33  O   UNL     1       5.950  -7.248   3.938  1.00  0.00    -0.269 OA
BRANCH  31  34
ATOM     34  C   UNL     1       7.873  -5.913   3.857  1.00  0.00     0.039 A 
ATOM     35  C   UNL     1       7.809  -5.631   2.489  1.00  0.00     0.014 A 
ATOM     36  C   UNL     1       9.065  -5.702   4.550  1.00  0.00     0.014 A 
ATOM     37  C   UNL     1       8.914  -5.073   1.841  1.00  0.00     0.010 A 
ATOM     38  C   UNL     1      10.120  -5.037   3.936  1.00  0.00     0.010 A 
ATOM     39  C   UNL     1      10.064  -4.730   2.570  1.00  0.00    -0.014 A 
BRANCH  39  40
ATOM     40  C   UNL     1      11.233  -4.080   1.924  1.00  0.00     0.031 A 
ATOM     41  C   UNL     1      12.575  -4.763   1.937  1.00  0.00     0.074 A 
ATOM     42  C   UNL     1      11.101  -2.854   1.382  1.00  0.00     0.049 A 
ATOM     43  N   UNL     1      13.731  -4.330   1.500  1.00  0.00    -0.248 NA
ATOM     44  C   UNL     1      12.634  -6.100   2.552  1.00  0.00     0.031 C 
ATOM     45  C   UNL     1       9.865  -2.071   1.348  1.00  0.00     0.029 A 
ATOM     46  N   UNL     1      12.020  -2.047   0.759  1.00  0.00    -0.354 N 
ATOM     47  C   UNL     1      14.646  -5.332   1.795  1.00  0.00     0.074 A 
ATOM     48  C   UNL     1      13.931  -6.362   2.515  1.00  0.00     0.031 C 
ATOM     49  C   UNL     1      10.093  -0.914   0.706  1.00  0.00     0.029 A 
ATOM     50  C   UNL     1      11.501  -0.851   0.327  1.00  0.00     0.049 A 
ATOM     51  H   UNL     1      12.963  -2.301   0.635  1.00  0.00     0.167 HD
ATOM     52  C   UNL     1      15.957  -5.407   1.464  1.00  0.00     0.037 A 
ATOM     53  C   UNL     1      12.097   0.182  -0.299  1.00  0.00     0.037 A 
ATOM     54  C   UNL     1      16.661  -4.387   0.732  1.00  0.00     0.049 A 
ATOM     55  C   UNL     1      13.565   0.088  -0.622  1.00  0.00     0.074 A 
ATOM     56  C   UNL     1      17.981  -4.377   0.318  1.00  0.00     0.029 A 
ATOM     57  N   UNL     1      16.098  -3.193   0.305  1.00  0.00    -0.354 N 
ATOM     58  N   UNL     1      14.405  -0.892  -0.393  1.00  0.00    -0.248 NA
ATOM     59  C   UNL     1      14.166   1.244  -1.300  1.00  0.00     0.031 C 
ATOM     60  C   UNL     1      18.230  -3.156  -0.316  1.00  0.00     0.029 A 
ATOM     61  C   UNL     1      17.049  -2.431  -0.353  1.00  0.00     0.049 A 
ATOM     62  H   UNL     1      15.161  -2.927   0.449  1.00  0.00     0.167 HD
ATOM     63  C   UNL     1      15.619  -0.489  -0.933  1.00  0.00     0.074 A 
ATOM     64  C   UNL     1      15.402   0.818  -1.516  1.00  0.00     0.031 C 
ATOM     65  C   UNL     1      16.808  -1.141  -0.946  1.00  0.00     0.037 A 
BRANCH  52  66
ATOM     66  C   UNL     1      16.711  -6.638   1.879  1.00  0.00     0.064 A 
ATOM     67  C   UNL     1      16.438  -7.893   1.310  1.00  0.00     0.173 A 
ATOM     68  C   UNL     1      17.743  -6.561   2.827  1.00  0.00     0.173 A 
ATOM     69  F   UNL     1      15.453  -8.026   0.409  1.00  0.00    -0.203 F 
ATOM     70  C   UNL     1      17.148  -9.027   1.696  1.00  0.00     0.198 A 
ATOM     71  C   UNL     1      18.476  -7.691   3.184  1.00  0.00     0.198 A 
ATOM     72  F   UNL     1      18.051  -5.388   3.400  1.00  0.00    -0.203 F 
ATOM     73  F   UNL     1      16.832 -10.222   1.178  1.00  0.00    -0.200 F 
ATOM     74  C   UNL     1      18.172  -8.924   2.625  1.00  0.00     0.200 A 
ATOM     75  F   UNL     1      19.475  -7.587   4.070  1.00  0.00    -0.200 F 
ATOM     76  F   UNL     1      18.863 -10.014   2.987  1.00  0.00    -0.200 F 
ENDBRANCH  52  66
BRANCH  53  77
ATOM     77  C   UNL     1      11.311   1.385  -0.686  1.00  0.00     0.064 A 
ATOM     78  C   UNL     1      11.108   1.707  -2.036  1.00  0.00     0.173 A 
ATOM     79  C   UNL     1      10.779   2.255   0.277  1.00  0.00     0.173 A 
ATOM     80  F   UNL     1      11.611   0.917  -2.995  1.00  0.00    -0.203 F 
ATOM     81  C   UNL     1      10.437   2.870  -2.407  1.00  0.00     0.198 A 
ATOM     82  C   UNL     1      10.077   3.400  -0.096  1.00  0.00     0.198 A 
ATOM     83  F   UNL     1      10.937   1.992   1.582  1.00  0.00    -0.203 F 
ATOM     84  F   UNL     1      10.316   3.186  -3.704  1.00  0.00    -0.200 F 
ATOM     85  C   UNL     1       9.919   3.714  -1.437  1.00  0.00     0.200 A 
ATOM     86  F   UNL     1       9.562   4.204   0.845  1.00  0.00    -0.200 F 
ATOM     87  F   UNL     1       9.278   4.835  -1.794  1.00  0.00    -0.200 F 
ENDBRANCH  53  77
BRANCH  65  88
ATOM     88  C   UNL     1      17.950  -0.477  -1.663  1.00  0.00     0.064 A 
ATOM     89  C   UNL     1      18.564   0.682  -1.168  1.00  0.00     0.173 A 
ATOM     90  C   UNL     1      18.456  -1.032  -2.849  1.00  0.00     0.173 A 
ATOM     91  F   UNL     1      18.110   1.261  -0.045  1.00  0.00    -0.203 F 
ATOM     92  C   UNL     1      19.618   1.282  -1.852  1.00  0.00     0.198 A 
ATOM     93  C   UNL     1      19.535  -0.452  -3.510  1.00  0.00     0.198 A 
ATOM     94  F   UNL     1      17.912  -2.146  -3.361  1.00  0.00    -0.203 F 
ATOM     95  F   UNL     1      20.149   2.423  -1.393  1.00  0.00    -0.200 F 
ATOM     96  C   UNL     1      20.108   0.710  -3.017  1.00  0.00     0.200 A 
ATOM     97  F   UNL     1      20.017  -1.017  -4.625  1.00  0.00    -0.200 F 
ATOM     98  F   UNL     1      21.127   1.284  -3.670  1.00  0.00    -0.200 F 
ENDBRANCH  65  88
ENDBRANCH  39  40
ENDBRANCH  31  34
ENDBRANCH  29  30
ENDBRANCH  28  29
ENDBRANCH   1  28
TORSDOF 15
