REMARK SMILES C[C@@H](NC(=O)NCCC(=O)NC1CC1)C(=O)NCCCNC(=O)c1ccc(-c2c3nc(c(-c4c(F)c(F)c(F)c(F)c4F)c4ccc([nH]4)c(-c4c(F)c(F)c(F)c(F)c4F)c4nc(c(-c5c(F)c(F)c(F)c(F)c5F)c5ccc2[nH]5)C=C4)C=C3)cc1
REMARK SMILES IDX 15 1 16 2 17 3 2 5 1 6 3 7 4 8 5 10 6 11 7 13 8 14 9 15
REMARK SMILES IDX 10 16 11 17 12 19 13 20 14 21 18 22 19 23 20 24 21 25 22 26
REMARK SMILES IDX 23 28 24 29 25 30 86 31 26 32 85 33 27 34 28 35 29 36 79 37
REMARK SMILES IDX 30 38 84 39 78 40 80 41 31 42 83 43 77 44 76 45 32 47 64 48
REMARK SMILES IDX 44 49 63 50 45 51 48 52 62 53 81 54 46 55 47 56 61 58 82 59
REMARK SMILES IDX 49 60 33 61 34 62 42 63 35 64 36 65 40 66 43 67 37 68 38 69
REMARK SMILES IDX 41 70 39 71 65 72 66 73 74 74 67 75 68 76 72 77 75 78 69 79
REMARK SMILES IDX 70 80 73 81 71 82 50 83 51 84 59 85 52 86 53 87 57 88 60 89
REMARK SMILES IDX 54 90 55 91 58 92 56 93
REMARK H PARENT 17 4 3 9 6 12 11 18 21 27 80 46 48 57
REMARK Flexibility Score: inf
ROOT
ATOM      1  C   UNL     1      -0.426   0.373  -0.328  1.00  0.00     0.242 C 
ATOM      2  O   UNL     1      -0.859   1.377  -0.903  1.00  0.00    -0.273 OA
ATOM      3  N   UNL     1      -0.969   0.066   0.880  1.00  0.00    -0.354 N 
ATOM      4  H   UNL     1      -1.675   0.676   1.194  1.00  0.00     0.163 HD
ENDROOT
BRANCH   1   5
ATOM      5  C   UNL     1       0.786  -0.388  -0.893  1.00  0.00     0.170 C 
ATOM      6  C   UNL     1       2.023   0.318  -0.324  1.00  0.00     0.041 C 
BRANCH   5   7
ATOM      7  N   UNL     1       0.886  -1.815  -0.600  1.00  0.00    -0.327 N 
ATOM      8  C   UNL     1       0.099  -2.868  -0.809  1.00  0.00     0.315 C 
ATOM      9  H   UNL     1       1.726  -2.051  -0.144  1.00  0.00     0.166 HD
ATOM     10  O   UNL     1       0.544  -3.979  -0.515  1.00  0.00    -0.249 OA
ATOM     11  N   UNL     1      -1.166  -2.803  -1.215  1.00  0.00    -0.338 N 
ATOM     12  H   UNL     1      -1.607  -3.681  -1.157  1.00  0.00     0.165 HD
BRANCH  11  13
ATOM     13  C   UNL     1      -2.071  -1.790  -1.720  1.00  0.00     0.127 C 
BRANCH  13  14
ATOM     14  C   UNL     1      -2.972  -2.295  -2.838  1.00  0.00     0.121 C 
BRANCH  14  15
ATOM     15  C   UNL     1      -4.037  -3.284  -2.413  1.00  0.00     0.221 C 
ATOM     16  O   UNL     1      -5.168  -2.894  -2.112  1.00  0.00    -0.275 OA
ATOM     17  N   UNL     1      -3.777  -4.628  -2.376  1.00  0.00    -0.353 N 
ATOM     18  H   UNL     1      -4.574  -5.200  -2.302  1.00  0.00     0.163 HD
BRANCH  17  19
ATOM     19  C   UNL     1      -2.538  -5.332  -2.427  1.00  0.00     0.082 C 
ATOM     20  C   UNL     1      -2.309  -6.444  -3.411  1.00  0.00     0.027 C 
ATOM     21  C   UNL     1      -1.517  -5.178  -3.517  1.00  0.00     0.027 C 
ENDBRANCH  17  19
ENDBRANCH  14  15
ENDBRANCH  13  14
ENDBRANCH  11  13
ENDBRANCH   5   7
ENDBRANCH   1   5
BRANCH   3  22
ATOM     22  C   UNL     1      -0.653  -1.035   1.771  1.00  0.00     0.117 C 
BRANCH  22  23
ATOM     23  C   UNL     1      -1.145  -0.769   3.178  1.00  0.00     0.042 C 
BRANCH  23  24
ATOM     24  C   UNL     1      -2.661  -0.819   3.277  1.00  0.00     0.118 C 
BRANCH  24  25
ATOM     25  N   UNL     1      -3.186  -2.174   3.375  1.00  0.00    -0.352 N 
ATOM     26  C   UNL     1      -4.022  -2.698   4.334  1.00  0.00     0.251 C 
ATOM     27  H   UNL     1      -2.906  -2.794   2.664  1.00  0.00     0.163 HD
ATOM     28  O   UNL     1      -4.271  -3.899   4.362  1.00  0.00    -0.269 OA
BRANCH  26  29
ATOM     29  C   UNL     1      -4.579  -1.799   5.367  1.00  0.00     0.039 A 
ATOM     30  C   UNL     1      -4.476  -2.166   6.709  1.00  0.00     0.014 A 
ATOM     31  C   UNL     1      -5.123  -0.561   5.013  1.00  0.00     0.014 A 
ATOM     32  C   UNL     1      -4.848  -1.254   7.698  1.00  0.00     0.010 A 
ATOM     33  C   UNL     1      -5.384   0.384   5.998  1.00  0.00     0.010 A 
ATOM     34  C   UNL     1      -5.261   0.045   7.353  1.00  0.00    -0.014 A 
BRANCH  34  35
ATOM     35  C   UNL     1      -5.568   1.048   8.406  1.00  0.00     0.031 A 
ATOM     36  C   UNL     1      -6.949   1.636   8.516  1.00  0.00     0.074 A 
ATOM     37  C   UNL     1      -4.594   1.453   9.244  1.00  0.00     0.049 A 
ATOM     38  N   UNL     1      -7.417   2.489   9.393  1.00  0.00    -0.248 NA
ATOM     39  C   UNL     1      -7.926   1.243   7.488  1.00  0.00     0.031 C 
ATOM     40  C   UNL     1      -3.194   1.026   9.185  1.00  0.00     0.029 A 
ATOM     41  N   UNL     1      -4.632   2.309  10.316  1.00  0.00    -0.354 N 
ATOM     42  C   UNL     1      -8.730   2.735   9.017  1.00  0.00     0.074 A 
ATOM     43  C   UNL     1      -8.964   2.005   7.792  1.00  0.00     0.031 C 
ATOM     44  C   UNL     1      -2.521   1.580  10.206  1.00  0.00     0.029 A 
ATOM     45  C   UNL     1      -3.432   2.421  10.975  1.00  0.00     0.049 A 
ATOM     46  H   UNL     1      -5.443   2.796  10.587  1.00  0.00     0.167 HD
ATOM     47  C   UNL     1      -9.671   3.472   9.654  1.00  0.00     0.037 A 
ATOM     48  C   UNL     1      -3.109   3.109  12.086  1.00  0.00     0.037 A 
ATOM     49  C   UNL     1      -9.443   4.177  10.887  1.00  0.00     0.049 A 
ATOM     50  C   UNL     1      -4.181   3.890  12.797  1.00  0.00     0.074 A 
ATOM     51  C   UNL     1     -10.342   4.903  11.648  1.00  0.00     0.029 A 
ATOM     52  N   UNL     1      -8.221   4.243  11.542  1.00  0.00    -0.354 N 
ATOM     53  N   UNL     1      -5.446   4.039  12.484  1.00  0.00    -0.248 NA
ATOM     54  C   UNL     1      -3.783   4.584  14.030  1.00  0.00     0.031 C 
ATOM     55  C   UNL     1      -9.655   5.446  12.739  1.00  0.00     0.029 A 
ATOM     56  C   UNL     1      -8.340   5.011  12.689  1.00  0.00     0.049 A 
ATOM     57  H   UNL     1      -7.393   3.807  11.237  1.00  0.00     0.167 HD
ATOM     58  C   UNL     1      -6.000   4.816  13.492  1.00  0.00     0.074 A 
ATOM     59  C   UNL     1      -4.939   5.087  14.439  1.00  0.00     0.031 C 
ATOM     60  C   UNL     1      -7.272   5.269  13.621  1.00  0.00     0.037 A 
BRANCH  47  61
ATOM     61  C   UNL     1     -11.037   3.538   9.032  1.00  0.00     0.064 A 
ATOM     62  C   UNL     1     -11.877   2.414   8.979  1.00  0.00     0.173 A 
ATOM     63  C   UNL     1     -11.524   4.743   8.503  1.00  0.00     0.173 A 
ATOM     64  F   UNL     1     -11.455   1.233   9.457  1.00  0.00    -0.203 F 
ATOM     65  C   UNL     1     -13.137   2.485   8.391  1.00  0.00     0.198 A 
ATOM     66  C   UNL     1     -12.798   4.819   7.946  1.00  0.00     0.198 A 
ATOM     67  F   UNL     1     -10.765   5.849   8.530  1.00  0.00    -0.203 F 
ATOM     68  F   UNL     1     -13.896   1.385   8.303  1.00  0.00    -0.200 F 
ATOM     69  C   UNL     1     -13.600   3.689   7.883  1.00  0.00     0.200 A 
ATOM     70  F   UNL     1     -13.249   5.986   7.467  1.00  0.00    -0.200 F 
ATOM     71  F   UNL     1     -14.816   3.758   7.324  1.00  0.00    -0.200 F 
ENDBRANCH  47  61
BRANCH  48  72
ATOM     72  C   UNL     1      -1.726   3.046  12.629  1.00  0.00     0.064 A 
ATOM     73  C   UNL     1      -1.455   2.388  13.837  1.00  0.00     0.173 A 
ATOM     74  C   UNL     1      -0.650   3.646  11.959  1.00  0.00     0.173 A 
ATOM     75  F   UNL     1      -2.453   1.813  14.525  1.00  0.00    -0.203 F 
ATOM     76  C   UNL     1      -0.167   2.356  14.368  1.00  0.00     0.198 A 
ATOM     77  C   UNL     1       0.643   3.588  12.476  1.00  0.00     0.198 A 
ATOM     78  F   UNL     1      -0.854   4.281  10.796  1.00  0.00    -0.203 F 
ATOM     79  F   UNL     1       0.053   1.765  15.551  1.00  0.00    -0.200 F 
ATOM     80  C   UNL     1       0.882   2.952  13.685  1.00  0.00     0.200 A 
ATOM     81  F   UNL     1       1.656   4.151  11.804  1.00  0.00    -0.200 F 
ATOM     82  F   UNL     1       2.120   2.920  14.194  1.00  0.00    -0.200 F 
ENDBRANCH  48  72
BRANCH  60  83
ATOM     83  C   UNL     1      -7.587   6.074  14.850  1.00  0.00     0.064 A 
ATOM     84  C   UNL     1      -7.070   7.364  15.041  1.00  0.00     0.173 A 
ATOM     85  C   UNL     1      -8.422   5.547  15.847  1.00  0.00     0.173 A 
ATOM     86  F   UNL     1      -6.256   7.908  14.123  1.00  0.00    -0.203 F 
ATOM     87  C   UNL     1      -7.340   8.078  16.205  1.00  0.00     0.198 A 
ATOM     88  C   UNL     1      -8.719   6.279  16.993  1.00  0.00     0.198 A 
ATOM     89  F   UNL     1      -8.952   4.322  15.709  1.00  0.00    -0.203 F 
ATOM     90  F   UNL     1      -6.779   9.280  16.397  1.00  0.00    -0.200 F 
ATOM     91  C   UNL     1      -8.167   7.537  17.178  1.00  0.00     0.200 A 
ATOM     92  F   UNL     1      -9.532   5.761  17.925  1.00  0.00    -0.200 F 
ATOM     93  F   UNL     1      -8.423   8.224  18.299  1.00  0.00    -0.200 F 
ENDBRANCH  60  83
ENDBRANCH  34  35
ENDBRANCH  26  29
ENDBRANCH  24  25
ENDBRANCH  23  24
ENDBRANCH  22  23
ENDBRANCH   3  22
TORSDOF 15
