REMARK SMILES Cc1ccc([C@H](C)Nc2ccc(C(=O)NCCCNC(=O)c3ccc(-c4c5nc(c(-c6c(F)c(F)c(F)c(F)c6F)c6ccc([nH]6)c(-c6c(F)c(F)c(F)c(F)c6F)c6nc(c(-c7c(F)c(F)c(F)c(F)c7F)c7ccc4[nH]7)C=C6)C=C5)cc3)cc2Cl)cc1F
REMARK SMILES IDX 16 1 15 2 13 3 14 4 12 6 9 7 10 8 86 9 11 10 85 11 87 12
REMARK SMILES IDX 8 13 6 15 7 16 5 17 1 18 2 19 3 20 89 21 4 22 88 23 90 24
REMARK SMILES IDX 17 25 18 26 19 27 20 28 21 30 22 31 23 32 84 33 24 34 83 35
REMARK SMILES IDX 25 36 26 37 27 38 77 39 28 40 82 41 76 42 78 43 29 44 81 45
REMARK SMILES IDX 75 46 74 47 30 49 62 50 42 51 61 52 43 53 46 54 60 55 79 56
REMARK SMILES IDX 44 57 45 58 59 60 80 61 47 62 31 63 32 64 40 65 33 66 34 67
REMARK SMILES IDX 38 68 41 69 35 70 36 71 39 72 37 73 63 74 64 75 72 76 65 77
REMARK SMILES IDX 66 78 70 79 73 80 67 81 68 82 71 83 69 84 48 85 49 86 57 87
REMARK SMILES IDX 50 88 51 89 55 90 58 91 52 92 53 93 56 94 54 95
REMARK H PARENT 15 5 8 14 19 29 78 48 46 59
REMARK Flexibility Score: inf
ROOT
ATOM      1  C   UNL     1      -8.624  -1.611   3.666  1.00  0.00     0.118 C 
ENDROOT
BRANCH   1   2
ATOM      2  N   UNL     1      -7.984  -1.987   4.919  1.00  0.00    -0.352 N 
ATOM      3  C   UNL     1      -6.699  -2.401   5.190  1.00  0.00     0.251 C 
ATOM      4  O   UNL     1      -6.401  -2.648   6.357  1.00  0.00    -0.269 OA
ATOM      5  H   UNL     1      -8.571  -1.935   5.708  1.00  0.00     0.163 HD
BRANCH   3   6
ATOM      6  C   UNL     1      -5.657  -2.510   4.129  1.00  0.00     0.041 A 
ATOM      7  C   UNL     1      -3.667  -2.531   2.078  1.00  0.00     0.053 A 
ATOM      8  C   UNL     1      -3.337  -2.525   3.453  1.00  0.00     0.028 A 
ATOM      9  C   UNL     1      -5.024  -2.500   1.770  1.00  0.00     0.065 A 
ATOM     10  C   UNL     1      -4.311  -2.479   4.466  1.00  0.00     0.016 A 
ATOM     11  C   UNL     1      -5.961  -2.614   2.783  1.00  0.00     0.036 A 
ATOM     12  Cl  UNL     1      -5.752  -2.342   0.204  1.00  0.00    -0.082 Cl
BRANCH   7  13
ATOM     13  N   UNL     1      -2.625  -2.541   1.177  1.00  0.00    -0.377 N 
ATOM     14  H   UNL     1      -1.827  -3.057   1.432  1.00  0.00     0.161 HD
BRANCH  13  15
ATOM     15  C   UNL     1      -2.580  -1.867  -0.114  1.00  0.00     0.106 C 
ATOM     16  C   UNL     1      -1.486  -0.795   0.006  1.00  0.00     0.036 C 
BRANCH  15  17
ATOM     17  C   UNL     1      -2.469  -2.893  -1.241  1.00  0.00    -0.023 A 
ATOM     18  C   UNL     1      -2.826  -5.481  -4.713  1.00  0.00     0.047 C 
ATOM     19  C   UNL     1      -2.652  -4.617  -3.504  1.00  0.00    -0.015 A 
ATOM     20  C   UNL     1      -1.702  -3.593  -3.455  1.00  0.00     0.007 A 
ATOM     21  C   UNL     1      -3.478  -4.797  -2.403  1.00  0.00     0.126 A 
ATOM     22  C   UNL     1      -1.618  -2.739  -2.343  1.00  0.00     0.006 A 
ATOM     23  C   UNL     1      -3.365  -3.980  -1.284  1.00  0.00     0.045 A 
ATOM     24  F   UNL     1      -4.422  -5.750  -2.418  1.00  0.00    -0.207 F 
ENDBRANCH  15  17
ENDBRANCH  13  15
ENDBRANCH   7  13
ENDBRANCH   3   6
ENDBRANCH   1   2
BRANCH   1  25
ATOM     25  C   UNL     1      -9.105  -2.858   2.904  1.00  0.00     0.042 C 
BRANCH  25  26
ATOM     26  C   UNL     1     -10.552  -3.106   3.166  1.00  0.00     0.118 C 
BRANCH  26  27
ATOM     27  N   UNL     1     -11.372  -2.166   2.407  1.00  0.00    -0.352 N 
ATOM     28  C   UNL     1     -12.688  -2.325   2.039  1.00  0.00     0.251 C 
ATOM     29  H   UNL     1     -10.936  -1.329   2.128  1.00  0.00     0.163 HD
ATOM     30  O   UNL     1     -13.172  -1.685   1.121  1.00  0.00    -0.269 OA
BRANCH  28  31
ATOM     31  C   UNL     1     -13.496  -3.272   2.818  1.00  0.00     0.039 A 
ATOM     32  C   UNL     1     -14.581  -3.959   2.267  1.00  0.00     0.014 A 
ATOM     33  C   UNL     1     -13.160  -3.427   4.158  1.00  0.00     0.014 A 
ATOM     34  C   UNL     1     -15.337  -4.783   3.094  1.00  0.00     0.010 A 
ATOM     35  C   UNL     1     -13.709  -4.428   4.879  1.00  0.00     0.010 A 
ATOM     36  C   UNL     1     -14.892  -4.978   4.400  1.00  0.00    -0.014 A 
BRANCH  36  37
ATOM     37  C   UNL     1     -15.624  -5.610   5.472  1.00  0.00     0.031 A 
ATOM     38  C   UNL     1     -15.668  -7.063   5.549  1.00  0.00     0.074 A 
ATOM     39  C   UNL     1     -15.906  -4.770   6.495  1.00  0.00     0.049 A 
ATOM     40  N   UNL     1     -16.465  -7.714   6.312  1.00  0.00    -0.248 NA
ATOM     41  C   UNL     1     -14.791  -7.917   4.758  1.00  0.00     0.031 C 
ATOM     42  C   UNL     1     -16.207  -5.033   7.890  1.00  0.00     0.029 A 
ATOM     43  N   UNL     1     -16.017  -3.369   6.391  1.00  0.00    -0.354 N 
ATOM     44  C   UNL     1     -15.985  -9.002   6.391  1.00  0.00     0.074 A 
ATOM     45  C   UNL     1     -15.034  -9.110   5.310  1.00  0.00     0.031 C 
ATOM     46  C   UNL     1     -16.795  -3.935   8.410  1.00  0.00     0.029 A 
ATOM     47  C   UNL     1     -17.008  -3.002   7.311  1.00  0.00     0.049 A 
ATOM     48  H   UNL     1     -15.506  -2.773   5.796  1.00  0.00     0.167 HD
ATOM     49  C   UNL     1     -16.333  -9.739   7.486  1.00  0.00     0.037 A 
ATOM     50  C   UNL     1     -18.221  -2.630   6.801  1.00  0.00     0.037 A 
ATOM     51  C   UNL     1     -17.242  -8.957   8.338  1.00  0.00     0.049 A 
ATOM     52  C   UNL     1     -19.282  -3.648   7.147  1.00  0.00     0.074 A 
ATOM     53  C   UNL     1     -17.033  -8.204   9.484  1.00  0.00     0.029 A 
ATOM     54  N   UNL     1     -18.465  -8.534   7.817  1.00  0.00    -0.354 N 
ATOM     55  N   UNL     1     -19.046  -4.916   7.360  1.00  0.00    -0.248 NA
ATOM     56  C   UNL     1     -20.674  -3.287   7.368  1.00  0.00     0.031 C 
ATOM     57  C   UNL     1     -18.099  -7.268   9.596  1.00  0.00     0.029 A 
ATOM     58  C   UNL     1     -18.964  -7.458   8.530  1.00  0.00     0.049 A 
ATOM     59  H   UNL     1     -18.913  -8.947   7.043  1.00  0.00     0.167 HD
ATOM     60  C   UNL     1     -20.191  -5.525   7.799  1.00  0.00     0.074 A 
ATOM     61  C   UNL     1     -21.182  -4.461   7.782  1.00  0.00     0.031 C 
ATOM     62  C   UNL     1     -20.237  -6.844   8.162  1.00  0.00     0.037 A 
BRANCH  49  63
ATOM     63  C   UNL     1     -15.633 -11.007   7.939  1.00  0.00     0.064 A 
ATOM     64  C   UNL     1     -15.668 -11.402   9.296  1.00  0.00     0.173 A 
ATOM     65  C   UNL     1     -14.889 -11.866   7.106  1.00  0.00     0.173 A 
ATOM     66  F   UNL     1     -16.397 -10.736  10.201  1.00  0.00    -0.203 F 
ATOM     67  C   UNL     1     -14.956 -12.504   9.783  1.00  0.00     0.198 A 
ATOM     68  C   UNL     1     -14.139 -12.941   7.600  1.00  0.00     0.198 A 
ATOM     69  F   UNL     1     -14.909 -11.745   5.776  1.00  0.00    -0.203 F 
ATOM     70  F   UNL     1     -15.036 -12.825  11.083  1.00  0.00    -0.200 F 
ATOM     71  C   UNL     1     -14.170 -13.259   8.940  1.00  0.00     0.200 A 
ATOM     72  F   UNL     1     -13.397 -13.675   6.757  1.00  0.00    -0.200 F 
ATOM     73  F   UNL     1     -13.474 -14.303   9.408  1.00  0.00    -0.200 F 
ENDBRANCH  49  63
BRANCH  50  74
ATOM     74  C   UNL     1     -18.071  -1.889   5.502  1.00  0.00     0.064 A 
ATOM     75  C   UNL     1     -17.313  -0.695   5.524  1.00  0.00     0.173 A 
ATOM     76  C   UNL     1     -18.227  -2.515   4.256  1.00  0.00     0.173 A 
ATOM     77  F   UNL     1     -17.127  -0.045   6.685  1.00  0.00    -0.203 F 
ATOM     78  C   UNL     1     -16.618  -0.245   4.402  1.00  0.00     0.198 A 
ATOM     79  C   UNL     1     -17.554  -2.039   3.123  1.00  0.00     0.198 A 
ATOM     80  F   UNL     1     -18.935  -3.648   4.150  1.00  0.00    -0.203 F 
ATOM     81  F   UNL     1     -15.787   0.804   4.505  1.00  0.00    -0.200 F 
ATOM     82  C   UNL     1     -16.717  -0.934   3.207  1.00  0.00     0.200 A 
ATOM     83  F   UNL     1     -17.649  -2.704   1.961  1.00  0.00    -0.200 F 
ATOM     84  F   UNL     1     -15.984  -0.555   2.151  1.00  0.00    -0.200 F 
ENDBRANCH  50  74
BRANCH  62  85
ATOM     85  C   UNL     1     -21.497  -7.675   8.293  1.00  0.00     0.064 A 
ATOM     86  C   UNL     1     -22.720  -7.347   7.686  1.00  0.00     0.173 A 
ATOM     87  C   UNL     1     -21.457  -8.952   8.910  1.00  0.00     0.173 A 
ATOM     88  F   UNL     1     -22.868  -6.240   6.948  1.00  0.00    -0.203 F 
ATOM     89  C   UNL     1     -23.832  -8.189   7.753  1.00  0.00     0.198 A 
ATOM     90  C   UNL     1     -22.541  -9.826   8.897  1.00  0.00     0.198 A 
ATOM     91  F   UNL     1     -20.354  -9.416   9.514  1.00  0.00    -0.203 F 
ATOM     92  F   UNL     1     -24.991  -7.795   7.209  1.00  0.00    -0.200 F 
ATOM     93  C   UNL     1     -23.738  -9.435   8.339  1.00  0.00     0.200 A 
ATOM     94  F   UNL     1     -22.407 -11.059   9.407  1.00  0.00    -0.200 F 
ATOM     95  F   UNL     1     -24.788 -10.265   8.344  1.00  0.00    -0.200 F 
ENDBRANCH  62  85
ENDBRANCH  36  37
ENDBRANCH  28  31
ENDBRANCH  26  27
ENDBRANCH  25  26
ENDBRANCH   1  25
TORSDOF 13
