REMARK SMILES COc1ccc(S(=O)(=O)Nc2c(C)cccc2C(=O)NCCCNC(=O)c2ccc(-c3c4nc(c(-c5c(F)c(F)c(F)c(F)c5F)c5ccc([nH]5)c(-c5c(F)c(F)c(F)c(F)c5F)c5nc(c(-c6c(F)c(F)c(F)c(F)c6F)c6ccc3[nH]6)C=C5)C=C4)cc2)cc1
REMARK SMILES IDX 21 1 20 2 18 3 19 4 17 6 11 7 12 8 13 9 14 10 16 11 15 12
REMARK SMILES IDX 10 13 7 15 8 16 9 17 6 18 3 19 4 20 91 21 5 22 90 23 2 24
REMARK SMILES IDX 1 25 22 26 23 27 24 28 25 29 26 31 27 32 28 33 89 34 29 35
REMARK SMILES IDX 88 36 30 37 31 38 32 39 82 40 33 41 87 42 81 43 83 44 34 45
REMARK SMILES IDX 86 46 80 47 79 48 35 50 67 51 47 52 66 53 48 54 51 55 65 56
REMARK SMILES IDX 84 57 49 58 50 59 64 61 85 62 52 63 36 64 37 65 45 66 38 67
REMARK SMILES IDX 39 68 43 69 46 70 40 71 41 72 44 73 42 74 68 75 69 76 77 77
REMARK SMILES IDX 70 78 71 79 75 80 78 81 72 82 73 83 76 84 74 85 53 86 54 87
REMARK SMILES IDX 62 88 55 89 56 90 60 91 63 92 57 93 58 94 61 95 59 96
REMARK H PARENT 20 5 10 14 24 30 83 49 51 60
REMARK Flexibility Score: inf
ROOT
ATOM      1  C   UNL     1       4.101  -2.150   7.524  1.00  0.00     0.118 C 
ENDROOT
BRANCH   1   2
ATOM      2  N   UNL     1       3.639  -1.081   6.659  1.00  0.00    -0.352 N 
ATOM      3  C   UNL     1       3.776  -0.942   5.309  1.00  0.00     0.253 C 
ATOM      4  O   UNL     1       3.335   0.066   4.762  1.00  0.00    -0.269 OA
ATOM      5  H   UNL     1       3.156  -0.352   7.112  1.00  0.00     0.163 HD
BRANCH   3   6
ATOM      6  C   UNL     1       4.537  -1.928   4.518  1.00  0.00     0.064 A 
ATOM      7  C   UNL     1       4.355  -3.323   4.537  1.00  0.00     0.064 A 
ATOM      8  C   UNL     1       5.340  -4.130   3.913  1.00  0.00    -0.026 A 
ATOM      9  C   UNL     1       5.388  -5.633   4.040  1.00  0.00     0.046 C 
ATOM     10  C   UNL     1       6.323  -3.533   3.103  1.00  0.00     0.005 A 
ATOM     11  C   UNL     1       5.527  -1.354   3.698  1.00  0.00     0.016 A 
ATOM     12  C   UNL     1       6.398  -2.154   2.970  1.00  0.00     0.001 A 
BRANCH   7  13
ATOM     13  N   UNL     1       3.284  -4.011   5.207  1.00  0.00    -0.279 N 
ATOM     14  H   UNL     1       3.537  -4.745   5.813  1.00  0.00     0.180 HD
BRANCH  13  15
ATOM     15  S   UNL     1       1.635  -3.681   5.053  1.00  0.00     0.261 S 
ATOM     16  O   UNL     1       1.212  -3.117   6.324  1.00  0.00    -0.201 OA
ATOM     17  O   UNL     1       1.078  -4.933   4.589  1.00  0.00    -0.201 OA
BRANCH  15  18
ATOM     18  C   UNL     1       1.308  -2.494   3.789  1.00  0.00     0.088 A 
ATOM     19  C   UNL     1       0.700  -0.565   1.860  1.00  0.00     0.118 A 
ATOM     20  C   UNL     1       0.026  -0.571   3.081  1.00  0.00     0.048 A 
ATOM     21  C   UNL     1       1.678  -1.531   1.607  1.00  0.00     0.048 A 
ATOM     22  C   UNL     1       0.328  -1.528   4.047  1.00  0.00     0.026 A 
ATOM     23  C   UNL     1       1.963  -2.518   2.559  1.00  0.00     0.026 A 
BRANCH  19  24
ATOM     24  O   UNL     1       0.310   0.428   1.005  1.00  0.00    -0.497 OA
ATOM     25  C   UNL     1       0.789   0.342  -0.330  1.00  0.00     0.278 C 
ENDBRANCH  19  24
ENDBRANCH  15  18
ENDBRANCH  13  15
ENDBRANCH   7  13
ENDBRANCH   3   6
ENDBRANCH   1   2
BRANCH   1  26
ATOM     26  C   UNL     1       4.009  -1.813   8.996  1.00  0.00     0.042 C 
BRANCH  26  27
ATOM     27  C   UNL     1       2.644  -1.305   9.442  1.00  0.00     0.118 C 
BRANCH  27  28
ATOM     28  N   UNL     1       1.525  -2.217   9.224  1.00  0.00    -0.352 N 
ATOM     29  C   UNL     1       0.651  -2.797  10.120  1.00  0.00     0.251 C 
ATOM     30  H   UNL     1       1.368  -2.457   8.282  1.00  0.00     0.163 HD
ATOM     31  O   UNL     1      -0.254  -3.531   9.737  1.00  0.00    -0.269 OA
BRANCH  29  32
ATOM     32  C   UNL     1       0.860  -2.614  11.573  1.00  0.00     0.039 A 
ATOM     33  C   UNL     1       0.830  -3.738  12.401  1.00  0.00     0.014 A 
ATOM     34  C   UNL     1       1.190  -1.371  12.104  1.00  0.00     0.014 A 
ATOM     35  C   UNL     1       1.285  -3.638  13.717  1.00  0.00     0.010 A 
ATOM     36  C   UNL     1       1.793  -1.307  13.352  1.00  0.00     0.010 A 
ATOM     37  C   UNL     1       1.858  -2.441  14.175  1.00  0.00    -0.014 A 
BRANCH  37  38
ATOM     38  C   UNL     1       2.541  -2.348  15.495  1.00  0.00     0.031 A 
ATOM     39  C   UNL     1       2.126  -1.290  16.483  1.00  0.00     0.074 A 
ATOM     40  C   UNL     1       3.599  -3.139  15.765  1.00  0.00     0.049 A 
ATOM     41  N   UNL     1       2.686  -0.946  17.615  1.00  0.00    -0.248 NA
ATOM     42  C   UNL     1       0.957  -0.470  16.123  1.00  0.00     0.031 C 
ATOM     43  C   UNL     1       4.158  -4.154  14.868  1.00  0.00     0.029 A 
ATOM     44  N   UNL     1       4.404  -3.209  16.877  1.00  0.00    -0.354 N 
ATOM     45  C   UNL     1       1.965   0.150  18.073  1.00  0.00     0.074 A 
ATOM     46  C   UNL     1       0.977   0.459  17.064  1.00  0.00     0.031 C 
ATOM     47  C   UNL     1       5.179  -4.775  15.481  1.00  0.00     0.029 A 
ATOM     48  C   UNL     1       5.382  -4.172  16.793  1.00  0.00     0.049 A 
ATOM     49  H   UNL     1       4.292  -2.624  17.660  1.00  0.00     0.167 HD
ATOM     50  C   UNL     1       2.087   0.817  19.245  1.00  0.00     0.037 A 
ATOM     51  C   UNL     1       6.335  -4.528  17.675  1.00  0.00     0.037 A 
ATOM     52  C   UNL     1       3.024   0.465  20.277  1.00  0.00     0.049 A 
ATOM     53  C   UNL     1       6.421  -3.803  18.991  1.00  0.00     0.074 A 
ATOM     54  C   UNL     1       3.175   1.024  21.533  1.00  0.00     0.029 A 
ATOM     55  N   UNL     1       3.961  -0.553  20.174  1.00  0.00    -0.354 N 
ATOM     56  N   UNL     1       5.692  -2.810  19.438  1.00  0.00    -0.248 NA
ATOM     57  C   UNL     1       7.462  -4.252  19.926  1.00  0.00     0.031 C 
ATOM     58  C   UNL     1       4.225   0.364  22.180  1.00  0.00     0.029 A 
ATOM     59  C   UNL     1       4.700  -0.633  21.343  1.00  0.00     0.049 A 
ATOM     60  H   UNL     1       4.083  -1.132  19.388  1.00  0.00     0.167 HD
ATOM     61  C   UNL     1       6.163  -2.536  20.715  1.00  0.00     0.074 A 
ATOM     62  C   UNL     1       7.233  -3.476  20.976  1.00  0.00     0.031 C 
ATOM     63  C   UNL     1       5.749  -1.588  21.590  1.00  0.00     0.037 A 
BRANCH  50  64
ATOM     64  C   UNL     1       1.165   1.979  19.477  1.00  0.00     0.064 A 
ATOM     65  C   UNL     1      -0.215   1.798  19.660  1.00  0.00     0.173 A 
ATOM     66  C   UNL     1       1.666   3.288  19.528  1.00  0.00     0.173 A 
ATOM     67  F   UNL     1      -0.748   0.568  19.607  1.00  0.00    -0.203 F 
ATOM     68  C   UNL     1      -1.064   2.886  19.842  1.00  0.00     0.198 A 
ATOM     69  C   UNL     1       0.818   4.372  19.745  1.00  0.00     0.198 A 
ATOM     70  F   UNL     1       2.977   3.519  19.366  1.00  0.00    -0.203 F 
ATOM     71  F   UNL     1      -2.386   2.692  19.948  1.00  0.00    -0.200 F 
ATOM     72  C   UNL     1      -0.546   4.171  19.891  1.00  0.00     0.200 A 
ATOM     73  F   UNL     1       1.321   5.613  19.806  1.00  0.00    -0.200 F 
ATOM     74  F   UNL     1      -1.364   5.218  20.069  1.00  0.00    -0.200 F 
ENDBRANCH  50  64
BRANCH  51  75
ATOM     75  C   UNL     1       7.256  -5.654  17.367  1.00  0.00     0.064 A 
ATOM     76  C   UNL     1       7.155  -6.869  18.060  1.00  0.00     0.173 A 
ATOM     77  C   UNL     1       8.254  -5.543  16.389  1.00  0.00     0.173 A 
ATOM     78  F   UNL     1       6.229  -7.017  19.019  1.00  0.00    -0.203 F 
ATOM     79  C   UNL     1       8.031  -7.921  17.803  1.00  0.00     0.198 A 
ATOM     80  C   UNL     1       9.113  -6.606  16.113  1.00  0.00     0.198 A 
ATOM     81  F   UNL     1       8.390  -4.404  15.693  1.00  0.00    -0.203 F 
ATOM     82  F   UNL     1       7.942  -9.054  18.513  1.00  0.00    -0.200 F 
ATOM     83  C   UNL     1       9.006  -7.791  16.826  1.00  0.00     0.200 A 
ATOM     84  F   UNL     1      10.046  -6.481  15.159  1.00  0.00    -0.200 F 
ATOM     85  F   UNL     1       9.848  -8.803  16.577  1.00  0.00    -0.200 F 
ENDBRANCH  51  75
BRANCH  63  86
ATOM     86  C   UNL     1       6.423  -1.549  22.930  1.00  0.00     0.064 A 
ATOM     87  C   UNL     1       7.733  -1.074  23.080  1.00  0.00     0.173 A 
ATOM     88  C   UNL     1       5.730  -1.950  24.082  1.00  0.00     0.173 A 
ATOM     89  F   UNL     1       8.441  -0.694  22.005  1.00  0.00    -0.203 F 
ATOM     90  C   UNL     1       8.335  -1.024  24.334  1.00  0.00     0.198 A 
ATOM     91  C   UNL     1       6.324  -1.871  25.338  1.00  0.00     0.198 A 
ATOM     92  F   UNL     1       4.471  -2.405  23.991  1.00  0.00    -0.203 F 
ATOM     93  F   UNL     1       9.604  -0.608  24.450  1.00  0.00    -0.200 F 
ATOM     94  C   UNL     1       7.628  -1.414  25.462  1.00  0.00     0.200 A 
ATOM     95  F   UNL     1       5.636  -2.236  26.428  1.00  0.00    -0.200 F 
ATOM     96  F   UNL     1       8.206  -1.357  26.669  1.00  0.00    -0.200 F 
ENDBRANCH  63  86
ENDBRANCH  37  38
ENDBRANCH  29  32
ENDBRANCH  27  28
ENDBRANCH  26  27
ENDBRANCH   1  26
TORSDOF 14
