REMARK SMILES C#CC[C@]1(C(=O)NCCCNC(=O)c2ccc(-c3c4nc(c(-c5c(F)c(F)c(F)c(F)c5F)c5ccc([nH]5)c(-c5c(F)c(F)c(F)c(F)c5F)c5nc(c(-c6c(F)c(F)c(F)c(F)c6F)c6ccc3[nH]6)C=C5)C=C4)cc2)CC[C@@H](C)C1
REMARK SMILES IDX 9 1 8 2 7 3 5 4 6 5 4 7 77 8 81 9 78 10 79 11 80 12 3 13
REMARK SMILES IDX 2 14 1 15 10 16 11 17 12 18 13 20 14 21 15 22 76 23 16 24
REMARK SMILES IDX 75 25 17 26 18 27 19 28 69 29 20 30 74 31 68 32 70 33 21 34
REMARK SMILES IDX 73 35 67 36 66 37 22 39 54 40 34 41 53 42 35 43 38 44 52 45
REMARK SMILES IDX 71 46 36 47 37 48 51 50 72 51 39 52 23 53 24 54 32 55 25 56
REMARK SMILES IDX 26 57 30 58 33 59 27 60 28 61 31 62 29 63 55 64 56 65 64 66
REMARK SMILES IDX 57 67 58 68 62 69 65 70 59 71 60 72 63 73 61 74 40 75 41 76
REMARK SMILES IDX 49 77 42 78 43 79 47 80 50 81 44 82 45 83 48 84 46 85
REMARK H PARENT 7 6 11 19 70 38 38 49
REMARK Flexibility Score: inf
ROOT
ATOM      1  C   UNL     1      -4.681   0.344  -1.970  1.00  0.00     0.042 C 
ENDROOT
BRANCH   1   2
ATOM      2  C   UNL     1      -3.525  -0.632  -1.833  1.00  0.00     0.117 C 
BRANCH   2   3
ATOM      3  N   UNL     1      -2.325  -0.033  -1.292  1.00  0.00    -0.356 N 
ATOM      4  C   UNL     1      -1.683  -0.146  -0.105  1.00  0.00     0.227 C 
ATOM      5  O   UNL     1      -0.529   0.306  -0.107  1.00  0.00    -0.274 OA
ATOM      6  H   UNL     1      -1.883   0.587  -1.917  1.00  0.00     0.163 HD
BRANCH   4   7
ATOM      7  C   UNL     1      -2.250  -0.794   1.185  1.00  0.00     0.060 C 
ATOM      8  C   UNL     1      -3.779  -1.012   1.251  1.00  0.00     0.018 C 
ATOM      9  C   UNL     1      -1.678  -2.224   1.352  1.00  0.00     0.021 C 
ATOM     10  C   UNL     1      -4.056  -2.503   1.016  1.00  0.00     0.004 C 
ATOM     11  C   UNL     1      -2.715  -3.197   0.789  1.00  0.00    -0.013 C 
ATOM     12  C   UNL     1      -2.441  -3.599  -0.659  1.00  0.00     0.007 C 
BRANCH   7  13
ATOM     13  C   UNL     1      -1.675   0.130   2.329  1.00  0.00     0.106 C 
BRANCH  13  14
ATOM     14  C   UNL     1      -2.612   0.226   3.522  1.00  0.00    -0.106 C 
ATOM     15  C   UNL     1      -3.416   0.308   4.545  1.00  0.00     0.004 C 
ENDBRANCH  13  14
ENDBRANCH   7  13
ENDBRANCH   4   7
ENDBRANCH   2   3
ENDBRANCH   1   2
BRANCH   1  16
ATOM     16  C   UNL     1      -4.701   1.021  -3.328  1.00  0.00     0.118 C 
BRANCH  16  17
ATOM     17  N   UNL     1      -4.938   0.073  -4.415  1.00  0.00    -0.352 N 
ATOM     18  C   UNL     1      -5.945   0.029  -5.348  1.00  0.00     0.251 C 
ATOM     19  H   UNL     1      -4.271  -0.648  -4.490  1.00  0.00     0.163 HD
ATOM     20  O   UNL     1      -6.085  -0.950  -6.065  1.00  0.00    -0.269 OA
BRANCH  18  21
ATOM     21  C   UNL     1      -6.867   1.175  -5.464  1.00  0.00     0.039 A 
ATOM     22  C   UNL     1      -8.238   0.943  -5.604  1.00  0.00     0.014 A 
ATOM     23  C   UNL     1      -6.368   2.476  -5.410  1.00  0.00     0.014 A 
ATOM     24  C   UNL     1      -9.119   2.025  -5.613  1.00  0.00     0.010 A 
ATOM     25  C   UNL     1      -7.248   3.539  -5.310  1.00  0.00     0.010 A 
ATOM     26  C   UNL     1      -8.630   3.326  -5.425  1.00  0.00    -0.014 A 
BRANCH  26  27
ATOM     27  C   UNL     1      -9.513   4.515  -5.389  1.00  0.00     0.031 A 
ATOM     28  C   UNL     1      -9.297   5.603  -6.401  1.00  0.00     0.074 A 
ATOM     29  C   UNL     1     -10.384   4.679  -4.378  1.00  0.00     0.049 A 
ATOM     30  N   UNL     1      -9.745   6.831  -6.412  1.00  0.00    -0.248 NA
ATOM     31  C   UNL     1      -8.397   5.280  -7.521  1.00  0.00     0.031 C 
ATOM     32  C   UNL     1     -10.641   3.712  -3.311  1.00  0.00     0.029 A 
ATOM     33  N   UNL     1     -11.191   5.744  -4.065  1.00  0.00    -0.354 N 
ATOM     34  C   UNL     1      -9.132   7.440  -7.498  1.00  0.00     0.074 A 
ATOM     35  C   UNL     1      -8.249   6.463  -8.095  1.00  0.00     0.031 C 
ATOM     36  C   UNL     1     -11.549   4.224  -2.464  1.00  0.00     0.029 A 
ATOM     37  C   UNL     1     -11.900   5.571  -2.903  1.00  0.00     0.049 A 
ATOM     38  H   UNL     1     -11.255   6.554  -4.621  1.00  0.00     0.167 HD
ATOM     39  C   UNL     1      -9.304   8.700  -7.962  1.00  0.00     0.037 A 
ATOM     40  C   UNL     1     -12.724   6.417  -2.256  1.00  0.00     0.037 A 
ATOM     41  C   UNL     1     -10.240   9.634  -7.399  1.00  0.00     0.049 A 
ATOM     42  C   UNL     1     -12.960   7.786  -2.830  1.00  0.00     0.074 A 
ATOM     43  C   UNL     1     -10.567  10.903  -7.840  1.00  0.00     0.029 A 
ATOM     44  N   UNL     1     -11.013   9.387  -6.273  1.00  0.00    -0.354 N 
ATOM     45  N   UNL     1     -12.412   8.344  -3.884  1.00  0.00    -0.248 NA
ATOM     46  C   UNL     1     -13.928   8.642  -2.132  1.00  0.00     0.031 C 
ATOM     47  C   UNL     1     -11.520  11.435  -6.964  1.00  0.00     0.029 A 
ATOM     48  C   UNL     1     -11.815  10.482  -6.002  1.00  0.00     0.049 A 
ATOM     49  H   UNL     1     -10.993   8.556  -5.745  1.00  0.00     0.167 HD
ATOM     50  C   UNL     1     -12.989   9.602  -3.994  1.00  0.00     0.074 A 
ATOM     51  C   UNL     1     -13.931   9.725  -2.899  1.00  0.00     0.031 C 
ATOM     52  C   UNL     1     -12.761  10.566  -4.918  1.00  0.00     0.037 A 
BRANCH  39  53
ATOM     53  C   UNL     1      -8.463   9.127  -9.129  1.00  0.00     0.064 A 
ATOM     54  C   UNL     1      -8.635   8.575 -10.408  1.00  0.00     0.173 A 
ATOM     55  C   UNL     1      -7.461  10.095  -8.964  1.00  0.00     0.173 A 
ATOM     56  F   UNL     1      -9.569   7.634 -10.617  1.00  0.00    -0.203 F 
ATOM     57  C   UNL     1      -7.806   8.940 -11.465  1.00  0.00     0.198 A 
ATOM     58  C   UNL     1      -6.656  10.484 -10.032  1.00  0.00     0.198 A 
ATOM     59  F   UNL     1      -7.256  10.660  -7.765  1.00  0.00    -0.203 F 
ATOM     60  F   UNL     1      -7.943   8.345 -12.658  1.00  0.00    -0.200 F 
ATOM     61  C   UNL     1      -6.821   9.897 -11.278  1.00  0.00     0.200 A 
ATOM     62  F   UNL     1      -5.712  11.418  -9.853  1.00  0.00    -0.200 F 
ATOM     63  F   UNL     1      -6.020  10.245 -12.295  1.00  0.00    -0.200 F 
ENDBRANCH  39  53
BRANCH  40  64
ATOM     64  C   UNL     1     -13.406   5.969  -1.016  1.00  0.00     0.064 A 
ATOM     65  C   UNL     1     -14.771   5.655  -1.027  1.00  0.00     0.173 A 
ATOM     66  C   UNL     1     -12.706   5.803   0.187  1.00  0.00     0.173 A 
ATOM     67  F   UNL     1     -15.484   5.812  -2.152  1.00  0.00    -0.203 F 
ATOM     68  C   UNL     1     -15.414   5.199   0.121  1.00  0.00     0.198 A 
ATOM     69  C   UNL     1     -13.345   5.325   1.330  1.00  0.00     0.198 A 
ATOM     70  F   UNL     1     -11.395   6.080   0.246  1.00  0.00    -0.203 F 
ATOM     71  F   UNL     1     -16.727   4.929   0.089  1.00  0.00    -0.200 F 
ATOM     72  C   UNL     1     -14.699   5.027   1.297  1.00  0.00     0.200 A 
ATOM     73  F   UNL     1     -12.648   5.146   2.460  1.00  0.00    -0.200 F 
ATOM     74  F   UNL     1     -15.315   4.575   2.398  1.00  0.00    -0.200 F 
ENDBRANCH  40  64
BRANCH  52  75
ATOM     75  C   UNL     1     -13.577  11.819  -4.823  1.00  0.00     0.064 A 
ATOM     76  C   UNL     1     -13.304  12.802  -3.862  1.00  0.00     0.173 A 
ATOM     77  C   UNL     1     -14.591  12.071  -5.759  1.00  0.00     0.173 A 
ATOM     78  F   UNL     1     -12.352  12.598  -2.939  1.00  0.00    -0.203 F 
ATOM     79  C   UNL     1     -14.024  13.993  -3.838  1.00  0.00     0.198 A 
ATOM     80  C   UNL     1     -15.293  13.272  -5.746  1.00  0.00     0.198 A 
ATOM     81  F   UNL     1     -14.882  11.161  -6.701  1.00  0.00    -0.203 F 
ATOM     82  F   UNL     1     -13.766  14.911  -2.896  1.00  0.00    -0.200 F 
ATOM     83  C   UNL     1     -15.010  14.231  -4.785  1.00  0.00     0.200 A 
ATOM     84  F   UNL     1     -16.236  13.505  -6.669  1.00  0.00    -0.200 F 
ATOM     85  F   UNL     1     -15.691  15.385  -4.770  1.00  0.00    -0.200 F 
ENDBRANCH  52  75
ENDBRANCH  26  27
ENDBRANCH  18  21
ENDBRANCH  16  17
ENDBRANCH   1  16
TORSDOF 12
