REMARK SMILES O=C(NCCCNC(=O)c1ccc(-c2c3nc(c(-c4c(F)c(F)c(F)c(F)c4F)c4ccc([nH]4)c(-c4c(F)c(F)c(F)c(F)c4F)c4nc(c(-c5c(F)c(F)c(F)c(F)c5F)c5ccc2[nH]5)C=C4)C=C3)cc1)c1ccc(/[NH+]=C2/N=C[NH+]=C3N=NC=C32)cc1
REMARK SMILES IDX 5 1 4 2 3 3 1 4 2 5 73 7 74 8 88 9 75 10 87 11 76 12 77 13
REMARK SMILES IDX 78 14 79 16 86 17 80 18 82 19 85 20 81 21 83 22 84 23 6 25
REMARK SMILES IDX 7 26 8 27 9 29 10 30 11 31 72 32 12 33 71 34 13 35 14 36
REMARK SMILES IDX 15 37 65 38 16 39 70 40 64 41 66 42 17 43 69 44 63 45 62 46
REMARK SMILES IDX 18 48 50 49 30 50 49 51 31 52 34 53 48 54 67 55 32 56 33 57
REMARK SMILES IDX 47 59 68 60 35 61 19 62 20 63 28 64 21 65 22 66 26 67 29 68
REMARK SMILES IDX 23 69 24 70 27 71 25 72 51 73 52 74 60 75 53 76 54 77 58 78
REMARK SMILES IDX 61 79 55 80 56 81 59 82 57 83 36 84 37 85 45 86 38 87 39 88
REMARK SMILES IDX 43 89 46 90 40 91 41 92 44 93 42 94
REMARK H PARENT 3 6 77 15 81 24 7 28 66 47 34 58
REMARK Flexibility Score: inf
ROOT
ATOM      1  C   UNL     1       5.024   2.142   0.441  1.00  0.00     0.042 C 
ENDROOT
BRANCH   1   2
ATOM      2  C   UNL     1       4.553   0.845   1.091  1.00  0.00     0.118 C 
BRANCH   2   3
ATOM      3  N   UNL     1       3.110   0.694   1.004  1.00  0.00    -0.352 N 
ATOM      4  O   UNL     1       1.171   0.013   0.053  1.00  0.00    -0.269 OA
ATOM      5  C   UNL     1       2.386  -0.070   0.125  1.00  0.00     0.251 C 
ATOM      6  H   UNL     1       2.585   1.205   1.662  1.00  0.00     0.163 HD
BRANCH   5   7
ATOM      7  C   UNL     1       3.110  -1.009  -0.746  1.00  0.00     0.040 A 
ATOM      8  C   UNL     1       3.619  -2.193  -0.208  1.00  0.00     0.018 A 
ATOM      9  C   UNL     1       3.288  -0.695  -2.093  1.00  0.00     0.018 A 
ATOM     10  C   UNL     1       4.316  -3.072  -1.036  1.00  0.00     0.052 A 
ATOM     11  C   UNL     1       4.014  -1.569  -2.904  1.00  0.00     0.052 A 
ATOM     12  C   UNL     1       4.500  -2.781  -2.392  1.00  0.00     0.124 A 
BRANCH  12  13
ATOM     13  N   UNL     1       5.252  -3.666  -3.165  1.00  0.00    -0.244 N 
ATOM     14  C   UNL     1       4.787  -4.237  -4.222  1.00  0.00     0.305 C 
ATOM     15  H   UNL     1       6.177  -3.862  -2.892  1.00  0.00     0.311 HD
ATOM     16  N   UNL     1       5.674  -5.038  -4.896  1.00  0.00    -0.069 NA
ATOM     17  C   UNL     1       3.481  -4.159  -4.855  1.00  0.00     0.159 C 
ATOM     18  C   UNL     1       5.415  -5.545  -6.059  1.00  0.00     0.372 C 
ATOM     19  C   UNL     1       3.337  -4.743  -6.163  1.00  0.00     0.302 C 
ATOM     20  C   UNL     1       2.247  -3.713  -4.668  1.00  0.00     0.177 C 
ATOM     21  N   UNL     1       4.256  -5.396  -6.775  1.00  0.00    -0.245 N 
ATOM     22  N   UNL     1       2.073  -4.511  -6.647  1.00  0.00     0.010 NA
ATOM     23  N   UNL     1       1.425  -3.917  -5.741  1.00  0.00    -0.081 NA
ATOM     24  H   UNL     1       4.139  -5.761  -7.682  1.00  0.00     0.266 HD
ENDBRANCH  12  13
ENDBRANCH   5   7
ENDBRANCH   2   3
ENDBRANCH   1   2
BRANCH   1  25
ATOM     25  C   UNL     1       4.496   3.400   1.123  1.00  0.00     0.118 C 
BRANCH  25  26
ATOM     26  N   UNL     1       4.964   3.535   2.498  1.00  0.00    -0.352 N 
ATOM     27  C   UNL     1       5.703   4.532   3.085  1.00  0.00     0.251 C 
ATOM     28  H   UNL     1       4.710   2.796   3.098  1.00  0.00     0.163 HD
ATOM     29  O   UNL     1       6.146   4.384   4.219  1.00  0.00    -0.269 OA
BRANCH  27  30
ATOM     30  C   UNL     1       5.983   5.778   2.344  1.00  0.00     0.039 A 
ATOM     31  C   UNL     1       7.281   6.297   2.353  1.00  0.00     0.014 A 
ATOM     32  C   UNL     1       4.967   6.434   1.646  1.00  0.00     0.014 A 
ATOM     33  C   UNL     1       7.579   7.431   1.593  1.00  0.00     0.010 A 
ATOM     34  C   UNL     1       5.279   7.519   0.835  1.00  0.00     0.010 A 
ATOM     35  C   UNL     1       6.588   8.024   0.796  1.00  0.00    -0.014 A 
BRANCH  35  36
ATOM     36  C   UNL     1       6.875   9.178  -0.090  1.00  0.00     0.031 A 
ATOM     37  C   UNL     1       6.185  10.490   0.152  1.00  0.00     0.074 A 
ATOM     38  C   UNL     1       7.662   9.016  -1.170  1.00  0.00     0.049 A 
ATOM     39  N   UNL     1       6.131  11.553  -0.608  1.00  0.00    -0.248 NA
ATOM     40  C   UNL     1       5.426  10.605   1.407  1.00  0.00     0.031 C 
ATOM     41  C   UNL     1       8.373   7.787  -1.526  1.00  0.00     0.029 A 
ATOM     42  N   UNL     1       7.976   9.887  -2.184  1.00  0.00    -0.354 N 
ATOM     43  C   UNL     1       5.304  12.448   0.057  1.00  0.00     0.074 A 
ATOM     44  C   UNL     1       4.853  11.791   1.265  1.00  0.00     0.031 C 
ATOM     45  C   UNL     1       9.049   7.986  -2.668  1.00  0.00     0.029 A 
ATOM     46  C   UNL     1       8.780   9.337  -3.151  1.00  0.00     0.049 A 
ATOM     47  H   UNL     1       7.654  10.817  -2.214  1.00  0.00     0.167 HD
ATOM     48  C   UNL     1       4.964  13.709  -0.302  1.00  0.00     0.037 A 
ATOM     49  C   UNL     1       9.233   9.859  -4.307  1.00  0.00     0.037 A 
ATOM     50  C   UNL     1       5.444  14.370  -1.486  1.00  0.00     0.049 A 
ATOM     51  C   UNL     1       8.836  11.259  -4.687  1.00  0.00     0.074 A 
ATOM     52  C   UNL     1       5.194  15.660  -1.918  1.00  0.00     0.029 A 
ATOM     53  N   UNL     1       6.283  13.789  -2.425  1.00  0.00    -0.354 N 
ATOM     54  N   UNL     1       8.070  12.105  -4.043  1.00  0.00    -0.248 NA
ATOM     55  C   UNL     1       9.364  11.774  -5.958  1.00  0.00     0.031 C 
ATOM     56  C   UNL     1       5.860  15.851  -3.134  1.00  0.00     0.029 A 
ATOM     57  C   UNL     1       6.555  14.692  -3.439  1.00  0.00     0.049 A 
ATOM     58  H   UNL     1       6.634  12.870  -2.378  1.00  0.00     0.167 HD
ATOM     59  C   UNL     1       8.050  13.261  -4.810  1.00  0.00     0.074 A 
ATOM     60  C   UNL     1       8.881  13.008  -5.969  1.00  0.00     0.031 C 
ATOM     61  C   UNL     1       7.403  14.428  -4.574  1.00  0.00     0.037 A 
BRANCH  48  62
ATOM     62  C   UNL     1       4.020  14.448   0.600  1.00  0.00     0.064 A 
ATOM     63  C   UNL     1       4.418  14.902   1.867  1.00  0.00     0.173 A 
ATOM     64  C   UNL     1       2.704  14.712   0.191  1.00  0.00     0.173 A 
ATOM     65  F   UNL     1       5.661  14.661   2.310  1.00  0.00    -0.203 F 
ATOM     66  C   UNL     1       3.523  15.561   2.705  1.00  0.00     0.198 A 
ATOM     67  C   UNL     1       1.821  15.397   1.021  1.00  0.00     0.198 A 
ATOM     68  F   UNL     1       2.275  14.303  -1.012  1.00  0.00    -0.203 F 
ATOM     69  F   UNL     1       3.909  15.934   3.933  1.00  0.00    -0.200 F 
ATOM     70  C   UNL     1       2.227  15.812   2.280  1.00  0.00     0.200 A 
ATOM     71  F   UNL     1       0.571  15.648   0.605  1.00  0.00    -0.200 F 
ATOM     72  F   UNL     1       1.366  16.445   3.089  1.00  0.00    -0.200 F 
ENDBRANCH  48  62
BRANCH  49  73
ATOM     73  C   UNL     1      10.134   9.060  -5.175  1.00  0.00     0.064 A 
ATOM     74  C   UNL     1      11.495   9.380  -5.272  1.00  0.00     0.173 A 
ATOM     75  C   UNL     1       9.665   7.962  -5.909  1.00  0.00     0.173 A 
ATOM     76  F   UNL     1      11.982  10.436  -4.604  1.00  0.00    -0.203 F 
ATOM     77  C   UNL     1      12.352   8.638  -6.081  1.00  0.00     0.198 A 
ATOM     78  C   UNL     1      10.528   7.206  -6.700  1.00  0.00     0.198 A 
ATOM     79  F   UNL     1       8.372   7.613  -5.845  1.00  0.00    -0.203 F 
ATOM     80  F   UNL     1      13.642   8.986  -6.182  1.00  0.00    -0.200 F 
ATOM     81  C   UNL     1      11.870   7.548  -6.789  1.00  0.00     0.200 A 
ATOM     82  F   UNL     1      10.061   6.147  -7.374  1.00  0.00    -0.200 F 
ATOM     83  F   UNL     1      12.696   6.830  -7.562  1.00  0.00    -0.200 F 
ENDBRANCH  49  73
BRANCH  61  84
ATOM     84  C   UNL     1       7.609  15.540  -5.558  1.00  0.00     0.064 A 
ATOM     85  C   UNL     1       6.985  15.537  -6.813  1.00  0.00     0.173 A 
ATOM     86  C   UNL     1       8.402  16.645  -5.216  1.00  0.00     0.173 A 
ATOM     87  F   UNL     1       6.231  14.493  -7.189  1.00  0.00    -0.203 F 
ATOM     88  C   UNL     1       7.160  16.597  -7.698  1.00  0.00     0.198 A 
ATOM     89  C   UNL     1       8.556  17.713  -6.094  1.00  0.00     0.198 A 
ATOM     90  F   UNL     1       9.017  16.694  -4.024  1.00  0.00    -0.203 F 
ATOM     91  F   UNL     1       6.582  16.561  -8.907  1.00  0.00    -0.200 F 
ATOM     92  C   UNL     1       7.938  17.687  -7.335  1.00  0.00     0.200 A 
ATOM     93  F   UNL     1       9.301  18.770  -5.739  1.00  0.00    -0.200 F 
ATOM     94  F   UNL     1       8.098  18.710  -8.186  1.00  0.00    -0.200 F 
ENDBRANCH  61  84
ENDBRANCH  35  36
ENDBRANCH  27  30
ENDBRANCH  25  26
ENDBRANCH   1  25
TORSDOF 11
