REMARK SMILES C[C@]1(C(=O)NCCCNC(=O)c2ccc(-c3c4nc(c(-c5c(F)c(F)c(F)c(F)c5F)c5ccc([nH]5)c(-c5c(F)c(F)c(F)c(F)c5F)c5nc(c(-c6c(F)c(F)c(F)c(F)c6F)c6ccc3[nH]6)C=C5)C=C4)cc2)[NH2+]C2(C(=O)c3ccccc3C2=O)[C@@H]2C(=O)N(c3ccccc3)C(=O)[C@H]21
REMARK SMILES IDX 7 1 6 2 5 3 3 4 4 5 2 7 1 8 75 9 99 10 76 11 87 14 97 15
REMARK SMILES IDX 77 16 85 17 88 18 90 19 98 20 78 21 79 22 84 23 86 24 89 25
REMARK SMILES IDX 80 26 83 27 81 28 82 29 91 30 92 31 96 32 93 33 95 34 94 35
REMARK SMILES IDX 8 36 9 37 10 38 11 40 12 41 13 42 74 43 14 44 73 45 15 46
REMARK SMILES IDX 16 47 17 48 67 49 18 50 72 51 66 52 68 53 19 54 71 55 65 56
REMARK SMILES IDX 64 57 20 59 52 60 32 61 51 62 33 63 36 64 50 65 69 66 34 67
REMARK SMILES IDX 35 68 49 70 70 71 37 72 21 73 22 74 30 75 23 76 24 77 28 78
REMARK SMILES IDX 31 79 25 80 26 81 29 82 27 83 53 84 54 85 62 86 55 87 56 88
REMARK SMILES IDX 60 89 63 90 57 91 58 92 61 93 59 94 38 95 39 96 47 97 40 98
REMARK SMILES IDX 41 99 45 100 48 101 42 102 43 103 46 104 44 105
REMARK H PARENT 5 6 75 12 75 13 9 39 68 58 36 69
REMARK Flexibility Score: inf
ROOT
ATOM      1  C   UNL     1      -0.718   2.030   5.218  1.00  0.00     0.042 C 
ENDROOT
BRANCH   1   2
ATOM      2  C   UNL     1       0.133   2.212   3.974  1.00  0.00     0.118 C 
BRANCH   2   3
ATOM      3  N   UNL     1       0.847   1.066   3.489  1.00  0.00    -0.351 N 
ATOM      4  C   UNL     1       0.970   0.550   2.233  1.00  0.00     0.281 C 
ATOM      5  O   UNL     1       1.612  -0.512   2.204  1.00  0.00    -0.268 OA
ATOM      6  H   UNL     1       1.334   0.566   4.183  1.00  0.00     0.163 HD
BRANCH   4   7
ATOM      7  C   UNL     1       0.385   1.164   0.884  1.00  0.00     0.186 C 
ATOM      8  C   UNL     1       0.853   0.195  -0.238  1.00  0.00     0.091 C 
ATOM      9  N   UNL     1      -1.130   1.222   0.847  1.00  0.00    -0.314 N 
ATOM     10  C   UNL     1       0.749   2.559   0.460  1.00  0.00     0.170 C 
ATOM     11  C   UNL     1      -1.580   2.678   0.770  1.00  0.00     0.236 C 
ATOM     12  H   UNL     1      -1.508   0.794   1.692  1.00  0.00     0.348 HD
ATOM     13  H   UNL     1      -1.471   0.717   0.029  1.00  0.00     0.348 HD
ATOM     14  C   UNL     1      -0.326   3.465   1.025  1.00  0.00     0.177 C 
ATOM     15  C   UNL     1       1.973   3.303   0.845  1.00  0.00     0.244 C 
ATOM     16  C   UNL     1      -2.314   3.024  -0.527  1.00  0.00     0.232 C 
ATOM     17  C   UNL     1      -2.698   2.850   1.821  1.00  0.00     0.232 C 
ATOM     18  C   UNL     1       0.207   4.784   0.567  1.00  0.00     0.245 C 
ATOM     19  N   UNL     1       1.595   4.641   0.709  1.00  0.00    -0.250 N 
ATOM     20  O   UNL     1       3.030   2.812   1.180  1.00  0.00    -0.273 OA
ATOM     21  O   UNL     1      -1.865   2.944  -1.655  1.00  0.00    -0.286 OA
ATOM     22  C   UNL     1      -3.693   3.431  -0.196  1.00  0.00     0.036 A 
ATOM     23  C   UNL     1      -3.905   3.303   1.166  1.00  0.00     0.036 A 
ATOM     24  O   UNL     1      -2.697   2.630   3.017  1.00  0.00    -0.286 OA
ATOM     25  O   UNL     1      -0.471   5.769   0.340  1.00  0.00    -0.273 OA
ATOM     26  C   UNL     1      -4.719   3.864  -1.015  1.00  0.00     0.013 A 
ATOM     27  C   UNL     1      -5.121   3.561   1.777  1.00  0.00     0.013 A 
ATOM     28  C   UNL     1      -5.960   4.151  -0.419  1.00  0.00     0.001 A 
ATOM     29  C   UNL     1      -6.162   3.993   0.965  1.00  0.00     0.001 A 
BRANCH  19  30
ATOM     30  C   UNL     1       2.502   5.673   1.004  1.00  0.00     0.052 A 
ATOM     31  C   UNL     1       3.726   5.738   0.327  1.00  0.00     0.027 A 
ATOM     32  C   UNL     1       2.272   6.516   2.097  1.00  0.00     0.027 A 
ATOM     33  C   UNL     1       4.705   6.647   0.727  1.00  0.00     0.002 A 
ATOM     34  C   UNL     1       3.276   7.387   2.528  1.00  0.00     0.002 A 
ATOM     35  C   UNL     1       4.487   7.458   1.839  1.00  0.00     0.000 A 
ENDBRANCH  19  30
ENDBRANCH   4   7
ENDBRANCH   2   3
ENDBRANCH   1   2
BRANCH   1  36
ATOM     36  C   UNL     1       0.065   2.173   6.505  1.00  0.00     0.118 C 
BRANCH  36  37
ATOM     37  N   UNL     1       0.278   3.569   6.893  1.00  0.00    -0.352 N 
ATOM     38  C   UNL     1      -0.485   4.502   7.562  1.00  0.00     0.251 C 
ATOM     39  H   UNL     1       1.156   3.916   6.615  1.00  0.00     0.163 HD
ATOM     40  O   UNL     1      -0.070   5.660   7.611  1.00  0.00    -0.269 OA
BRANCH  38  41
ATOM     41  C   UNL     1      -1.803   4.189   8.178  1.00  0.00     0.039 A 
ATOM     42  C   UNL     1      -2.122   2.925   8.652  1.00  0.00     0.014 A 
ATOM     43  C   UNL     1      -2.755   5.210   8.325  1.00  0.00     0.014 A 
ATOM     44  C   UNL     1      -3.426   2.615   9.020  1.00  0.00     0.010 A 
ATOM     45  C   UNL     1      -4.028   4.934   8.852  1.00  0.00     0.010 A 
ATOM     46  C   UNL     1      -4.400   3.615   9.144  1.00  0.00    -0.014 A 
BRANCH  46  47
ATOM     47  C   UNL     1      -5.772   3.236   9.591  1.00  0.00     0.031 A 
ATOM     48  C   UNL     1      -6.978   3.538   8.739  1.00  0.00     0.074 A 
ATOM     49  C   UNL     1      -5.929   2.542  10.737  1.00  0.00     0.049 A 
ATOM     50  N   UNL     1      -8.240   3.261   8.965  1.00  0.00    -0.248 NA
ATOM     51  C   UNL     1      -6.745   4.254   7.476  1.00  0.00     0.031 C 
ATOM     52  C   UNL     1      -4.846   2.180  11.654  1.00  0.00     0.029 A 
ATOM     53  N   UNL     1      -7.043   1.978  11.309  1.00  0.00    -0.354 N 
ATOM     54  C   UNL     1      -8.947   3.800   7.898  1.00  0.00     0.074 A 
ATOM     55  C   UNL     1      -7.981   4.447   7.037  1.00  0.00     0.031 C 
ATOM     56  C   UNL     1      -5.329   1.384  12.617  1.00  0.00     0.029 A 
ATOM     57  C   UNL     1      -6.772   1.259  12.448  1.00  0.00     0.049 A 
ATOM     58  H   UNL     1      -7.950   2.080  10.938  1.00  0.00     0.167 HD
ATOM     59  C   UNL     1     -10.279   3.749   7.652  1.00  0.00     0.037 A 
ATOM     60  C   UNL     1      -7.588   0.589  13.284  1.00  0.00     0.037 A 
ATOM     61  C   UNL     1     -11.234   3.067   8.489  1.00  0.00     0.049 A 
ATOM     62  C   UNL     1      -9.062   0.571  13.007  1.00  0.00     0.074 A 
ATOM     63  C   UNL     1     -12.597   2.924   8.299  1.00  0.00     0.029 A 
ATOM     64  N   UNL     1     -10.925   2.412   9.673  1.00  0.00    -0.354 N 
ATOM     65  N   UNL     1      -9.715   1.086  11.995  1.00  0.00    -0.248 NA
ATOM     66  C   UNL     1      -9.914  -0.101  13.996  1.00  0.00     0.031 C 
ATOM     67  C   UNL     1     -13.122   2.230   9.394  1.00  0.00     0.029 A 
ATOM     68  C   UNL     1     -12.078   1.891  10.240  1.00  0.00     0.049 A 
ATOM     69  H   UNL     1     -10.021   2.330  10.054  1.00  0.00     0.167 HD
ATOM     70  C   UNL     1     -11.054   0.805  12.222  1.00  0.00     0.074 A 
ATOM     71  C   UNL     1     -11.117   0.048  13.457  1.00  0.00     0.031 C 
ATOM     72  C   UNL     1     -12.131   1.152  11.477  1.00  0.00     0.037 A 
BRANCH  59  73
ATOM     73  C   UNL     1     -10.794   4.470   6.437  1.00  0.00     0.064 A 
ATOM     74  C   UNL     1     -10.529   4.018   5.136  1.00  0.00     0.173 A 
ATOM     75  C   UNL     1     -11.601   5.611   6.581  1.00  0.00     0.173 A 
ATOM     76  F   UNL     1      -9.753   2.942   4.939  1.00  0.00    -0.203 F 
ATOM     77  C   UNL     1     -11.027   4.696   4.025  1.00  0.00     0.198 A 
ATOM     78  C   UNL     1     -12.124   6.266   5.470  1.00  0.00     0.198 A 
ATOM     79  F   UNL     1     -11.892   6.084   7.802  1.00  0.00    -0.203 F 
ATOM     80  F   UNL     1     -10.713   4.277   2.791  1.00  0.00    -0.200 F 
ATOM     81  C   UNL     1     -11.830   5.814   4.193  1.00  0.00     0.200 A 
ATOM     82  F   UNL     1     -12.911   7.339   5.635  1.00  0.00    -0.200 F 
ATOM     83  F   UNL     1     -12.314   6.460   3.123  1.00  0.00    -0.200 F 
ENDBRANCH  59  73
BRANCH  60  84
ATOM     84  C   UNL     1      -7.005  -0.103  14.463  1.00  0.00     0.064 A 
ATOM     85  C   UNL     1      -6.948  -1.501  14.522  1.00  0.00     0.173 A 
ATOM     86  C   UNL     1      -6.423   0.621  15.515  1.00  0.00     0.173 A 
ATOM     87  F   UNL     1      -7.509  -2.237  13.552  1.00  0.00    -0.203 F 
ATOM     88  C   UNL     1      -6.317  -2.149  15.583  1.00  0.00     0.198 A 
ATOM     89  C   UNL     1      -5.766  -0.026  16.558  1.00  0.00     0.198 A 
ATOM     90  F   UNL     1      -6.449   1.962  15.501  1.00  0.00    -0.203 F 
ATOM     91  F   UNL     1      -6.285  -3.488  15.624  1.00  0.00    -0.200 F 
ATOM     92  C   UNL     1      -5.714  -1.411  16.592  1.00  0.00     0.200 A 
ATOM     93  F   UNL     1      -5.166   0.692  17.517  1.00  0.00    -0.200 F 
ATOM     94  F   UNL     1      -5.079  -2.034  17.593  1.00  0.00    -0.200 F 
ENDBRANCH  60  84
BRANCH  72  95
ATOM     95  C   UNL     1     -13.480   0.723  11.973  1.00  0.00     0.064 A 
ATOM     96  C   UNL     1     -14.081   1.341  13.080  1.00  0.00     0.173 A 
ATOM     97  C   UNL     1     -14.208  -0.267  11.296  1.00  0.00     0.173 A 
ATOM     98  F   UNL     1     -13.419   2.281  13.770  1.00  0.00    -0.203 F 
ATOM     99  C   UNL     1     -15.357   0.974  13.497  1.00  0.00     0.198 A 
ATOM    100  C   UNL     1     -15.496  -0.610  11.699  1.00  0.00     0.198 A 
ATOM    101  F   UNL     1     -13.680  -0.884  10.228  1.00  0.00    -0.203 F 
ATOM    102  F   UNL     1     -15.899   1.554  14.577  1.00  0.00    -0.200 F 
ATOM    103  C   UNL     1     -16.067   0.008  12.801  1.00  0.00     0.200 A 
ATOM    104  F   UNL     1     -16.186  -1.534  11.016  1.00  0.00    -0.200 F 
ATOM    105  F   UNL     1     -17.303  -0.331  13.194  1.00  0.00    -0.200 F 
ENDBRANCH  72  95
ENDBRANCH  46  47
ENDBRANCH  38  41
ENDBRANCH  36  37
ENDBRANCH   1  36
TORSDOF 11
