REMARK SMILES COc1cc(C(=O)NCCCNC(=O)c2ccc(-c3c4nc(c(-c5c(F)c(F)c(F)c(F)c5F)c5ccc([nH]5)c(-c5c(F)c(F)c(F)c(F)c5F)c5nc(c(-c6c(F)c(F)c(F)c(F)c6F)c6ccc3[nH]6)C=C5)C=C4)cc2)c([N+](=O)[O-])cc1OCC[NH+](C)C
REMARK SMILES IDX 9 1 8 2 6 3 7 4 5 6 3 7 4 8 83 9 82 10 78 11 2 12 1 13 84 14
REMARK SMILES IDX 85 15 86 16 87 17 88 18 89 19 79 21 80 22 81 23 10 24 11 25
REMARK SMILES IDX 12 26 13 27 14 29 15 30 16 31 77 32 17 33 76 34 18 35 19 36
REMARK SMILES IDX 20 37 70 38 21 39 75 40 69 41 71 42 22 43 74 44 68 45 67 46
REMARK SMILES IDX 23 48 55 49 35 50 54 51 36 52 39 53 53 54 72 55 37 56 38 57
REMARK SMILES IDX 52 59 73 60 40 61 24 62 25 63 33 64 26 65 27 66 31 67 34 68
REMARK SMILES IDX 28 69 29 70 32 71 30 72 56 73 57 74 65 75 58 76 59 77 63 78
REMARK SMILES IDX 66 79 60 80 61 81 64 82 62 83 41 84 42 85 50 86 43 87 44 88
REMARK SMILES IDX 48 89 51 90 45 91 46 92 49 93 47 94
REMARK H PARENT 8 5 87 20 12 28 71 47 39 58
REMARK Flexibility Score: inf
ROOT
ATOM      1  C   UNL     1       1.605  -5.290   5.265  1.00  0.00     0.118 C 
ENDROOT
BRANCH   1   2
ATOM      2  N   UNL     1       0.256  -4.805   5.008  1.00  0.00    -0.352 N 
ATOM      3  C   UNL     1      -0.219  -3.898   4.089  1.00  0.00     0.258 C 
ATOM      4  O   UNL     1      -1.421  -3.643   4.062  1.00  0.00    -0.269 OA
ATOM      5  H   UNL     1      -0.435  -5.194   5.592  1.00  0.00     0.163 HD
BRANCH   3   6
ATOM      6  C   UNL     1       0.694  -3.158   3.189  1.00  0.00     0.121 A 
ATOM      7  C   UNL     1       1.357  -0.999   2.262  1.00  0.00     0.162 A 
ATOM      8  C   UNL     1       0.493  -1.770   3.056  1.00  0.00     0.071 A 
ATOM      9  C   UNL     1       2.463  -1.605   1.654  1.00  0.00     0.168 A 
ATOM     10  C   UNL     1       2.697  -2.967   1.826  1.00  0.00     0.136 A 
ATOM     11  C   UNL     1       1.751  -3.744   2.493  1.00  0.00     0.286 A 
BRANCH   7  12
ATOM     12  O   UNL     1       1.186   0.358   2.195  1.00  0.00    -0.493 OA
ATOM     13  C   UNL     1       0.077   0.739   1.376  1.00  0.00     0.278 C 
ENDBRANCH   7  12
BRANCH   9  14
ATOM     14  O   UNL     1       3.367  -0.999   0.832  1.00  0.00    -0.484 OA
BRANCH  14  15
ATOM     15  C   UNL     1       2.824  -0.409  -0.356  1.00  0.00     0.291 C 
BRANCH  15  16
ATOM     16  C   UNL     1       2.024  -1.315  -1.340  1.00  0.00     0.303 C 
BRANCH  16  17
ATOM     17  N   UNL     1       0.773  -1.906  -0.818  1.00  0.00    -0.337 N 
ATOM     18  C   UNL     1      -0.408  -1.486  -1.579  1.00  0.00     0.332 C 
ATOM     19  C   UNL     1       0.818  -3.372  -0.826  1.00  0.00     0.332 C 
ATOM     20  H   UNL     1       0.695  -1.563   0.140  1.00  0.00     0.347 HD
ENDBRANCH  16  17
ENDBRANCH  15  16
ENDBRANCH  14  15
ENDBRANCH   9  14
BRANCH  11  21
ATOM     21  N   UNL     1       1.831  -5.181   2.292  1.00  0.00     0.063 N 
ATOM     22  O   UNL     1       0.788  -5.781   2.007  1.00  0.00    -0.258 OA
ATOM     23  O   UNL     1       2.951  -5.703   2.394  1.00  0.00    -0.258 OA
ENDBRANCH  11  21
ENDBRANCH   3   6
ENDBRANCH   1   2
BRANCH   1  24
ATOM     24  C   UNL     1       2.024  -5.264   6.718  1.00  0.00     0.042 C 
BRANCH  24  25
ATOM     25  C   UNL     1       1.190  -6.143   7.628  1.00  0.00     0.118 C 
BRANCH  25  26
ATOM     26  N   UNL     1       1.311  -7.569   7.343  1.00  0.00    -0.352 N 
ATOM     27  C   UNL     1       1.958  -8.581   8.013  1.00  0.00     0.251 C 
ATOM     28  H   UNL     1       0.847  -7.859   6.525  1.00  0.00     0.163 HD
ATOM     29  O   UNL     1       2.017  -9.701   7.506  1.00  0.00    -0.269 OA
BRANCH  27  30
ATOM     30  C   UNL     1       2.619  -8.338   9.314  1.00  0.00     0.039 A 
ATOM     31  C   UNL     1       3.827  -8.983   9.597  1.00  0.00     0.014 A 
ATOM     32  C   UNL     1       2.061  -7.485  10.262  1.00  0.00     0.014 A 
ATOM     33  C   UNL     1       4.506  -8.699  10.786  1.00  0.00     0.010 A 
ATOM     34  C   UNL     1       2.805  -7.087  11.364  1.00  0.00     0.010 A 
ATOM     35  C   UNL     1       4.026  -7.708  11.657  1.00  0.00    -0.014 A 
BRANCH  35  36
ATOM     36  C   UNL     1       4.752  -7.333  12.899  1.00  0.00     0.031 A 
ATOM     37  C   UNL     1       4.064  -7.450  14.236  1.00  0.00     0.074 A 
ATOM     38  C   UNL     1       5.996  -6.822  12.823  1.00  0.00     0.049 A 
ATOM     39  N   UNL     1       4.492  -7.102  15.423  1.00  0.00    -0.248 NA
ATOM     40  C   UNL     1       2.694  -7.990  14.234  1.00  0.00     0.031 C 
ATOM     41  C   UNL     1       6.746  -6.594  11.587  1.00  0.00     0.029 A 
ATOM     42  N   UNL     1       6.850  -6.395  13.810  1.00  0.00    -0.354 N 
ATOM     43  C   UNL     1       3.439  -7.356  16.293  1.00  0.00     0.074 A 
ATOM     44  C   UNL     1       2.326  -7.810  15.492  1.00  0.00     0.031 C 
ATOM     45  C   UNL     1       7.960  -6.108  11.890  1.00  0.00     0.029 A 
ATOM     46  C   UNL     1       8.059  -5.947  13.337  1.00  0.00     0.049 A 
ATOM     47  H   UNL     1       6.617  -6.408  14.766  1.00  0.00     0.167 HD
ATOM     48  C   UNL     1       3.411  -7.256  17.644  1.00  0.00     0.037 A 
ATOM     49  C   UNL     1       9.127  -5.459  13.997  1.00  0.00     0.037 A 
ATOM     50  C   UNL     1       4.535  -6.843  18.441  1.00  0.00     0.049 A 
ATOM     51  C   UNL     1       9.078  -5.371  15.499  1.00  0.00     0.074 A 
ATOM     52  C   UNL     1       4.638  -6.775  19.818  1.00  0.00     0.029 A 
ATOM     53  N   UNL     1       5.754  -6.426  17.926  1.00  0.00    -0.354 N 
ATOM     54  N   UNL     1       8.104  -5.690  16.317  1.00  0.00    -0.248 NA
ATOM     55  C   UNL     1      10.283  -4.864  16.170  1.00  0.00     0.031 C 
ATOM     56  C   UNL     1       5.900  -6.264  20.136  1.00  0.00     0.029 A 
ATOM     57  C   UNL     1       6.608  -6.076  18.959  1.00  0.00     0.049 A 
ATOM     58  H   UNL     1       5.979  -6.385  16.968  1.00  0.00     0.167 HD
ATOM     59  C   UNL     1       8.588  -5.455  17.598  1.00  0.00     0.074 A 
ATOM     60  C   UNL     1       9.948  -4.982  17.447  1.00  0.00     0.031 C 
ATOM     61  C   UNL     1       7.963  -5.615  18.790  1.00  0.00     0.037 A 
BRANCH  48  62
ATOM     62  C   UNL     1       2.127  -7.610  18.341  1.00  0.00     0.064 A 
ATOM     63  C   UNL     1       1.630  -8.923  18.357  1.00  0.00     0.173 A 
ATOM     64  C   UNL     1       1.391  -6.626  19.018  1.00  0.00     0.173 A 
ATOM     65  F   UNL     1       2.286  -9.902  17.715  1.00  0.00    -0.203 F 
ATOM     66  C   UNL     1       0.428  -9.230  18.989  1.00  0.00     0.198 A 
ATOM     67  C   UNL     1       0.208  -6.943  19.682  1.00  0.00     0.198 A 
ATOM     68  F   UNL     1       1.819  -5.355  19.041  1.00  0.00    -0.203 F 
ATOM     69  F   UNL     1      -0.057 -10.478  18.934  1.00  0.00    -0.200 F 
ATOM     70  C   UNL     1      -0.278  -8.242  19.658  1.00  0.00     0.200 A 
ATOM     71  F   UNL     1      -0.465  -5.990  20.341  1.00  0.00    -0.200 F 
ATOM     72  F   UNL     1      -1.432  -8.539  20.271  1.00  0.00    -0.200 F 
ENDBRANCH  48  62
BRANCH  49  73
ATOM     73  C   UNL     1      10.345  -5.052  13.246  1.00  0.00     0.064 A 
ATOM     74  C   UNL     1      11.538  -5.780  13.360  1.00  0.00     0.173 A 
ATOM     75  C   UNL     1      10.346  -3.930  12.405  1.00  0.00     0.173 A 
ATOM     76  F   UNL     1      11.595  -6.851  14.166  1.00  0.00    -0.203 F 
ATOM     77  C   UNL     1      12.691  -5.387  12.683  1.00  0.00     0.198 A 
ATOM     78  C   UNL     1      11.490  -3.556  11.703  1.00  0.00     0.198 A 
ATOM     79  F   UNL     1       9.229  -3.203  12.255  1.00  0.00    -0.203 F 
ATOM     80  F   UNL     1      13.831  -6.072  12.851  1.00  0.00    -0.200 F 
ATOM     81  C   UNL     1      12.664  -4.279  11.850  1.00  0.00     0.200 A 
ATOM     82  F   UNL     1      11.456  -2.495  10.886  1.00  0.00    -0.200 F 
ATOM     83  F   UNL     1      13.771  -3.904  11.195  1.00  0.00    -0.200 F 
ENDBRANCH  49  73
BRANCH  61  84
ATOM     84  C   UNL     1       8.758  -5.319  20.030  1.00  0.00     0.064 A 
ATOM     85  C   UNL     1       9.128  -4.011  20.377  1.00  0.00     0.173 A 
ATOM     86  C   UNL     1       9.123  -6.358  20.900  1.00  0.00     0.173 A 
ATOM     87  F   UNL     1       8.815  -2.984  19.573  1.00  0.00    -0.203 F 
ATOM     88  C   UNL     1       9.864  -3.760  21.532  1.00  0.00     0.198 A 
ATOM     89  C   UNL     1       9.826  -6.098  22.073  1.00  0.00     0.198 A 
ATOM     90  F   UNL     1       8.785  -7.626  20.620  1.00  0.00    -0.203 F 
ATOM     91  F   UNL     1      10.257  -2.510  21.814  1.00  0.00    -0.200 F 
ATOM     92  C   UNL     1      10.205  -4.801  22.382  1.00  0.00     0.200 A 
ATOM     93  F   UNL     1      10.138  -7.104  22.901  1.00  0.00    -0.200 F 
ATOM     94  F   UNL     1      10.907  -4.556  23.497  1.00  0.00    -0.200 F 
ENDBRANCH  61  84
ENDBRANCH  35  36
ENDBRANCH  27  30
ENDBRANCH  25  26
ENDBRANCH  24  25
ENDBRANCH   1  24
TORSDOF 16
