REMARK SMILES O=C(NCCCNC(=O)[C@H]1C[C@](O)(c2ccc(F)cc2)[C@@H](c2ccc(F)cc2)O1)c1ccc(-c2c3nc(c(-c4c(F)c(F)c(F)c(F)c4F)c4ccc([nH]4)c(-c4c(F)c(F)c(F)c(F)c4F)c4nc(c(-c5c(F)c(F)c(F)c(F)c5F)c5ccc2[nH]5)C=C4)C=C3)cc1
REMARK SMILES IDX 4 1 3 2 1 3 2 4 30 6 31 7 92 8 32 9 91 10 33 11 34 12 35 13
REMARK SMILES IDX 85 14 36 15 90 16 84 17 86 18 37 19 89 20 83 21 82 22 38 24
REMARK SMILES IDX 70 25 50 26 69 27 51 28 54 29 68 30 87 31 52 32 53 33 67 35
REMARK SMILES IDX 88 36 55 37 39 38 40 39 48 40 41 41 42 42 46 43 49 44 43 45
REMARK SMILES IDX 44 46 47 47 45 48 71 49 72 50 80 51 73 52 74 53 78 54 81 55
REMARK SMILES IDX 75 56 76 57 79 58 77 59 56 60 57 61 65 62 58 63 59 64 63 65
REMARK SMILES IDX 66 66 60 67 61 68 64 69 62 70 5 71 6 72 7 73 8 74 9 76 10 77
REMARK SMILES IDX 11 78 29 79 12 80 21 81 14 82 15 83 20 84 16 85 19 86 17 87
REMARK SMILES IDX 18 88 13 89 22 91 23 92 28 93 24 94 27 95 25 96 26 97
REMARK H PARENT 3 5 86 23 54 34 7 75 13 90
REMARK Flexibility Score: inf
ROOT
ATOM      1  C   UNL     1       8.969   3.124  -1.215  1.00  0.00     0.118 C 
ENDROOT
BRANCH   1   2
ATOM      2  N   UNL     1      10.067   3.889  -1.785  1.00  0.00    -0.352 N 
ATOM      3  O   UNL     1      12.126   4.330  -2.581  1.00  0.00    -0.269 OA
ATOM      4  C   UNL     1      11.297   3.490  -2.259  1.00  0.00     0.251 C 
ATOM      5  H   UNL     1       9.903   4.858  -1.842  1.00  0.00     0.163 HD
BRANCH   4   6
ATOM      6  C   UNL     1      11.642   2.052  -2.342  1.00  0.00     0.039 A 
ATOM      7  C   UNL     1      10.716   1.114  -2.789  1.00  0.00     0.014 A 
ATOM      8  C   UNL     1      12.936   1.636  -2.007  1.00  0.00     0.014 A 
ATOM      9  C   UNL     1      11.003  -0.241  -2.711  1.00  0.00     0.010 A 
ATOM     10  C   UNL     1      13.274   0.279  -2.068  1.00  0.00     0.010 A 
ATOM     11  C   UNL     1      12.300  -0.674  -2.399  1.00  0.00    -0.014 A 
BRANCH  11  12
ATOM     12  C   UNL     1      12.625  -2.113  -2.569  1.00  0.00     0.031 A 
ATOM     13  C   UNL     1      13.075  -2.962  -1.417  1.00  0.00     0.074 A 
ATOM     14  C   UNL     1      12.466  -2.653  -3.795  1.00  0.00     0.049 A 
ATOM     15  N   UNL     1      13.398  -4.231  -1.414  1.00  0.00    -0.248 NA
ATOM     16  C   UNL     1      13.185  -2.314  -0.100  1.00  0.00     0.031 C 
ATOM     17  C   UNL     1      12.044  -1.913  -4.989  1.00  0.00     0.029 A 
ATOM     18  N   UNL     1      12.609  -3.941  -4.244  1.00  0.00    -0.354 N 
ATOM     19  C   UNL     1      13.772  -4.527  -0.111  1.00  0.00     0.074 A 
ATOM     20  C   UNL     1      13.646  -3.306   0.654  1.00  0.00     0.031 C 
ATOM     21  C   UNL     1      11.901  -2.764  -6.012  1.00  0.00     0.029 A 
ATOM     22  C   UNL     1      12.312  -4.091  -5.578  1.00  0.00     0.049 A 
ATOM     23  H   UNL     1      12.896  -4.685  -3.667  1.00  0.00     0.167 HD
ATOM     24  C   UNL     1      14.179  -5.717   0.389  1.00  0.00     0.037 A 
ATOM     25  C   UNL     1      12.397  -5.168  -6.380  1.00  0.00     0.037 A 
ATOM     26  C   UNL     1      14.262  -6.933  -0.378  1.00  0.00     0.049 A 
ATOM     27  C   UNL     1      12.878  -6.463  -5.796  1.00  0.00     0.074 A 
ATOM     28  C   UNL     1      14.603  -8.202   0.059  1.00  0.00     0.029 A 
ATOM     29  N   UNL     1      14.006  -7.033  -1.738  1.00  0.00    -0.354 N 
ATOM     30  N   UNL     1      13.203  -6.733  -4.556  1.00  0.00    -0.248 NA
ATOM     31  C   UNL     1      13.026  -7.594  -6.720  1.00  0.00     0.031 C 
ATOM     32  C   UNL     1      14.602  -9.059  -1.044  1.00  0.00     0.029 A 
ATOM     33  C   UNL     1      14.217  -8.335  -2.161  1.00  0.00     0.049 A 
ATOM     34  H   UNL     1      13.718  -6.290  -2.315  1.00  0.00     0.167 HD
ATOM     35  C   UNL     1      13.602  -8.059  -4.550  1.00  0.00     0.074 A 
ATOM     36  C   UNL     1      13.446  -8.551  -5.904  1.00  0.00     0.031 C 
ATOM     37  C   UNL     1      14.068  -8.799  -3.516  1.00  0.00     0.037 A 
BRANCH  24  38
ATOM     38  C   UNL     1      14.575  -5.794   1.833  1.00  0.00     0.064 A 
ATOM     39  C   UNL     1      15.922  -5.978   2.184  1.00  0.00     0.173 A 
ATOM     40  C   UNL     1      13.618  -5.834   2.856  1.00  0.00     0.173 A 
ATOM     41  F   UNL     1      16.875  -5.957   1.240  1.00  0.00    -0.203 F 
ATOM     42  C   UNL     1      16.292  -6.229   3.503  1.00  0.00     0.198 A 
ATOM     43  C   UNL     1      13.993  -6.066   4.177  1.00  0.00     0.198 A 
ATOM     44  F   UNL     1      12.319  -5.658   2.572  1.00  0.00    -0.203 F 
ATOM     45  F   UNL     1      17.579  -6.448   3.807  1.00  0.00    -0.200 F 
ATOM     46  C   UNL     1      15.327  -6.277   4.497  1.00  0.00     0.200 A 
ATOM     47  F   UNL     1      13.062  -6.101   5.141  1.00  0.00    -0.200 F 
ATOM     48  F   UNL     1      15.681  -6.534   5.764  1.00  0.00    -0.200 F 
ENDBRANCH  24  38
BRANCH  25  49
ATOM     49  C   UNL     1      12.062  -5.037  -7.821  1.00  0.00     0.064 A 
ATOM     50  C   UNL     1      12.844  -4.244  -8.676  1.00  0.00     0.173 A 
ATOM     51  C   UNL     1      10.934  -5.664  -8.364  1.00  0.00     0.173 A 
ATOM     52  F   UNL     1      13.931  -3.617  -8.203  1.00  0.00    -0.203 F 
ATOM     53  C   UNL     1      12.492  -4.059 -10.010  1.00  0.00     0.198 A 
ATOM     54  C   UNL     1      10.602  -5.505  -9.708  1.00  0.00     0.198 A 
ATOM     55  F   UNL     1      10.166  -6.447  -7.592  1.00  0.00    -0.203 F 
ATOM     56  F   UNL     1      13.229  -3.256 -10.790  1.00  0.00    -0.200 F 
ATOM     57  C   UNL     1      11.374  -4.694 -10.527  1.00  0.00     0.200 A 
ATOM     58  F   UNL     1       9.534  -6.140 -10.211  1.00  0.00    -0.200 F 
ATOM     59  F   UNL     1      11.043  -4.527 -11.814  1.00  0.00    -0.200 F 
ENDBRANCH  25  49
BRANCH  37  60
ATOM     60  C   UNL     1      14.458 -10.215  -3.808  1.00  0.00     0.064 A 
ATOM     61  C   UNL     1      13.675 -11.282  -3.345  1.00  0.00     0.173 A 
ATOM     62  C   UNL     1      15.652 -10.511  -4.480  1.00  0.00     0.173 A 
ATOM     63  F   UNL     1      12.528 -11.046  -2.691  1.00  0.00    -0.203 F 
ATOM     64  C   UNL     1      14.085 -12.599  -3.529  1.00  0.00     0.198 A 
ATOM     65  C   UNL     1      16.046 -11.830  -4.685  1.00  0.00     0.198 A 
ATOM     66  F   UNL     1      16.423  -9.521  -4.954  1.00  0.00    -0.203 F 
ATOM     67  F   UNL     1      13.340 -13.604  -3.049  1.00  0.00    -0.200 F 
ATOM     68  C   UNL     1      15.268 -12.871  -4.200  1.00  0.00     0.200 A 
ATOM     69  F   UNL     1      17.177 -12.093  -5.353  1.00  0.00    -0.200 F 
ATOM     70  F   UNL     1      15.659 -14.140  -4.381  1.00  0.00    -0.200 F 
ENDBRANCH  37  60
ENDBRANCH  11  12
ENDBRANCH   4   6
ENDBRANCH   1   2
BRANCH   1  71
ATOM     71  C   UNL     1       9.045   2.990   0.300  1.00  0.00     0.042 C 
BRANCH  71  72
ATOM     72  C   UNL     1       8.399   4.157   1.027  1.00  0.00     0.117 C 
BRANCH  72  73
ATOM     73  N   UNL     1       6.985   4.293   0.734  1.00  0.00    -0.354 N 
ATOM     74  C   UNL     1       6.023   5.104   1.240  1.00  0.00     0.249 C 
ATOM     75  H   UNL     1       6.662   3.680   0.034  1.00  0.00     0.163 HD
ATOM     76  O   UNL     1       4.941   5.060   0.641  1.00  0.00    -0.272 OA
BRANCH  74  77
ATOM     77  C   UNL     1       6.186   5.964   2.514  1.00  0.00     0.211 C 
ATOM     78  C   UNL     1       7.541   6.415   3.003  1.00  0.00     0.085 C 
ATOM     79  O   UNL     1       5.381   7.152   2.434  1.00  0.00    -0.357 OA
ATOM     80  C   UNL     1       7.642   7.917   2.740  1.00  0.00     0.123 C 
ATOM     81  C   UNL     1       6.236   8.285   2.182  1.00  0.00     0.186 C 
BRANCH  80  82
ATOM     82  C   UNL     1       8.122   8.542   4.059  1.00  0.00    -0.013 A 
ATOM     83  C   UNL     1       9.450   8.278   4.478  1.00  0.00     0.010 A 
ATOM     84  C   UNL     1       7.285   9.239   4.945  1.00  0.00     0.010 A 
ATOM     85  C   UNL     1       9.911   8.673   5.733  1.00  0.00     0.039 A 
ATOM     86  C   UNL     1       7.755   9.648   6.198  1.00  0.00     0.039 A 
ATOM     87  C   UNL     1       9.056   9.354   6.584  1.00  0.00     0.123 A 
ATOM     88  F   UNL     1       9.483   9.716   7.800  1.00  0.00    -0.207 F 
ENDBRANCH  80  82
BRANCH  80  89
ATOM     89  O   UNL     1       8.682   8.137   1.776  1.00  0.00    -0.382 OA
ATOM     90  H   UNL     1       8.419   7.755   0.924  1.00  0.00     0.212 HD
ENDBRANCH  80  89
BRANCH  81  91
ATOM     91  C   UNL     1       6.090   8.686   0.715  1.00  0.00    -0.016 A 
ATOM     92  C   UNL     1       6.620   7.928  -0.343  1.00  0.00     0.009 A 
ATOM     93  C   UNL     1       5.333   9.829   0.390  1.00  0.00     0.009 A 
ATOM     94  C   UNL     1       6.379   8.277  -1.675  1.00  0.00     0.039 A 
ATOM     95  C   UNL     1       5.107  10.190  -0.942  1.00  0.00     0.039 A 
ATOM     96  C   UNL     1       5.623   9.404  -1.962  1.00  0.00     0.123 A 
ATOM     97  F   UNL     1       5.387   9.735  -3.239  1.00  0.00    -0.207 F 
ENDBRANCH  81  91
ENDBRANCH  74  77
ENDBRANCH  72  73
ENDBRANCH  71  72
ENDBRANCH   1  71
TORSDOF 13
