REMARK SMILES CC[C@](C)(O)C[NH2+]CC(C)(C)C(=O)NCCCNC(=O)c1ccc(-c2c3nc(c(-c4c(F)c(F)c(F)c(F)c4F)c4ccc([nH]4)c(-c4c(F)c(F)c(F)c(F)c4F)c4nc(c(-c5c(F)c(F)c(F)c(F)c5F)c5ccc2[nH]5)C=C4)C=C3)cc1
REMARK SMILES IDX 12 1 13 2 14 3 9 5 10 6 11 7 8 8 7 9 6 12 3 13 4 14 2 15
REMARK SMILES IDX 1 16 5 17 15 19 16 20 17 21 18 22 19 23 20 25 21 26 22 27
REMARK SMILES IDX 83 28 23 29 82 30 24 31 25 32 26 33 76 34 27 35 81 36 75 37
REMARK SMILES IDX 77 38 28 39 80 40 74 41 73 42 29 44 61 45 41 46 60 47 42 48
REMARK SMILES IDX 45 49 59 50 78 51 43 52 44 53 58 55 79 56 46 57 30 58 31 59
REMARK SMILES IDX 39 60 32 61 33 62 37 63 40 64 34 65 35 66 38 67 36 68 62 69
REMARK SMILES IDX 63 70 71 71 64 72 65 73 69 74 72 75 66 76 67 77 70 78 68 79
REMARK SMILES IDX 47 80 48 81 56 82 49 83 50 84 54 85 57 86 51 87 52 88 55 89
REMARK SMILES IDX 53 90
REMARK H PARENT 14 4 7 10 7 11 5 18 18 24 77 43 45 54
REMARK Flexibility Score: inf
ROOT
ATOM      1  C   UNL     1       4.946   2.861   2.471  1.00  0.00     0.231 C 
ATOM      2  O   UNL     1       4.810   2.808   1.244  1.00  0.00    -0.274 OA
ATOM      3  N   UNL     1       4.969   4.113   2.994  1.00  0.00    -0.355 N 
ATOM      4  H   UNL     1       4.381   4.761   2.543  1.00  0.00     0.163 HD
ENDROOT
BRANCH   1   5
ATOM      5  C   UNL     1       5.118   1.598   3.334  1.00  0.00     0.092 C 
ATOM      6  C   UNL     1       4.491   1.693   4.737  1.00  0.00     0.027 C 
ATOM      7  C   UNL     1       6.631   1.334   3.438  1.00  0.00     0.027 C 
BRANCH   5   8
ATOM      8  C   UNL     1       4.463   0.378   2.594  1.00  0.00     0.277 C 
BRANCH   8   9
ATOM      9  N   UNL     1       2.994   0.257   2.594  1.00  0.00    -0.343 N 
ATOM     10  H   UNL     1       2.744  -0.674   2.261  1.00  0.00     0.346 HD
ATOM     11  H   UNL     1       2.675   0.418   3.549  1.00  0.00     0.346 HD
BRANCH   9  12
ATOM     12  C   UNL     1       2.334   1.254   1.736  1.00  0.00     0.295 C 
BRANCH  12  13
ATOM     13  C   UNL     1       0.784   1.231   1.811  1.00  0.00     0.110 C 
ATOM     14  C   UNL     1       0.188  -0.125   1.420  1.00  0.00     0.048 C 
BRANCH  13  15
ATOM     15  C   UNL     1       0.204   2.405   0.981  1.00  0.00     0.037 C 
ATOM     16  C   UNL     1       0.370   2.298  -0.531  1.00  0.00     0.007 C 
ENDBRANCH  13  15
BRANCH  13  17
ATOM     17  O   UNL     1       0.439   1.486   3.192  1.00  0.00    -0.384 OA
ATOM     18  H   UNL     1       0.785   0.771   3.749  1.00  0.00     0.211 HD
ENDBRANCH  13  17
ENDBRANCH  12  13
ENDBRANCH   9  12
ENDBRANCH   8   9
ENDBRANCH   5   8
ENDBRANCH   1   5
BRANCH   3  19
ATOM     19  C   UNL     1       5.721   4.647   4.110  1.00  0.00     0.117 C 
BRANCH  19  20
ATOM     20  C   UNL     1       6.970   5.367   3.614  1.00  0.00     0.042 C 
BRANCH  20  21
ATOM     21  C   UNL     1       6.667   6.578   2.743  1.00  0.00     0.118 C 
BRANCH  21  22
ATOM     22  N   UNL     1       5.961   7.624   3.472  1.00  0.00    -0.352 N 
ATOM     23  C   UNL     1       6.378   8.886   3.809  1.00  0.00     0.251 C 
ATOM     24  H   UNL     1       5.051   7.391   3.765  1.00  0.00     0.163 HD
ATOM     25  O   UNL     1       5.736   9.553   4.618  1.00  0.00    -0.269 OA
BRANCH  23  26
ATOM     26  C   UNL     1       7.613   9.436   3.215  1.00  0.00     0.039 A 
ATOM     27  C   UNL     1       8.513  10.126   4.030  1.00  0.00     0.014 A 
ATOM     28  C   UNL     1       7.883   9.268   1.855  1.00  0.00     0.014 A 
ATOM     29  C   UNL     1       9.718  10.582   3.494  1.00  0.00     0.010 A 
ATOM     30  C   UNL     1       9.123   9.634   1.346  1.00  0.00     0.010 A 
ATOM     31  C   UNL     1      10.052  10.303   2.158  1.00  0.00    -0.014 A 
BRANCH  31  32
ATOM     32  C   UNL     1      11.356  10.714   1.581  1.00  0.00     0.031 A 
ATOM     33  C   UNL     1      11.393  11.675   0.424  1.00  0.00     0.074 A 
ATOM     34  C   UNL     1      12.498  10.180   2.057  1.00  0.00     0.049 A 
ATOM     35  N   UNL     1      12.418  12.086  -0.280  1.00  0.00    -0.248 NA
ATOM     36  C   UNL     1      10.103  12.231  -0.018  1.00  0.00     0.031 C 
ATOM     37  C   UNL     1      12.590   9.211   3.152  1.00  0.00     0.029 A 
ATOM     38  N   UNL     1      13.803  10.369   1.674  1.00  0.00    -0.354 N 
ATOM     39  C   UNL     1      11.896  12.939  -1.243  1.00  0.00     0.074 A 
ATOM     40  C   UNL     1      10.459  12.935  -1.082  1.00  0.00     0.031 C 
ATOM     41  C   UNL     1      13.881   8.912   3.369  1.00  0.00     0.029 A 
ATOM     42  C   UNL     1      14.704   9.627   2.400  1.00  0.00     0.049 A 
ATOM     43  H   UNL     1      14.068  10.978   0.948  1.00  0.00     0.167 HD
ATOM     44  C   UNL     1      12.557  13.686  -2.159  1.00  0.00     0.037 A 
ATOM     45  C   UNL     1      16.042   9.526   2.283  1.00  0.00     0.037 A 
ATOM     46  C   UNL     1      13.988  13.699  -2.307  1.00  0.00     0.049 A 
ATOM     47  C   UNL     1      16.745  10.331   1.220  1.00  0.00     0.074 A 
ATOM     48  C   UNL     1      14.757  14.437  -3.190  1.00  0.00     0.029 A 
ATOM     49  N   UNL     1      14.867  12.939  -1.550  1.00  0.00    -0.354 N 
ATOM     50  N   UNL     1      16.245  11.176   0.352  1.00  0.00    -0.248 NA
ATOM     51  C   UNL     1      18.203  10.171   1.126  1.00  0.00     0.031 C 
ATOM     52  C   UNL     1      16.097  14.090  -2.998  1.00  0.00     0.029 A 
ATOM     53  C   UNL     1      16.169  13.181  -1.956  1.00  0.00     0.049 A 
ATOM     54  H   UNL     1      14.604  12.320  -0.831  1.00  0.00     0.167 HD
ATOM     55  C   UNL     1      17.327  11.679  -0.358  1.00  0.00     0.074 A 
ATOM     56  C   UNL     1      18.512  11.056   0.190  1.00  0.00     0.031 C 
ATOM     57  C   UNL     1      17.340  12.575  -1.376  1.00  0.00     0.037 A 
BRANCH  44  58
ATOM     58  C   UNL     1      11.743  14.569  -3.059  1.00  0.00     0.064 A 
ATOM     59  C   UNL     1      11.082  15.705  -2.565  1.00  0.00     0.173 A 
ATOM     60  C   UNL     1      11.669  14.316  -4.437  1.00  0.00     0.173 A 
ATOM     61  F   UNL     1      11.111  15.985  -1.253  1.00  0.00    -0.203 F 
ATOM     62  C   UNL     1      10.362  16.541  -3.413  1.00  0.00     0.198 A 
ATOM     63  C   UNL     1      10.975  15.173  -5.287  1.00  0.00     0.198 A 
ATOM     64  F   UNL     1      12.286  13.247  -4.963  1.00  0.00    -0.203 F 
ATOM     65  F   UNL     1       9.705  17.596  -2.911  1.00  0.00    -0.200 F 
ATOM     66  C   UNL     1      10.318  16.281  -4.774  1.00  0.00     0.200 A 
ATOM     67  F   UNL     1      10.946  14.929  -6.604  1.00  0.00    -0.200 F 
ATOM     68  F   UNL     1       9.638  17.097  -5.591  1.00  0.00    -0.200 F 
ENDBRANCH  44  58
BRANCH  45  69
ATOM     69  C   UNL     1      16.819   8.641   3.194  1.00  0.00     0.064 A 
ATOM     70  C   UNL     1      17.750   9.177   4.096  1.00  0.00     0.173 A 
ATOM     71  C   UNL     1      16.692   7.245   3.145  1.00  0.00     0.173 A 
ATOM     72  F   UNL     1      17.924  10.505   4.169  1.00  0.00    -0.203 F 
ATOM     73  C   UNL     1      18.554   8.351   4.880  1.00  0.00     0.198 A 
ATOM     74  C   UNL     1      17.470   6.421   3.956  1.00  0.00     0.198 A 
ATOM     75  F   UNL     1      15.812   6.679   2.306  1.00  0.00    -0.203 F 
ATOM     76  F   UNL     1      19.487   8.889   5.677  1.00  0.00    -0.200 F 
ATOM     77  C   UNL     1      18.412   6.974   4.811  1.00  0.00     0.200 A 
ATOM     78  F   UNL     1      17.317   5.091   3.898  1.00  0.00    -0.200 F 
ATOM     79  F   UNL     1      19.191   6.179   5.556  1.00  0.00    -0.200 F 
ENDBRANCH  45  69
BRANCH  57  80
ATOM     80  C   UNL     1      18.678  12.986  -1.919  1.00  0.00     0.064 A 
ATOM     81  C   UNL     1      19.473  12.110  -2.673  1.00  0.00     0.173 A 
ATOM     82  C   UNL     1      19.150  14.292  -1.717  1.00  0.00     0.173 A 
ATOM     83  F   UNL     1      19.074  10.846  -2.882  1.00  0.00    -0.203 F 
ATOM     84  C   UNL     1      20.705  12.518  -3.178  1.00  0.00     0.198 A 
ATOM     85  C   UNL     1      20.364  14.707  -2.254  1.00  0.00     0.198 A 
ATOM     86  F   UNL     1      18.424  15.172  -1.011  1.00  0.00    -0.203 F 
ATOM     87  F   UNL     1      21.472  11.648  -3.849  1.00  0.00    -0.200 F 
ATOM     88  C   UNL     1      21.145  13.818  -2.976  1.00  0.00     0.200 A 
ATOM     89  F   UNL     1      20.779  15.969  -2.074  1.00  0.00    -0.200 F 
ATOM     90  F   UNL     1      22.326  14.211  -3.473  1.00  0.00    -0.200 F 
ENDBRANCH  57  80
ENDBRANCH  31  32
ENDBRANCH  23  26
ENDBRANCH  21  22
ENDBRANCH  20  21
ENDBRANCH  19  20
ENDBRANCH   3  19
TORSDOF 16
