REMARK SMILES CCOC(=O)c1c(NC(=O)[C@@H]2[C@@H](C(=O)NCCCNC(=O)c3ccc(-c4c5nc(c(-c6c(F)c(F)c(F)c(F)c6F)c6ccc([nH]6)c(-c6c(F)c(F)c(F)c(F)c6F)c6nc(c(-c7c(F)c(F)c(F)c(F)c7F)c7ccc4[nH]7)C=C6)C=C5)cc3)[C@@H]3C=C[C@H]2CC3)sc2c1CCC2
REMARK SMILES IDX 13 1 14 2 15 3 12 5 11 6 88 7 85 8 87 9 89 10 86 11 90 12
REMARK SMILES IDX 9 13 8 14 10 16 7 17 6 18 93 19 91 20 92 21 94 22 96 23
REMARK SMILES IDX 95 24 4 25 5 26 3 27 2 28 1 29 16 30 17 31 18 32 19 33 20 34
REMARK SMILES IDX 21 36 22 37 23 38 84 39 24 40 83 41 25 42 26 43 27 44 77 45
REMARK SMILES IDX 28 46 82 47 76 48 78 49 29 50 81 51 75 52 74 53 30 55 62 56
REMARK SMILES IDX 42 57 61 58 43 59 46 60 60 61 79 62 44 63 45 64 59 66 80 67
REMARK SMILES IDX 47 68 31 69 32 70 40 71 33 72 34 73 38 74 41 75 35 76 36 77
REMARK SMILES IDX 39 78 37 79 63 80 64 81 72 82 65 83 66 84 70 85 73 86 67 87
REMARK SMILES IDX 68 88 71 89 69 90 48 91 49 92 57 93 50 94 51 95 55 96 58 97
REMARK SMILES IDX 52 98 53 99 56 100 54 101
REMARK H PARENT 15 4 8 15 19 35 78 54 46 65
REMARK Flexibility Score: inf
ROOT
ATOM      1  C   UNL     1       7.595  -0.421   6.755  1.00  0.00     0.224 C 
ATOM      2  O   UNL     1       8.211   0.252   7.580  1.00  0.00    -0.275 OA
ATOM      3  N   UNL     1       8.272  -1.452   6.144  1.00  0.00    -0.356 N 
ATOM      4  H   UNL     1       9.219  -1.521   6.404  1.00  0.00     0.163 HD
ENDROOT
BRANCH   1   5
ATOM      5  C   UNL     1       6.147  -0.119   6.370  1.00  0.00     0.098 C 
ATOM      6  C   UNL     1       5.968   1.175   5.582  1.00  0.00     0.099 C 
ATOM      7  C   UNL     1       5.043   2.140   6.386  1.00  0.00     0.025 C 
ATOM      8  C   UNL     1       5.096  -0.188   7.525  1.00  0.00     0.025 C 
ATOM      9  C   UNL     1       3.687   1.491   6.462  1.00  0.00    -0.027 C 
ATOM     10  C   UNL     1       5.542   2.244   7.870  1.00  0.00     0.009 C 
ATOM     11  C   UNL     1       3.713   0.277   7.037  1.00  0.00    -0.027 C 
ATOM     12  C   UNL     1       5.438   0.869   8.582  1.00  0.00     0.009 C 
BRANCH   6  13
ATOM     13  C   UNL     1       5.530   0.977   4.095  1.00  0.00     0.229 C 
ATOM     14  N   UNL     1       4.614   0.122   3.530  1.00  0.00    -0.317 N 
ATOM     15  H   UNL     1       4.522   0.281   2.562  1.00  0.00     0.170 HD
ATOM     16  O   UNL     1       6.017   1.791   3.285  1.00  0.00    -0.274 OA
BRANCH  14  17
ATOM     17  C   UNL     1       3.782  -0.907   3.960  1.00  0.00     0.110 A 
ATOM     18  C   UNL     1       2.558  -1.359   3.435  1.00  0.00     0.098 A 
ATOM     19  C   UNL     1       1.908  -2.157   4.443  1.00  0.00    -0.017 A 
ATOM     20  S   UNL     1       4.333  -2.220   4.910  1.00  0.00    -0.122 S 
ATOM     21  C   UNL     1       2.798  -2.513   5.416  1.00  0.00     0.011 A 
ATOM     22  C   UNL     1       0.625  -2.851   4.719  1.00  0.00     0.038 C 
ATOM     23  C   UNL     1       2.289  -3.294   6.549  1.00  0.00     0.047 C 
ATOM     24  C   UNL     1       0.770  -3.234   6.242  1.00  0.00     0.010 C 
BRANCH  18  25
ATOM     25  C   UNL     1       2.143  -1.024   2.089  1.00  0.00     0.341 C 
ATOM     26  O   UNL     1       2.969  -0.733   1.226  1.00  0.00    -0.246 OA
BRANCH  25  27
ATOM     27  O   UNL     1       0.808  -1.143   1.873  1.00  0.00    -0.462 OA
BRANCH  27  28
ATOM     28  C   UNL     1       0.397  -1.102   0.496  1.00  0.00     0.230 C 
ATOM     29  C   UNL     1       0.663   0.228  -0.196  1.00  0.00     0.049 C 
ENDBRANCH  27  28
ENDBRANCH  25  27
ENDBRANCH  18  25
ENDBRANCH  14  17
ENDBRANCH   6  13
ENDBRANCH   1   5
BRANCH   3  30
ATOM     30  C   UNL     1       7.843  -2.465   5.179  1.00  0.00     0.117 C 
BRANCH  30  31
ATOM     31  C   UNL     1       8.414  -2.301   3.769  1.00  0.00     0.042 C 
BRANCH  31  32
ATOM     32  C   UNL     1       9.761  -2.982   3.644  1.00  0.00     0.118 C 
BRANCH  32  33
ATOM     33  N   UNL     1       9.680  -4.452   3.731  1.00  0.00    -0.352 N 
ATOM     34  C   UNL     1      10.725  -5.363   3.782  1.00  0.00     0.251 C 
ATOM     35  H   UNL     1       8.773  -4.834   3.756  1.00  0.00     0.163 HD
ATOM     36  O   UNL     1      10.566  -6.551   3.538  1.00  0.00    -0.269 OA
BRANCH  34  37
ATOM     37  C   UNL     1      12.044  -4.846   4.169  1.00  0.00     0.039 A 
ATOM     38  C   UNL     1      13.217  -5.132   3.467  1.00  0.00     0.014 A 
ATOM     39  C   UNL     1      12.026  -3.918   5.199  1.00  0.00     0.014 A 
ATOM     40  C   UNL     1      14.359  -4.390   3.764  1.00  0.00     0.010 A 
ATOM     41  C   UNL     1      13.037  -3.012   5.264  1.00  0.00     0.010 A 
ATOM     42  C   UNL     1      14.246  -3.312   4.654  1.00  0.00    -0.014 A 
BRANCH  42  43
ATOM     43  C   UNL     1      15.343  -2.409   4.961  1.00  0.00     0.031 A 
ATOM     44  C   UNL     1      15.905  -1.687   3.788  1.00  0.00     0.074 A 
ATOM     45  C   UNL     1      15.606  -2.061   6.243  1.00  0.00     0.049 A 
ATOM     46  N   UNL     1      17.103  -1.762   3.311  1.00  0.00    -0.248 NA
ATOM     47  C   UNL     1      14.989  -0.881   2.962  1.00  0.00     0.031 C 
ATOM     48  C   UNL     1      14.881  -2.438   7.468  1.00  0.00     0.029 A 
ATOM     49  N   UNL     1      16.527  -1.184   6.718  1.00  0.00    -0.354 N 
ATOM     50  C   UNL     1      17.151  -0.868   2.241  1.00  0.00     0.074 A 
ATOM     51  C   UNL     1      15.788  -0.503   1.962  1.00  0.00     0.031 C 
ATOM     52  C   UNL     1      15.229  -1.618   8.483  1.00  0.00     0.029 A 
ATOM     53  C   UNL     1      16.333  -0.795   8.040  1.00  0.00     0.049 A 
ATOM     54  H   UNL     1      17.273  -0.849   6.170  1.00  0.00     0.167 HD
ATOM     55  C   UNL     1      18.334  -0.327   1.833  1.00  0.00     0.037 A 
ATOM     56  C   UNL     1      17.029   0.163   8.701  1.00  0.00     0.037 A 
ATOM     57  C   UNL     1      19.445  -1.069   2.375  1.00  0.00     0.049 A 
ATOM     58  C   UNL     1      18.280   0.389   7.934  1.00  0.00     0.074 A 
ATOM     59  C   UNL     1      19.898  -2.366   2.242  1.00  0.00     0.029 A 
ATOM     60  N   UNL     1      20.045  -0.580   3.510  1.00  0.00    -0.354 N 
ATOM     61  N   UNL     1      19.220  -0.508   7.804  1.00  0.00    -0.248 NA
ATOM     62  C   UNL     1      18.249   1.419   6.906  1.00  0.00     0.031 C 
ATOM     63  C   UNL     1      20.329  -2.739   3.549  1.00  0.00     0.029 A 
ATOM     64  C   UNL     1      20.200  -1.627   4.382  1.00  0.00     0.049 A 
ATOM     65  H   UNL     1      20.314   0.354   3.669  1.00  0.00     0.167 HD
ATOM     66  C   UNL     1      19.622  -0.410   6.479  1.00  0.00     0.074 A 
ATOM     67  C   UNL     1      19.032   0.836   5.993  1.00  0.00     0.031 C 
ATOM     68  C   UNL     1      20.141  -1.488   5.820  1.00  0.00     0.037 A 
BRANCH  55  69
ATOM     69  C   UNL     1      18.507   1.061   1.259  1.00  0.00     0.064 A 
ATOM     70  C   UNL     1      19.780   1.453   0.794  1.00  0.00     0.173 A 
ATOM     71  C   UNL     1      17.573   2.108   1.412  1.00  0.00     0.173 A 
ATOM     72  F   UNL     1      20.753   0.547   0.615  1.00  0.00    -0.203 F 
ATOM     73  C   UNL     1      20.114   2.795   0.590  1.00  0.00     0.198 A 
ATOM     74  C   UNL     1      17.894   3.440   1.156  1.00  0.00     0.198 A 
ATOM     75  F   UNL     1      16.352   1.910   1.919  1.00  0.00    -0.203 F 
ATOM     76  F   UNL     1      21.374   3.126   0.275  1.00  0.00    -0.200 F 
ATOM     77  C   UNL     1      19.173   3.788   0.779  1.00  0.00     0.200 A 
ATOM     78  F   UNL     1      16.971   4.391   1.360  1.00  0.00    -0.200 F 
ATOM     79  F   UNL     1      19.507   5.079   0.647  1.00  0.00    -0.200 F 
ENDBRANCH  55  69
BRANCH  56  80
ATOM     80  C   UNL     1      16.534   1.122   9.718  1.00  0.00     0.064 A 
ATOM     81  C   UNL     1      17.423   1.820  10.549  1.00  0.00     0.173 A 
ATOM     82  C   UNL     1      15.203   1.587   9.693  1.00  0.00     0.173 A 
ATOM     83  F   UNL     1      18.717   1.469  10.595  1.00  0.00    -0.203 F 
ATOM     84  C   UNL     1      17.014   2.935  11.291  1.00  0.00     0.198 A 
ATOM     85  C   UNL     1      14.796   2.697  10.435  1.00  0.00     0.198 A 
ATOM     86  F   UNL     1      14.299   1.032   8.873  1.00  0.00    -0.203 F 
ATOM     87  F   UNL     1      17.906   3.614  12.025  1.00  0.00    -0.200 F 
ATOM     88  C   UNL     1      15.704   3.380  11.223  1.00  0.00     0.200 A 
ATOM     89  F   UNL     1      13.536   3.142  10.329  1.00  0.00    -0.200 F 
ATOM     90  F   UNL     1      15.328   4.486  11.880  1.00  0.00    -0.200 F 
ENDBRANCH  56  80
BRANCH  68  91
ATOM     91  C   UNL     1      20.480  -2.714   6.626  1.00  0.00     0.064 A 
ATOM     92  C   UNL     1      19.533  -3.507   7.299  1.00  0.00     0.173 A 
ATOM     93  C   UNL     1      21.793  -3.196   6.571  1.00  0.00     0.173 A 
ATOM     94  F   UNL     1      18.239  -3.169   7.321  1.00  0.00    -0.203 F 
ATOM     95  C   UNL     1      19.893  -4.708   7.911  1.00  0.00     0.198 A 
ATOM     96  C   UNL     1      22.144  -4.412   7.151  1.00  0.00     0.198 A 
ATOM     97  F   UNL     1      22.730  -2.511   5.897  1.00  0.00    -0.203 F 
ATOM     98  F   UNL     1      18.969  -5.444   8.547  1.00  0.00    -0.200 F 
ATOM     99  C   UNL     1      21.197  -5.164   7.827  1.00  0.00     0.200 A 
ATOM    100  F   UNL     1      23.396  -4.872   7.023  1.00  0.00    -0.200 F 
ATOM    101  F   UNL     1      21.536  -6.341   8.372  1.00  0.00    -0.200 F 
ENDBRANCH  68  91
ENDBRANCH  42  43
ENDBRANCH  34  37
ENDBRANCH  32  33
ENDBRANCH  31  32
ENDBRANCH  30  31
ENDBRANCH   3  30
TORSDOF 15
