REMARK SMILES O=C(CC[C@H]1CC[C@@H](O)CC1)NCCCNC(=O)c1ccc(-c2c3nc(c(-c4c(F)c(F)c(F)c(F)c4F)c4ccc([nH]4)c(-c4c(F)c(F)c(F)c(F)c4F)c4nc(c(-c5c(F)c(F)c(F)c(F)c5F)c5ccc2[nH]5)C=C4)C=C3)cc1
REMARK SMILES IDX 13 1 12 2 1 3 2 4 3 6 4 7 5 8 6 9 11 10 7 11 10 12 8 13 9 14
REMARK SMILES IDX 14 16 15 17 16 18 17 19 18 21 19 22 20 23 81 24 21 25 80 26
REMARK SMILES IDX 22 27 23 28 24 29 74 30 25 31 79 32 73 33 75 34 26 35 78 36
REMARK SMILES IDX 72 37 71 38 27 40 59 41 39 42 58 43 40 44 43 45 57 46 76 47
REMARK SMILES IDX 41 48 42 49 56 51 77 52 44 53 28 54 29 55 37 56 30 57 31 58
REMARK SMILES IDX 35 59 38 60 32 61 33 62 36 63 34 64 60 65 61 66 69 67 62 68
REMARK SMILES IDX 63 69 67 70 70 71 64 72 65 73 68 74 66 75 45 76 46 77 54 78
REMARK SMILES IDX 47 79 48 80 52 81 55 82 49 83 50 84 53 85 51 86
REMARK H PARENT 12 5 9 15 16 20 75 39 43 50
REMARK Flexibility Score: inf
ROOT
ATOM      1  C   UNL     1       1.567   2.190   1.199  1.00  0.00     0.117 C 
ENDROOT
BRANCH   1   2
ATOM      2  N   UNL     1       2.300   0.946   1.071  1.00  0.00    -0.356 N 
ATOM      3  O   UNL     1       1.022   0.231  -0.687  1.00  0.00    -0.275 OA
ATOM      4  C   UNL     1       1.999   0.082   0.041  1.00  0.00     0.220 C 
ATOM      5  H   UNL     1       3.008   0.719   1.716  1.00  0.00     0.163 HD
BRANCH   4   6
ATOM      6  C   UNL     1       3.014  -1.021  -0.194  1.00  0.00     0.100 C 
BRANCH   6   7
ATOM      7  C   UNL     1       3.702  -0.804  -1.548  1.00  0.00     0.013 C 
BRANCH   7   8
ATOM      8  C   UNL     1       5.164  -0.291  -1.538  1.00  0.00    -0.010 C 
ATOM      9  C   UNL     1       5.527   0.759  -0.479  1.00  0.00     0.006 C 
ATOM     10  C   UNL     1       5.545   0.246  -2.936  1.00  0.00     0.006 C 
ATOM     11  C   UNL     1       4.941   2.134  -0.761  1.00  0.00     0.032 C 
ATOM     12  C   UNL     1       4.926   1.614  -3.235  1.00  0.00     0.032 C 
ATOM     13  C   UNL     1       5.266   2.641  -2.159  1.00  0.00     0.114 C 
BRANCH  13  14
ATOM     14  O   UNL     1       4.534   3.840  -2.393  1.00  0.00    -0.393 OA
ATOM     15  H   UNL     1       3.584   3.654  -2.340  1.00  0.00     0.210 HD
ENDBRANCH  13  14
ENDBRANCH   7   8
ENDBRANCH   6   7
ENDBRANCH   4   6
ENDBRANCH   1   2
BRANCH   1  16
ATOM     16  C   UNL     1       1.894   2.988   2.453  1.00  0.00     0.042 C 
BRANCH  16  17
ATOM     17  C   UNL     1       3.347   3.425   2.602  1.00  0.00     0.118 C 
BRANCH  17  18
ATOM     18  N   UNL     1       3.797   4.404   1.627  1.00  0.00    -0.352 N 
ATOM     19  C   UNL     1       4.696   5.437   1.783  1.00  0.00     0.251 C 
ATOM     20  H   UNL     1       3.404   4.317   0.729  1.00  0.00     0.163 HD
ATOM     21  O   UNL     1       4.944   6.184   0.846  1.00  0.00    -0.269 OA
BRANCH  19  22
ATOM     22  C   UNL     1       5.317   5.699   3.103  1.00  0.00     0.039 A 
ATOM     23  C   UNL     1       5.342   7.020   3.563  1.00  0.00     0.014 A 
ATOM     24  C   UNL     1       5.838   4.675   3.898  1.00  0.00     0.014 A 
ATOM     25  C   UNL     1       5.787   7.298   4.857  1.00  0.00     0.010 A 
ATOM     26  C   UNL     1       6.221   4.944   5.212  1.00  0.00     0.010 A 
ATOM     27  C   UNL     1       6.176   6.254   5.711  1.00  0.00    -0.014 A 
BRANCH  27  28
ATOM     28  C   UNL     1       6.473   6.519   7.141  1.00  0.00     0.031 A 
ATOM     29  C   UNL     1       7.856   6.326   7.690  1.00  0.00     0.074 A 
ATOM     30  C   UNL     1       5.467   6.880   7.962  1.00  0.00     0.049 A 
ATOM     31  N   UNL     1       8.287   6.483   8.917  1.00  0.00    -0.248 NA
ATOM     32  C   UNL     1       8.887   5.878   6.743  1.00  0.00     0.031 C 
ATOM     33  C   UNL     1       4.068   7.044   7.561  1.00  0.00     0.029 A 
ATOM     34  N   UNL     1       5.463   7.168   9.304  1.00  0.00    -0.354 N 
ATOM     35  C   UNL     1       9.633   6.146   8.891  1.00  0.00     0.074 A 
ATOM     36  C   UNL     1       9.938   5.732   7.537  1.00  0.00     0.031 C 
ATOM     37  C   UNL     1       3.347   7.427   8.627  1.00  0.00     0.029 A 
ATOM     38  C   UNL     1       4.224   7.509   9.790  1.00  0.00     0.049 A 
ATOM     39  H   UNL     1       6.271   7.134   9.865  1.00  0.00     0.167 HD
ATOM     40  C   UNL     1      10.535   6.197   9.900  1.00  0.00     0.037 A 
ATOM     41  C   UNL     1       3.838   7.850  11.034  1.00  0.00     0.037 A 
ATOM     42  C   UNL     1      10.236   6.627  11.241  1.00  0.00     0.049 A 
ATOM     43  C   UNL     1       4.865   7.915  12.130  1.00  0.00     0.074 A 
ATOM     44  C   UNL     1      11.095   6.762  12.318  1.00  0.00     0.029 A 
ATOM     45  N   UNL     1       8.975   6.993  11.690  1.00  0.00    -0.354 N 
ATOM     46  N   UNL     1       6.149   7.661  12.077  1.00  0.00    -0.248 NA
ATOM     47  C   UNL     1       4.388   8.326  13.459  1.00  0.00     0.031 C 
ATOM     48  C   UNL     1      10.348   7.176  13.427  1.00  0.00     0.029 A 
ATOM     49  C   UNL     1       9.031   7.338  13.031  1.00  0.00     0.049 A 
ATOM     50  H   UNL     1       8.160   7.005  11.137  1.00  0.00     0.167 HD
ATOM     51  C   UNL     1       6.639   7.905  13.352  1.00  0.00     0.074 A 
ATOM     52  C   UNL     1       5.516   8.341  14.156  1.00  0.00     0.031 C 
ATOM     53  C   UNL     1       7.906   7.778  13.815  1.00  0.00     0.037 A 
BRANCH  40  54
ATOM     54  C   UNL     1      11.942   5.779   9.588  1.00  0.00     0.064 A 
ATOM     55  C   UNL     1      12.784   6.576   8.798  1.00  0.00     0.173 A 
ATOM     56  C   UNL     1      12.466   4.588  10.113  1.00  0.00     0.173 A 
ATOM     57  F   UNL     1      12.326   7.718   8.264  1.00  0.00    -0.203 F 
ATOM     58  C   UNL     1      14.091   6.183   8.523  1.00  0.00     0.198 A 
ATOM     59  C   UNL     1      13.782   4.211   9.857  1.00  0.00     0.198 A 
ATOM     60  F   UNL     1      11.704   3.793  10.878  1.00  0.00    -0.203 F 
ATOM     61  F   UNL     1      14.863   6.938   7.729  1.00  0.00    -0.200 F 
ATOM     62  C   UNL     1      14.591   5.005   9.057  1.00  0.00     0.200 A 
ATOM     63  F   UNL     1      14.267   3.078  10.382  1.00  0.00    -0.200 F 
ATOM     64  F   UNL     1      15.850   4.630   8.794  1.00  0.00    -0.200 F 
ENDBRANCH  40  54
BRANCH  41  65
ATOM     65  C   UNL     1       2.419   8.194  11.300  1.00  0.00     0.064 A 
ATOM     66  C   UNL     1       2.038   9.518  11.562  1.00  0.00     0.173 A 
ATOM     67  C   UNL     1       1.417   7.213  11.301  1.00  0.00     0.173 A 
ATOM     68  F   UNL     1       2.965  10.487  11.592  1.00  0.00    -0.203 F 
ATOM     69  C   UNL     1       0.711   9.844  11.833  1.00  0.00     0.198 A 
ATOM     70  C   UNL     1       0.087   7.545  11.547  1.00  0.00     0.198 A 
ATOM     71  F   UNL     1       1.731   5.933  11.050  1.00  0.00    -0.203 F 
ATOM     72  F   UNL     1       0.381  11.110  12.122  1.00  0.00    -0.200 F 
ATOM     73  C   UNL     1      -0.264   8.858  11.820  1.00  0.00     0.200 A 
ATOM     74  F   UNL     1      -0.854   6.591  11.523  1.00  0.00    -0.200 F 
ATOM     75  F   UNL     1      -1.540   9.173  12.079  1.00  0.00    -0.200 F 
ENDBRANCH  41  65
BRANCH  53  76
ATOM     76  C   UNL     1       8.150   8.146  15.249  1.00  0.00     0.064 A 
ATOM     77  C   UNL     1       7.713   7.329  16.302  1.00  0.00     0.173 A 
ATOM     78  C   UNL     1       8.851   9.318  15.571  1.00  0.00     0.173 A 
ATOM     79  F   UNL     1       7.024   6.207  16.044  1.00  0.00    -0.203 F 
ATOM     80  C   UNL     1       7.948   7.685  17.627  1.00  0.00     0.198 A 
ATOM     81  C   UNL     1       9.107   9.657  16.896  1.00  0.00     0.198 A 
ATOM     82  F   UNL     1       9.293  10.130  14.600  1.00  0.00    -0.203 F 
ATOM     83  F   UNL     1       7.481   6.914  18.619  1.00  0.00    -0.200 F 
ATOM     84  C   UNL     1       8.649   8.845  17.923  1.00  0.00     0.200 A 
ATOM     85  F   UNL     1       9.793  10.773  17.181  1.00  0.00    -0.200 F 
ATOM     86  F   UNL     1       8.876   9.184  19.200  1.00  0.00    -0.200 F 
ENDBRANCH  53  76
ENDBRANCH  27  28
ENDBRANCH  19  22
ENDBRANCH  17  18
ENDBRANCH  16  17
ENDBRANCH   1  16
TORSDOF 13
