REMARK SMILES C[C@H](NC(=O)c1ccc(C(C)(C)C)cc1)C(=O)N[C@@H](C(=O)NCCCNC(=O)c1ccc(-c2c3nc(c(-c4c(F)c(F)c(F)c(F)c4F)c4ccc([nH]4)c(-c4c(F)c(F)c(F)c(F)c4F)c4nc(c(-c5c(F)c(F)c(F)c(F)c5F)c5ccc2[nH]5)C=C4)C=C3)cc1)[C@H](C)O
REMARK SMILES IDX 20 1 21 2 22 3 19 5 18 6 16 7 17 8 2 10 1 11 3 12 4 13 5 15
REMARK SMILES IDX 6 16 7 17 15 18 8 19 14 20 9 21 10 22 11 23 12 24 13 25
REMARK SMILES IDX 92 26 93 27 94 28 23 30 24 31 25 32 26 33 27 34 28 36 29 37
REMARK SMILES IDX 30 38 91 39 31 40 90 41 32 42 33 43 34 44 84 45 35 46 89 47
REMARK SMILES IDX 83 48 85 49 36 50 88 51 82 52 81 53 37 55 69 56 49 57 68 58
REMARK SMILES IDX 50 59 53 60 67 61 86 62 51 63 52 64 66 66 87 67 54 68 38 69
REMARK SMILES IDX 39 70 47 71 40 72 41 73 45 74 48 75 42 76 43 77 46 78 44 79
REMARK SMILES IDX 70 80 71 81 79 82 72 83 73 84 77 85 80 86 74 87 75 88 78 89
REMARK SMILES IDX 76 90 55 91 56 92 64 93 57 94 58 95 62 96 65 97 59 98 60 99
REMARK SMILES IDX 63 100 61 101
REMARK H PARENT 22 4 18 9 3 14 94 29 26 35 85 54 53 65
REMARK Flexibility Score: inf
ROOT
ATOM      1  C   UNL     1      -1.268  -2.575   4.851  1.00  0.00     0.245 C 
ATOM      2  O   UNL     1      -2.360  -2.626   5.424  1.00  0.00    -0.273 OA
ATOM      3  N   UNL     1      -0.448  -3.648   5.063  1.00  0.00    -0.354 N 
ATOM      4  H   UNL     1      -0.673  -4.204   5.844  1.00  0.00     0.163 HD
ENDROOT
BRANCH   1   5
ATOM      5  C   UNL     1      -0.922  -1.474   3.791  1.00  0.00     0.200 C 
BRANCH   5   6
ATOM      6  N   UNL     1       0.466  -0.980   3.908  1.00  0.00    -0.340 N 
ATOM      7  C   UNL     1       1.471  -0.706   3.036  1.00  0.00     0.243 C 
ATOM      8  O   UNL     1       2.498  -0.235   3.543  1.00  0.00    -0.273 OA
ATOM      9  H   UNL     1       0.724  -0.808   4.842  1.00  0.00     0.164 HD
BRANCH   7  10
ATOM     10  C   UNL     1       1.491  -1.120   1.541  1.00  0.00     0.168 C 
ATOM     11  C   UNL     1       0.256  -0.737   0.747  1.00  0.00     0.041 C 
BRANCH  10  12
ATOM     12  N   UNL     1       1.869  -2.534   1.496  1.00  0.00    -0.341 N 
ATOM     13  C   UNL     1       1.969  -3.439   0.476  1.00  0.00     0.251 C 
ATOM     14  H   UNL     1       2.096  -2.908   2.378  1.00  0.00     0.164 HD
ATOM     15  O   UNL     1       2.166  -4.620   0.722  1.00  0.00    -0.269 OA
BRANCH  13  16
ATOM     16  C   UNL     1       1.822  -2.978  -0.910  1.00  0.00     0.039 A 
ATOM     17  C   UNL     1       0.828  -3.531  -1.712  1.00  0.00     0.014 A 
ATOM     18  C   UNL     1       2.657  -1.978  -1.401  1.00  0.00     0.014 A 
ATOM     19  C   UNL     1       0.603  -2.997  -2.982  1.00  0.00     0.005 A 
ATOM     20  C   UNL     1       2.419  -1.444  -2.666  1.00  0.00     0.005 A 
ATOM     21  C   UNL     1       1.357  -1.906  -3.464  1.00  0.00    -0.043 A 
BRANCH  21  22
ATOM     22  C   UNL     1       1.033  -1.268  -4.825  1.00  0.00    -0.013 C 
ATOM     23  C   UNL     1       1.610  -2.163  -5.936  1.00  0.00     0.016 C 
ATOM     24  C   UNL     1      -0.494  -1.124  -5.025  1.00  0.00     0.016 C 
ATOM     25  C   UNL     1       1.627   0.152  -4.982  1.00  0.00     0.016 C 
ENDBRANCH  21  22
ENDBRANCH  13  16
ENDBRANCH  10  12
ENDBRANCH   7  10
ENDBRANCH   5   6
BRANCH   5  26
ATOM     26  C   UNL     1      -1.916  -0.290   3.997  1.00  0.00     0.143 C 
ATOM     27  C   UNL     1      -2.054   0.630   2.792  1.00  0.00     0.041 C 
BRANCH  26  28
ATOM     28  O   UNL     1      -1.496   0.516   5.111  1.00  0.00    -0.391 OA
ATOM     29  H   UNL     1      -0.633   0.913   4.916  1.00  0.00     0.211 HD
ENDBRANCH  26  28
ENDBRANCH   5  26
ENDBRANCH   1   5
BRANCH   3  30
ATOM     30  C   UNL     1       0.700  -4.080   4.303  1.00  0.00     0.117 C 
BRANCH  30  31
ATOM     31  C   UNL     1       2.016  -3.662   4.951  1.00  0.00     0.042 C 
BRANCH  31  32
ATOM     32  C   UNL     1       2.531  -4.668   5.971  1.00  0.00     0.118 C 
BRANCH  32  33
ATOM     33  N   UNL     1       3.035  -5.883   5.345  1.00  0.00    -0.352 N 
ATOM     34  C   UNL     1       4.210  -6.563   5.552  1.00  0.00     0.251 C 
ATOM     35  H   UNL     1       2.441  -6.277   4.666  1.00  0.00     0.163 HD
ATOM     36  O   UNL     1       4.503  -7.505   4.821  1.00  0.00    -0.269 OA
BRANCH  34  37
ATOM     37  C   UNL     1       5.143  -6.160   6.628  1.00  0.00     0.039 A 
ATOM     38  C   UNL     1       6.517  -6.198   6.368  1.00  0.00     0.014 A 
ATOM     39  C   UNL     1       4.685  -5.774   7.890  1.00  0.00     0.014 A 
ATOM     40  C   UNL     1       7.425  -5.795   7.350  1.00  0.00     0.010 A 
ATOM     41  C   UNL     1       5.585  -5.298   8.841  1.00  0.00     0.010 A 
ATOM     42  C   UNL     1       6.964  -5.310   8.583  1.00  0.00    -0.014 A 
BRANCH  42  43
ATOM     43  C   UNL     1       7.905  -4.820   9.621  1.00  0.00     0.031 A 
ATOM     44  C   UNL     1       8.009  -5.532  10.940  1.00  0.00     0.074 A 
ATOM     45  C   UNL     1       8.614  -3.696   9.401  1.00  0.00     0.049 A 
ATOM     46  N   UNL     1       8.700  -5.210  12.005  1.00  0.00    -0.248 NA
ATOM     47  C   UNL     1       7.207  -6.756  11.094  1.00  0.00     0.031 C 
ATOM     48  C   UNL     1       8.569  -2.892   8.179  1.00  0.00     0.029 A 
ATOM     49  N   UNL     1       9.503  -3.027  10.206  1.00  0.00    -0.354 N 
ATOM     50  C   UNL     1       8.399  -6.174  12.957  1.00  0.00     0.074 A 
ATOM     51  C   UNL     1       7.428  -7.067  12.362  1.00  0.00     0.031 C 
ATOM     52  C   UNL     1       9.409  -1.853   8.305  1.00  0.00     0.029 A 
ATOM     53  C   UNL     1      10.022  -1.894   9.629  1.00  0.00     0.049 A 
ATOM     54  H   UNL     1       9.745  -3.332  11.110  1.00  0.00     0.167 HD
ATOM     55  C   UNL     1       8.903  -6.315  14.206  1.00  0.00     0.037 A 
ATOM     56  C   UNL     1      10.889  -0.988  10.118  1.00  0.00     0.037 A 
ATOM     57  C   UNL     1       9.895  -5.445  14.782  1.00  0.00     0.049 A 
ATOM     58  C   UNL     1      11.436  -1.169  11.507  1.00  0.00     0.074 A 
ATOM     59  C   UNL     1      10.514  -5.539  16.016  1.00  0.00     0.029 A 
ATOM     60  N   UNL     1      10.412  -4.319  14.158  1.00  0.00    -0.354 N 
ATOM     61  N   UNL     1      11.189  -2.118  12.377  1.00  0.00    -0.248 NA
ATOM     62  C   UNL     1      12.387  -0.154  11.981  1.00  0.00     0.031 C 
ATOM     63  C   UNL     1      11.380  -4.448  16.154  1.00  0.00     0.029 A 
ATOM     64  C   UNL     1      11.332  -3.700  14.989  1.00  0.00     0.049 A 
ATOM     65  H   UNL     1      10.163  -4.007  13.258  1.00  0.00     0.167 HD
ATOM     66  C   UNL     1      11.971  -1.831  13.487  1.00  0.00     0.074 A 
ATOM     67  C   UNL     1      12.712  -0.626  13.176  1.00  0.00     0.031 C 
ATOM     68  C   UNL     1      12.068  -2.506  14.659  1.00  0.00     0.037 A 
BRANCH  55  69
ATOM     69  C   UNL     1       8.392  -7.458  15.034  1.00  0.00     0.064 A 
ATOM     70  C   UNL     1       8.720  -8.789  14.732  1.00  0.00     0.173 A 
ATOM     71  C   UNL     1       7.586  -7.220  16.157  1.00  0.00     0.173 A 
ATOM     72  F   UNL     1       9.478  -9.072  13.662  1.00  0.00    -0.203 F 
ATOM     73  C   UNL     1       8.234  -9.840  15.505  1.00  0.00     0.198 A 
ATOM     74  C   UNL     1       7.127  -8.272  16.946  1.00  0.00     0.198 A 
ATOM     75  F   UNL     1       7.248  -5.967  16.494  1.00  0.00    -0.203 F 
ATOM     76  F   UNL     1       8.518 -11.106  15.167  1.00  0.00    -0.200 F 
ATOM     77  C   UNL     1       7.443  -9.581  16.614  1.00  0.00     0.200 A 
ATOM     78  F   UNL     1       6.372  -8.020  18.024  1.00  0.00    -0.200 F 
ATOM     79  F   UNL     1       6.980 -10.594  17.360  1.00  0.00    -0.200 F 
ENDBRANCH  55  69
BRANCH  56  80
ATOM     80  C   UNL     1      11.319   0.156   9.274  1.00  0.00     0.064 A 
ATOM     81  C   UNL     1      12.623   0.219   8.765  1.00  0.00     0.173 A 
ATOM     82  C   UNL     1      10.443   1.205   8.960  1.00  0.00     0.173 A 
ATOM     83  F   UNL     1      13.503  -0.750   9.056  1.00  0.00    -0.203 F 
ATOM     84  C   UNL     1      13.041   1.297   7.987  1.00  0.00     0.198 A 
ATOM     85  C   UNL     1      10.855   2.270   8.161  1.00  0.00     0.198 A 
ATOM     86  F   UNL     1       9.184   1.190   9.421  1.00  0.00    -0.203 F 
ATOM     87  F   UNL     1      14.306   1.353   7.548  1.00  0.00    -0.200 F 
ATOM     88  C   UNL     1      12.155   2.319   7.682  1.00  0.00     0.200 A 
ATOM     89  F   UNL     1       9.992   3.250   7.858  1.00  0.00    -0.200 F 
ATOM     90  F   UNL     1      12.556   3.354   6.931  1.00  0.00    -0.200 F 
ENDBRANCH  56  80
BRANCH  68  91
ATOM     91  C   UNL     1      13.034  -1.978  15.677  1.00  0.00     0.064 A 
ATOM     92  C   UNL     1      12.767  -0.811  16.408  1.00  0.00     0.173 A 
ATOM     93  C   UNL     1      14.224  -2.669  15.950  1.00  0.00     0.173 A 
ATOM     94  F   UNL     1      11.650  -0.107  16.171  1.00  0.00    -0.203 F 
ATOM     95  C   UNL     1      13.667  -0.344  17.361  1.00  0.00     0.198 A 
ATOM     96  C   UNL     1      15.109  -2.214  16.923  1.00  0.00     0.198 A 
ATOM     97  F   UNL     1      14.522  -3.793  15.281  1.00  0.00    -0.203 F 
ATOM     98  F   UNL     1      13.413   0.796  18.018  1.00  0.00    -0.200 F 
ATOM     99  C   UNL     1      14.833  -1.049  17.623  1.00  0.00     0.200 A 
ATOM    100  F   UNL     1      16.229  -2.901  17.183  1.00  0.00    -0.200 F 
ATOM    101  F   UNL     1      15.696  -0.600  18.545  1.00  0.00    -0.200 F 
ENDBRANCH  68  91
ENDBRANCH  42  43
ENDBRANCH  34  37
ENDBRANCH  32  33
ENDBRANCH  31  32
ENDBRANCH  30  31
ENDBRANCH   3  30
TORSDOF 17
