REMARK SMILES C[C@H](O)[C@H](C)[NH2+]C1(C(=O)NCCCNC(=O)c2ccc(-c3c4nc(c(-c5c(F)c(F)c(F)c(F)c5F)c5ccc([nH]5)c(-c5c(F)c(F)c(F)c(F)c5F)c5nc(c(-c6c(F)c(F)c(F)c(F)c6F)c6ccc3[nH]6)C=C5)C=C4)cc2)CC1
REMARK SMILES IDX 11 1 10 2 8 3 9 4 7 6 80 7 81 8 6 9 4 12 5 13 2 14 1 15 3 16
REMARK SMILES IDX 12 18 13 19 14 20 15 21 16 23 17 24 18 25 79 26 19 27 78 28
REMARK SMILES IDX 20 29 21 30 22 31 72 32 23 33 77 34 71 35 73 36 24 37 76 38
REMARK SMILES IDX 70 39 69 40 25 42 57 43 37 44 56 45 38 46 41 47 55 48 74 49
REMARK SMILES IDX 39 50 40 51 54 53 75 54 42 55 26 56 27 57 35 58 28 59 29 60
REMARK SMILES IDX 33 61 36 62 30 63 31 64 34 65 32 66 58 67 59 68 67 69 60 70
REMARK SMILES IDX 61 71 65 72 68 73 62 74 63 75 66 76 64 77 43 78 44 79 52 80
REMARK SMILES IDX 45 81 46 82 50 83 53 84 47 85 48 86 51 87 49 88
REMARK H PARENT 10 5 6 10 6 11 3 17 14 22 73 41 41 52
REMARK Flexibility Score: inf
ROOT
ATOM      1  C   UNL     1      -5.675  -2.028   0.146  1.00  0.00     0.118 C 
ENDROOT
BRANCH   1   2
ATOM      2  N   UNL     1      -4.329  -1.969   0.672  1.00  0.00    -0.351 N 
ATOM      3  C   UNL     1      -3.174  -2.542   0.211  1.00  0.00     0.281 C 
ATOM      4  O   UNL     1      -2.415  -2.997   1.073  1.00  0.00    -0.268 OA
ATOM      5  H   UNL     1      -4.227  -1.432   1.491  1.00  0.00     0.163 HD
BRANCH   3   6
ATOM      6  C   UNL     1      -2.759  -2.560  -1.260  1.00  0.00     0.176 C 
ATOM      7  C   UNL     1      -3.614  -2.304  -2.485  1.00  0.00     0.086 C 
ATOM      8  C   UNL     1      -3.376  -3.711  -2.049  1.00  0.00     0.086 C 
BRANCH   6   9
ATOM      9  N   UNL     1      -1.294  -2.285  -1.460  1.00  0.00    -0.329 N 
ATOM     10  H   UNL     1      -0.774  -3.098  -1.129  1.00  0.00     0.347 HD
ATOM     11  H   UNL     1      -1.178  -2.100  -2.456  1.00  0.00     0.347 HD
BRANCH   9  12
ATOM     12  C   UNL     1      -0.769  -1.095  -0.763  1.00  0.00     0.208 C 
ATOM     13  C   UNL     1       0.743  -1.310  -0.605  1.00  0.00     0.078 C 
BRANCH  12  14
ATOM     14  C   UNL     1      -1.024   0.291  -1.434  1.00  0.00     0.169 C 
ATOM     15  C   UNL     1      -1.408   1.337  -0.392  1.00  0.00     0.045 C 
BRANCH  14  16
ATOM     16  O   UNL     1      -2.075   0.268  -2.397  1.00  0.00    -0.387 OA
ATOM     17  H   UNL     1      -2.912   0.048  -1.957  1.00  0.00     0.211 HD
ENDBRANCH  14  16
ENDBRANCH  12  14
ENDBRANCH   9  12
ENDBRANCH   6   9
ENDBRANCH   3   6
ENDBRANCH   1   2
BRANCH   1  18
ATOM     18  C   UNL     1      -6.425  -3.248   0.675  1.00  0.00     0.042 C 
BRANCH  18  19
ATOM     19  C   UNL     1      -6.603  -3.261   2.189  1.00  0.00     0.118 C 
BRANCH  19  20
ATOM     20  N   UNL     1      -7.398  -2.139   2.667  1.00  0.00    -0.352 N 
ATOM     21  C   UNL     1      -8.600  -2.125   3.324  1.00  0.00     0.251 C 
ATOM     22  H   UNL     1      -7.011  -1.251   2.491  1.00  0.00     0.163 HD
ATOM     23  O   UNL     1      -9.205  -1.060   3.462  1.00  0.00    -0.269 OA
BRANCH  21  24
ATOM     24  C   UNL     1      -9.185  -3.371   3.859  1.00  0.00     0.039 A 
ATOM     25  C   UNL     1     -10.566  -3.565   3.761  1.00  0.00     0.014 A 
ATOM     26  C   UNL     1      -8.390  -4.326   4.499  1.00  0.00     0.014 A 
ATOM     27  C   UNL     1     -11.141  -4.733   4.267  1.00  0.00     0.010 A 
ATOM     28  C   UNL     1      -8.950  -5.527   4.922  1.00  0.00     0.010 A 
ATOM     29  C   UNL     1     -10.335  -5.732   4.833  1.00  0.00    -0.014 A 
BRANCH  29  30
ATOM     30  C   UNL     1     -10.925  -6.978   5.383  1.00  0.00     0.031 A 
ATOM     31  C   UNL     1     -10.808  -7.277   6.853  1.00  0.00     0.074 A 
ATOM     32  C   UNL     1     -11.510  -7.866   4.557  1.00  0.00     0.049 A 
ATOM     33  N   UNL     1     -11.198  -8.336   7.519  1.00  0.00    -0.248 NA
ATOM     34  C   UNL     1     -10.132  -6.266   7.679  1.00  0.00     0.031 C 
ATOM     35  C   UNL     1     -11.637  -7.716   3.108  1.00  0.00     0.029 A 
ATOM     36  N   UNL     1     -12.098  -9.077   4.821  1.00  0.00    -0.354 N 
ATOM     37  C   UNL     1     -10.791  -8.126   8.830  1.00  0.00     0.074 A 
ATOM     38  C   UNL     1     -10.075  -6.870   8.856  1.00  0.00     0.031 C 
ATOM     39  C   UNL     1     -12.282  -8.783   2.611  1.00  0.00     0.029 A 
ATOM     40  C   UNL     1     -12.586  -9.705   3.702  1.00  0.00     0.049 A 
ATOM     41  H   UNL     1     -12.163  -9.460   5.725  1.00  0.00     0.167 HD
ATOM     42  C   UNL     1     -11.017  -8.898   9.921  1.00  0.00     0.037 A 
ATOM     43  C   UNL     1     -13.209 -10.892   3.573  1.00  0.00     0.037 A 
ATOM     44  C   UNL     1     -11.758 -10.131   9.896  1.00  0.00     0.049 A 
ATOM     45  C   UNL     1     -13.477 -11.718   4.801  1.00  0.00     0.074 A 
ATOM     46  C   UNL     1     -12.097 -10.958  10.952  1.00  0.00     0.029 A 
ATOM     47  N   UNL     1     -12.278 -10.714   8.749  1.00  0.00    -0.354 N 
ATOM     48  N   UNL     1     -13.150 -11.479   6.048  1.00  0.00    -0.248 NA
ATOM     49  C   UNL     1     -14.216 -12.972   4.605  1.00  0.00     0.031 C 
ATOM     50  C   UNL     1     -12.786 -12.063  10.438  1.00  0.00     0.029 A 
ATOM     51  C   UNL     1     -12.924 -11.897   9.069  1.00  0.00     0.049 A 
ATOM     52  H   UNL     1     -12.200 -10.341   7.841  1.00  0.00     0.167 HD
ATOM     53  C   UNL     1     -13.670 -12.531   6.789  1.00  0.00     0.074 A 
ATOM     54  C   UNL     1     -14.344 -13.406   5.851  1.00  0.00     0.031 C 
ATOM     55  C   UNL     1     -13.600 -12.751   8.125  1.00  0.00     0.037 A 
BRANCH  42  56
ATOM     56  C   UNL     1     -10.450  -8.424  11.229  1.00  0.00     0.064 A 
ATOM     57  C   UNL     1     -10.937  -7.275  11.873  1.00  0.00     0.173 A 
ATOM     58  C   UNL     1      -9.408  -9.129  11.851  1.00  0.00     0.173 A 
ATOM     59  F   UNL     1     -11.924  -6.557  11.316  1.00  0.00    -0.203 F 
ATOM     60  C   UNL     1     -10.374  -6.826  13.064  1.00  0.00     0.198 A 
ATOM     61  C   UNL     1      -8.871  -8.696  13.060  1.00  0.00     0.198 A 
ATOM     62  F   UNL     1      -8.909 -10.237  11.284  1.00  0.00    -0.203 F 
ATOM     63  F   UNL     1     -10.812  -5.689  13.623  1.00  0.00    -0.200 F 
ATOM     64  C   UNL     1      -9.345  -7.539  13.659  1.00  0.00     0.200 A 
ATOM     65  F   UNL     1      -7.885  -9.394  13.642  1.00  0.00    -0.200 F 
ATOM     66  F   UNL     1      -8.803  -7.105  14.806  1.00  0.00    -0.200 F 
ENDBRANCH  42  56
BRANCH  43  67
ATOM     67  C   UNL     1     -13.663 -11.342   2.232  1.00  0.00     0.064 A 
ATOM     68  C   UNL     1     -15.026 -11.361   1.905  1.00  0.00     0.173 A 
ATOM     69  C   UNL     1     -12.749 -11.742   1.247  1.00  0.00     0.173 A 
ATOM     70  F   UNL     1     -15.939 -11.004   2.820  1.00  0.00    -0.203 F 
ATOM     71  C   UNL     1     -15.459 -11.780   0.648  1.00  0.00     0.198 A 
ATOM     72  C   UNL     1     -13.181 -12.135  -0.018  1.00  0.00     0.198 A 
ATOM     73  F   UNL     1     -11.434 -11.733   1.508  1.00  0.00    -0.203 F 
ATOM     74  F   UNL     1     -16.770 -11.824   0.374  1.00  0.00    -0.200 F 
ATOM     75  C   UNL     1     -14.536 -12.159  -0.314  1.00  0.00     0.200 A 
ATOM     76  F   UNL     1     -12.286 -12.486  -0.950  1.00  0.00    -0.200 F 
ATOM     77  F   UNL     1     -14.952 -12.553  -1.526  1.00  0.00    -0.200 F 
ENDBRANCH  43  67
BRANCH  55  78
ATOM     78  C   UNL     1     -14.311 -13.959   8.661  1.00  0.00     0.064 A 
ATOM     79  C   UNL     1     -13.841 -15.260   8.428  1.00  0.00     0.173 A 
ATOM     80  C   UNL     1     -15.465 -13.809   9.446  1.00  0.00     0.173 A 
ATOM     81  F   UNL     1     -12.750 -15.458   7.672  1.00  0.00    -0.203 F 
ATOM     82  C   UNL     1     -14.517 -16.366   8.934  1.00  0.00     0.198 A 
ATOM     83  C   UNL     1     -16.120 -14.915   9.977  1.00  0.00     0.198 A 
ATOM     84  F   UNL     1     -15.952 -12.586   9.705  1.00  0.00    -0.203 F 
ATOM     85  F   UNL     1     -14.080 -17.602   8.655  1.00  0.00    -0.200 F 
ATOM     86  C   UNL     1     -15.652 -16.193   9.713  1.00  0.00     0.200 A 
ATOM     87  F   UNL     1     -17.208 -14.745  10.741  1.00  0.00    -0.200 F 
ATOM     88  F   UNL     1     -16.299 -17.260  10.204  1.00  0.00    -0.200 F 
ENDBRANCH  55  78
ENDBRANCH  29  30
ENDBRANCH  21  24
ENDBRANCH  19  20
ENDBRANCH  18  19
ENDBRANCH   1  18
TORSDOF 14
