REMARK SMILES N#Cc1ccc(C(=O)N2CCC(Oc3ccccc3)(C(=O)NCCCNC(=O)c3ccc(-c4c5nc(c(-c6c(F)c(F)c(F)c(F)c6F)c6ccc([nH]6)c(-c6c(F)c(F)c(F)c(F)c6F)c6nc(c(-c7c(F)c(F)c(F)c(F)c7F)c7ccc4[nH]7)C=C6)C=C5)cc3)CC2)cc1
REMARK SMILES IDX 24 1 23 2 22 3 20 4 21 5 12 7 7 8 8 9 9 10 10 11 93 12 11 13
REMARK SMILES IDX 92 14 6 15 3 16 4 17 95 18 5 19 94 20 2 21 1 22 13 23 14 24
REMARK SMILES IDX 15 25 19 26 16 27 18 28 17 29 25 30 26 31 27 32 28 34 29 35
REMARK SMILES IDX 30 36 91 37 31 38 90 39 32 40 33 41 34 42 84 43 35 44 89 45
REMARK SMILES IDX 83 46 85 47 36 48 88 49 82 50 81 51 37 53 69 54 49 55 68 56
REMARK SMILES IDX 50 57 53 58 67 59 86 60 51 61 52 62 66 64 87 65 54 66 38 67
REMARK SMILES IDX 39 68 47 69 40 70 41 71 45 72 48 73 42 74 43 75 46 76 44 77
REMARK SMILES IDX 70 78 71 79 79 80 72 81 73 82 77 83 80 84 74 85 75 86 78 87
REMARK SMILES IDX 76 88 55 89 56 90 64 91 57 92 58 93 62 94 65 95 59 96 60 97
REMARK SMILES IDX 63 98 61 99
REMARK H PARENT 22 6 26 33 85 52 53 63
REMARK Flexibility Score: inf
ROOT
ATOM      1  C   UNL     1       7.318  -5.273   3.118  1.00  0.00     0.042 C 
ENDROOT
BRANCH   1   2
ATOM      2  C   UNL     1       7.616  -5.400   1.630  1.00  0.00     0.118 C 
BRANCH   2   3
ATOM      3  N   UNL     1       6.395  -5.497   0.851  1.00  0.00    -0.353 N 
ATOM      4  C   UNL     1       5.853  -4.639  -0.061  1.00  0.00     0.264 C 
ATOM      5  O   UNL     1       4.814  -5.027  -0.606  1.00  0.00    -0.270 OA
ATOM      6  H   UNL     1       5.872  -6.316   1.007  1.00  0.00     0.163 HD
BRANCH   4   7
ATOM      7  C   UNL     1       6.492  -3.252  -0.365  1.00  0.00     0.190 C 
ATOM      8  C   UNL     1       3.677  -0.205   0.337  1.00  0.00     0.253 C 
ATOM      9  O   UNL     1       4.235   0.740   0.888  1.00  0.00    -0.269 OA
ATOM     10  N   UNL     1       4.300  -1.427   0.144  1.00  0.00    -0.338 N 
ATOM     11  C   UNL     1       5.010  -2.015   1.261  1.00  0.00     0.124 C 
ATOM     12  C   UNL     1       4.299  -2.147  -1.126  1.00  0.00     0.124 C 
ATOM     13  C   UNL     1       6.434  -2.342   0.875  1.00  0.00     0.080 C 
ATOM     14  C   UNL     1       5.716  -2.582  -1.528  1.00  0.00     0.080 C 
BRANCH   8  15
ATOM     15  C   UNL     1       2.216  -0.125   0.053  1.00  0.00     0.040 A 
ATOM     16  C   UNL     1      -0.578   0.085  -0.094  1.00  0.00     0.052 A 
ATOM     17  C   UNL     1       0.215   1.238  -0.108  1.00  0.00     0.020 A 
ATOM     18  C   UNL     1       0.026  -1.172  -0.017  1.00  0.00     0.020 A 
ATOM     19  C   UNL     1       1.608   1.134  -0.033  1.00  0.00     0.015 A 
ATOM     20  C   UNL     1       1.415  -1.276   0.068  1.00  0.00     0.015 A 
BRANCH  16  21
ATOM     21  C   UNL     1      -2.009   0.184  -0.118  1.00  0.00     0.099 C 
ATOM     22  N   UNL     1      -3.166   0.247  -0.127  1.00  0.00    -0.192 NA
ENDBRANCH  16  21
ENDBRANCH   8  15
BRANCH   7  23
ATOM     23  O   UNL     1       7.827  -3.640  -0.783  1.00  0.00    -0.477 OA
BRANCH  23  24
ATOM     24  C   UNL     1       8.735  -2.669  -1.080  1.00  0.00     0.120 A 
ATOM     25  C   UNL     1       9.194  -2.606  -2.393  1.00  0.00     0.046 A 
ATOM     26  C   UNL     1       9.316  -1.860  -0.105  1.00  0.00     0.046 A 
ATOM     27  C   UNL     1      10.161  -1.666  -2.749  1.00  0.00     0.004 A 
ATOM     28  C   UNL     1      10.258  -0.897  -0.464  1.00  0.00     0.004 A 
ATOM     29  C   UNL     1      10.675  -0.795  -1.789  1.00  0.00     0.000 A 
ENDBRANCH  23  24
ENDBRANCH   7  23
ENDBRANCH   4   7
ENDBRANCH   2   3
ENDBRANCH   1   2
BRANCH   1  30
ATOM     30  C   UNL     1       6.651  -6.504   3.716  1.00  0.00     0.118 C 
BRANCH  30  31
ATOM     31  N   UNL     1       7.500  -7.684   3.655  1.00  0.00    -0.352 N 
ATOM     32  C   UNL     1       8.017  -8.457   4.663  1.00  0.00     0.251 C 
ATOM     33  H   UNL     1       7.743  -7.973   2.746  1.00  0.00     0.163 HD
ATOM     34  O   UNL     1       8.887  -9.284   4.406  1.00  0.00    -0.269 OA
BRANCH  32  35
ATOM     35  C   UNL     1       7.550  -8.291   6.056  1.00  0.00     0.039 A 
ATOM     36  C   UNL     1       8.483  -8.387   7.091  1.00  0.00     0.014 A 
ATOM     37  C   UNL     1       6.201  -8.077   6.352  1.00  0.00     0.014 A 
ATOM     38  C   UNL     1       8.072  -8.214   8.413  1.00  0.00     0.010 A 
ATOM     39  C   UNL     1       5.810  -7.807   7.661  1.00  0.00     0.010 A 
ATOM     40  C   UNL     1       6.739  -7.884   8.708  1.00  0.00    -0.014 A 
BRANCH  40  41
ATOM     41  C   UNL     1       6.310  -7.619  10.105  1.00  0.00     0.031 A 
ATOM     42  C   UNL     1       5.274  -8.487  10.764  1.00  0.00     0.074 A 
ATOM     43  C   UNL     1       6.831  -6.569  10.770  1.00  0.00     0.049 A 
ATOM     44  N   UNL     1       4.760  -8.396  11.966  1.00  0.00    -0.248 NA
ATOM     45  C   UNL     1       4.722  -9.590   9.961  1.00  0.00     0.031 C 
ATOM     46  C   UNL     1       7.811  -5.627  10.226  1.00  0.00     0.029 A 
ATOM     47  N   UNL     1       6.610  -6.116  12.047  1.00  0.00    -0.354 N 
ATOM     48  C   UNL     1       3.828  -9.422  12.059  1.00  0.00     0.074 A 
ATOM     49  C   UNL     1       3.797 -10.081  10.771  1.00  0.00     0.031 C 
ATOM     50  C   UNL     1       8.134  -4.733  11.172  1.00  0.00     0.029 A 
ATOM     51  C   UNL     1       7.348  -5.003  12.371  1.00  0.00     0.049 A 
ATOM     52  H   UNL     1       5.982  -6.547  12.671  1.00  0.00     0.167 HD
ATOM     53  C   UNL     1       3.086  -9.797  13.128  1.00  0.00     0.037 A 
ATOM     54  C   UNL     1       7.379  -4.276  13.504  1.00  0.00     0.037 A 
ATOM     55  C   UNL     1       3.124  -9.139  14.409  1.00  0.00     0.049 A 
ATOM     56  C   UNL     1       6.513  -4.691  14.664  1.00  0.00     0.074 A 
ATOM     57  C   UNL     1       2.444  -9.469  15.568  1.00  0.00     0.029 A 
ATOM     58  N   UNL     1       3.874  -8.007  14.696  1.00  0.00    -0.354 N 
ATOM     59  N   UNL     1       5.689  -5.706  14.763  1.00  0.00    -0.248 NA
ATOM     60  C   UNL     1       6.587  -3.860  15.873  1.00  0.00     0.031 C 
ATOM     61  C   UNL     1       2.724  -8.496  16.532  1.00  0.00     0.029 A 
ATOM     62  C   UNL     1       3.645  -7.607  16.003  1.00  0.00     0.049 A 
ATOM     63  H   UNL     1       4.479  -7.556  14.064  1.00  0.00     0.167 HD
ATOM     64  C   UNL     1       5.176  -5.657  16.053  1.00  0.00     0.074 A 
ATOM     65  C   UNL     1       5.798  -4.523  16.704  1.00  0.00     0.031 C 
ATOM     66  C   UNL     1       4.272  -6.478  16.644  1.00  0.00     0.037 A 
BRANCH  53  67
ATOM     67  C   UNL     1       2.159 -10.970  12.957  1.00  0.00     0.064 A 
ATOM     68  C   UNL     1       2.642 -12.272  12.753  1.00  0.00     0.173 A 
ATOM     69  C   UNL     1       0.769 -10.796  13.038  1.00  0.00     0.173 A 
ATOM     70  F   UNL     1       3.962 -12.497  12.660  1.00  0.00    -0.203 F 
ATOM     71  C   UNL     1       1.770 -13.347  12.601  1.00  0.00     0.198 A 
ATOM     72  C   UNL     1      -0.100 -11.879  12.924  1.00  0.00     0.198 A 
ATOM     73  F   UNL     1       0.249  -9.575  13.239  1.00  0.00    -0.203 F 
ATOM     74  F   UNL     1       2.255 -14.570  12.347  1.00  0.00    -0.200 F 
ATOM     75  C   UNL     1       0.401 -13.151  12.695  1.00  0.00     0.200 A 
ATOM     76  F   UNL     1      -1.422 -11.689  13.035  1.00  0.00    -0.200 F 
ATOM     77  F   UNL     1      -0.438 -14.188  12.558  1.00  0.00    -0.200 F 
ENDBRANCH  53  67
BRANCH  54  78
ATOM     78  C   UNL     1       8.270  -3.089  13.605  1.00  0.00     0.064 A 
ATOM     79  C   UNL     1       9.351  -3.068  14.498  1.00  0.00     0.173 A 
ATOM     80  C   UNL     1       8.050  -1.944  12.825  1.00  0.00     0.173 A 
ATOM     81  F   UNL     1       9.595  -4.130  15.279  1.00  0.00    -0.203 F 
ATOM     82  C   UNL     1      10.155  -1.938  14.630  1.00  0.00     0.198 A 
ATOM     83  C   UNL     1       8.878  -0.828  12.930  1.00  0.00     0.198 A 
ATOM     84  F   UNL     1       7.035  -1.912  11.949  1.00  0.00    -0.203 F 
ATOM     85  F   UNL     1      11.142  -1.924  15.536  1.00  0.00    -0.200 F 
ATOM     86  C   UNL     1       9.922  -0.821  13.842  1.00  0.00     0.200 A 
ATOM     87  F   UNL     1       8.661   0.240  12.152  1.00  0.00    -0.200 F 
ATOM     88  F   UNL     1      10.697   0.265  13.968  1.00  0.00    -0.200 F 
ENDBRANCH  54  78
BRANCH  66  89
ATOM     89  C   UNL     1       3.936  -6.210  18.086  1.00  0.00     0.064 A 
ATOM     90  C   UNL     1       3.234  -5.064  18.486  1.00  0.00     0.173 A 
ATOM     91  C   UNL     1       4.303  -7.132  19.080  1.00  0.00     0.173 A 
ATOM     92  F   UNL     1       2.868  -4.144  17.581  1.00  0.00    -0.203 F 
ATOM     93  C   UNL     1       2.949  -4.830  19.830  1.00  0.00     0.198 A 
ATOM     94  C   UNL     1       3.979  -6.916  20.416  1.00  0.00     0.198 A 
ATOM     95  F   UNL     1       4.968  -8.251  18.754  1.00  0.00    -0.203 F 
ATOM     96  F   UNL     1       2.338  -3.695  20.195  1.00  0.00    -0.200 F 
ATOM     97  C   UNL     1       3.314  -5.759  20.792  1.00  0.00     0.200 A 
ATOM     98  F   UNL     1       4.314  -7.826  21.340  1.00  0.00    -0.200 F 
ATOM     99  F   UNL     1       3.034  -5.536  22.083  1.00  0.00    -0.200 F 
ENDBRANCH  66  89
ENDBRANCH  40  41
ENDBRANCH  32  35
ENDBRANCH  30  31
ENDBRANCH   1  30
TORSDOF 14
