REMARK SMILES Cc1ccc2c(=O)c3cccc(CC(=O)NCCCNC(=O)c4ccc(-c5c6nc(c(-c7c(F)c(F)c(F)c(F)c7F)c7ccc([nH]7)c(-c7c(F)c(F)c(F)c(F)c7F)c7nc(c(-c8c(F)c(F)c(F)c(F)c8F)c8ccc5[nH]8)C=C7)C=C6)cc4)c3oc2c1C
REMARK SMILES IDX 18 1 17 2 16 3 14 4 15 5 13 7 12 8 1 9 2 10 3 11 89 12 4 13
REMARK SMILES IDX 88 14 90 15 5 16 87 17 6 18 86 19 7 20 8 21 9 22 11 23 10 24
REMARK SMILES IDX 19 25 20 26 21 27 22 29 23 30 24 31 85 32 25 33 84 34 26 35
REMARK SMILES IDX 27 36 28 37 78 38 29 39 83 40 77 41 79 42 30 43 82 44 76 45
REMARK SMILES IDX 75 46 31 48 63 49 43 50 62 51 44 52 47 53 61 54 80 55 45 56
REMARK SMILES IDX 46 57 60 59 81 60 48 61 32 62 33 63 41 64 34 65 35 66 39 67
REMARK SMILES IDX 42 68 36 69 37 70 40 71 38 72 64 73 65 74 73 75 66 76 67 77
REMARK SMILES IDX 71 78 74 79 68 80 69 81 72 82 70 83 49 84 50 85 58 86 51 87
REMARK SMILES IDX 52 88 56 89 59 90 53 91 54 92 57 93 55 94
REMARK H PARENT 16 6 20 28 79 47 47 58
REMARK Flexibility Score: inf
ROOT
ATOM      1  C   UNL     1      -6.026  -5.494  -0.332  1.00  0.00     0.042 C 
ENDROOT
BRANCH   1   2
ATOM      2  C   UNL     1      -6.661  -4.654  -1.434  1.00  0.00     0.117 C 
BRANCH   2   3
ATOM      3  N   UNL     1      -6.116  -3.311  -1.481  1.00  0.00    -0.356 N 
ATOM      4  C   UNL     1      -5.182  -2.781  -2.324  1.00  0.00     0.224 C 
ATOM      5  O   UNL     1      -4.889  -1.592  -2.183  1.00  0.00    -0.275 OA
ATOM      6  H   UNL     1      -6.472  -2.689  -0.806  1.00  0.00     0.163 HD
BRANCH   4   7
ATOM      7  C   UNL     1      -4.589  -3.617  -3.444  1.00  0.00     0.139 C 
BRANCH   7   8
ATOM      8  C   UNL     1      -3.710  -4.764  -2.996  1.00  0.00     0.005 A 
ATOM      9  C   UNL     1       0.975   0.058  -0.110  1.00  0.00     0.045 C 
ATOM     10  C   UNL     1       0.533  -1.356  -0.382  1.00  0.00    -0.044 A 
ATOM     11  C   UNL     1       1.351  -2.403   0.078  1.00  0.00     0.005 A 
ATOM     12  C   UNL     1      -0.683  -1.660  -1.038  1.00  0.00    -0.005 A 
ATOM     13  C   UNL     1       0.997  -3.732  -0.132  1.00  0.00     0.016 A 
ATOM     14  C   UNL     1      -1.023  -3.012  -1.265  1.00  0.00     0.141 A 
ATOM     15  C   UNL     1      -1.629  -0.586  -1.514  1.00  0.00     0.049 C 
ATOM     16  C   UNL     1      -0.185  -4.029  -0.809  1.00  0.00     0.066 A 
ATOM     17  O   UNL     1      -2.198  -3.261  -1.941  1.00  0.00    -0.455 OA
ATOM     18  C   UNL     1      -0.563  -5.426  -1.053  1.00  0.00     0.200 A 
ATOM     19  C   UNL     1      -2.540  -4.558  -2.242  1.00  0.00     0.142 A 
ATOM     20  O   UNL     1       0.109  -6.357  -0.628  1.00  0.00    -0.288 OA
ATOM     21  C   UNL     1      -1.782  -5.657  -1.835  1.00  0.00     0.066 A 
ATOM     22  C   UNL     1      -2.162  -6.960  -2.168  1.00  0.00     0.016 A 
ATOM     23  C   UNL     1      -4.061  -6.079  -3.360  1.00  0.00     0.008 A 
ATOM     24  C   UNL     1      -3.301  -7.170  -2.938  1.00  0.00     0.001 A 
ENDBRANCH   7   8
ENDBRANCH   4   7
ENDBRANCH   2   3
ENDBRANCH   1   2
BRANCH   1  25
ATOM     25  C   UNL     1      -6.346  -5.011   1.078  1.00  0.00     0.118 C 
BRANCH  25  26
ATOM     26  N   UNL     1      -7.757  -5.143   1.422  1.00  0.00    -0.352 N 
ATOM     27  C   UNL     1      -8.365  -5.811   2.458  1.00  0.00     0.251 C 
ATOM     28  H   UNL     1      -8.375  -4.678   0.813  1.00  0.00     0.163 HD
ATOM     29  O   UNL     1      -9.588  -5.921   2.472  1.00  0.00    -0.269 OA
BRANCH  27  30
ATOM     30  C   UNL     1      -7.562  -6.423   3.540  1.00  0.00     0.039 A 
ATOM     31  C   UNL     1      -6.442  -5.777   4.063  1.00  0.00     0.014 A 
ATOM     32  C   UNL     1      -7.946  -7.668   4.051  1.00  0.00     0.014 A 
ATOM     33  C   UNL     1      -5.607  -6.449   4.948  1.00  0.00     0.010 A 
ATOM     34  C   UNL     1      -7.161  -8.299   5.022  1.00  0.00     0.010 A 
ATOM     35  C   UNL     1      -5.954  -7.718   5.440  1.00  0.00    -0.014 A 
BRANCH  35  36
ATOM     36  C   UNL     1      -5.036  -8.401   6.390  1.00  0.00     0.031 A 
ATOM     37  C   UNL     1      -4.360  -9.694   6.022  1.00  0.00     0.074 A 
ATOM     38  C   UNL     1      -4.758  -7.811   7.568  1.00  0.00     0.049 A 
ATOM     39  N   UNL     1      -3.469 -10.379   6.695  1.00  0.00    -0.248 NA
ATOM     40  C   UNL     1      -4.735 -10.304   4.738  1.00  0.00     0.031 C 
ATOM     41  C   UNL     1      -5.357  -6.562   8.040  1.00  0.00     0.029 A 
ATOM     42  N   UNL     1      -3.882  -8.158   8.566  1.00  0.00    -0.354 N 
ATOM     43  C   UNL     1      -3.187 -11.499   5.925  1.00  0.00     0.074 A 
ATOM     44  C   UNL     1      -4.034 -11.428   4.754  1.00  0.00     0.031 C 
ATOM     45  C   UNL     1      -4.782  -6.210   9.198  1.00  0.00     0.029 A 
ATOM     46  C   UNL     1      -3.821  -7.239   9.584  1.00  0.00     0.049 A 
ATOM     47  H   UNL     1      -3.349  -8.985   8.552  1.00  0.00     0.167 HD
ATOM     48  C   UNL     1      -2.290 -12.486   6.163  1.00  0.00     0.037 A 
ATOM     49  C   UNL     1      -3.077  -7.222  10.707  1.00  0.00     0.037 A 
ATOM     50  C   UNL     1      -1.435 -12.541   7.321  1.00  0.00     0.049 A 
ATOM     51  C   UNL     1      -2.117  -8.346  10.968  1.00  0.00     0.074 A 
ATOM     52  C   UNL     1      -0.465 -13.479   7.631  1.00  0.00     0.029 A 
ATOM     53  N   UNL     1      -1.448 -11.623   8.361  1.00  0.00    -0.354 N 
ATOM     54  N   UNL     1      -1.834  -9.380  10.214  1.00  0.00    -0.248 NA
ATOM     55  C   UNL     1      -1.379  -8.307  12.238  1.00  0.00     0.031 C 
ATOM     56  C   UNL     1       0.065 -13.163   8.885  1.00  0.00     0.029 A 
ATOM     57  C   UNL     1      -0.530 -11.993   9.331  1.00  0.00     0.049 A 
ATOM     58  H   UNL     1      -2.026 -10.826   8.404  1.00  0.00     0.167 HD
ATOM     59  C   UNL     1      -0.879 -10.109  10.908  1.00  0.00     0.074 A 
ATOM     60  C   UNL     1      -0.617  -9.389  12.138  1.00  0.00     0.031 C 
ATOM     61  C   UNL     1      -0.279 -11.271  10.555  1.00  0.00     0.037 A 
BRANCH  48  62
ATOM     62  C   UNL     1      -2.189 -13.599   5.159  1.00  0.00     0.064 A 
ATOM     63  C   UNL     1      -1.647 -13.395   3.881  1.00  0.00     0.173 A 
ATOM     64  C   UNL     1      -2.591 -14.901   5.497  1.00  0.00     0.173 A 
ATOM     65  F   UNL     1      -1.255 -12.169   3.502  1.00  0.00    -0.203 F 
ATOM     66  C   UNL     1      -1.537 -14.444   2.971  1.00  0.00     0.198 A 
ATOM     67  C   UNL     1      -2.450 -15.954   4.596  1.00  0.00     0.198 A 
ATOM     68  F   UNL     1      -3.108 -15.156   6.708  1.00  0.00    -0.203 F 
ATOM     69  F   UNL     1      -1.060 -14.214   1.739  1.00  0.00    -0.200 F 
ATOM     70  C   UNL     1      -1.931 -15.723   3.332  1.00  0.00     0.200 A 
ATOM     71  F   UNL     1      -2.816 -17.193   4.953  1.00  0.00    -0.200 F 
ATOM     72  F   UNL     1      -1.815 -16.734   2.459  1.00  0.00    -0.200 F 
ENDBRANCH  48  62
BRANCH  49  73
ATOM     73  C   UNL     1      -3.211  -6.076  11.643  1.00  0.00     0.064 A 
ATOM     74  C   UNL     1      -2.186  -5.131  11.774  1.00  0.00     0.173 A 
ATOM     75  C   UNL     1      -4.394  -5.863  12.367  1.00  0.00     0.173 A 
ATOM     76  F   UNL     1      -1.029  -5.301  11.116  1.00  0.00    -0.203 F 
ATOM     77  C   UNL     1      -2.342  -4.010  12.586  1.00  0.00     0.198 A 
ATOM     78  C   UNL     1      -4.560  -4.727  13.155  1.00  0.00     0.198 A 
ATOM     79  F   UNL     1      -5.407  -6.736  12.270  1.00  0.00    -0.203 F 
ATOM     80  F   UNL     1      -1.341  -3.127  12.706  1.00  0.00    -0.200 F 
ATOM     81  C   UNL     1      -3.534  -3.802  13.265  1.00  0.00     0.200 A 
ATOM     82  F   UNL     1      -5.721  -4.520  13.792  1.00  0.00    -0.200 F 
ATOM     83  F   UNL     1      -3.694  -2.708  14.023  1.00  0.00    -0.200 F 
ENDBRANCH  49  73
BRANCH  61  84
ATOM     84  C   UNL     1       0.731 -11.851  11.501  1.00  0.00     0.064 A 
ATOM     85  C   UNL     1       0.341 -12.462  12.701  1.00  0.00     0.173 A 
ATOM     86  C   UNL     1       2.092 -11.881  11.159  1.00  0.00     0.173 A 
ATOM     87  F   UNL     1      -0.946 -12.449  13.079  1.00  0.00    -0.203 F 
ATOM     88  C   UNL     1       1.278 -13.077  13.528  1.00  0.00     0.198 A 
ATOM     89  C   UNL     1       3.021 -12.521  11.974  1.00  0.00     0.198 A 
ATOM     90  F   UNL     1       2.515 -11.316  10.018  1.00  0.00    -0.203 F 
ATOM     91  F   UNL     1       0.887 -13.633  14.683  1.00  0.00    -0.200 F 
ATOM     92  C   UNL     1       2.614 -13.118  13.157  1.00  0.00     0.200 A 
ATOM     93  F   UNL     1       4.309 -12.574  11.606  1.00  0.00    -0.200 F 
ATOM     94  F   UNL     1       3.510 -13.732  13.942  1.00  0.00    -0.200 F 
ENDBRANCH  61  84
ENDBRANCH  35  36
ENDBRANCH  27  30
ENDBRANCH  25  26
ENDBRANCH   1  25
TORSDOF 11
