REMARK SMILES N#CCSCC(=O)N1Cc2ccccc2C[C@@H]1C(=O)NCCCNC(=O)c1ccc(-c2c3nc(c(-c4c(F)c(F)c(F)c(F)c4F)c4ccc([nH]4)c(-c4c(F)c(F)c(F)c(F)c4F)c4nc(c(-c5c(F)c(F)c(F)c(F)c5F)c5ccc2[nH]5)C=C4)C=C3)cc1
REMARK SMILES IDX 18 1 19 2 20 3 17 5 8 6 9 7 10 8 16 9 11 10 15 11 12 12
REMARK SMILES IDX 14 13 13 14 6 15 7 16 5 17 4 18 3 19 2 20 1 21 21 22 22 23
REMARK SMILES IDX 23 24 24 25 25 26 26 28 27 29 28 30 89 31 29 32 88 33 30 34
REMARK SMILES IDX 31 35 32 36 82 37 33 38 87 39 81 40 83 41 34 42 86 43 80 44
REMARK SMILES IDX 79 45 35 47 67 48 47 49 66 50 48 51 51 52 65 53 84 54 49 55
REMARK SMILES IDX 50 56 64 58 85 59 52 60 36 61 37 62 45 63 38 64 39 65 43 66
REMARK SMILES IDX 46 67 40 68 41 69 44 70 42 71 68 72 69 73 77 74 70 75 71 76
REMARK SMILES IDX 75 77 78 78 72 79 73 80 76 81 74 82 53 83 54 84 62 85 55 86
REMARK SMILES IDX 56 87 60 88 63 89 57 90 58 91 61 92 59 93
REMARK H PARENT 20 4 24 27 83 46 51 57
REMARK Flexibility Score: inf
ROOT
ATOM      1  C   UNL     1       6.963  -0.961   0.925  1.00  0.00     0.243 C 
ATOM      2  O   UNL     1       7.365   0.103   0.434  1.00  0.00    -0.273 OA
ATOM      3  N   UNL     1       6.584  -0.879   2.229  1.00  0.00    -0.354 N 
ATOM      4  H   UNL     1       6.469   0.045   2.547  1.00  0.00     0.163 HD
ENDROOT
BRANCH   1   5
ATOM      5  C   UNL     1       7.014  -2.262   0.067  1.00  0.00     0.179 C 
ATOM      6  N   UNL     1       6.001  -3.271   0.412  1.00  0.00    -0.325 N 
ATOM      7  C   UNL     1       6.433  -4.556   0.984  1.00  0.00     0.156 C 
ATOM      8  C   UNL     1       7.800  -4.550   1.622  1.00  0.00    -0.025 A 
ATOM      9  C   UNL     1       8.458  -2.777   0.001  1.00  0.00     0.071 C 
ATOM     10  C   UNL     1       8.109  -5.436   2.663  1.00  0.00     0.006 A 
ATOM     11  C   UNL     1       8.792  -3.681   1.149  1.00  0.00    -0.040 A 
ATOM     12  C   UNL     1       9.378  -5.425   3.246  1.00  0.00     0.000 A 
ATOM     13  C   UNL     1      10.069  -3.688   1.721  1.00  0.00     0.004 A 
ATOM     14  C   UNL     1      10.355  -4.549   2.779  1.00  0.00     0.000 A 
BRANCH   6  15
ATOM     15  C   UNL     1       4.638  -3.095   0.201  1.00  0.00     0.233 C 
ATOM     16  O   UNL     1       3.821  -3.613   0.970  1.00  0.00    -0.274 OA
BRANCH  15  17
ATOM     17  C   UNL     1       4.122  -2.459  -1.090  1.00  0.00     0.170 C 
BRANCH  17  18
ATOM     18  S   UNL     1       4.490  -0.719  -1.425  1.00  0.00    -0.137 SA
BRANCH  18  19
ATOM     19  C   UNL     1       3.767   0.096   0.023  1.00  0.00     0.189 C 
BRANCH  19  20
ATOM     20  C   UNL     1       2.247   0.096   0.023  1.00  0.00     0.073 C 
ATOM     21  N   UNL     1       0.986   0.096   0.023  1.00  0.00    -0.197 NA
ENDBRANCH  19  20
ENDBRANCH  18  19
ENDBRANCH  17  18
ENDBRANCH  15  17
ENDBRANCH   6  15
ENDBRANCH   1   5
BRANCH   3  22
ATOM     22  C   UNL     1       6.312  -1.881   3.251  1.00  0.00     0.117 C 
BRANCH  22  23
ATOM     23  C   UNL     1       7.560  -2.160   4.085  1.00  0.00     0.042 C 
BRANCH  23  24
ATOM     24  C   UNL     1       7.744  -1.194   5.249  1.00  0.00     0.118 C 
BRANCH  24  25
ATOM     25  N   UNL     1       7.002  -1.623   6.425  1.00  0.00    -0.352 N 
ATOM     26  C   UNL     1       7.441  -2.127   7.626  1.00  0.00     0.251 C 
ATOM     27  H   UNL     1       6.024  -1.538   6.348  1.00  0.00     0.163 HD
ATOM     28  O   UNL     1       6.630  -2.667   8.374  1.00  0.00    -0.269 OA
BRANCH  26  29
ATOM     29  C   UNL     1       8.864  -2.039   8.044  1.00  0.00     0.039 A 
ATOM     30  C   UNL     1       9.394  -3.069   8.834  1.00  0.00     0.014 A 
ATOM     31  C   UNL     1       9.656  -0.925   7.760  1.00  0.00     0.014 A 
ATOM     32  C   UNL     1      10.711  -2.998   9.301  1.00  0.00     0.010 A 
ATOM     33  C   UNL     1      10.995  -0.891   8.157  1.00  0.00     0.010 A 
ATOM     34  C   UNL     1      11.533  -1.916   8.949  1.00  0.00    -0.014 A 
BRANCH  34  35
ATOM     35  C   UNL     1      12.934  -1.807   9.440  1.00  0.00     0.031 A 
ATOM     36  C   UNL     1      13.328  -0.661  10.337  1.00  0.00     0.074 A 
ATOM     37  C   UNL     1      13.866  -2.694   9.043  1.00  0.00     0.049 A 
ATOM     38  N   UNL     1      14.517  -0.307  10.760  1.00  0.00    -0.248 NA
ATOM     39  C   UNL     1      12.243   0.219  10.800  1.00  0.00     0.031 C 
ATOM     40  C   UNL     1      13.628  -3.835   8.158  1.00  0.00     0.029 A 
ATOM     41  N   UNL     1      15.209  -2.766   9.322  1.00  0.00    -0.354 N 
ATOM     42  C   UNL     1      14.324   0.847  11.509  1.00  0.00     0.074 A 
ATOM     43  C   UNL     1      12.912   1.157  11.454  1.00  0.00     0.031 C 
ATOM     44  C   UNL     1      14.782  -4.498   7.976  1.00  0.00     0.029 A 
ATOM     45  C   UNL     1      15.848  -3.810   8.698  1.00  0.00     0.049 A 
ATOM     46  H   UNL     1      15.671  -2.128   9.914  1.00  0.00     0.167 HD
ATOM     47  C   UNL     1      15.237   1.573  12.199  1.00  0.00     0.037 A 
ATOM     48  C   UNL     1      17.148  -4.163   8.697  1.00  0.00     0.037 A 
ATOM     49  C   UNL     1      16.635   1.243  12.296  1.00  0.00     0.049 A 
ATOM     50  C   UNL     1      18.137  -3.351   9.488  1.00  0.00     0.074 A 
ATOM     51  C   UNL     1      17.631   1.902  12.995  1.00  0.00     0.029 A 
ATOM     52  N   UNL     1      17.229   0.149  11.687  1.00  0.00    -0.354 N 
ATOM     53  N   UNL     1      17.937  -2.274  10.206  1.00  0.00    -0.248 NA
ATOM     54  C   UNL     1      19.535  -3.809   9.473  1.00  0.00     0.031 C 
ATOM     55  C   UNL     1      18.834   1.217  12.794  1.00  0.00     0.029 A 
ATOM     56  C   UNL     1      18.579   0.114  11.997  1.00  0.00     0.049 A 
ATOM     57  H   UNL     1      16.762  -0.505  11.119  1.00  0.00     0.167 HD
ATOM     58  C   UNL     1      19.172  -1.941  10.747  1.00  0.00     0.074 A 
ATOM     59  C   UNL     1      20.114  -2.939  10.287  1.00  0.00     0.031 C 
ATOM     60  C   UNL     1      19.497  -0.900  11.550  1.00  0.00     0.037 A 
BRANCH  47  61
ATOM     61  C   UNL     1      14.753   2.794  12.922  1.00  0.00     0.064 A 
ATOM     62  C   UNL     1      13.989   2.694  14.094  1.00  0.00     0.173 A 
ATOM     63  C   UNL     1      15.101   4.076  12.471  1.00  0.00     0.173 A 
ATOM     64  F   UNL     1      13.620   1.491  14.558  1.00  0.00    -0.203 F 
ATOM     65  C   UNL     1      13.574   3.834  14.778  1.00  0.00     0.198 A 
ATOM     66  C   UNL     1      14.707   5.213  13.172  1.00  0.00     0.198 A 
ATOM     67  F   UNL     1      15.835   4.226  11.359  1.00  0.00    -0.203 F 
ATOM     68  F   UNL     1      12.814   3.715  15.875  1.00  0.00    -0.200 F 
ATOM     69  C   UNL     1      13.940   5.091  14.321  1.00  0.00     0.200 A 
ATOM     70  F   UNL     1      15.070   6.427  12.736  1.00  0.00    -0.200 F 
ATOM     71  F   UNL     1      13.549   6.187  14.987  1.00  0.00    -0.200 F 
ENDBRANCH  47  61
BRANCH  48  72
ATOM     72  C   UNL     1      17.595  -5.353   7.927  1.00  0.00     0.064 A 
ATOM     73  C   UNL     1      18.020  -6.516   8.584  1.00  0.00     0.173 A 
ATOM     74  C   UNL     1      17.632  -5.343   6.526  1.00  0.00     0.173 A 
ATOM     75  F   UNL     1      18.024  -6.563   9.924  1.00  0.00    -0.203 F 
ATOM     76  C   UNL     1      18.488  -7.616   7.869  1.00  0.00     0.198 A 
ATOM     77  C   UNL     1      18.075  -6.454   5.811  1.00  0.00     0.198 A 
ATOM     78  F   UNL     1      17.233  -4.255   5.850  1.00  0.00    -0.203 F 
ATOM     79  F   UNL     1      18.935  -8.697   8.523  1.00  0.00    -0.200 F 
ATOM     80  C   UNL     1      18.512  -7.586   6.483  1.00  0.00     0.200 A 
ATOM     81  F   UNL     1      18.086  -6.425   4.471  1.00  0.00    -0.200 F 
ATOM     82  F   UNL     1      18.964  -8.643   5.795  1.00  0.00    -0.200 F 
ENDBRANCH  48  72
BRANCH  60  83
ATOM     83  C   UNL     1      20.918  -0.809  12.018  1.00  0.00     0.064 A 
ATOM     84  C   UNL     1      21.948  -0.394  11.162  1.00  0.00     0.173 A 
ATOM     85  C   UNL     1      21.245  -1.104  13.350  1.00  0.00     0.173 A 
ATOM     86  F   UNL     1      21.685  -0.116   9.876  1.00  0.00    -0.203 F 
ATOM     87  C   UNL     1      23.259  -0.296  11.617  1.00  0.00     0.198 A 
ATOM     88  C   UNL     1      22.554  -0.983  13.808  1.00  0.00     0.198 A 
ATOM     89  F   UNL     1      20.294  -1.500  14.208  1.00  0.00    -0.203 F 
ATOM     90  F   UNL     1      24.235   0.065  10.773  1.00  0.00    -0.200 F 
ATOM     91  C   UNL     1      23.560  -0.585  12.941  1.00  0.00     0.200 A 
ATOM     92  F   UNL     1      22.842  -1.253  15.089  1.00  0.00    -0.200 F 
ATOM     93  F   UNL     1      24.823  -0.486  13.379  1.00  0.00    -0.200 F 
ENDBRANCH  60  83
ENDBRANCH  34  35
ENDBRANCH  26  29
ENDBRANCH  24  25
ENDBRANCH  23  24
ENDBRANCH  22  23
ENDBRANCH   3  22
TORSDOF 15
