REMARK SMILES CCC(CC)Oc1cc(C(=O)NCCCNC(=O)c2ccc(-c3c4nc(c(-c5c(F)c(F)c(F)c(F)c5F)c5ccc([nH]5)c(-c5c(F)c(F)c(F)c(F)c5F)c5nc(c(-c6c(F)c(F)c(F)c(F)c6F)c6ccc3[nH]6)C=C5)C=C4)cc2)c(N)cc1OC
REMARK SMILES IDX 13 1 12 2 10 3 11 4 9 6 7 7 8 8 85 9 84 10 82 11 6 12 3 13
REMARK SMILES IDX 2 14 1 15 4 16 5 17 86 18 87 19 83 20 14 23 15 24 16 25
REMARK SMILES IDX 17 26 18 28 19 29 20 30 81 31 21 32 80 33 22 34 23 35 24 36
REMARK SMILES IDX 74 37 25 38 79 39 73 40 75 41 26 42 78 43 72 44 71 45 27 47
REMARK SMILES IDX 59 48 39 49 58 50 40 51 43 52 57 53 76 54 41 55 42 56 56 58
REMARK SMILES IDX 77 59 44 60 28 61 29 62 37 63 30 64 31 65 35 66 38 67 32 68
REMARK SMILES IDX 33 69 36 70 34 71 60 72 61 73 69 74 62 75 63 76 67 77 70 78
REMARK SMILES IDX 64 79 65 80 68 81 66 82 45 83 46 84 54 85 47 86 48 87 52 88
REMARK SMILES IDX 55 89 49 90 50 91 53 92 51 93
REMARK H PARENT 12 5 83 21 83 22 16 27 75 46 43 57
REMARK Flexibility Score: inf
ROOT
ATOM      1  C   UNL     1      -6.064  -2.142  -2.847  1.00  0.00     0.118 C 
ENDROOT
BRANCH   1   2
ATOM      2  N   UNL     1      -5.300  -0.910  -2.765  1.00  0.00    -0.352 N 
ATOM      3  C   UNL     1      -3.993  -0.655  -3.113  1.00  0.00     0.253 C 
ATOM      4  O   UNL     1      -3.600   0.510  -3.023  1.00  0.00    -0.269 OA
ATOM      5  H   UNL     1      -5.793  -0.138  -2.405  1.00  0.00     0.163 HD
BRANCH   3   6
ATOM      6  C   UNL     1      -3.021  -1.731  -3.468  1.00  0.00     0.066 A 
ATOM      7  C   UNL     1      -0.748  -2.547  -3.020  1.00  0.00     0.162 A 
ATOM      8  C   UNL     1      -1.724  -1.550  -2.948  1.00  0.00     0.066 A 
ATOM      9  C   UNL     1      -1.075  -3.752  -3.652  1.00  0.00     0.162 A 
ATOM     10  C   UNL     1      -2.339  -3.893  -4.246  1.00  0.00     0.076 A 
ATOM     11  C   UNL     1      -3.283  -2.859  -4.255  1.00  0.00     0.048 A 
BRANCH   7  12
ATOM     12  O   UNL     1       0.525  -2.321  -2.593  1.00  0.00    -0.487 OA
BRANCH  12  13
ATOM     13  C   UNL     1       0.814  -1.925  -1.238  1.00  0.00     0.173 C 
BRANCH  13  14
ATOM     14  C   UNL     1       0.530  -0.444  -0.934  1.00  0.00     0.042 C 
ATOM     15  C   UNL     1       1.269   0.081   0.289  1.00  0.00     0.008 C 
ENDBRANCH  13  14
BRANCH  13  16
ATOM     16  C   UNL     1       0.362  -2.939  -0.169  1.00  0.00     0.042 C 
ATOM     17  C   UNL     1      -1.123  -2.972   0.156  1.00  0.00     0.008 C 
ENDBRANCH  13  16
ENDBRANCH  12  13
ENDBRANCH   7  12
BRANCH   9  18
ATOM     18  O   UNL     1      -0.318  -4.885  -3.780  1.00  0.00    -0.493 OA
ATOM     19  C   UNL     1       1.089  -4.775  -3.644  1.00  0.00     0.278 C 
ENDBRANCH   9  18
BRANCH  11  20
ATOM     20  N   UNL     1      -4.434  -3.035  -5.016  1.00  0.00    -0.398 N 
ATOM     21  H   UNL     1      -5.118  -2.327  -5.044  1.00  0.00     0.156 HD
ATOM     22  H   UNL     1      -4.564  -3.866  -5.526  1.00  0.00     0.156 HD
ENDBRANCH  11  20
ENDBRANCH   3   6
ENDBRANCH   1   2
BRANCH   1  23
ATOM     23  C   UNL     1      -7.150  -2.305  -1.802  1.00  0.00     0.042 C 
BRANCH  23  24
ATOM     24  C   UNL     1      -8.169  -1.181  -1.741  1.00  0.00     0.118 C 
BRANCH  24  25
ATOM     25  N   UNL     1      -8.940  -1.000  -2.966  1.00  0.00    -0.352 N 
ATOM     26  C   UNL     1     -10.257  -1.259  -3.265  1.00  0.00     0.251 C 
ATOM     27  H   UNL     1      -8.423  -0.624  -3.714  1.00  0.00     0.163 HD
ATOM     28  O   UNL     1     -10.651  -1.118  -4.422  1.00  0.00    -0.269 OA
BRANCH  26  29
ATOM     29  C   UNL     1     -11.200  -1.745  -2.232  1.00  0.00     0.039 A 
ATOM     30  C   UNL     1     -12.172  -2.688  -2.583  1.00  0.00     0.014 A 
ATOM     31  C   UNL     1     -11.146  -1.277  -0.921  1.00  0.00     0.014 A 
ATOM     32  C   UNL     1     -13.020  -3.215  -1.604  1.00  0.00     0.010 A 
ATOM     33  C   UNL     1     -11.883  -1.905   0.074  1.00  0.00     0.010 A 
ATOM     34  C   UNL     1     -12.851  -2.863  -0.256  1.00  0.00    -0.014 A 
BRANCH  34  35
ATOM     35  C   UNL     1     -13.701  -3.437   0.821  1.00  0.00     0.031 A 
ATOM     36  C   UNL     1     -14.520  -2.523   1.698  1.00  0.00     0.074 A 
ATOM     37  C   UNL     1     -13.687  -4.763   1.059  1.00  0.00     0.049 A 
ATOM     38  N   UNL     1     -15.261  -2.812   2.739  1.00  0.00    -0.248 NA
ATOM     39  C   UNL     1     -14.464  -1.084   1.390  1.00  0.00     0.031 C 
ATOM     40  C   UNL     1     -12.894  -5.750   0.323  1.00  0.00     0.029 A 
ATOM     41  N   UNL     1     -14.361  -5.512   1.992  1.00  0.00    -0.354 N 
ATOM     42  C   UNL     1     -15.732  -1.595   3.216  1.00  0.00     0.074 A 
ATOM     43  C   UNL     1     -15.129  -0.561   2.407  1.00  0.00     0.031 C 
ATOM     44  C   UNL     1     -13.161  -6.975   0.802  1.00  0.00     0.029 A 
ATOM     45  C   UNL     1     -14.108  -6.859   1.906  1.00  0.00     0.049 A 
ATOM     46  H   UNL     1     -14.968  -5.119   2.661  1.00  0.00     0.167 HD
ATOM     47  C   UNL     1     -16.619  -1.358   4.212  1.00  0.00     0.037 A 
ATOM     48  C   UNL     1     -14.590  -7.884   2.635  1.00  0.00     0.037 A 
ATOM     49  C   UNL     1     -17.246  -2.392   4.990  1.00  0.00     0.049 A 
ATOM     50  C   UNL     1     -15.574  -7.597   3.738  1.00  0.00     0.074 A 
ATOM     51  C   UNL     1     -18.200  -2.268   5.984  1.00  0.00     0.029 A 
ATOM     52  N   UNL     1     -16.979  -3.747   4.857  1.00  0.00    -0.354 N 
ATOM     53  N   UNL     1     -16.067  -6.448   4.133  1.00  0.00    -0.248 NA
ATOM     54  C   UNL     1     -16.076  -8.754   4.491  1.00  0.00     0.031 C 
ATOM     55  C   UNL     1     -18.474  -3.544   6.487  1.00  0.00     0.029 A 
ATOM     56  C   UNL     1     -17.737  -4.469   5.765  1.00  0.00     0.049 A 
ATOM     57  H   UNL     1     -16.345  -4.138   4.214  1.00  0.00     0.167 HD
ATOM     58  C   UNL     1     -16.964  -6.746   5.150  1.00  0.00     0.074 A 
ATOM     59  C   UNL     1     -16.956  -8.186   5.302  1.00  0.00     0.031 C 
ATOM     60  C   UNL     1     -17.728  -5.905   5.891  1.00  0.00     0.037 A 
BRANCH  47  61
ATOM     61  C   UNL     1     -16.966   0.076   4.502  1.00  0.00     0.064 A 
ATOM     62  C   UNL     1     -17.669   0.868   3.579  1.00  0.00     0.173 A 
ATOM     63  C   UNL     1     -16.597   0.667   5.720  1.00  0.00     0.173 A 
ATOM     64  F   UNL     1     -18.035   0.358   2.393  1.00  0.00    -0.203 F 
ATOM     65  C   UNL     1     -17.949   2.206   3.845  1.00  0.00     0.198 A 
ATOM     66  C   UNL     1     -16.913   1.995   5.999  1.00  0.00     0.198 A 
ATOM     67  F   UNL     1     -15.930  -0.042   6.643  1.00  0.00    -0.203 F 
ATOM     68  F   UNL     1     -18.558   2.958   2.918  1.00  0.00    -0.200 F 
ATOM     69  C   UNL     1     -17.577   2.766   5.057  1.00  0.00     0.200 A 
ATOM     70  F   UNL     1     -16.567   2.531   7.177  1.00  0.00    -0.200 F 
ATOM     71  F   UNL     1     -17.849   4.053   5.313  1.00  0.00    -0.200 F 
ENDBRANCH  47  61
BRANCH  48  72
ATOM     72  C   UNL     1     -14.192  -9.281   2.315  1.00  0.00     0.064 A 
ATOM     73  C   UNL     1     -15.122 -10.187   1.784  1.00  0.00     0.173 A 
ATOM     74  C   UNL     1     -12.888  -9.745   2.541  1.00  0.00     0.173 A 
ATOM     75  F   UNL     1     -16.387  -9.797   1.569  1.00  0.00    -0.203 F 
ATOM     76  C   UNL     1     -14.771 -11.508   1.516  1.00  0.00     0.198 A 
ATOM     77  C   UNL     1     -12.529 -11.059   2.242  1.00  0.00     0.198 A 
ATOM     78  F   UNL     1     -11.958  -8.919   3.041  1.00  0.00    -0.203 F 
ATOM     79  F   UNL     1     -15.694 -12.365   1.058  1.00  0.00    -0.200 F 
ATOM     80  C   UNL     1     -13.473 -11.942   1.740  1.00  0.00     0.200 A 
ATOM     81  F   UNL     1     -11.270 -11.470   2.446  1.00  0.00    -0.200 F 
ATOM     82  F   UNL     1     -13.135 -13.212   1.480  1.00  0.00    -0.200 F 
ENDBRANCH  48  72
BRANCH  60  83
ATOM     83  C   UNL     1     -18.659  -6.524   6.893  1.00  0.00     0.064 A 
ATOM     84  C   UNL     1     -18.188  -7.148   8.058  1.00  0.00     0.173 A 
ATOM     85  C   UNL     1     -20.048  -6.462   6.698  1.00  0.00     0.173 A 
ATOM     86  F   UNL     1     -16.869  -7.245   8.286  1.00  0.00    -0.203 F 
ATOM     87  C   UNL     1     -19.070  -7.719   8.970  1.00  0.00     0.198 A 
ATOM     88  C   UNL     1     -20.928  -7.002   7.630  1.00  0.00     0.198 A 
ATOM     89  F   UNL     1     -20.552  -5.868   5.606  1.00  0.00    -0.203 F 
ATOM     90  F   UNL     1     -18.595  -8.363  10.046  1.00  0.00    -0.200 F 
ATOM     91  C   UNL     1     -20.439  -7.639   8.760  1.00  0.00     0.200 A 
ATOM     92  F   UNL     1     -22.251  -6.908   7.434  1.00  0.00    -0.200 F 
ATOM     93  F   UNL     1     -21.287  -8.185   9.643  1.00  0.00    -0.200 F 
ENDBRANCH  60  83
ENDBRANCH  34  35
ENDBRANCH  26  29
ENDBRANCH  24  25
ENDBRANCH  23  24
ENDBRANCH   1  23
TORSDOF 16
