REMARK SMILES C#CCN(CC(=O)NCCCNC(=O)c1ccc(-c2c3nc(c(-c4c(F)c(F)c(F)c(F)c4F)c4ccc([nH]4)c(-c4c(F)c(F)c(F)c(F)c4F)c4nc(c(-c5c(F)c(F)c(F)c(F)c5F)c5ccc2[nH]5)C=C4)C=C3)cc1)C(=O)c1c[nH]c(=O)[nH]1
REMARK SMILES IDX 9 1 8 2 6 3 7 4 5 6 4 7 3 8 2 9 1 10 78 11 79 12 80 13 81 14
REMARK SMILES IDX 85 15 82 16 83 17 84 20 10 21 11 22 12 23 13 24 14 26 15 27
REMARK SMILES IDX 16 28 77 29 17 30 76 31 18 32 19 33 20 34 70 35 21 36 75 37
REMARK SMILES IDX 69 38 71 39 22 40 74 41 68 42 67 43 23 45 55 46 35 47 54 48
REMARK SMILES IDX 36 49 39 50 53 51 72 52 37 53 38 54 52 56 73 57 40 58 24 59
REMARK SMILES IDX 25 60 33 61 26 62 27 63 31 64 34 65 28 66 29 67 32 68 30 69
REMARK SMILES IDX 56 70 57 71 65 72 58 73 59 74 63 75 66 76 60 77 61 78 64 79
REMARK SMILES IDX 62 80 41 81 42 82 50 83 43 84 44 85 48 86 51 87 45 88 46 89
REMARK SMILES IDX 49 90 47 91
REMARK H PARENT 8 5 85 18 82 19 12 25 71 44 39 55
REMARK Flexibility Score: inf
ROOT
ATOM      1  C   UNL     1      -5.185  -0.006   0.247  1.00  0.00     0.117 C 
ENDROOT
BRANCH   1   2
ATOM      2  N   UNL     1      -5.439   0.216  -1.160  1.00  0.00    -0.354 N 
ATOM      3  C   UNL     1      -4.629   0.010  -2.236  1.00  0.00     0.239 C 
ATOM      4  O   UNL     1      -5.177  -0.054  -3.340  1.00  0.00    -0.273 OA
ATOM      5  H   UNL     1      -6.334   0.568  -1.372  1.00  0.00     0.163 HD
BRANCH   3   6
ATOM      6  C   UNL     1      -3.116  -0.240  -2.099  1.00  0.00     0.220 C 
BRANCH   6   7
ATOM      7  N   UNL     1      -2.415   0.653  -1.170  1.00  0.00    -0.317 N 
BRANCH   7   8
ATOM      8  C   UNL     1      -1.868   0.071   0.054  1.00  0.00     0.210 C 
BRANCH   8   9
ATOM      9  C   UNL     1      -0.348   0.071   0.054  1.00  0.00    -0.085 C 
ATOM     10  C   UNL     1       0.956   0.071   0.054  1.00  0.00     0.006 C 
ENDBRANCH   8   9
ENDBRANCH   7   8
BRANCH   7  11
ATOM     11  C   UNL     1      -2.149   1.994  -1.429  1.00  0.00     0.273 C 
ATOM     12  O   UNL     1      -1.587   2.733  -0.622  1.00  0.00    -0.267 OA
BRANCH  11  13
ATOM     13  C   UNL     1      -2.512   2.551  -2.756  1.00  0.00     0.125 A 
ATOM     14  C   UNL     1      -3.725   2.834  -3.254  1.00  0.00     0.119 A 
ATOM     15  N   UNL     1      -1.563   2.962  -3.665  1.00  0.00    -0.302 N 
ATOM     16  N   UNL     1      -3.568   3.385  -4.502  1.00  0.00    -0.312 N 
ATOM     17  C   UNL     1      -2.201   3.490  -4.791  1.00  0.00     0.323 A 
ATOM     18  H   UNL     1      -0.589   2.895  -3.542  1.00  0.00     0.172 HD
ATOM     19  H   UNL     1      -4.300   3.663  -5.098  1.00  0.00     0.171 HD
ATOM     20  O   UNL     1      -1.689   3.947  -5.796  1.00  0.00    -0.248 OA
ENDBRANCH  11  13
ENDBRANCH   7  11
ENDBRANCH   6   7
ENDBRANCH   3   6
ENDBRANCH   1   2
BRANCH   1  21
ATOM     21  C   UNL     1      -4.984   1.281   1.041  1.00  0.00     0.042 C 
BRANCH  21  22
ATOM     22  C   UNL     1      -6.230   2.151   1.167  1.00  0.00     0.118 C 
BRANCH  22  23
ATOM     23  N   UNL     1      -7.340   1.448   1.792  1.00  0.00    -0.352 N 
ATOM     24  C   UNL     1      -8.025   1.694   2.952  1.00  0.00     0.251 C 
ATOM     25  H   UNL     1      -7.653   0.659   1.294  1.00  0.00     0.163 HD
ATOM     26  O   UNL     1      -8.777   0.827   3.390  1.00  0.00    -0.269 OA
BRANCH  24  27
ATOM     27  C   UNL     1      -7.881   2.974   3.682  1.00  0.00     0.039 A 
ATOM     28  C   UNL     1      -7.976   2.955   5.078  1.00  0.00     0.014 A 
ATOM     29  C   UNL     1      -7.737   4.193   3.016  1.00  0.00     0.014 A 
ATOM     30  C   UNL     1      -7.891   4.148   5.799  1.00  0.00     0.010 A 
ATOM     31  C   UNL     1      -7.562   5.371   3.740  1.00  0.00     0.010 A 
ATOM     32  C   UNL     1      -7.657   5.364   5.139  1.00  0.00    -0.014 A 
BRANCH  32  33
ATOM     33  C   UNL     1      -7.535   6.633   5.903  1.00  0.00     0.031 A 
ATOM     34  C   UNL     1      -8.533   7.742   5.706  1.00  0.00     0.074 A 
ATOM     35  C   UNL     1      -6.506   6.795   6.758  1.00  0.00     0.049 A 
ATOM     36  N   UNL     1      -8.584   8.922   6.274  1.00  0.00    -0.248 NA
ATOM     37  C   UNL     1      -9.603   7.507   4.724  1.00  0.00     0.031 C 
ATOM     38  C   UNL     1      -5.449   5.813   7.003  1.00  0.00     0.029 A 
ATOM     39  N   UNL     1      -6.180   7.845   7.581  1.00  0.00    -0.354 N 
ATOM     40  C   UNL     1      -9.681   9.565   5.715  1.00  0.00     0.074 A 
ATOM     41  C   UNL     1     -10.230   8.673   4.718  1.00  0.00     0.031 C 
ATOM     42  C   UNL     1      -4.613   6.290   7.938  1.00  0.00     0.029 A 
ATOM     43  C   UNL     1      -5.048   7.628   8.327  1.00  0.00     0.049 A 
ATOM     44  H   UNL     1      -6.708   8.675   7.631  1.00  0.00     0.167 HD
ATOM     45  C   UNL     1     -10.201  10.777   6.027  1.00  0.00     0.037 A 
ATOM     46  C   UNL     1      -4.427   8.421   9.221  1.00  0.00     0.037 A 
ATOM     47  C   UNL     1      -9.660  11.655   7.031  1.00  0.00     0.049 A 
ATOM     48  C   UNL     1      -5.012   9.774   9.527  1.00  0.00     0.074 A 
ATOM     49  C   UNL     1     -10.141  12.880   7.456  1.00  0.00     0.029 A 
ATOM     50  N   UNL     1      -8.508  11.403   7.763  1.00  0.00    -0.354 N 
ATOM     51  N   UNL     1      -6.095  10.338   9.049  1.00  0.00    -0.248 NA
ATOM     52  C   UNL     1      -4.290  10.599  10.506  1.00  0.00     0.031 C 
ATOM     53  C   UNL     1      -9.250  13.397   8.401  1.00  0.00     0.029 A 
ATOM     54  C   UNL     1      -8.248  12.465   8.615  1.00  0.00     0.049 A 
ATOM     55  H   UNL     1      -7.957  10.591   7.687  1.00  0.00     0.167 HD
ATOM     56  C   UNL     1      -6.200  11.566   9.688  1.00  0.00     0.074 A 
ATOM     57  C   UNL     1      -5.084  11.655  10.607  1.00  0.00     0.031 C 
ATOM     58  C   UNL     1      -7.135  12.536   9.528  1.00  0.00     0.037 A 
BRANCH  45  59
ATOM     59  C   UNL     1     -11.423  11.225   5.274  1.00  0.00     0.064 A 
ATOM     60  C   UNL     1     -12.666  10.595   5.444  1.00  0.00     0.173 A 
ATOM     61  C   UNL     1     -11.362  12.326   4.406  1.00  0.00     0.173 A 
ATOM     62  F   UNL     1     -12.780   9.532   6.254  1.00  0.00    -0.203 F 
ATOM     63  C   UNL     1     -13.793  11.030   4.749  1.00  0.00     0.198 A 
ATOM     64  C   UNL     1     -12.499  12.780   3.740  1.00  0.00     0.198 A 
ATOM     65  F   UNL     1     -10.203  12.972   4.211  1.00  0.00    -0.203 F 
ATOM     66  F   UNL     1     -14.955  10.378   4.888  1.00  0.00    -0.200 F 
ATOM     67  C   UNL     1     -13.710  12.126   3.905  1.00  0.00     0.200 A 
ATOM     68  F   UNL     1     -12.421  13.850   2.938  1.00  0.00    -0.200 F 
ATOM     69  F   UNL     1     -14.797  12.550   3.246  1.00  0.00    -0.200 F 
ENDBRANCH  45  59
BRANCH  46  70
ATOM     70  C   UNL     1      -3.193   7.953   9.906  1.00  0.00     0.064 A 
ATOM     71  C   UNL     1      -3.182   7.707  11.287  1.00  0.00     0.173 A 
ATOM     72  C   UNL     1      -1.994   7.764   9.203  1.00  0.00     0.173 A 
ATOM     73  F   UNL     1      -4.298   7.891  12.008  1.00  0.00    -0.203 F 
ATOM     74  C   UNL     1      -2.015   7.321  11.942  1.00  0.00     0.198 A 
ATOM     75  C   UNL     1      -0.835   7.344   9.853  1.00  0.00     0.198 A 
ATOM     76  F   UNL     1      -1.949   7.980   7.880  1.00  0.00    -0.203 F 
ATOM     77  F   UNL     1      -2.020   7.151  13.271  1.00  0.00    -0.200 F 
ATOM     78  C   UNL     1      -0.843   7.135  11.223  1.00  0.00     0.200 A 
ATOM     79  F   UNL     1       0.290   7.148   9.152  1.00  0.00    -0.200 F 
ATOM     80  F   UNL     1       0.279   6.763  11.854  1.00  0.00    -0.200 F 
ENDBRANCH  46  70
BRANCH  58  81
ATOM     81  C   UNL     1      -7.010  13.761  10.389  1.00  0.00     0.064 A 
ATOM     82  C   UNL     1      -5.972  14.688  10.212  1.00  0.00     0.173 A 
ATOM     83  C   UNL     1      -7.961  14.027  11.387  1.00  0.00     0.173 A 
ATOM     84  F   UNL     1      -5.029  14.475   9.281  1.00  0.00    -0.203 F 
ATOM     85  C   UNL     1      -5.870  15.814  11.024  1.00  0.00     0.198 A 
ATOM     86  C   UNL     1      -7.877  15.173  12.172  1.00  0.00     0.198 A 
ATOM     87  F   UNL     1      -8.980  13.179  11.595  1.00  0.00    -0.203 F 
ATOM     88  F   UNL     1      -4.835  16.653  10.876  1.00  0.00    -0.200 F 
ATOM     89  C   UNL     1      -6.827  16.060  11.997  1.00  0.00     0.200 A 
ATOM     90  F   UNL     1      -8.813  15.418  13.100  1.00  0.00    -0.200 F 
ATOM     91  F   UNL     1      -6.731  17.148  12.773  1.00  0.00    -0.200 F 
ENDBRANCH  58  81
ENDBRANCH  32  33
ENDBRANCH  24  27
ENDBRANCH  22  23
ENDBRANCH  21  22
ENDBRANCH   1  21
TORSDOF 15
