REMARK SMILES Cc1cc(C(=O)N[C@H](C(=O)NCCCNC(=O)c2ccc(-c3c4nc(c(-c5c(F)c(F)c(F)c(F)c5F)c5ccc([nH]5)c(-c5c(F)c(F)c(F)c(F)c5F)c5nc(c(-c6c(F)c(F)c(F)c(F)c6F)c6ccc3[nH]6)C=C5)C=C4)cc2)c2c(C)n[nH]c2C)c2ccc(C)c(C)c2n1
REMARK SMILES IDX 13 1 12 2 11 3 9 4 10 5 8 7 7 8 5 9 6 10 4 12 1 13 2 14 3 15
REMARK SMILES IDX 96 16 95 17 88 18 93 19 89 20 91 21 94 22 90 23 92 24 81 25
REMARK SMILES IDX 82 26 86 27 83 28 84 29 85 30 87 31 14 33 15 34 16 35 17 37
REMARK SMILES IDX 18 38 19 39 80 40 20 41 79 42 21 43 22 44 23 45 73 46 24 47
REMARK SMILES IDX 78 48 72 49 74 50 25 51 77 52 71 53 70 54 26 56 58 57 38 58
REMARK SMILES IDX 57 59 39 60 42 61 56 62 75 63 40 64 41 65 55 67 76 68 43 69
REMARK SMILES IDX 27 70 28 71 36 72 29 73 30 74 34 75 37 76 31 77 32 78 35 79
REMARK SMILES IDX 33 80 59 81 60 82 68 83 61 84 62 85 66 86 69 87 63 88 64 89
REMARK SMILES IDX 67 90 65 91 44 92 45 93 53 94 46 95 47 96 51 97 54 98 48 99
REMARK SMILES IDX 49 100 52 101 50 102
REMARK H PARENT 11 6 7 11 85 32 15 36 74 55 42 66
REMARK Flexibility Score: inf
ROOT
ATOM      1  C   UNL     1       0.273   0.201   4.071  1.00  0.00     0.042 C 
ENDROOT
BRANCH   1   2
ATOM      2  C   UNL     1      -1.015   0.815   3.531  1.00  0.00     0.117 C 
BRANCH   2   3
ATOM      3  N   UNL     1      -1.284   2.123   4.107  1.00  0.00    -0.354 N 
ATOM      4  C   UNL     1      -0.984   3.370   3.610  1.00  0.00     0.247 C 
ATOM      5  O   UNL     1      -1.443   4.344   4.208  1.00  0.00    -0.272 OA
ATOM      6  H   UNL     1      -1.746   2.115   4.976  1.00  0.00     0.163 HD
BRANCH   4   7
ATOM      7  C   UNL     1      -0.212   3.476   2.274  1.00  0.00     0.206 C 
BRANCH   7   8
ATOM      8  N   UNL     1      -1.149   3.817   1.208  1.00  0.00    -0.336 N 
ATOM      9  C   UNL     1      -1.289   3.549  -0.130  1.00  0.00     0.252 C 
ATOM     10  O   UNL     1      -2.172   4.210  -0.678  1.00  0.00    -0.269 OA
ATOM     11  H   UNL     1      -1.875   4.394   1.538  1.00  0.00     0.165 HD
BRANCH   9  12
ATOM     12  C   UNL     1      -0.520   2.500  -0.897  1.00  0.00     0.051 A 
ATOM     13  C   UNL     1       2.345   0.121  -0.259  1.00  0.00     0.067 C 
ATOM     14  C   UNL     1       1.202   0.828  -0.921  1.00  0.00     0.039 A 
ATOM     15  C   UNL     1       0.638   1.950  -0.357  1.00  0.00     0.038 A 
ATOM     16  N   UNL     1       0.774   0.333  -2.087  1.00  0.00    -0.253 NA
ATOM     17  C   UNL     1      -0.221   0.947  -2.749  1.00  0.00     0.074 A 
ATOM     18  C   UNL     1      -0.942   2.031  -2.187  1.00  0.00     0.013 A 
ATOM     19  C   UNL     1      -0.510   0.483  -4.046  1.00  0.00    -0.022 A 
ATOM     20  C   UNL     1      -1.991   2.571  -2.976  1.00  0.00     0.011 A 
ATOM     21  C   UNL     1      -1.505   1.097  -4.832  1.00  0.00    -0.046 A 
ATOM     22  C   UNL     1       0.314  -0.669  -4.579  1.00  0.00     0.047 C 
ATOM     23  C   UNL     1      -2.256   2.125  -4.271  1.00  0.00     0.004 A 
ATOM     24  C   UNL     1      -1.769   0.693  -6.256  1.00  0.00     0.044 C 
ENDBRANCH   9  12
ENDBRANCH   7   8
BRANCH   7  25
ATOM     25  C   UNL     1       0.883   4.514   2.303  1.00  0.00     0.027 A 
ATOM     26  C   UNL     1       0.767   5.943   2.258  1.00  0.00     0.065 A 
ATOM     27  C   UNL     1       2.258   4.300   2.331  1.00  0.00     0.038 A 
ATOM     28  C   UNL     1      -0.451   6.793   2.187  1.00  0.00     0.069 C 
ATOM     29  N   UNL     1       1.964   6.540   2.248  1.00  0.00    -0.180 NA
ATOM     30  N   UNL     1       2.839   5.536   2.285  1.00  0.00    -0.282 N 
ATOM     31  C   UNL     1       3.097   3.079   2.366  1.00  0.00     0.066 C 
ATOM     32  H   UNL     1       3.814   5.673   2.279  1.00  0.00     0.190 HD
ENDBRANCH   7  25
ENDBRANCH   4   7
ENDBRANCH   2   3
ENDBRANCH   1   2
BRANCH   1  33
ATOM     33  C   UNL     1       0.179  -0.209   5.539  1.00  0.00     0.118 C 
BRANCH  33  34
ATOM     34  N   UNL     1      -0.755  -1.306   5.743  1.00  0.00    -0.352 N 
ATOM     35  C   UNL     1      -0.528  -2.587   6.182  1.00  0.00     0.251 C 
ATOM     36  H   UNL     1      -1.694  -1.098   5.535  1.00  0.00     0.163 HD
ATOM     37  O   UNL     1      -1.409  -3.433   6.089  1.00  0.00    -0.269 OA
BRANCH  35  38
ATOM     38  C   UNL     1       0.781  -2.951   6.759  1.00  0.00     0.039 A 
ATOM     39  C   UNL     1       1.389  -4.144   6.357  1.00  0.00     0.014 A 
ATOM     40  C   UNL     1       1.386  -2.140   7.724  1.00  0.00     0.014 A 
ATOM     41  C   UNL     1       2.630  -4.499   6.886  1.00  0.00     0.010 A 
ATOM     42  C   UNL     1       2.649  -2.466   8.208  1.00  0.00     0.010 A 
ATOM     43  C   UNL     1       3.276  -3.652   7.800  1.00  0.00    -0.014 A 
BRANCH  43  44
ATOM     44  C   UNL     1       4.596  -4.011   8.368  1.00  0.00     0.031 A 
ATOM     45  C   UNL     1       4.707  -4.389   9.817  1.00  0.00     0.074 A 
ATOM     46  C   UNL     1       5.695  -3.956   7.593  1.00  0.00     0.049 A 
ATOM     47  N   UNL     1       5.772  -4.706  10.509  1.00  0.00    -0.248 NA
ATOM     48  C   UNL     1       3.459  -4.395  10.596  1.00  0.00     0.031 C 
ATOM     49  C   UNL     1       5.711  -3.573   6.181  1.00  0.00     0.029 A 
ATOM     50  N   UNL     1       7.010  -4.217   7.884  1.00  0.00    -0.354 N 
ATOM     51  C   UNL     1       5.321  -4.951  11.799  1.00  0.00     0.074 A 
ATOM     52  C   UNL     1       3.899  -4.688  11.810  1.00  0.00     0.031 C 
ATOM     53  C   UNL     1       6.971  -3.644   5.723  1.00  0.00     0.029 A 
ATOM     54  C   UNL     1       7.853  -4.050   6.814  1.00  0.00     0.049 A 
ATOM     55  H   UNL     1       7.319  -4.497   8.775  1.00  0.00     0.167 HD
ATOM     56  C   UNL     1       6.027  -5.385  12.868  1.00  0.00     0.037 A 
ATOM     57  C   UNL     1       9.188  -4.210   6.726  1.00  0.00     0.037 A 
ATOM     58  C   UNL     1       7.439  -5.659  12.848  1.00  0.00     0.049 A 
ATOM     59  C   UNL     1       9.956  -4.659   7.939  1.00  0.00     0.074 A 
ATOM     60  C   UNL     1       8.237  -6.148  13.866  1.00  0.00     0.029 A 
ATOM     61  N   UNL     1       8.263  -5.465  11.749  1.00  0.00    -0.354 N 
ATOM     62  N   UNL     1       9.511  -4.946   9.138  1.00  0.00    -0.248 NA
ATOM     63  C   UNL     1      11.410  -4.809   7.787  1.00  0.00     0.031 C 
ATOM     64  C   UNL     1       9.552  -6.209  13.398  1.00  0.00     0.029 A 
ATOM     65  C   UNL     1       9.567  -5.801  12.073  1.00  0.00     0.049 A 
ATOM     66  H   UNL     1       7.965  -5.136  10.870  1.00  0.00     0.167 HD
ATOM     67  C   UNL     1      10.622  -5.332   9.876  1.00  0.00     0.074 A 
ATOM     68  C   UNL     1      11.762  -5.253   8.986  1.00  0.00     0.031 C 
ATOM     69  C   UNL     1      10.689  -5.718  11.173  1.00  0.00     0.037 A 
BRANCH  56  70
ATOM     70  C   UNL     1       5.279  -5.607  14.149  1.00  0.00     0.064 A 
ATOM     71  C   UNL     1       4.386  -6.679  14.295  1.00  0.00     0.173 A 
ATOM     72  C   UNL     1       5.487  -4.769  15.254  1.00  0.00     0.173 A 
ATOM     73  F   UNL     1       4.143  -7.501  13.263  1.00  0.00    -0.203 F 
ATOM     74  C   UNL     1       3.712  -6.892  15.495  1.00  0.00     0.198 A 
ATOM     75  C   UNL     1       4.832  -5.001  16.461  1.00  0.00     0.198 A 
ATOM     76  F   UNL     1       6.333  -3.732  15.167  1.00  0.00    -0.203 F 
ATOM     77  F   UNL     1       2.833  -7.899  15.598  1.00  0.00    -0.200 F 
ATOM     78  C   UNL     1       3.942  -6.058  16.578  1.00  0.00     0.200 A 
ATOM     79  F   UNL     1       5.062  -4.202  17.511  1.00  0.00    -0.200 F 
ATOM     80  F   UNL     1       3.300  -6.270  17.736  1.00  0.00    -0.200 F 
ENDBRANCH  56  70
BRANCH  57  81
ATOM     81  C   UNL     1       9.870  -3.985   5.426  1.00  0.00     0.064 A 
ATOM     82  C   UNL     1      10.369  -5.063   4.684  1.00  0.00     0.173 A 
ATOM     83  C   UNL     1      10.010  -2.698   4.886  1.00  0.00     0.173 A 
ATOM     84  F   UNL     1      10.273  -6.310   5.168  1.00  0.00    -0.203 F 
ATOM     85  C   UNL     1      10.990  -4.863   3.453  1.00  0.00     0.198 A 
ATOM     86  C   UNL     1      10.611  -2.501   3.644  1.00  0.00     0.198 A 
ATOM     87  F   UNL     1       9.542  -1.634   5.555  1.00  0.00    -0.203 F 
ATOM     88  F   UNL     1      11.482  -5.909   2.775  1.00  0.00    -0.200 F 
ATOM     89  C   UNL     1      11.104  -3.583   2.930  1.00  0.00     0.200 A 
ATOM     90  F   UNL     1      10.704  -1.265   3.136  1.00  0.00    -0.200 F 
ATOM     91  F   UNL     1      11.688  -3.393   1.740  1.00  0.00    -0.200 F 
ENDBRANCH  57  81
BRANCH  69  92
ATOM     92  C   UNL     1      12.034  -6.098  11.717  1.00  0.00     0.064 A 
ATOM     93  C   UNL     1      13.001  -5.128  12.014  1.00  0.00     0.173 A 
ATOM     94  C   UNL     1      12.324  -7.436  12.025  1.00  0.00     0.173 A 
ATOM     95  F   UNL     1      12.775  -3.838  11.725  1.00  0.00    -0.203 F 
ATOM     96  C   UNL     1      14.215  -5.485  12.595  1.00  0.00     0.198 A 
ATOM     97  C   UNL     1      13.528  -7.786  12.630  1.00  0.00     0.198 A 
ATOM     98  F   UNL     1      11.427  -8.399  11.766  1.00  0.00    -0.203 F 
ATOM     99  F   UNL     1      15.136  -4.545  12.848  1.00  0.00    -0.200 F 
ATOM    100  C   UNL     1      14.473  -6.811  12.913  1.00  0.00     0.200 A 
ATOM    101  F   UNL     1      13.768  -9.065  12.950  1.00  0.00    -0.200 F 
ATOM    102  F   UNL     1      15.633  -7.149  13.491  1.00  0.00    -0.200 F 
ENDBRANCH  69  92
ENDBRANCH  43  44
ENDBRANCH  35  38
ENDBRANCH  33  34
ENDBRANCH   1  33
TORSDOF 13
