REMARK SMILES Cc1ccc(C)c(OCC(=O)N[C@@H](Cc2ccccc2)C(=O)NCCCNC(=O)c2ccc(-c3c4nc(c(-c5c(F)c(F)c(F)c(F)c5F)c5ccc([nH]5)c(-c5c(F)c(F)c(F)c(F)c5F)c5nc(c(-c6c(F)c(F)c(F)c(F)c6F)c6ccc3[nH]6)C=C5)C=C4)cc2)c1
REMARK SMILES IDX 24 1 23 2 21 3 22 4 13 6 12 7 10 8 11 9 9 11 8 12 7 13 1 14
REMARK SMILES IDX 2 15 3 16 93 17 4 18 5 19 6 20 14 21 15 22 16 23 20 24 17 25
REMARK SMILES IDX 19 26 18 27 25 28 26 29 27 30 28 31 29 33 30 34 31 35 92 36
REMARK SMILES IDX 32 37 91 38 33 39 34 40 35 41 85 42 36 43 90 44 84 45 86 46
REMARK SMILES IDX 37 47 89 48 83 49 82 50 38 52 70 53 50 54 69 55 51 56 54 57
REMARK SMILES IDX 68 58 87 59 52 60 53 61 67 63 88 64 55 65 39 66 40 67 48 68
REMARK SMILES IDX 41 69 42 70 46 71 49 72 43 73 44 74 47 75 45 76 71 77 72 78
REMARK SMILES IDX 80 79 73 80 74 81 78 82 81 83 75 84 76 85 79 86 77 87 56 88
REMARK SMILES IDX 57 89 65 90 58 91 59 92 63 93 66 94 60 95 61 96 64 97 62 98
REMARK H PARENT 23 5 12 10 27 32 86 51 54 62
REMARK Flexibility Score: inf
ROOT
ATOM      1  C   UNL     1      -0.689   4.680   5.142  1.00  0.00     0.117 C 
ENDROOT
BRANCH   1   2
ATOM      2  N   UNL     1      -1.452   5.375   4.133  1.00  0.00    -0.354 N 
ATOM      3  C   UNL     1      -2.304   4.693   3.280  1.00  0.00     0.242 C 
ATOM      4  O   UNL     1      -3.402   5.187   3.019  1.00  0.00    -0.273 OA
ATOM      5  H   UNL     1      -1.366   6.352   4.049  1.00  0.00     0.163 HD
BRANCH   3   6
ATOM      6  C   UNL     1      -1.879   3.304   2.725  1.00  0.00     0.175 C 
BRANCH   6   7
ATOM      7  N   UNL     1      -0.441   3.371   2.406  1.00  0.00    -0.341 N 
ATOM      8  C   UNL     1       0.118   3.754   1.220  1.00  0.00     0.258 C 
ATOM      9  O   UNL     1       1.273   4.185   1.220  1.00  0.00    -0.271 OA
ATOM     10  H   UNL     1       0.182   3.112   3.124  1.00  0.00     0.164 HD
BRANCH   8  11
ATOM     11  C   UNL     1      -0.683   3.600  -0.077  1.00  0.00     0.329 C 
BRANCH  11  12
ATOM     12  O   UNL     1      -1.375   2.366  -0.229  1.00  0.00    -0.483 OA
BRANCH  12  13
ATOM     13  C   UNL     1      -0.649   1.205  -0.162  1.00  0.00     0.123 A 
ATOM     14  C   UNL     1       2.929  -0.101  -0.026  1.00  0.00     0.044 C 
ATOM     15  C   UNL     1       1.430  -0.071  -0.063  1.00  0.00    -0.047 A 
ATOM     16  C   UNL     1       0.693  -1.252   0.013  1.00  0.00     0.004 A 
ATOM     17  C   UNL     1       0.750   1.146  -0.180  1.00  0.00     0.050 A 
ATOM     18  C   UNL     1      -0.703  -1.210   0.008  1.00  0.00     0.007 A 
ATOM     19  C   UNL     1      -1.387   0.014  -0.060  1.00  0.00    -0.009 A 
ATOM     20  C   UNL     1      -2.891  -0.008  -0.027  1.00  0.00     0.048 C 
ENDBRANCH  12  13
ENDBRANCH  11  12
ENDBRANCH   8  11
ENDBRANCH   6   7
BRANCH   6  21
ATOM     21  C   UNL     1      -2.353   2.013   3.481  1.00  0.00     0.070 C 
BRANCH  21  22
ATOM     22  C   UNL     1      -2.000   1.715   4.933  1.00  0.00    -0.045 A 
ATOM     23  C   UNL     1      -1.228   0.598   5.288  1.00  0.00     0.004 A 
ATOM     24  C   UNL     1      -2.425   2.549   5.974  1.00  0.00     0.004 A 
ATOM     25  C   UNL     1      -0.707   0.463   6.583  1.00  0.00     0.000 A 
ATOM     26  C   UNL     1      -1.831   2.469   7.243  1.00  0.00     0.000 A 
ATOM     27  C   UNL     1      -0.928   1.455   7.532  1.00  0.00     0.000 A 
ENDBRANCH  21  22
ENDBRANCH   6  21
ENDBRANCH   3   6
ENDBRANCH   1   2
BRANCH   1  28
ATOM     28  C   UNL     1       0.732   5.063   5.499  1.00  0.00     0.042 C 
BRANCH  28  29
ATOM     29  C   UNL     1       0.699   6.015   6.660  1.00  0.00     0.118 C 
BRANCH  29  30
ATOM     30  N   UNL     1       0.163   5.512   7.969  1.00  0.00    -0.352 N 
ATOM     31  C   UNL     1       0.015   6.228   9.175  1.00  0.00     0.251 C 
ATOM     32  H   UNL     1      -0.119   4.569   7.988  1.00  0.00     0.163 HD
ATOM     33  O   UNL     1      -0.105   5.667  10.264  1.00  0.00    -0.269 OA
BRANCH  31  34
ATOM     34  C   UNL     1      -0.260   7.677   9.025  1.00  0.00     0.039 A 
ATOM     35  C   UNL     1      -0.853   8.593   9.886  1.00  0.00     0.014 A 
ATOM     36  C   UNL     1      -0.555   7.968   7.734  1.00  0.00     0.014 A 
ATOM     37  C   UNL     1      -1.651   9.630   9.257  1.00  0.00     0.010 A 
ATOM     38  C   UNL     1      -0.504   9.234   7.356  1.00  0.00     0.010 A 
ATOM     39  C   UNL     1      -1.661   9.732   7.828  1.00  0.00    -0.014 A 
BRANCH  39  40
ATOM     40  C   UNL     1      -2.194  10.745   6.875  1.00  0.00     0.031 A 
ATOM     41  C   UNL     1      -1.320  11.941   7.191  1.00  0.00     0.074 A 
ATOM     42  C   UNL     1      -3.091  10.633   5.819  1.00  0.00     0.049 A 
ATOM     43  N   UNL     1      -1.546  12.666   8.242  1.00  0.00    -0.248 NA
ATOM     44  C   UNL     1       0.118  12.048   6.780  1.00  0.00     0.031 C 
ATOM     45  C   UNL     1      -3.859   9.502   5.224  1.00  0.00     0.029 A 
ATOM     46  N   UNL     1      -3.623  11.671   5.039  1.00  0.00    -0.354 N 
ATOM     47  C   UNL     1      -0.513  13.581   8.289  1.00  0.00     0.074 A 
ATOM     48  C   UNL     1       0.595  12.929   7.674  1.00  0.00     0.031 C 
ATOM     49  C   UNL     1      -4.494   9.872   4.063  1.00  0.00     0.029 A 
ATOM     50  C   UNL     1      -4.337  11.300   3.847  1.00  0.00     0.049 A 
ATOM     51  H   UNL     1      -3.511  12.615   5.296  1.00  0.00     0.167 HD
ATOM     52  C   UNL     1      -0.843  14.899   8.351  1.00  0.00     0.037 A 
ATOM     53  C   UNL     1      -4.931  12.141   2.907  1.00  0.00     0.037 A 
ATOM     54  C   UNL     1      -2.241  15.004   8.731  1.00  0.00     0.049 A 
ATOM     55  C   UNL     1      -5.048  13.471   3.570  1.00  0.00     0.074 A 
ATOM     56  C   UNL     1      -2.983  14.593   9.824  1.00  0.00     0.029 A 
ATOM     57  N   UNL     1      -3.097  15.008   7.660  1.00  0.00    -0.354 N 
ATOM     58  N   UNL     1      -5.831  13.652   4.599  1.00  0.00    -0.248 NA
ATOM     59  C   UNL     1      -3.840  14.285   3.500  1.00  0.00     0.031 C 
ATOM     60  C   UNL     1      -4.185  14.031   9.288  1.00  0.00     0.029 A 
ATOM     61  C   UNL     1      -4.237  14.299   7.922  1.00  0.00     0.049 A 
ATOM     62  H   UNL     1      -2.914  15.464   6.807  1.00  0.00     0.167 HD
ATOM     63  C   UNL     1      -4.984  14.192   5.551  1.00  0.00     0.074 A 
ATOM     64  C   UNL     1      -3.753  14.532   4.812  1.00  0.00     0.031 C 
ATOM     65  C   UNL     1      -5.184  13.962   6.886  1.00  0.00     0.037 A 
BRANCH  52  66
ATOM     66  C   UNL     1      -0.143  15.979   7.552  1.00  0.00     0.064 A 
ATOM     67  C   UNL     1      -0.497  17.318   7.794  1.00  0.00     0.173 A 
ATOM     68  C   UNL     1       0.656  15.769   6.402  1.00  0.00     0.173 A 
ATOM     69  F   UNL     1      -1.294  17.632   8.826  1.00  0.00    -0.203 F 
ATOM     70  C   UNL     1      -0.103  18.355   6.942  1.00  0.00     0.198 A 
ATOM     71  C   UNL     1       1.091  16.810   5.585  1.00  0.00     0.198 A 
ATOM     72  F   UNL     1       0.966  14.552   5.945  1.00  0.00    -0.203 F 
ATOM     73  F   UNL     1      -0.545  19.600   7.163  1.00  0.00    -0.200 F 
ATOM     74  C   UNL     1       0.699  18.102   5.844  1.00  0.00     0.200 A 
ATOM     75  F   UNL     1       1.838  16.532   4.506  1.00  0.00    -0.200 F 
ATOM     76  F   UNL     1       1.058  19.090   5.015  1.00  0.00    -0.200 F 
ENDBRANCH  52  66
BRANCH  53  77
ATOM     77  C   UNL     1      -4.966  12.097   1.383  1.00  0.00     0.064 A 
ATOM     78  C   UNL     1      -5.701  12.982   0.534  1.00  0.00     0.173 A 
ATOM     79  C   UNL     1      -3.969  11.363   0.726  1.00  0.00     0.173 A 
ATOM     80  F   UNL     1      -6.645  13.793   1.038  1.00  0.00    -0.203 F 
ATOM     81  C   UNL     1      -5.433  13.104  -0.854  1.00  0.00     0.198 A 
ATOM     82  C   UNL     1      -3.689  11.502  -0.641  1.00  0.00     0.198 A 
ATOM     83  F   UNL     1      -3.164  10.562   1.435  1.00  0.00    -0.203 F 
ATOM     84  F   UNL     1      -6.123  13.968  -1.618  1.00  0.00    -0.200 F 
ATOM     85  C   UNL     1      -4.413  12.373  -1.433  1.00  0.00     0.200 A 
ATOM     86  F   UNL     1      -2.661  10.825  -1.170  1.00  0.00    -0.200 F 
ATOM     87  F   UNL     1      -4.096  12.531  -2.728  1.00  0.00    -0.200 F 
ENDBRANCH  53  77
BRANCH  65  88
ATOM     88  C   UNL     1      -6.473  13.308   7.322  1.00  0.00     0.064 A 
ATOM     89  C   UNL     1      -6.846  11.965   7.117  1.00  0.00     0.173 A 
ATOM     90  C   UNL     1      -7.317  14.080   8.127  1.00  0.00     0.173 A 
ATOM     91  F   UNL     1      -6.038  11.114   6.474  1.00  0.00    -0.203 F 
ATOM     92  C   UNL     1      -8.040  11.451   7.639  1.00  0.00     0.198 A 
ATOM     93  C   UNL     1      -8.483  13.560   8.677  1.00  0.00     0.198 A 
ATOM     94  F   UNL     1      -6.973  15.340   8.431  1.00  0.00    -0.203 F 
ATOM     95  F   UNL     1      -8.381  10.170   7.425  1.00  0.00    -0.200 F 
ATOM     96  C   UNL     1      -8.860  12.254   8.415  1.00  0.00     0.200 A 
ATOM     97  F   UNL     1      -9.223  14.323   9.491  1.00  0.00    -0.200 F 
ATOM     98  F   UNL     1      -9.996  11.767   8.933  1.00  0.00    -0.200 F 
ENDBRANCH  65  88
ENDBRANCH  39  40
ENDBRANCH  31  34
ENDBRANCH  29  30
ENDBRANCH  28  29
ENDBRANCH   1  28
TORSDOF 16
