REMARK SMILES CN(CCc1ccccn1)C(=O)NC1(CC(=O)NCCCNC(=O)c2ccc(-c3c4nc(c(-c5c(F)c(F)c(F)c(F)c5F)c5ccc([nH]5)c(-c5c(F)c(F)c(F)c(F)c5F)c5nc(c(-c6c(F)c(F)c(F)c(F)c6F)c6ccc3[nH]6)C=C5)C=C4)cc2)CCC1
REMARK SMILES IDX 16 1 17 2 18 3 15 5 14 6 88 7 90 8 89 9 13 10 11 11 12 12
REMARK SMILES IDX 2 14 1 15 3 16 4 17 5 18 6 19 10 20 7 21 9 22 8 23 19 24
REMARK SMILES IDX 20 25 21 26 22 27 23 28 24 30 25 31 26 32 87 33 27 34 86 35
REMARK SMILES IDX 28 36 29 37 30 38 80 39 31 40 85 41 79 42 81 43 32 44 84 45
REMARK SMILES IDX 78 46 77 47 33 49 65 50 45 51 64 52 46 53 49 54 63 55 82 56
REMARK SMILES IDX 47 57 48 58 62 60 83 61 50 62 34 63 35 64 43 65 36 66 37 67
REMARK SMILES IDX 41 68 44 69 38 70 39 71 42 72 40 73 66 74 67 75 75 76 68 77
REMARK SMILES IDX 69 78 73 79 76 80 70 81 71 82 74 83 72 84 51 85 52 86 60 87
REMARK SMILES IDX 53 88 54 89 58 90 61 91 55 92 56 93 59 94 57 95
REMARK H PARENT 18 4 13 13 22 29 81 48 49 59
REMARK Flexibility Score: inf
ROOT
ATOM      1  C   UNL     1      -2.797  -1.367   1.974  1.00  0.00     0.222 C 
ATOM      2  O   UNL     1      -3.287  -2.320   1.340  1.00  0.00    -0.275 OA
ATOM      3  N   UNL     1      -2.664  -0.196   1.242  1.00  0.00    -0.356 N 
ATOM      4  H   UNL     1      -2.065  -0.259   0.463  1.00  0.00     0.163 HD
ENDROOT
BRANCH   1   5
ATOM      5  C   UNL     1      -2.348  -1.638   3.653  1.00  0.00     0.128 C 
BRANCH   5   6
ATOM      6  C   UNL     1      -0.356  -1.656   4.587  1.00  0.00     0.051 C 
ATOM      7  C   UNL     1       0.281  -2.351   6.192  1.00  0.00     0.029 C 
ATOM      8  C   UNL     1       0.705  -0.355   5.430  1.00  0.00     0.029 C 
ATOM      9  C   UNL     1       0.449  -0.948   6.790  1.00  0.00     0.005 C 
BRANCH   6  10
ATOM     10  N   UNL     1       1.105  -2.066   3.642  1.00  0.00    -0.332 N 
ATOM     11  C   UNL     1       1.803  -1.541   2.596  1.00  0.00     0.317 C 
ATOM     12  O   UNL     1       2.782  -2.246   2.290  1.00  0.00    -0.249 OA
ATOM     13  H   UNL     1       1.518  -2.899   3.965  1.00  0.00     0.165 HD
BRANCH  11  14
ATOM     14  N   UNL     1       1.503  -0.417   1.846  1.00  0.00    -0.327 N 
ATOM     15  C   UNL     1       1.982  -0.544   0.471  1.00  0.00     0.148 C 
BRANCH  14  16
ATOM     16  C   UNL     1       0.532   0.707   1.914  1.00  0.00     0.127 C 
BRANCH  16  17
ATOM     17  C   UNL     1      -0.308   1.076   3.108  1.00  0.00     0.078 C 
BRANCH  17  18
ATOM     18  C   UNL     1      -1.056  -0.112   3.535  1.00  0.00     0.042 A 
ATOM     19  C   UNL     1      -1.822  -0.228   5.138  1.00  0.00     0.024 A 
ATOM     20  N   UNL     1      -0.721  -1.593   2.600  1.00  0.00    -0.261 NA
ATOM     21  C   UNL     1      -2.172  -1.860   5.772  1.00  0.00     0.003 A 
ATOM     22  C   UNL     1      -1.023  -3.182   3.301  1.00  0.00     0.111 A 
ATOM     23  C   UNL     1      -1.710  -3.333   4.887  1.00  0.00     0.020 A 
ENDBRANCH  17  18
ENDBRANCH  16  17
ENDBRANCH  14  16
ENDBRANCH  11  14
ENDBRANCH   6  10
ENDBRANCH   5   6
ENDBRANCH   1   5
BRANCH   3  24
ATOM     24  C   UNL     1      -3.272   1.115   1.446  1.00  0.00     0.117 C 
BRANCH  24  25
ATOM     25  C   UNL     1      -2.545   2.391   0.919  1.00  0.00     0.042 C 
BRANCH  25  26
ATOM     26  C   UNL     1      -1.728   2.349  -0.384  1.00  0.00     0.118 C 
BRANCH  26  27
ATOM     27  N   UNL     1      -2.115   3.476  -1.230  1.00  0.00    -0.352 N 
ATOM     28  C   UNL     1      -1.590   4.745  -1.296  1.00  0.00     0.251 C 
ATOM     29  H   UNL     1      -2.864   3.300  -1.844  1.00  0.00     0.163 HD
ATOM     30  O   UNL     1      -2.368   5.685  -1.462  1.00  0.00    -0.269 OA
BRANCH  28  31
ATOM     31  C   UNL     1      -0.127   5.019  -1.266  1.00  0.00     0.039 A 
ATOM     32  C   UNL     1       0.299   6.318  -0.940  1.00  0.00     0.014 A 
ATOM     33  C   UNL     1       0.815   4.103  -1.740  1.00  0.00     0.014 A 
ATOM     34  C   UNL     1       1.636   6.700  -1.110  1.00  0.00     0.010 A 
ATOM     35  C   UNL     1       2.165   4.471  -1.860  1.00  0.00     0.010 A 
ATOM     36  C   UNL     1       2.586   5.782  -1.581  1.00  0.00    -0.014 A 
BRANCH  36  37
ATOM     37  C   UNL     1       3.994   6.206  -1.844  1.00  0.00     0.031 A 
ATOM     38  C   UNL     1       4.540   6.208  -3.252  1.00  0.00     0.074 A 
ATOM     39  C   UNL     1       4.792   6.580  -0.823  1.00  0.00     0.049 A 
ATOM     40  N   UNL     1       5.744   6.507  -3.680  1.00  0.00    -0.248 NA
ATOM     41  C   UNL     1       3.616   5.801  -4.321  1.00  0.00     0.031 C 
ATOM     42  C   UNL     1       4.399   6.604   0.586  1.00  0.00     0.029 A 
ATOM     43  N   UNL     1       6.099   7.005  -0.808  1.00  0.00    -0.354 N 
ATOM     44  C   UNL     1       5.723   6.306  -5.056  1.00  0.00     0.074 A 
ATOM     45  C   UNL     1       4.404   5.813  -5.387  1.00  0.00     0.031 C 
ATOM     46  C   UNL     1       5.433   7.037   1.325  1.00  0.00     0.029 A 
ATOM     47  C   UNL     1       6.576   7.285   0.451  1.00  0.00     0.049 A 
ATOM     48  H   UNL     1       6.644   7.099  -1.623  1.00  0.00     0.167 HD
ATOM     49  C   UNL     1       6.705   6.530  -5.964  1.00  0.00     0.037 A 
ATOM     50  C   UNL     1       7.797   7.687   0.856  1.00  0.00     0.037 A 
ATOM     51  C   UNL     1       8.008   7.048  -5.636  1.00  0.00     0.049 A 
ATOM     52  C   UNL     1       8.875   7.913  -0.173  1.00  0.00     0.074 A 
ATOM     53  C   UNL     1       9.053   7.363  -6.489  1.00  0.00     0.029 A 
ATOM     54  N   UNL     1       8.447   7.325  -4.350  1.00  0.00    -0.354 N 
ATOM     55  N   UNL     1       8.818   7.781  -1.476  1.00  0.00    -0.248 NA
ATOM     56  C   UNL     1      10.186   8.355   0.326  1.00  0.00     0.031 C 
ATOM     57  C   UNL     1      10.141   7.777  -5.715  1.00  0.00     0.029 A 
ATOM     58  C   UNL     1       9.755   7.782  -4.385  1.00  0.00     0.049 A 
ATOM     59  H   UNL     1       7.909   7.213  -3.533  1.00  0.00     0.167 HD
ATOM     60  C   UNL     1      10.069   8.153  -1.954  1.00  0.00     0.074 A 
ATOM     61  C   UNL     1      10.858   8.535  -0.802  1.00  0.00     0.031 C 
ATOM     62  C   UNL     1      10.523   8.175  -3.231  1.00  0.00     0.037 A 
BRANCH  49  63
ATOM     63  C   UNL     1       6.415   6.219  -7.407  1.00  0.00     0.064 A 
ATOM     64  C   UNL     1       5.510   6.983  -8.161  1.00  0.00     0.173 A 
ATOM     65  C   UNL     1       7.095   5.180  -8.063  1.00  0.00     0.173 A 
ATOM     66  F   UNL     1       4.828   7.984  -7.584  1.00  0.00    -0.203 F 
ATOM     67  C   UNL     1       5.275   6.700  -9.505  1.00  0.00     0.198 A 
ATOM     68  C   UNL     1       6.882   4.921  -9.415  1.00  0.00     0.198 A 
ATOM     69  F   UNL     1       7.980   4.424  -7.397  1.00  0.00    -0.203 F 
ATOM     70  F   UNL     1       4.371   7.414 -10.189  1.00  0.00    -0.200 F 
ATOM     71  C   UNL     1       5.967   5.676 -10.133  1.00  0.00     0.200 A 
ATOM     72  F   UNL     1       7.565   3.943 -10.025  1.00  0.00    -0.200 F 
ATOM     73  F   UNL     1       5.749   5.414 -11.429  1.00  0.00    -0.200 F 
ENDBRANCH  49  63
BRANCH  50  74
ATOM     74  C   UNL     1       8.072   7.913   2.302  1.00  0.00     0.064 A 
ATOM     75  C   UNL     1       8.350   9.196   2.795  1.00  0.00     0.173 A 
ATOM     76  C   UNL     1       8.088   6.850   3.218  1.00  0.00     0.173 A 
ATOM     77  F   UNL     1       8.368  10.245   1.958  1.00  0.00    -0.203 F 
ATOM     78  C   UNL     1       8.664   9.403   4.137  1.00  0.00     0.198 A 
ATOM     79  C   UNL     1       8.367   7.062   4.567  1.00  0.00     0.198 A 
ATOM     80  F   UNL     1       7.825   5.602   2.804  1.00  0.00    -0.203 F 
ATOM     81  F   UNL     1       8.984  10.631   4.567  1.00  0.00    -0.200 F 
ATOM     82  C   UNL     1       8.667   8.337   5.023  1.00  0.00     0.200 A 
ATOM     83  F   UNL     1       8.351   6.032   5.423  1.00  0.00    -0.200 F 
ATOM     84  F   UNL     1       8.967   8.536   6.314  1.00  0.00    -0.200 F 
ENDBRANCH  50  74
BRANCH  62  85
ATOM     85  C   UNL     1      11.923   8.671  -3.459  1.00  0.00     0.064 A 
ATOM     86  C   UNL     1      13.045   7.931  -3.061  1.00  0.00     0.173 A 
ATOM     87  C   UNL     1      12.142   9.889  -4.123  1.00  0.00     0.173 A 
ATOM     88  F   UNL     1      12.891   6.768  -2.410  1.00  0.00    -0.203 F 
ATOM     89  C   UNL     1      14.334   8.404  -3.294  1.00  0.00     0.198 A 
ATOM     90  C   UNL     1      13.431  10.341  -4.386  1.00  0.00     0.198 A 
ATOM     91  F   UNL     1      11.103  10.633  -4.532  1.00  0.00    -0.203 F 
ATOM     92  F   UNL     1      15.391   7.705  -2.857  1.00  0.00    -0.200 F 
ATOM     93  C   UNL     1      14.526   9.604  -3.963  1.00  0.00     0.200 A 
ATOM     94  F   UNL     1      13.614  11.492  -5.048  1.00  0.00    -0.200 F 
ATOM     95  F   UNL     1      15.768  10.053  -4.194  1.00  0.00    -0.200 F 
ENDBRANCH  62  85
ENDBRANCH  36  37
ENDBRANCH  28  31
ENDBRANCH  26  27
ENDBRANCH  25  26
ENDBRANCH  24  25
ENDBRANCH   3  24
TORSDOF 16
