REMARK SMILES CCN(Cc1ccc(Br)s1)C(=O)C[N@@H+](C)CC(=O)NCCCNC(=O)c1ccc(-c2c3nc(c(-c4c(F)c(F)c(F)c(F)c4F)c4ccc([nH]4)c(-c4c(F)c(F)c(F)c(F)c4F)c4nc(c(-c5c(F)c(F)c(F)c(F)c5F)c5ccc2[nH]5)C=C4)C=C3)cc1
REMARK SMILES IDX 17 1 18 2 19 3 16 5 14 6 15 7 13 9 11 10 12 11 3 12 2 13
REMARK SMILES IDX 1 14 4 15 5 16 6 17 10 18 7 19 8 20 9 21 20 22 21 23 22 24
REMARK SMILES IDX 23 25 24 26 25 28 26 29 27 30 88 31 28 32 87 33 29 34 30 35
REMARK SMILES IDX 31 36 81 37 32 38 86 39 80 40 82 41 33 42 85 43 79 44 78 45
REMARK SMILES IDX 34 47 66 48 46 49 65 50 47 51 50 52 64 53 83 54 48 55 49 56
REMARK SMILES IDX 63 58 84 59 51 60 35 61 36 62 44 63 37 64 38 65 42 66 45 67
REMARK SMILES IDX 39 68 40 69 43 70 41 71 67 72 68 73 76 74 69 75 70 76 74 77
REMARK SMILES IDX 77 78 71 79 72 80 75 81 73 82 52 83 53 84 61 85 54 86 55 87
REMARK SMILES IDX 59 88 62 89 56 90 57 91 60 92 58 93
REMARK H PARENT 19 4 14 8 23 27 82 46 50 57
REMARK Flexibility Score: inf
ROOT
ATOM      1  C   UNL     1       4.476   1.145  -3.931  1.00  0.00     0.275 C 
ATOM      2  O   UNL     1       5.114   0.692  -2.977  1.00  0.00    -0.269 OA
ATOM      3  N   UNL     1       5.201   1.577  -4.999  1.00  0.00    -0.351 N 
ATOM      4  H   UNL     1       6.170   1.422  -4.928  1.00  0.00     0.163 HD
ENDROOT
BRANCH   1   5
ATOM      5  C   UNL     1       2.945   1.167  -3.929  1.00  0.00     0.363 C 
BRANCH   5   6
ATOM      6  N   UNL     1       2.300   2.423  -3.507  1.00  0.00    -0.322 N 
ATOM      7  C   UNL     1       1.980   3.363  -4.561  1.00  0.00     0.333 C 
ATOM      8  H   UNL     1       1.393   2.073  -3.199  1.00  0.00     0.348 HD
BRANCH   6   9
ATOM      9  C   UNL     1       2.885   3.071  -2.322  1.00  0.00     0.363 C 
BRANCH   9  10
ATOM     10  C   UNL     1       2.444   2.388  -1.020  1.00  0.00     0.278 C 
ATOM     11  O   UNL     1       3.290   1.850  -0.299  1.00  0.00    -0.268 OA
BRANCH  10  12
ATOM     12  N   UNL     1       1.096   2.420  -0.653  1.00  0.00    -0.333 N 
BRANCH  12  13
ATOM     13  C   UNL     1       0.704   1.636   0.516  1.00  0.00     0.116 C 
ATOM     14  C   UNL     1       0.683   0.143   0.207  1.00  0.00     0.027 C 
ENDBRANCH  12  13
BRANCH  12  15
ATOM     15  C   UNL     1       0.021   3.036  -1.429  1.00  0.00     0.166 C 
BRANCH  15  16
ATOM     16  C   UNL     1      -0.002   4.546  -1.399  1.00  0.00     0.025 A 
ATOM     17  C   UNL     1      -0.805   5.361  -2.186  1.00  0.00     0.018 A 
ATOM     18  S   UNL     1       0.975   5.504  -0.355  1.00  0.00    -0.131 S 
ATOM     19  C   UNL     1      -0.512   6.748  -2.029  1.00  0.00     0.028 A 
ATOM     20  C   UNL     1       0.481   6.938  -1.105  1.00  0.00     0.070 A 
ATOM     21  Br  UNL     1       1.214   8.614  -0.704  1.00  0.00    -0.039 Br
ENDBRANCH  15  16
ENDBRANCH  12  15
ENDBRANCH  10  12
ENDBRANCH   9  10
ENDBRANCH   6   9
ENDBRANCH   5   6
ENDBRANCH   1   5
BRANCH   3  22
ATOM     22  C   UNL     1       4.779   2.229  -6.220  1.00  0.00     0.118 C 
BRANCH  22  23
ATOM     23  C   UNL     1       5.120   3.716  -6.197  1.00  0.00     0.042 C 
BRANCH  23  24
ATOM     24  C   UNL     1       6.608   4.026  -6.253  1.00  0.00     0.118 C 
BRANCH  24  25
ATOM     25  N   UNL     1       7.186   3.766  -7.559  1.00  0.00    -0.352 N 
ATOM     26  C   UNL     1       7.709   4.626  -8.492  1.00  0.00     0.251 C 
ATOM     27  H   UNL     1       7.204   2.817  -7.818  1.00  0.00     0.163 HD
ATOM     28  O   UNL     1       7.969   4.199  -9.614  1.00  0.00    -0.269 OA
BRANCH  26  29
ATOM     29  C   UNL     1       7.954   6.056  -8.182  1.00  0.00     0.039 A 
ATOM     30  C   UNL     1       7.758   6.998  -9.199  1.00  0.00     0.014 A 
ATOM     31  C   UNL     1       8.444   6.477  -6.944  1.00  0.00     0.014 A 
ATOM     32  C   UNL     1       8.017   8.351  -8.964  1.00  0.00     0.010 A 
ATOM     33  C   UNL     1       8.616   7.836  -6.681  1.00  0.00     0.010 A 
ATOM     34  C   UNL     1       8.432   8.785  -7.696  1.00  0.00    -0.014 A 
BRANCH  34  35
ATOM     35  C   UNL     1       8.741  10.216  -7.434  1.00  0.00     0.031 A 
ATOM     36  C   UNL     1      10.146  10.628  -7.081  1.00  0.00     0.074 A 
ATOM     37  C   UNL     1       7.760  11.137  -7.471  1.00  0.00     0.049 A 
ATOM     38  N   UNL     1      10.608  11.810  -6.758  1.00  0.00    -0.248 NA
ATOM     39  C   UNL     1      11.162   9.564  -7.061  1.00  0.00     0.031 C 
ATOM     40  C   UNL     1       6.352  10.863  -7.758  1.00  0.00     0.029 A 
ATOM     41  N   UNL     1       7.798  12.493  -7.259  1.00  0.00    -0.354 N 
ATOM     42  C   UNL     1      11.955  11.624  -6.471  1.00  0.00     0.074 A 
ATOM     43  C   UNL     1      12.226  10.210  -6.611  1.00  0.00     0.031 C 
ATOM     44  C   UNL     1       5.665  12.017  -7.728  1.00  0.00     0.029 A 
ATOM     45  C   UNL     1       6.576  13.106  -7.388  1.00  0.00     0.049 A 
ATOM     46  H   UNL     1       8.624  12.980  -7.035  1.00  0.00     0.167 HD
ATOM     47  C   UNL     1      12.888  12.550  -6.147  1.00  0.00     0.037 A 
ATOM     48  C   UNL     1       6.232  14.400  -7.249  1.00  0.00     0.037 A 
ATOM     49  C   UNL     1      12.630  13.962  -6.054  1.00  0.00     0.049 A 
ATOM     50  C   UNL     1       7.292  15.414  -6.913  1.00  0.00     0.074 A 
ATOM     51  C   UNL     1      13.522  14.988  -5.795  1.00  0.00     0.029 A 
ATOM     52  N   UNL     1      11.385  14.547  -6.226  1.00  0.00    -0.354 N 
ATOM     53  N   UNL     1       8.573  15.233  -6.704  1.00  0.00    -0.248 NA
ATOM     54  C   UNL     1       6.859  16.814  -6.804  1.00  0.00     0.031 C 
ATOM     55  C   UNL     1      12.810  16.192  -5.778  1.00  0.00     0.029 A 
ATOM     56  C   UNL     1      11.482  15.920  -6.067  1.00  0.00     0.049 A 
ATOM     57  H   UNL     1      10.555  14.059  -6.431  1.00  0.00     0.167 HD
ATOM     58  C   UNL     1       9.103  16.494  -6.467  1.00  0.00     0.074 A 
ATOM     59  C   UNL     1       8.007  17.435  -6.570  1.00  0.00     0.031 C 
ATOM     60  C   UNL     1      10.383  16.842  -6.188  1.00  0.00     0.037 A 
BRANCH  47  61
ATOM     61  C   UNL     1      14.283  12.063  -5.878  1.00  0.00     0.064 A 
ATOM     62  C   UNL     1      15.104  11.581  -6.908  1.00  0.00     0.173 A 
ATOM     63  C   UNL     1      14.813  12.105  -4.580  1.00  0.00     0.173 A 
ATOM     64  F   UNL     1      14.639  11.509  -8.164  1.00  0.00    -0.203 F 
ATOM     65  C   UNL     1      16.395  11.129  -6.643  1.00  0.00     0.198 A 
ATOM     66  C   UNL     1      16.114  11.679  -4.324  1.00  0.00     0.198 A 
ATOM     67  F   UNL     1      14.072  12.563  -3.560  1.00  0.00    -0.203 F 
ATOM     68  F   UNL     1      17.142  10.625  -7.635  1.00  0.00    -0.200 F 
ATOM     69  C   UNL     1      16.901  11.184  -5.353  1.00  0.00     0.200 A 
ATOM     70  F   UNL     1      16.607  11.745  -3.079  1.00  0.00    -0.200 F 
ATOM     71  F   UNL     1      18.144  10.753  -5.101  1.00  0.00    -0.200 F 
ENDBRANCH  47  61
BRANCH  48  72
ATOM     72  C   UNL     1       4.822  14.819  -7.463  1.00  0.00     0.064 A 
ATOM     73  C   UNL     1       4.459  15.562  -8.594  1.00  0.00     0.173 A 
ATOM     74  C   UNL     1       3.814  14.487  -6.546  1.00  0.00     0.173 A 
ATOM     75  F   UNL     1       5.393  15.920  -9.488  1.00  0.00    -0.203 F 
ATOM     76  C   UNL     1       3.143  15.974  -8.792  1.00  0.00     0.198 A 
ATOM     77  C   UNL     1       2.494  14.878  -6.758  1.00  0.00     0.198 A 
ATOM     78  F   UNL     1       4.110  13.773  -5.451  1.00  0.00    -0.203 F 
ATOM     79  F   UNL     1       2.830  16.719  -9.861  1.00  0.00    -0.200 F 
ATOM     80  C   UNL     1       2.160  15.627  -7.877  1.00  0.00     0.200 A 
ATOM     81  F   UNL     1       1.544  14.530  -5.879  1.00  0.00    -0.200 F 
ATOM     82  F   UNL     1       0.894  16.020  -8.070  1.00  0.00    -0.200 F 
ENDBRANCH  48  72
BRANCH  60  83
ATOM     83  C   UNL     1      10.676  18.302  -6.012  1.00  0.00     0.064 A 
ATOM     84  C   UNL     1      10.279  18.998  -4.862  1.00  0.00     0.173 A 
ATOM     85  C   UNL     1      11.401  19.002  -6.989  1.00  0.00     0.173 A 
ATOM     86  F   UNL     1       9.571  18.375  -3.907  1.00  0.00    -0.203 F 
ATOM     87  C   UNL     1      10.579  20.348  -4.705  1.00  0.00     0.198 A 
ATOM     88  C   UNL     1      11.721  20.345  -6.817  1.00  0.00     0.198 A 
ATOM     89  F   UNL     1      11.808  18.378  -8.105  1.00  0.00    -0.203 F 
ATOM     90  F   UNL     1      10.153  21.005  -3.617  1.00  0.00    -0.200 F 
ATOM     91  C   UNL     1      11.304  21.019  -5.679  1.00  0.00     0.200 A 
ATOM     92  F   UNL     1      12.431  20.988  -7.754  1.00  0.00    -0.200 F 
ATOM     93  F   UNL     1      11.597  22.317  -5.523  1.00  0.00    -0.200 F 
ENDBRANCH  60  83
ENDBRANCH  34  35
ENDBRANCH  26  29
ENDBRANCH  24  25
ENDBRANCH  23  24
ENDBRANCH  22  23
ENDBRANCH   3  22
TORSDOF 17
