REMARK SMILES O=C(C[NH2+]CC1CC1)N[C@@H]1CCCCC[C@H]1C(=O)NCCCNC(=O)c1ccc(-c2c3nc(c(-c4c(F)c(F)c(F)c(F)c4F)c4ccc([nH]4)c(-c4c(F)c(F)c(F)c(F)c4F)c4nc(c(-c5c(F)c(F)c(F)c(F)c5F)c5ccc2[nH]5)C=C4)C=C3)cc1
REMARK SMILES IDX 17 1 18 2 19 3 16 5 10 6 9 7 1 8 2 9 3 11 4 12 5 15 6 16
REMARK SMILES IDX 7 17 8 18 11 19 15 21 14 22 13 23 12 24 20 26 21 27 22 28
REMARK SMILES IDX 23 29 24 30 25 32 26 33 27 34 88 35 28 36 87 37 29 38 30 39
REMARK SMILES IDX 31 40 81 41 32 42 86 43 80 44 82 45 33 46 85 47 79 48 78 49
REMARK SMILES IDX 34 51 66 52 46 53 65 54 47 55 50 56 64 57 83 58 48 59 49 60
REMARK SMILES IDX 63 62 84 63 51 64 35 65 36 66 44 67 37 68 38 69 42 70 45 71
REMARK SMILES IDX 39 72 40 73 43 74 41 75 67 76 68 77 76 78 69 79 70 80 74 81
REMARK SMILES IDX 77 82 71 83 72 84 75 85 73 86 52 87 53 88 61 89 54 90 55 91
REMARK SMILES IDX 59 92 62 93 56 94 57 95 60 96 58 97
REMARK H PARENT 19 4 9 10 4 13 4 14 23 31 82 50 50 61
REMARK Flexibility Score: 100.00
ROOT
ATOM      1  C   UNL     1       1.312  -0.058  -4.174  1.00  0.00     0.225 C 
ATOM      2  O   UNL     1       1.853  -1.079  -4.617  1.00  0.00    -0.275 OA
ATOM      3  N   UNL     1       1.028   0.887  -5.103  1.00  0.00    -0.356 N 
ATOM      4  H   UNL     1       1.385   0.696  -6.001  1.00  0.00     0.163 HD
ENDROOT
BRANCH   1   5
ATOM      5  C   UNL     1       1.056   0.078  -2.657  1.00  0.00     0.101 C 
BRANCH   5   6
ATOM      6  C   UNL     1       2.012   1.071  -1.956  1.00  0.00     0.094 C 
BRANCH   6   7
ATOM      7  N   UNL     1       2.984   0.368  -1.087  1.00  0.00    -0.348 N 
ATOM      8  O   UNL     1       1.444  -0.485   0.397  1.00  0.00    -0.268 OA
ATOM      9  C   UNL     1       2.610  -0.232   0.100  1.00  0.00     0.275 C 
ATOM     10  H   UNL     1       3.928   0.327  -1.364  1.00  0.00     0.163 HD
BRANCH   9  11
ATOM     11  C   UNL     1       3.749  -0.537   1.063  1.00  0.00     0.361 C 
BRANCH  11  12
ATOM     12  N   UNL     1       4.219  -1.910   0.854  1.00  0.00    -0.338 N 
ATOM     13  H   UNL     1       4.953  -1.907   0.146  1.00  0.00     0.346 HD
ATOM     14  H   UNL     1       3.432  -2.482   0.546  1.00  0.00     0.346 HD
BRANCH  12  15
ATOM     15  C   UNL     1       4.749  -2.470   2.092  1.00  0.00     0.264 C 
BRANCH  15  16
ATOM     16  C   UNL     1       3.705  -2.845   3.110  1.00  0.00     0.044 C 
ATOM     17  C   UNL     1       2.203  -2.846   2.885  1.00  0.00     0.010 C 
ATOM     18  C   UNL     1       2.948  -4.144   2.944  1.00  0.00     0.010 C 
ENDBRANCH  15  16
ENDBRANCH  12  15
ENDBRANCH  11  12
ENDBRANCH   9  11
ENDBRANCH   6   7
BRANCH   6  19
ATOM     19  C   UNL     1       1.435   2.206  -1.090  1.00  0.00     0.026 CG0
ATOM     20  G   UNL     1       0.332   3.069  -1.648  1.00  0.00     0.000 G0
ENDBRANCH   6  19
ENDBRANCH   5   6
BRANCH   5  21
ATOM     21  C   UNL     1      -0.401  -0.014  -2.185  1.00  0.00     0.015 C 
BRANCH  21  22
ATOM     22  C   UNL     1      -1.375   1.148  -2.303  1.00  0.00     0.001 C 
BRANCH  22  23
ATOM     23  C   UNL     1      -1.062   2.457  -1.580  1.00  0.00     0.000 C 
BRANCH  23  24
ATOM     24  C   UNL     1       0.332   3.069  -1.648  1.00  0.00     0.002 CG0
ATOM     25  G   UNL     1       1.435   2.206  -1.090  1.00  0.00     0.000 G0
ENDBRANCH  23  24
ENDBRANCH  22  23
ENDBRANCH  21  22
ENDBRANCH   5  21
ENDBRANCH   1   5
BRANCH   3  26
ATOM     26  C   UNL     1       0.297   2.121  -5.007  1.00  0.00     0.117 C 
BRANCH  26  27
ATOM     27  C   UNL     1       1.135   3.353  -5.287  1.00  0.00     0.042 C 
BRANCH  27  28
ATOM     28  C   UNL     1       0.759   4.012  -6.598  1.00  0.00     0.118 C 
BRANCH  28  29
ATOM     29  N   UNL     1      -0.582   4.603  -6.562  1.00  0.00    -0.352 N 
ATOM     30  C   UNL     1      -1.003   5.910  -6.555  1.00  0.00     0.251 C 
ATOM     31  H   UNL     1      -1.312   3.943  -6.538  1.00  0.00     0.163 HD
ATOM     32  O   UNL     1      -2.186   6.161  -6.320  1.00  0.00    -0.269 OA
BRANCH  30  33
ATOM     33  C   UNL     1      -0.057   7.020  -6.801  1.00  0.00     0.039 A 
ATOM     34  C   UNL     1      -0.254   8.254  -6.173  1.00  0.00     0.014 A 
ATOM     35  C   UNL     1       1.022   6.858  -7.666  1.00  0.00     0.014 A 
ATOM     36  C   UNL     1       0.674   9.284  -6.356  1.00  0.00     0.010 A 
ATOM     37  C   UNL     1       2.023   7.813  -7.714  1.00  0.00     0.010 A 
ATOM     38  C   UNL     1       1.847   9.054  -7.091  1.00  0.00    -0.014 A 
BRANCH  38  39
ATOM     39  C   UNL     1       2.885  10.097  -7.290  1.00  0.00     0.031 A 
ATOM     40  C   UNL     1       3.276  10.495  -8.692  1.00  0.00     0.074 A 
ATOM     41  C   UNL     1       3.538  10.611  -6.230  1.00  0.00     0.049 A 
ATOM     42  N   UNL     1       4.253  11.267  -9.095  1.00  0.00    -0.248 NA
ATOM     43  C   UNL     1       2.495   9.904  -9.793  1.00  0.00     0.031 C 
ATOM     44  C   UNL     1       3.292  10.262  -4.829  1.00  0.00     0.029 A 
ATOM     45  N   UNL     1       4.555  11.530  -6.167  1.00  0.00    -0.354 N 
ATOM     46  C   UNL     1       4.221  11.221 -10.483  1.00  0.00     0.074 A 
ATOM     47  C   UNL     1       3.183  10.288 -10.855  1.00  0.00     0.031 C 
ATOM     48  C   UNL     1       4.110  10.981  -4.045  1.00  0.00     0.029 A 
ATOM     49  C   UNL     1       4.973  11.803  -4.887  1.00  0.00     0.049 A 
ATOM     50  H   UNL     1       4.949  11.953  -6.964  1.00  0.00     0.167 HD
ATOM     51  C   UNL     1       4.964  11.922 -11.371  1.00  0.00     0.037 A 
ATOM     52  C   UNL     1       5.950  12.618  -4.447  1.00  0.00     0.037 A 
ATOM     53  C   UNL     1       5.957  12.889 -10.991  1.00  0.00     0.049 A 
ATOM     54  C   UNL     1       6.755  13.397  -5.454  1.00  0.00     0.074 A 
ATOM     55  C   UNL     1       6.717  13.710 -11.804  1.00  0.00     0.029 A 
ATOM     56  N   UNL     1       6.323  13.168  -9.682  1.00  0.00    -0.354 N 
ATOM     57  N   UNL     1       6.668  13.398  -6.762  1.00  0.00    -0.248 NA
ATOM     58  C   UNL     1       7.789  14.295  -4.922  1.00  0.00     0.031 C 
ATOM     59  C   UNL     1       7.580  14.449 -10.989  1.00  0.00     0.029 A 
ATOM     60  C   UNL     1       7.314  14.135  -9.666  1.00  0.00     0.049 A 
ATOM     61  H   UNL     1       5.935  12.742  -8.884  1.00  0.00     0.167 HD
ATOM     62  C   UNL     1       7.607  14.318  -7.207  1.00  0.00     0.074 A 
ATOM     63  C   UNL     1       8.243  14.867  -6.027  1.00  0.00     0.031 C 
ATOM     64  C   UNL     1       7.919  14.678  -8.477  1.00  0.00     0.037 A 
BRANCH  51  65
ATOM     65  C   UNL     1       4.720  11.681 -12.834  1.00  0.00     0.064 A 
ATOM     66  C   UNL     1       3.518  12.056 -13.455  1.00  0.00     0.173 A 
ATOM     67  C   UNL     1       5.714  11.098 -13.635  1.00  0.00     0.173 A 
ATOM     68  F   UNL     1       2.527  12.604 -12.735  1.00  0.00    -0.203 F 
ATOM     69  C   UNL     1       3.307  11.825 -14.812  1.00  0.00     0.198 A 
ATOM     70  C   UNL     1       5.514  10.903 -14.999  1.00  0.00     0.198 A 
ATOM     71  F   UNL     1       6.884  10.723 -13.096  1.00  0.00    -0.203 F 
ATOM     72  F   UNL     1       2.128  12.137 -15.368  1.00  0.00    -0.200 F 
ATOM     73  C   UNL     1       4.309  11.258 -15.585  1.00  0.00     0.200 A 
ATOM     74  F   UNL     1       6.489  10.367 -15.748  1.00  0.00    -0.200 F 
ATOM     75  F   UNL     1       4.109  11.046 -16.893  1.00  0.00    -0.200 F 
ENDBRANCH  51  65
BRANCH  52  76
ATOM     76  C   UNL     1       6.206  12.762  -2.988  1.00  0.00     0.064 A 
ATOM     77  C   UNL     1       5.941  13.970  -2.327  1.00  0.00     0.173 A 
ATOM     78  C   UNL     1       6.731  11.707  -2.227  1.00  0.00     0.173 A 
ATOM     79  F   UNL     1       5.454  15.015  -3.013  1.00  0.00    -0.203 F 
ATOM     80  C   UNL     1       6.219  14.127  -0.971  1.00  0.00     0.198 A 
ATOM     81  C   UNL     1       6.977  11.854  -0.864  1.00  0.00     0.198 A 
ATOM     82  F   UNL     1       6.994  10.526  -2.807  1.00  0.00    -0.203 F 
ATOM     83  F   UNL     1       6.009  15.311  -0.379  1.00  0.00    -0.200 F 
ATOM     84  C   UNL     1       6.733  13.068  -0.239  1.00  0.00     0.200 A 
ATOM     85  F   UNL     1       7.456  10.822  -0.156  1.00  0.00    -0.200 F 
ATOM     86  F   UNL     1       7.000  13.218   1.065  1.00  0.00    -0.200 F 
ENDBRANCH  52  76
BRANCH  64  87
ATOM     87  C   UNL     1       8.956  15.748  -8.656  1.00  0.00     0.064 A 
ATOM     88  C   UNL     1      10.312  15.516  -8.386  1.00  0.00     0.173 A 
ATOM     89  C   UNL     1       8.590  17.009  -9.152  1.00  0.00     0.173 A 
ATOM     90  F   UNL     1      10.711  14.332  -7.897  1.00  0.00    -0.203 F 
ATOM     91  C   UNL     1      11.260  16.517  -8.579  1.00  0.00     0.198 A 
ATOM     92  C   UNL     1       9.545  17.995  -9.378  1.00  0.00     0.198 A 
ATOM     93  F   UNL     1       7.306  17.278  -9.436  1.00  0.00    -0.203 F 
ATOM     94  F   UNL     1      12.543  16.291  -8.264  1.00  0.00    -0.200 F 
ATOM     95  C   UNL     1      10.877  17.752  -9.083  1.00  0.00     0.200 A 
ATOM     96  F   UNL     1       9.175  19.180  -9.884  1.00  0.00    -0.200 F 
ATOM     97  F   UNL     1      11.793  18.710  -9.279  1.00  0.00    -0.200 F 
ENDBRANCH  64  87
ENDBRANCH  38  39
ENDBRANCH  30  33
ENDBRANCH  28  29
ENDBRANCH  27  28
ENDBRANCH  26  27
ENDBRANCH   3  26
TORSDOF 15
