REMARK SMILES CSc1nc(N)cc(Nc2cccc(C(=O)NCCCNC(=O)c3ccc(-c4c5nc(c(-c6c(F)c(F)c(F)c(F)c6F)c6ccc([nH]6)c(-c6c(F)c(F)c(F)c(F)c6F)c6nc(c(-c7c(F)c(F)c(F)c(F)c7F)c7ccc4[nH]7)C=C6)C=C5)cc3)c2)n1
REMARK SMILES IDX 18 1 17 2 15 3 16 4 14 6 10 7 11 8 87 9 12 10 13 11 9 12
REMARK SMILES IDX 8 14 3 15 4 16 88 17 5 18 7 19 2 20 1 21 6 22 19 25 20 26
REMARK SMILES IDX 21 27 22 28 23 30 24 31 25 32 86 33 26 34 85 35 27 36 28 37
REMARK SMILES IDX 29 38 79 39 30 40 84 41 78 42 80 43 31 44 83 45 77 46 76 47
REMARK SMILES IDX 32 49 64 50 44 51 63 52 45 53 48 54 62 55 81 56 46 57 47 58
REMARK SMILES IDX 61 60 82 61 49 62 33 63 34 64 42 65 35 66 36 67 40 68 43 69
REMARK SMILES IDX 37 70 38 71 41 72 39 73 65 74 66 75 74 76 67 77 68 78 72 79
REMARK SMILES IDX 75 80 69 81 70 82 73 83 71 84 50 85 51 86 59 87 52 88 53 89
REMARK SMILES IDX 57 90 60 91 54 92 55 93 58 94 56 95
REMARK H PARENT 17 5 9 13 6 23 6 24 21 29 80 48 48 59
REMARK Flexibility Score: inf
ROOT
ATOM      1  C   UNL     1      -3.122   4.374  -0.898  1.00  0.00     0.118 C 
ENDROOT
BRANCH   1   2
ATOM      2  N   UNL     1      -3.296   4.801  -2.282  1.00  0.00    -0.352 N 
ATOM      3  C   UNL     1      -2.598   5.630  -3.132  1.00  0.00     0.251 C 
ATOM      4  O   UNL     1      -3.078   5.814  -4.253  1.00  0.00    -0.269 OA
ATOM      5  H   UNL     1      -4.093   4.407  -2.704  1.00  0.00     0.163 HD
BRANCH   3   6
ATOM      6  C   UNL     1      -1.344   6.347  -2.768  1.00  0.00     0.041 A 
ATOM      7  C   UNL     1       0.645   6.638  -1.365  1.00  0.00     0.040 A 
ATOM      8  C   UNL     1       0.927   7.828  -2.042  1.00  0.00     0.026 A 
ATOM      9  C   UNL     1      -0.450   5.883  -1.808  1.00  0.00     0.040 A 
ATOM     10  C   UNL     1       0.123   8.248  -3.107  1.00  0.00     0.003 A 
ATOM     11  C   UNL     1      -1.019   7.522  -3.453  1.00  0.00     0.014 A 
BRANCH   7  12
ATOM     12  N   UNL     1       1.428   6.243  -0.262  1.00  0.00    -0.340 N 
ATOM     13  H   UNL     1       2.020   6.937   0.109  1.00  0.00     0.168 HD
BRANCH  12  14
ATOM     14  C   UNL     1       1.482   4.992   0.385  1.00  0.00     0.137 A 
ATOM     15  C   UNL     1       1.060   2.734   0.384  1.00  0.00     0.191 A 
ATOM     16  N   UNL     1       1.389   2.580   1.671  1.00  0.00    -0.206 NA
ATOM     17  N   UNL     1       1.106   3.892  -0.278  1.00  0.00    -0.205 NA
ATOM     18  C   UNL     1       1.788   3.681   2.314  1.00  0.00     0.130 A 
ATOM     19  C   UNL     1       1.830   4.924   1.717  1.00  0.00     0.093 A 
BRANCH  15  20
ATOM     20  S   UNL     1       0.402   1.365  -0.535  1.00  0.00    -0.090 SA
ATOM     21  C   UNL     1       1.128  -0.008   0.381  1.00  0.00     0.094 C 
ENDBRANCH  15  20
BRANCH  18  22
ATOM     22  N   UNL     1       2.081   3.532   3.657  1.00  0.00    -0.383 N 
ATOM     23  H   UNL     1       2.047   2.640   4.072  1.00  0.00     0.158 HD
ATOM     24  H   UNL     1       2.323   4.318   4.199  1.00  0.00     0.158 HD
ENDBRANCH  18  22
ENDBRANCH  12  14
ENDBRANCH   7  12
ENDBRANCH   3   6
ENDBRANCH   1   2
BRANCH   1  25
ATOM     25  C   UNL     1      -4.161   4.951   0.054  1.00  0.00     0.042 C 
BRANCH  25  26
ATOM     26  C   UNL     1      -5.559   4.371  -0.106  1.00  0.00     0.118 C 
BRANCH  26  27
ATOM     27  N   UNL     1      -5.615   2.941   0.172  1.00  0.00    -0.352 N 
ATOM     28  C   UNL     1      -6.151   2.225   1.213  1.00  0.00     0.251 C 
ATOM     29  H   UNL     1      -5.189   2.383  -0.518  1.00  0.00     0.163 HD
ATOM     30  O   UNL     1      -5.888   1.029   1.308  1.00  0.00    -0.269 OA
BRANCH  28  31
ATOM     31  C   UNL     1      -7.028   2.852   2.230  1.00  0.00     0.039 A 
ATOM     32  C   UNL     1      -6.977   2.368   3.544  1.00  0.00     0.014 A 
ATOM     33  C   UNL     1      -7.953   3.845   1.905  1.00  0.00     0.014 A 
ATOM     34  C   UNL     1      -7.805   2.914   4.528  1.00  0.00     0.010 A 
ATOM     35  C   UNL     1      -8.711   4.455   2.903  1.00  0.00     0.010 A 
ATOM     36  C   UNL     1      -8.657   3.987   4.224  1.00  0.00    -0.014 A 
BRANCH  36  37
ATOM     37  C   UNL     1      -9.506   4.616   5.269  1.00  0.00     0.031 A 
ATOM     38  C   UNL     1     -11.007   4.573   5.160  1.00  0.00     0.074 A 
ATOM     39  C   UNL     1      -8.924   5.278   6.287  1.00  0.00     0.049 A 
ATOM     40  N   UNL     1     -11.910   5.109   5.942  1.00  0.00    -0.248 NA
ATOM     41  C   UNL     1     -11.568   3.860   4.002  1.00  0.00     0.031 C 
ATOM     42  C   UNL     1      -7.481   5.444   6.472  1.00  0.00     0.029 A 
ATOM     43  N   UNL     1      -9.473   5.941   7.356  1.00  0.00    -0.354 N 
ATOM     44  C   UNL     1     -13.137   4.818   5.360  1.00  0.00     0.074 A 
ATOM     45  C   UNL     1     -12.864   4.102   4.134  1.00  0.00     0.031 C 
ATOM     46  C   UNL     1      -7.259   6.138   7.599  1.00  0.00     0.029 A 
ATOM     47  C   UNL     1      -8.541   6.493   8.200  1.00  0.00     0.049 A 
ATOM     48  H   UNL     1     -10.444   6.014   7.503  1.00  0.00     0.167 HD
ATOM     49  C   UNL     1     -14.380   5.101   5.819  1.00  0.00     0.037 A 
ATOM     50  C   UNL     1      -8.702   7.204   9.331  1.00  0.00     0.037 A 
ATOM     51  C   UNL     1     -14.651   5.778   7.060  1.00  0.00     0.049 A 
ATOM     52  C   UNL     1     -10.092   7.470   9.838  1.00  0.00     0.074 A 
ATOM     53  C   UNL     1     -15.875   6.048   7.648  1.00  0.00     0.029 A 
ATOM     54  N   UNL     1     -13.679   6.288   7.907  1.00  0.00    -0.354 N 
ATOM     55  N   UNL     1     -11.244   7.127   9.315  1.00  0.00    -0.248 NA
ATOM     56  C   UNL     1     -10.204   8.214  11.101  1.00  0.00     0.031 C 
ATOM     57  C   UNL     1     -15.644   6.754   8.834  1.00  0.00     0.029 A 
ATOM     58  C   UNL     1     -14.276   6.885   9.007  1.00  0.00     0.049 A 
ATOM     59  H   UNL     1     -12.709   6.234   7.751  1.00  0.00     0.167 HD
ATOM     60  C   UNL     1     -12.215   7.592  10.191  1.00  0.00     0.074 A 
ATOM     61  C   UNL     1     -11.516   8.223  11.292  1.00  0.00     0.031 C 
ATOM     62  C   UNL     1     -13.564   7.507  10.093  1.00  0.00     0.037 A 
BRANCH  49  63
ATOM     63  C   UNL     1     -15.547   4.668   4.978  1.00  0.00     0.064 A 
ATOM     64  C   UNL     1     -15.893   3.315   4.842  1.00  0.00     0.173 A 
ATOM     65  C   UNL     1     -16.352   5.619   4.332  1.00  0.00     0.173 A 
ATOM     66  F   UNL     1     -15.150   2.366   5.429  1.00  0.00    -0.203 F 
ATOM     67  C   UNL     1     -16.984   2.928   4.068  1.00  0.00     0.198 A 
ATOM     68  C   UNL     1     -17.460   5.230   3.583  1.00  0.00     0.198 A 
ATOM     69  F   UNL     1     -16.070   6.926   4.435  1.00  0.00    -0.203 F 
ATOM     70  F   UNL     1     -17.267   1.627   3.915  1.00  0.00    -0.200 F 
ATOM     71  C   UNL     1     -17.771   3.886   3.445  1.00  0.00     0.200 A 
ATOM     72  F   UNL     1     -18.227   6.157   2.992  1.00  0.00    -0.200 F 
ATOM     73  F   UNL     1     -18.825   3.512   2.708  1.00  0.00    -0.200 F 
ENDBRANCH  49  63
BRANCH  50  74
ATOM     74  C   UNL     1      -7.512   7.681  10.082  1.00  0.00     0.064 A 
ATOM     75  C   UNL     1      -7.168   7.113  11.317  1.00  0.00     0.173 A 
ATOM     76  C   UNL     1      -6.697   8.707   9.585  1.00  0.00     0.173 A 
ATOM     77  F   UNL     1      -7.929   6.141  11.842  1.00  0.00    -0.203 F 
ATOM     78  C   UNL     1      -6.065   7.568  12.036  1.00  0.00     0.198 A 
ATOM     79  C   UNL     1      -5.579   9.143  10.293  1.00  0.00     0.198 A 
ATOM     80  F   UNL     1      -6.981   9.279   8.406  1.00  0.00    -0.203 F 
ATOM     81  F   UNL     1      -5.784   7.037  13.234  1.00  0.00    -0.200 F 
ATOM     82  C   UNL     1      -5.268   8.579  11.521  1.00  0.00     0.200 A 
ATOM     83  F   UNL     1      -4.802  10.111   9.785  1.00  0.00    -0.200 F 
ATOM     84  F   UNL     1      -4.204   9.013  12.210  1.00  0.00    -0.200 F 
ENDBRANCH  50  74
BRANCH  62  85
ATOM     85  C   UNL     1     -14.368   8.089  11.217  1.00  0.00     0.064 A 
ATOM     86  C   UNL     1     -14.479   9.476  11.398  1.00  0.00     0.173 A 
ATOM     87  C   UNL     1     -15.052   7.252  12.111  1.00  0.00     0.173 A 
ATOM     88  F   UNL     1     -13.830  10.317  10.579  1.00  0.00    -0.203 F 
ATOM     89  C   UNL     1     -15.222  10.002  12.451  1.00  0.00     0.198 A 
ATOM     90  C   UNL     1     -15.817   7.782  13.146  1.00  0.00     0.198 A 
ATOM     91  F   UNL     1     -14.982   5.919  11.977  1.00  0.00    -0.203 F 
ATOM     92  F   UNL     1     -15.271  11.328  12.636  1.00  0.00    -0.200 F 
ATOM     93  C   UNL     1     -15.894   9.155  13.320  1.00  0.00     0.200 A 
ATOM     94  F   UNL     1     -16.475   6.963  13.978  1.00  0.00    -0.200 F 
ATOM     95  F   UNL     1     -16.609   9.664  14.333  1.00  0.00    -0.200 F 
ENDBRANCH  62  85
ENDBRANCH  36  37
ENDBRANCH  28  31
ENDBRANCH  26  27
ENDBRANCH  25  26
ENDBRANCH   1  25
TORSDOF 14
