REMARK SMILES CC1(C)[C@@](C)(C(=O)NCCCNC(=O)c2ccc(-c3c4nc(c(-c5c(F)c(F)c(F)c(F)c5F)c5ccc([nH]5)c(-c5c(F)c(F)c(F)c(F)c5F)c5nc(c(-c6c(F)c(F)c(F)c(F)c6F)c6ccc3[nH]6)C=C5)C=C4)cc2)CC[C@]1(C)C(=O)Nc1ccc(Cl)cc1Cl
REMARK SMILES IDX 10 1 9 2 8 3 6 4 7 5 4 7 1 8 2 9 3 10 80 11 5 12 78 13 79 14
REMARK SMILES IDX 81 15 82 16 83 17 84 18 85 20 86 21 91 22 87 23 90 24 92 25
REMARK SMILES IDX 88 26 89 27 11 28 12 29 13 30 14 32 15 33 16 34 77 35 17 36
REMARK SMILES IDX 76 37 18 38 19 39 20 40 70 41 21 42 75 43 69 44 71 45 22 46
REMARK SMILES IDX 74 47 68 48 67 49 23 51 55 52 35 53 54 54 36 55 39 56 53 57
REMARK SMILES IDX 72 58 37 59 38 60 52 62 73 63 40 64 24 65 25 66 33 67 26 68
REMARK SMILES IDX 27 69 31 70 34 71 28 72 29 73 32 74 30 75 56 76 57 77 65 78
REMARK SMILES IDX 58 79 59 80 63 81 66 82 60 83 61 84 64 85 62 86 41 87 42 88
REMARK SMILES IDX 50 89 43 90 44 91 48 92 51 93 45 94 46 95 49 96 47 97
REMARK H PARENT 8 6 84 19 12 31 71 50 39 61
REMARK Flexibility Score: inf
ROOT
ATOM      1  C   UNL     1       1.586  -2.217   2.203  1.00  0.00     0.042 C 
ENDROOT
BRANCH   1   2
ATOM      2  C   UNL     1       0.958  -3.036   1.066  1.00  0.00     0.117 C 
BRANCH   2   3
ATOM      3  N   UNL     1      -0.393  -2.614   0.700  1.00  0.00    -0.356 N 
ATOM      4  C   UNL     1      -1.000  -2.083  -0.399  1.00  0.00     0.226 C 
ATOM      5  O   UNL     1      -2.225  -1.957  -0.274  1.00  0.00    -0.274 OA
ATOM      6  H   UNL     1      -1.029  -2.746   1.440  1.00  0.00     0.163 HD
BRANCH   4   7
ATOM      7  C   UNL     1      -0.280  -1.661  -1.723  1.00  0.00     0.052 C 
ATOM      8  C   UNL     1       1.307  -0.194  -0.372  1.00  0.00     0.013 C 
ATOM      9  C   UNL     1       0.547  -0.306  -1.678  1.00  0.00    -0.007 C 
ATOM     10  C   UNL     1       1.589  -0.296  -2.831  1.00  0.00     0.013 C 
ATOM     11  C   UNL     1      -0.504   0.873  -1.871  1.00  0.00     0.053 C 
ATOM     12  C   UNL     1       0.498  -2.895  -2.238  1.00  0.00     0.022 C 
ATOM     13  C   UNL     1      -1.351  -1.319  -2.798  1.00  0.00     0.018 C 
ATOM     14  C   UNL     1      -1.523   0.204  -2.852  1.00  0.00     0.018 C 
ATOM     15  C   UNL     1      -1.310   1.266  -0.620  1.00  0.00     0.022 C 
BRANCH  11  16
ATOM     16  C   UNL     1       0.069   2.186  -2.543  1.00  0.00     0.230 C 
ATOM     17  O   UNL     1      -0.339   2.545  -3.657  1.00  0.00    -0.274 OA
ATOM     18  N   UNL     1       1.085   2.959  -2.042  1.00  0.00    -0.324 N 
ATOM     19  H   UNL     1       1.489   3.556  -2.713  1.00  0.00     0.170 HD
BRANCH  18  20
ATOM     20  C   UNL     1       1.669   3.073  -0.773  1.00  0.00     0.060 A 
ATOM     21  C   UNL     1       0.905   3.507   0.311  1.00  0.00     0.029 A 
ATOM     22  C   UNL     1       3.043   2.824  -0.580  1.00  0.00     0.066 A 
ATOM     23  C   UNL     1       1.459   3.542   1.595  1.00  0.00     0.023 A 
ATOM     24  C   UNL     1       3.579   2.791   0.712  1.00  0.00     0.043 A 
ATOM     25  Cl  UNL     1       4.085   2.392  -1.889  1.00  0.00    -0.082 Cl
ATOM     26  C   UNL     1       2.776   3.132   1.796  1.00  0.00     0.042 A 
ATOM     27  Cl  UNL     1       3.408   3.032   3.393  1.00  0.00    -0.084 Cl
ENDBRANCH  18  20
ENDBRANCH  11  16
ENDBRANCH   4   7
ENDBRANCH   2   3
ENDBRANCH   1   2
BRANCH   1  28
ATOM     28  C   UNL     1       0.815  -2.239   3.516  1.00  0.00     0.118 C 
BRANCH  28  29
ATOM     29  N   UNL     1       1.294  -3.291   4.390  1.00  0.00    -0.352 N 
ATOM     30  C   UNL     1       2.118  -3.232   5.487  1.00  0.00     0.251 C 
ATOM     31  H   UNL     1       0.977  -4.194   4.161  1.00  0.00     0.163 HD
ATOM     32  O   UNL     1       2.638  -4.272   5.882  1.00  0.00    -0.269 OA
BRANCH  30  33
ATOM     33  C   UNL     1       2.395  -1.963   6.213  1.00  0.00     0.039 A 
ATOM     34  C   UNL     1       3.635  -1.831   6.853  1.00  0.00     0.014 A 
ATOM     35  C   UNL     1       1.432  -0.967   6.395  1.00  0.00     0.014 A 
ATOM     36  C   UNL     1       3.900  -0.725   7.667  1.00  0.00     0.010 A 
ATOM     37  C   UNL     1       1.726   0.179   7.142  1.00  0.00     0.010 A 
ATOM     38  C   UNL     1       2.947   0.293   7.822  1.00  0.00    -0.014 A 
BRANCH  38  39
ATOM     39  C   UNL     1       3.194   1.427   8.756  1.00  0.00     0.031 A 
ATOM     40  C   UNL     1       2.352   1.590   9.996  1.00  0.00     0.074 A 
ATOM     41  C   UNL     1       4.172   2.317   8.498  1.00  0.00     0.049 A 
ATOM     42  N   UNL     1       2.421   2.504  10.934  1.00  0.00    -0.248 NA
ATOM     43  C   UNL     1       1.271   0.613  10.197  1.00  0.00     0.031 C 
ATOM     44  C   UNL     1       5.029   2.309   7.313  1.00  0.00     0.029 A 
ATOM     45  N   UNL     1       4.610   3.399   9.220  1.00  0.00    -0.354 N 
ATOM     46  C   UNL     1       1.384   2.224  11.817  1.00  0.00     0.074 A 
ATOM     47  C   UNL     1       0.671   1.086  11.279  1.00  0.00     0.031 C 
ATOM     48  C   UNL     1       5.910   3.318   7.404  1.00  0.00     0.029 A 
ATOM     49  C   UNL     1       5.667   4.057   8.640  1.00  0.00     0.049 A 
ATOM     50  H   UNL     1       4.205   3.678  10.073  1.00  0.00     0.167 HD
ATOM     51  C   UNL     1       1.067   2.840  12.982  1.00  0.00     0.037 A 
ATOM     52  C   UNL     1       6.366   5.128   9.062  1.00  0.00     0.037 A 
ATOM     53  C   UNL     1       1.799   3.944  13.545  1.00  0.00     0.049 A 
ATOM     54  C   UNL     1       6.027   5.765  10.382  1.00  0.00     0.074 A 
ATOM     55  C   UNL     1       1.592   4.593  14.751  1.00  0.00     0.029 A 
ATOM     56  N   UNL     1       2.885   4.559  12.942  1.00  0.00    -0.354 N 
ATOM     57  N   UNL     1       5.085   5.449  11.236  1.00  0.00    -0.248 NA
ATOM     58  C   UNL     1       6.861   6.900  10.802  1.00  0.00     0.031 C 
ATOM     59  C   UNL     1       2.534   5.623  14.862  1.00  0.00     0.029 A 
ATOM     60  C   UNL     1       3.352   5.588  13.745  1.00  0.00     0.049 A 
ATOM     61  H   UNL     1       3.269   4.302  12.072  1.00  0.00     0.167 HD
ATOM     62  C   UNL     1       5.225   6.329  12.301  1.00  0.00     0.074 A 
ATOM     63  C   UNL     1       6.356   7.179  11.995  1.00  0.00     0.031 C 
ATOM     64  C   UNL     1       4.481   6.425  13.430  1.00  0.00     0.037 A 
BRANCH  51  65
ATOM     65  C   UNL     1      -0.128   2.326  13.732  1.00  0.00     0.064 A 
ATOM     66  C   UNL     1      -0.108   1.085  14.388  1.00  0.00     0.173 A 
ATOM     67  C   UNL     1      -1.298   3.095  13.820  1.00  0.00     0.173 A 
ATOM     68  F   UNL     1       0.983   0.307  14.325  1.00  0.00    -0.203 F 
ATOM     69  C   UNL     1      -1.226   0.619  15.075  1.00  0.00     0.198 A 
ATOM     70  C   UNL     1      -2.405   2.638  14.532  1.00  0.00     0.198 A 
ATOM     71  F   UNL     1      -1.369   4.291  13.217  1.00  0.00    -0.203 F 
ATOM     72  F   UNL     1      -1.201  -0.592  15.649  1.00  0.00    -0.200 F 
ATOM     73  C   UNL     1      -2.371   1.398  15.151  1.00  0.00     0.200 A 
ATOM     74  F   UNL     1      -3.506   3.397  14.615  1.00  0.00    -0.200 F 
ATOM     75  F   UNL     1      -3.445   0.949  15.815  1.00  0.00    -0.200 F 
ENDBRANCH  51  65
BRANCH  52  76
ATOM     76  C   UNL     1       7.494   5.639   8.242  1.00  0.00     0.064 A 
ATOM     77  C   UNL     1       8.822   5.458   8.655  1.00  0.00     0.173 A 
ATOM     78  C   UNL     1       7.270   6.313   7.034  1.00  0.00     0.173 A 
ATOM     79  F   UNL     1       9.084   4.839   9.815  1.00  0.00    -0.203 F 
ATOM     80  C   UNL     1       9.883   5.948   7.897  1.00  0.00     0.198 A 
ATOM     81  C   UNL     1       8.333   6.780   6.264  1.00  0.00     0.198 A 
ATOM     82  F   UNL     1       6.018   6.508   6.596  1.00  0.00    -0.203 F 
ATOM     83  F   UNL     1      11.141   5.797   8.334  1.00  0.00    -0.200 F 
ATOM     84  C   UNL     1       9.638   6.603   6.699  1.00  0.00     0.200 A 
ATOM     85  F   UNL     1       8.094   7.402   5.102  1.00  0.00    -0.200 F 
ATOM     86  F   UNL     1      10.659   7.069   5.968  1.00  0.00    -0.200 F 
ENDBRANCH  52  76
BRANCH  64  87
ATOM     87  C   UNL     1       4.883   7.471  14.428  1.00  0.00     0.064 A 
ATOM     88  C   UNL     1       4.668   8.836  14.188  1.00  0.00     0.173 A 
ATOM     89  C   UNL     1       5.474   7.103  15.646  1.00  0.00     0.173 A 
ATOM     90  F   UNL     1       4.120   9.240  13.032  1.00  0.00    -0.203 F 
ATOM     91  C   UNL     1       5.060   9.796  15.117  1.00  0.00     0.198 A 
ATOM     92  C   UNL     1       5.840   8.063  16.584  1.00  0.00     0.198 A 
ATOM     93  F   UNL     1       5.695   5.809  15.926  1.00  0.00    -0.203 F 
ATOM     94  F   UNL     1       4.892  11.098  14.845  1.00  0.00    -0.200 F 
ATOM     95  C   UNL     1       5.641   9.409  16.316  1.00  0.00     0.200 A 
ATOM     96  F   UNL     1       6.392   7.688  17.746  1.00  0.00    -0.200 F 
ATOM     97  F   UNL     1       6.019  10.335  17.208  1.00  0.00    -0.200 F 
ENDBRANCH  64  87
ENDBRANCH  38  39
ENDBRANCH  30  33
ENDBRANCH  28  29
ENDBRANCH   1  28
TORSDOF 12
