REMARK SMILES CCC[C@@H](CNC(=O)NCc1c(C)nn(C)c1C)C(=O)NCCCNC(=O)c1ccc(-c2c3nc(c(-c4c(F)c(F)c(F)c(F)c4F)c4ccc([nH]4)c(-c4c(F)c(F)c(F)c(F)c4F)c4nc(c(-c5c(F)c(F)c(F)c(F)c5F)c5ccc2[nH]5)C=C4)C=C3)cc1
REMARK SMILES IDX 22 1 21 2 19 3 20 4 4 6 3 7 2 8 1 9 5 10 6 11 7 12 8 14 9 15
REMARK SMILES IDX 10 17 11 18 12 19 17 20 13 21 14 22 15 23 18 24 16 25 23 26
REMARK SMILES IDX 24 27 25 28 26 29 27 31 28 32 29 33 90 34 30 35 89 36 31 37
REMARK SMILES IDX 32 38 33 39 83 40 34 41 88 42 82 43 84 44 35 45 87 46 81 47
REMARK SMILES IDX 80 48 36 50 68 51 48 52 67 53 49 54 52 55 66 56 85 57 50 58
REMARK SMILES IDX 51 59 65 61 86 62 53 63 37 64 38 65 46 66 39 67 40 68 44 69
REMARK SMILES IDX 47 70 41 71 42 72 45 73 43 74 69 75 70 76 78 77 71 78 72 79
REMARK SMILES IDX 76 80 79 81 73 82 74 83 77 84 75 85 54 86 55 87 63 88 56 89
REMARK SMILES IDX 57 90 61 91 64 92 58 93 59 94 62 95 60 96
REMARK H PARENT 21 5 6 13 9 16 25 30 84 49 52 60
REMARK Flexibility Score: inf
ROOT
ATOM      1  C   UNL     1       0.017   2.437  -4.779  1.00  0.00     0.117 C 
ENDROOT
BRANCH   1   2
ATOM      2  N   UNL     1       0.753   1.197  -4.958  1.00  0.00    -0.356 N 
ATOM      3  C   UNL     1       0.843   0.097  -4.163  1.00  0.00     0.224 C 
ATOM      4  O   UNL     1       1.321  -0.923  -4.673  1.00  0.00    -0.275 OA
ATOM      5  H   UNL     1       1.272   1.145  -5.792  1.00  0.00     0.163 HD
BRANCH   3   6
ATOM      6  C   UNL     1       0.396   0.078  -2.703  1.00  0.00     0.097 C 
BRANCH   6   7
ATOM      7  C   UNL     1       1.046   1.206  -1.874  1.00  0.00     0.015 C 
BRANCH   7   8
ATOM      8  C   UNL     1       0.754   1.202  -0.371  1.00  0.00    -0.003 C 
ATOM      9  C   UNL     1       1.164  -0.079   0.336  1.00  0.00     0.004 C 
ENDBRANCH   7   8
ENDBRANCH   6   7
BRANCH   6  10
ATOM     10  C   UNL     1      -1.114  -0.170  -2.518  1.00  0.00     0.131 C 
BRANCH  10  11
ATOM     11  N   UNL     1      -1.996   0.793  -3.142  1.00  0.00    -0.337 N 
ATOM     12  C   UNL     1      -2.632   0.858  -4.316  1.00  0.00     0.315 C 
ATOM     13  H   UNL     1      -2.165   1.578  -2.573  1.00  0.00     0.165 HD
ATOM     14  O   UNL     1      -3.136   1.941  -4.628  1.00  0.00    -0.249 OA
ATOM     15  N   UNL     1      -2.778  -0.160  -5.164  1.00  0.00    -0.334 N 
ATOM     16  H   UNL     1      -3.180   0.112  -6.021  1.00  0.00     0.165 HD
BRANCH  15  17
ATOM     17  C   UNL     1      -2.479  -1.565  -5.109  1.00  0.00     0.157 C 
BRANCH  17  18
ATOM     18  C   UNL     1      -3.522  -2.372  -4.395  1.00  0.00     0.015 A 
ATOM     19  C   UNL     1      -4.761  -2.017  -3.764  1.00  0.00     0.065 A 
ATOM     20  C   UNL     1      -3.464  -3.758  -4.247  1.00  0.00     0.040 A 
ATOM     21  C   UNL     1      -5.460  -0.719  -3.580  1.00  0.00     0.069 C 
ATOM     22  N   UNL     1      -5.397  -3.094  -3.289  1.00  0.00    -0.178 NA
ATOM     23  N   UNL     1      -4.619  -4.128  -3.615  1.00  0.00    -0.272 N 
ATOM     24  C   UNL     1      -2.434  -4.739  -4.680  1.00  0.00     0.067 C 
ATOM     25  C   UNL     1      -5.102  -5.452  -3.305  1.00  0.00     0.174 C 
ENDBRANCH  17  18
ENDBRANCH  15  17
ENDBRANCH  10  11
ENDBRANCH   6  10
ENDBRANCH   3   6
ENDBRANCH   1   2
BRANCH   1  26
ATOM     26  C   UNL     1       0.858   3.681  -4.980  1.00  0.00     0.042 C 
BRANCH  26  27
ATOM     27  C   UNL     1       1.250   3.901  -6.432  1.00  0.00     0.118 C 
BRANCH  27  28
ATOM     28  N   UNL     1       0.102   4.110  -7.311  1.00  0.00    -0.352 N 
ATOM     29  C   UNL     1      -0.326   5.226  -7.991  1.00  0.00     0.251 C 
ATOM     30  H   UNL     1      -0.464   3.314  -7.438  1.00  0.00     0.163 HD
ATOM     31  O   UNL     1      -1.412   5.225  -8.552  1.00  0.00    -0.269 OA
BRANCH  29  32
ATOM     32  C   UNL     1       0.515   6.440  -8.024  1.00  0.00     0.039 A 
ATOM     33  C   UNL     1      -0.091   7.691  -7.884  1.00  0.00     0.014 A 
ATOM     34  C   UNL     1       1.896   6.347  -8.194  1.00  0.00     0.014 A 
ATOM     35  C   UNL     1       0.702   8.839  -7.829  1.00  0.00     0.010 A 
ATOM     36  C   UNL     1       2.689   7.471  -8.021  1.00  0.00     0.010 A 
ATOM     37  C   UNL     1       2.101   8.732  -7.848  1.00  0.00    -0.014 A 
BRANCH  37  38
ATOM     38  C   UNL     1       2.979   9.921  -7.712  1.00  0.00     0.031 A 
ATOM     39  C   UNL     1       3.940  10.268  -8.816  1.00  0.00     0.074 A 
ATOM     40  C   UNL     1       2.971  10.631  -6.567  1.00  0.00     0.049 A 
ATOM     41  N   UNL     1       4.872  11.186  -8.847  1.00  0.00    -0.248 NA
ATOM     42  C   UNL     1       3.871   9.445 -10.036  1.00  0.00     0.031 C 
ATOM     43  C   UNL     1       2.125  10.358  -5.404  1.00  0.00     0.029 A 
ATOM     44  N   UNL     1       3.711  11.723  -6.188  1.00  0.00    -0.354 N 
ATOM     45  C   UNL     1       5.511  11.033 -10.070  1.00  0.00     0.074 A 
ATOM     46  C   UNL     1       4.906   9.897 -10.728  1.00  0.00     0.031 C 
ATOM     47  C   UNL     1       2.373  11.273  -4.454  1.00  0.00     0.029 A 
ATOM     48  C   UNL     1       3.424  12.170  -4.921  1.00  0.00     0.049 A 
ATOM     49  H   UNL     1       4.384  12.146  -6.769  1.00  0.00     0.167 HD
ATOM     50  C   UNL     1       6.493  11.792 -10.610  1.00  0.00     0.037 A 
ATOM     51  C   UNL     1       3.958  13.185  -4.215  1.00  0.00     0.037 A 
ATOM     52  C   UNL     1       7.059  12.948  -9.970  1.00  0.00     0.049 A 
ATOM     53  C   UNL     1       5.041  14.020  -4.845  1.00  0.00     0.074 A 
ATOM     54  C   UNL     1       8.012  13.825 -10.457  1.00  0.00     0.029 A 
ATOM     55  N   UNL     1       6.717  13.392  -8.700  1.00  0.00    -0.354 N 
ATOM     56  N   UNL     1       5.592  13.906  -6.029  1.00  0.00    -0.248 NA
ATOM     57  C   UNL     1       5.572  15.129  -4.041  1.00  0.00     0.031 C 
ATOM     58  C   UNL     1       8.276  14.776  -9.466  1.00  0.00     0.029 A 
ATOM     59  C   UNL     1       7.452  14.521  -8.381  1.00  0.00     0.049 A 
ATOM     60  H   UNL     1       6.050  12.967  -8.114  1.00  0.00     0.167 HD
ATOM     61  C   UNL     1       6.509  14.943  -6.125  1.00  0.00     0.074 A 
ATOM     62  C   UNL     1       6.429  15.686  -4.884  1.00  0.00     0.031 C 
ATOM     63  C   UNL     1       7.345  15.253  -7.146  1.00  0.00     0.037 A 
BRANCH  50  64
ATOM     64  C   UNL     1       7.004  11.406 -11.968  1.00  0.00     0.064 A 
ATOM     65  C   UNL     1       6.215  11.549 -13.119  1.00  0.00     0.173 A 
ATOM     66  C   UNL     1       8.311  10.920 -12.126  1.00  0.00     0.173 A 
ATOM     67  F   UNL     1       4.953  11.995 -13.022  1.00  0.00    -0.203 F 
ATOM     68  C   UNL     1       6.704  11.194 -14.373  1.00  0.00     0.198 A 
ATOM     69  C   UNL     1       8.808  10.597 -13.386  1.00  0.00     0.198 A 
ATOM     70  F   UNL     1       9.110  10.767 -11.059  1.00  0.00    -0.203 F 
ATOM     71  F   UNL     1       5.914  11.293 -15.451  1.00  0.00    -0.200 F 
ATOM     72  C   UNL     1       8.003  10.727 -14.507  1.00  0.00     0.200 A 
ATOM     73  F   UNL     1      10.068  10.158 -13.515  1.00  0.00    -0.200 F 
ATOM     74  F   UNL     1       8.476  10.396 -15.716  1.00  0.00    -0.200 F 
ENDBRANCH  50  64
BRANCH  51  75
ATOM     75  C   UNL     1       3.462  13.487  -2.847  1.00  0.00     0.064 A 
ATOM     76  C   UNL     1       2.743  14.662  -2.587  1.00  0.00     0.173 A 
ATOM     77  C   UNL     1       3.707  12.621  -1.771  1.00  0.00     0.173 A 
ATOM     78  F   UNL     1       2.499  15.531  -3.579  1.00  0.00    -0.203 F 
ATOM     79  C   UNL     1       2.312  14.974  -1.299  1.00  0.00     0.198 A 
ATOM     80  C   UNL     1       3.250  12.920  -0.488  1.00  0.00     0.198 A 
ATOM     81  F   UNL     1       4.385  11.481  -1.966  1.00  0.00    -0.203 F 
ATOM     82  F   UNL     1       1.674  16.129  -1.070  1.00  0.00    -0.200 F 
ATOM     83  C   UNL     1       2.562  14.100  -0.251  1.00  0.00     0.200 A 
ATOM     84  F   UNL     1       3.481  12.066   0.518  1.00  0.00    -0.200 F 
ATOM     85  F   UNL     1       2.150  14.401   0.988  1.00  0.00    -0.200 F 
ENDBRANCH  51  75
BRANCH  63  86
ATOM     86  C   UNL     1       8.209  16.468  -6.981  1.00  0.00     0.064 A 
ATOM     87  C   UNL     1       9.300  16.482  -6.101  1.00  0.00     0.173 A 
ATOM     88  C   UNL     1       7.965  17.619  -7.748  1.00  0.00     0.173 A 
ATOM     89  F   UNL     1       9.564  15.412  -5.336  1.00  0.00    -0.203 F 
ATOM     90  C   UNL     1      10.101  17.614  -5.975  1.00  0.00     0.198 A 
ATOM     91  C   UNL     1       8.787  18.736  -7.642  1.00  0.00     0.198 A 
ATOM     92  F   UNL     1       6.938  17.652  -8.610  1.00  0.00    -0.203 F 
ATOM     93  F   UNL     1      11.110  17.622  -5.093  1.00  0.00    -0.200 F 
ATOM     94  C   UNL     1       9.850  18.736  -6.751  1.00  0.00     0.200 A 
ATOM     95  F   UNL     1       8.552  19.814  -8.403  1.00  0.00    -0.200 F 
ATOM     96  F   UNL     1      10.628  19.820  -6.634  1.00  0.00    -0.200 F 
ENDBRANCH  63  86
ENDBRANCH  37  38
ENDBRANCH  29  32
ENDBRANCH  27  28
ENDBRANCH  26  27
ENDBRANCH   1  26
TORSDOF 16
