REMARK SMILES CCNc1nc(C)c(C(=O)N2CC[NH2+][C@H](C(=O)NCCCNC(=O)c3ccc(-c4c5nc(c(-c6c(F)c(F)c(F)c(F)c6F)c6ccc([nH]6)c(-c6c(F)c(F)c(F)c(F)c6F)c6nc(c(-c7c(F)c(F)c(F)c(F)c7F)c7ccc4[nH]7)C=C6)C=C5)cc3)C2)s1
REMARK SMILES IDX 19 1 18 2 16 3 17 4 15 6 11 7 12 8 88 9 13 10 14 11 9 14
REMARK SMILES IDX 10 15 8 16 4 17 5 18 89 19 6 20 7 21 3 22 2 24 1 25 20 26
REMARK SMILES IDX 21 27 22 28 23 29 24 31 25 32 26 33 87 34 27 35 86 36 28 37
REMARK SMILES IDX 29 38 30 39 80 40 31 41 85 42 79 43 81 44 32 45 84 46 78 47
REMARK SMILES IDX 77 48 33 50 65 51 45 52 64 53 46 54 49 55 63 56 82 57 47 58
REMARK SMILES IDX 48 59 62 61 83 62 50 63 34 64 35 65 43 66 36 67 37 68 41 69
REMARK SMILES IDX 44 70 38 71 39 72 42 73 40 74 66 75 67 76 75 77 68 78 69 79
REMARK SMILES IDX 73 80 76 81 70 82 71 83 74 84 72 85 51 86 52 87 60 88 53 89
REMARK SMILES IDX 54 90 58 91 61 92 55 93 56 94 59 95 57 96
REMARK H PARENT 18 5 14 12 14 13 3 23 22 30 81 49 49 60
REMARK Flexibility Score: inf
ROOT
ATOM      1  C   UNL     1      -0.756   7.665   7.754  1.00  0.00     0.118 C 
ENDROOT
BRANCH   1   2
ATOM      2  N   UNL     1      -1.783   7.707   6.723  1.00  0.00    -0.351 N 
ATOM      3  C   UNL     1      -2.547   6.669   6.254  1.00  0.00     0.280 C 
ATOM      4  O   UNL     1      -3.404   6.892   5.399  1.00  0.00    -0.268 OA
ATOM      5  H   UNL     1      -1.948   8.587   6.313  1.00  0.00     0.163 HD
BRANCH   3   6
ATOM      6  C   UNL     1      -2.287   5.273   6.826  1.00  0.00     0.292 C 
ATOM      7  N   UNL     1      -2.661   2.846   6.552  1.00  0.00    -0.326 N 
ATOM      8  C   UNL     1      -3.091   2.739   7.946  1.00  0.00     0.181 C 
ATOM      9  C   UNL     1      -2.889   4.163   5.940  1.00  0.00     0.195 C 
ATOM     10  C   UNL     1      -2.492   3.879   8.787  1.00  0.00     0.283 C 
ATOM     11  N   UNL     1      -2.788   5.212   8.232  1.00  0.00    -0.333 N 
ATOM     12  H   UNL     1      -2.323   5.927   8.793  1.00  0.00     0.347 HD
ATOM     13  H   UNL     1      -3.794   5.377   8.248  1.00  0.00     0.347 HD
BRANCH   7  14
ATOM     14  C   UNL     1      -2.482   1.670   5.828  1.00  0.00     0.266 C 
ATOM     15  O   UNL     1      -3.129   0.671   6.154  1.00  0.00    -0.268 OA
BRANCH  14  16
ATOM     16  C   UNL     1      -1.435   1.621   4.815  1.00  0.00     0.117 A 
ATOM     17  C   UNL     1       0.107   0.732   3.136  1.00  0.00     0.183 A 
ATOM     18  N   UNL     1       0.597   1.816   3.679  1.00  0.00    -0.225 NA
ATOM     19  S   UNL     1      -1.475   0.334   3.659  1.00  0.00    -0.092 S 
ATOM     20  C   UNL     1      -0.259   2.337   4.631  1.00  0.00     0.063 A 
ATOM     21  C   UNL     1       0.269   3.511   5.362  1.00  0.00     0.068 C 
BRANCH  17  22
ATOM     22  N   UNL     1       0.868   0.015   2.290  1.00  0.00    -0.362 N 
ATOM     23  H   UNL     1       1.842   0.028   2.433  1.00  0.00     0.162 HD
BRANCH  22  24
ATOM     24  C   UNL     1       0.371  -0.773   1.190  1.00  0.00     0.112 C 
ATOM     25  C   UNL     1       0.908  -0.178  -0.104  1.00  0.00     0.027 C 
ENDBRANCH  22  24
ENDBRANCH  17  22
ENDBRANCH  14  16
ENDBRANCH   7  14
ENDBRANCH   3   6
ENDBRANCH   1   2
BRANCH   1  26
ATOM     26  C   UNL     1       0.635   7.912   7.190  1.00  0.00     0.042 C 
BRANCH  26  27
ATOM     27  C   UNL     1       0.829   9.320   6.644  1.00  0.00     0.118 C 
BRANCH  27  28
ATOM     28  N   UNL     1       0.662  10.348   7.665  1.00  0.00    -0.352 N 
ATOM     29  C   UNL     1       1.547  11.293   8.119  1.00  0.00     0.251 C 
ATOM     30  H   UNL     1      -0.224  10.366   8.096  1.00  0.00     0.163 HD
ATOM     31  O   UNL     1       1.282  11.962   9.113  1.00  0.00    -0.269 OA
BRANCH  29  32
ATOM     32  C   UNL     1       2.831  11.490   7.420  1.00  0.00     0.039 A 
ATOM     33  C   UNL     1       4.007  11.607   8.168  1.00  0.00     0.014 A 
ATOM     34  C   UNL     1       2.873  11.552   6.026  1.00  0.00     0.014 A 
ATOM     35  C   UNL     1       5.236  11.703   7.512  1.00  0.00     0.010 A 
ATOM     36  C   UNL     1       4.099  11.563   5.376  1.00  0.00     0.010 A 
ATOM     37  C   UNL     1       5.293  11.639   6.112  1.00  0.00    -0.014 A 
BRANCH  37  38
ATOM     38  C   UNL     1       6.575  11.669   5.365  1.00  0.00     0.031 A 
ATOM     39  C   UNL     1       6.833  12.790   4.399  1.00  0.00     0.074 A 
ATOM     40  C   UNL     1       7.438  10.641   5.462  1.00  0.00     0.049 A 
ATOM     41  N   UNL     1       7.762  12.901   3.485  1.00  0.00    -0.248 NA
ATOM     42  C   UNL     1       5.891  13.920   4.441  1.00  0.00     0.031 C 
ATOM     43  C   UNL     1       7.287   9.486   6.348  1.00  0.00     0.029 A 
ATOM     44  N   UNL     1       8.602  10.386   4.780  1.00  0.00    -0.354 N 
ATOM     45  C   UNL     1       7.494  14.091   2.821  1.00  0.00     0.074 A 
ATOM     46  C   UNL     1       6.294  14.646   3.409  1.00  0.00     0.031 C 
ATOM     47  C   UNL     1       8.320   8.649   6.158  1.00  0.00     0.029 A 
ATOM     48  C   UNL     1       9.176   9.180   5.101  1.00  0.00     0.049 A 
ATOM     49  H   UNL     1       8.989  11.009   4.123  1.00  0.00     0.167 HD
ATOM     50  C   UNL     1       8.196  14.674   1.822  1.00  0.00     0.037 A 
ATOM     51  C   UNL     1      10.253   8.561   4.580  1.00  0.00     0.037 A 
ATOM     52  C   UNL     1       9.411  14.136   1.272  1.00  0.00     0.049 A 
ATOM     53  C   UNL     1      11.013   9.227   3.464  1.00  0.00     0.074 A 
ATOM     54  C   UNL     1      10.230  14.676   0.297  1.00  0.00     0.029 A 
ATOM     55  N   UNL     1       9.983  12.932   1.657  1.00  0.00    -0.354 N 
ATOM     56  N   UNL     1      10.775  10.370   2.869  1.00  0.00    -0.248 NA
ATOM     57  C   UNL     1      12.191   8.516   2.945  1.00  0.00     0.031 C 
ATOM     58  C   UNL     1      11.277  13.780   0.063  1.00  0.00     0.029 A 
ATOM     59  C   UNL     1      11.139  12.707   0.929  1.00  0.00     0.049 A 
ATOM     60  H   UNL     1       9.622  12.328   2.346  1.00  0.00     0.167 HD
ATOM     61  C   UNL     1      11.791  10.535   1.937  1.00  0.00     0.074 A 
ATOM     62  C   UNL     1      12.648   9.373   2.042  1.00  0.00     0.031 C 
ATOM     63  C   UNL     1      11.997  11.559   1.074  1.00  0.00     0.037 A 
BRANCH  50  64
ATOM     64  C   UNL     1       7.667  15.960   1.258  1.00  0.00     0.064 A 
ATOM     65  C   UNL     1       7.685  17.152   1.998  1.00  0.00     0.173 A 
ATOM     66  C   UNL     1       7.166  16.009  -0.052  1.00  0.00     0.173 A 
ATOM     67  F   UNL     1       8.142  17.157   3.259  1.00  0.00    -0.203 F 
ATOM     68  C   UNL     1       7.192  18.337   1.459  1.00  0.00     0.198 A 
ATOM     69  C   UNL     1       6.704  17.203  -0.599  1.00  0.00     0.198 A 
ATOM     70  F   UNL     1       7.131  14.899  -0.805  1.00  0.00    -0.203 F 
ATOM     71  F   UNL     1       7.171  19.451   2.203  1.00  0.00    -0.200 F 
ATOM     72  C   UNL     1       6.710  18.363   0.159  1.00  0.00     0.200 A 
ATOM     73  F   UNL     1       6.251  17.229  -1.860  1.00  0.00    -0.200 F 
ATOM     74  F   UNL     1       6.243  19.507  -0.361  1.00  0.00    -0.200 F 
ENDBRANCH  50  64
BRANCH  51  75
ATOM     75  C   UNL     1      10.685   7.244   5.116  1.00  0.00     0.064 A 
ATOM     76  C   UNL     1      11.872   7.124   5.852  1.00  0.00     0.173 A 
ATOM     77  C   UNL     1       9.930   6.081   4.902  1.00  0.00     0.173 A 
ATOM     78  F   UNL     1      12.638   8.204   6.065  1.00  0.00    -0.203 F 
ATOM     79  C   UNL     1      12.297   5.890   6.338  1.00  0.00     0.198 A 
ATOM     80  C   UNL     1      10.343   4.851   5.412  1.00  0.00     0.198 A 
ATOM     81  F   UNL     1       8.784   6.141   4.209  1.00  0.00    -0.203 F 
ATOM     82  F   UNL     1      13.458   5.798   7.000  1.00  0.00    -0.200 F 
ATOM     83  C   UNL     1      11.530   4.755   6.122  1.00  0.00     0.200 A 
ATOM     84  F   UNL     1       9.591   3.760   5.214  1.00  0.00    -0.200 F 
ATOM     85  F   UNL     1      11.938   3.569   6.593  1.00  0.00    -0.200 F 
ENDBRANCH  51  75
BRANCH  63  86
ATOM     86  C   UNL     1      13.227  11.514   0.219  1.00  0.00     0.064 A 
ATOM     87  C   UNL     1      13.324  10.665  -0.891  1.00  0.00     0.173 A 
ATOM     88  C   UNL     1      14.286  12.403   0.465  1.00  0.00     0.173 A 
ATOM     89  F   UNL     1      12.344   9.789  -1.159  1.00  0.00    -0.203 F 
ATOM     90  C   UNL     1      14.441  10.702  -1.722  1.00  0.00     0.198 A 
ATOM     91  C   UNL     1      15.388  12.456  -0.382  1.00  0.00     0.198 A 
ATOM     92  F   UNL     1      14.235  13.240   1.513  1.00  0.00    -0.203 F 
ATOM     93  F   UNL     1      14.527   9.865  -2.765  1.00  0.00    -0.200 F 
ATOM     94  C   UNL     1      15.466  11.605  -1.474  1.00  0.00     0.200 A 
ATOM     95  F   UNL     1      16.369  13.338  -0.148  1.00  0.00    -0.200 F 
ATOM     96  F   UNL     1      16.529  11.654  -2.287  1.00  0.00    -0.200 F 
ENDBRANCH  63  86
ENDBRANCH  37  38
ENDBRANCH  29  32
ENDBRANCH  27  28
ENDBRANCH  26  27
ENDBRANCH   1  26
TORSDOF 14
