REMARK SMILES CC(C)C(=O)Nc1ccc2c([C@H](C(=O)NCCCNC(=O)c3ccc(-c4c5nc(c(-c6c(F)c(F)c(F)c(F)c6F)c6ccc([nH]6)c(-c6c(F)c(F)c(F)c(F)c6F)c6nc(c(-c7c(F)c(F)c(F)c(F)c7F)c7ccc4[nH]7)C=C6)C=C5)cc3)[NH+]3CC[NH+](CC(=O)N(C)C)CC3)c[nH]c2c1
REMARK SMILES IDX 16 1 15 2 13 3 14 4 12 6 11 7 7 8 8 9 100 10 9 11 99 12
REMARK SMILES IDX 10 13 98 14 97 15 6 17 4 18 5 19 2 21 1 22 3 23 85 24 86 25
REMARK SMILES IDX 96 26 87 28 95 29 88 30 89 32 90 33 91 34 92 35 93 36 94 37
REMARK SMILES IDX 17 38 18 39 19 40 20 41 21 43 22 44 23 45 84 46 24 47 83 48
REMARK SMILES IDX 25 49 26 50 27 51 77 52 28 53 82 54 76 55 78 56 29 57 81 58
REMARK SMILES IDX 75 59 74 60 30 62 62 63 42 64 61 65 43 66 46 67 60 68 79 69
REMARK SMILES IDX 44 70 45 71 59 73 80 74 47 75 31 76 32 77 40 78 33 79 34 80
REMARK SMILES IDX 38 81 41 82 35 83 36 84 39 85 37 86 63 87 64 88 72 89 65 90
REMARK SMILES IDX 66 91 70 92 73 93 67 94 68 95 71 96 69 97 48 98 49 99 57 100
REMARK SMILES IDX 50 101 51 102 55 103 58 104 52 105 53 106 56 107 54 108
REMARK H PARENT 15 5 98 16 6 20 85 27 88 31 19 42 78 61 46 72
REMARK Flexibility Score: inf
ROOT
ATOM      1  C   UNL     1       0.402  -2.907   4.149  1.00  0.00     0.118 C 
ENDROOT
BRANCH   1   2
ATOM      2  N   UNL     1      -0.360  -1.963   4.951  1.00  0.00    -0.351 N 
ATOM      3  C   UNL     1      -0.033  -0.883   5.725  1.00  0.00     0.283 C 
ATOM      4  O   UNL     1      -0.991  -0.098   5.850  1.00  0.00    -0.268 OA
ATOM      5  H   UNL     1      -1.328  -2.141   4.933  1.00  0.00     0.163 HD
BRANCH   3   6
ATOM      6  C   UNL     1       1.386  -0.545   6.381  1.00  0.00     0.308 C 
BRANCH   6   7
ATOM      7  C   UNL     1       1.209   0.205   7.713  1.00  0.00     0.044 A 
ATOM      8  C   UNL     1       3.452   2.985  10.006  1.00  0.00     0.043 A 
ATOM      9  C   UNL     1       4.142   2.342   8.986  1.00  0.00     0.027 A 
ATOM     10  C   UNL     1       2.144   2.598  10.309  1.00  0.00     0.052 A 
ATOM     11  C   UNL     1       3.507   1.419   8.142  1.00  0.00     0.013 A 
ATOM     12  C   UNL     1       1.527   1.655   9.473  1.00  0.00     0.048 A 
ATOM     13  C   UNL     1       2.160   1.074   8.370  1.00  0.00     0.009 A 
ATOM     14  N   UNL     1       0.255   1.145   9.520  1.00  0.00    -0.361 N 
ATOM     15  C   UNL     1       0.070   0.250   8.505  1.00  0.00     0.094 A 
ATOM     16  H   UNL     1      -0.425   1.388  10.188  1.00  0.00     0.166 HD
BRANCH   8  17
ATOM     17  N   UNL     1       4.034   3.979  10.802  1.00  0.00    -0.326 N 
ATOM     18  C   UNL     1       4.874   5.010  10.499  1.00  0.00     0.226 C 
ATOM     19  O   UNL     1       5.399   5.606  11.447  1.00  0.00    -0.274 OA
ATOM     20  H   UNL     1       3.792   3.923  11.755  1.00  0.00     0.169 HD
BRANCH  18  21
ATOM     21  C   UNL     1       5.098   5.530   9.074  1.00  0.00     0.072 C 
ATOM     22  C   UNL     1       6.173   4.799   8.283  1.00  0.00     0.018 C 
ATOM     23  C   UNL     1       3.810   5.743   8.281  1.00  0.00     0.018 C 
ENDBRANCH  18  21
ENDBRANCH   8  17
ENDBRANCH   6   7
BRANCH   6  24
ATOM     24  N   UNL     1       2.247  -1.742   6.468  1.00  0.00    -0.312 N 
ATOM     25  C   UNL     1       2.865  -2.120   7.750  1.00  0.00     0.325 C 
ATOM     26  C   UNL     1       3.332  -1.723   5.479  1.00  0.00     0.325 C 
ATOM     27  H   UNL     1       1.530  -2.447   6.297  1.00  0.00     0.349 HD
ATOM     28  C   UNL     1       3.584  -3.510   7.682  1.00  0.00     0.325 C 
ATOM     29  C   UNL     1       3.729  -3.182   5.245  1.00  0.00     0.325 C 
ATOM     30  N   UNL     1       4.169  -3.941   6.401  1.00  0.00    -0.318 N 
ATOM     31  H   UNL     1       3.738  -4.859   6.290  1.00  0.00     0.348 HD
BRANCH  30  32
ATOM     32  C   UNL     1       5.590  -4.296   6.396  1.00  0.00     0.364 C 
BRANCH  32  33
ATOM     33  C   UNL     1       6.496  -3.063   6.307  1.00  0.00     0.277 C 
ATOM     34  O   UNL     1       6.815  -2.482   7.350  1.00  0.00    -0.268 OA
ATOM     35  N   UNL     1       6.880  -2.578   5.055  1.00  0.00    -0.344 N 
ATOM     36  C   UNL     1       6.691  -3.226   3.758  1.00  0.00     0.146 C 
ATOM     37  C   UNL     1       7.553  -1.293   5.000  1.00  0.00     0.146 C 
ENDBRANCH  32  33
ENDBRANCH  30  32
ENDBRANCH   6  24
ENDBRANCH   3   6
ENDBRANCH   1   2
BRANCH   1  38
ATOM     38  C   UNL     1       0.525  -4.301   4.771  1.00  0.00     0.042 C 
BRANCH  38  39
ATOM     39  C   UNL     1      -0.573  -5.283   4.385  1.00  0.00     0.118 C 
BRANCH  39  40
ATOM     40  N   UNL     1      -0.198  -6.054   3.195  1.00  0.00    -0.352 N 
ATOM     41  C   UNL     1       0.370  -7.299   3.025  1.00  0.00     0.251 C 
ATOM     42  H   UNL     1      -0.391  -5.591   2.348  1.00  0.00     0.163 HD
ATOM     43  O   UNL     1       0.852  -7.563   1.924  1.00  0.00    -0.269 OA
BRANCH  41  44
ATOM     44  C   UNL     1       0.420  -8.337   4.094  1.00  0.00     0.039 A 
ATOM     45  C   UNL     1       1.381  -9.359   4.001  1.00  0.00     0.014 A 
ATOM     46  C   UNL     1      -0.520  -8.410   5.119  1.00  0.00     0.014 A 
ATOM     47  C   UNL     1       1.408 -10.410   4.932  1.00  0.00     0.010 A 
ATOM     48  C   UNL     1      -0.424  -9.389   6.109  1.00  0.00     0.010 A 
ATOM     49  C   UNL     1       0.514 -10.426   6.010  1.00  0.00    -0.014 A 
BRANCH  49  50
ATOM     50  C   UNL     1       0.469 -11.540   7.001  1.00  0.00     0.031 A 
ATOM     51  C   UNL     1      -0.801 -12.340   7.173  1.00  0.00     0.074 A 
ATOM     52  C   UNL     1       1.522 -11.790   7.804  1.00  0.00     0.049 A 
ATOM     53  N   UNL     1      -1.109 -13.233   8.081  1.00  0.00    -0.248 NA
ATOM     54  C   UNL     1      -1.887 -12.065   6.219  1.00  0.00     0.031 C 
ATOM     55  C   UNL     1       2.798 -11.076   7.777  1.00  0.00     0.029 A 
ATOM     56  N   UNL     1       1.677 -12.708   8.815  1.00  0.00    -0.354 N 
ATOM     57  C   UNL     1      -2.433 -13.579   7.840  1.00  0.00     0.074 A 
ATOM     58  C   UNL     1      -2.884 -12.773   6.727  1.00  0.00     0.031 C 
ATOM     59  C   UNL     1       3.613 -11.597   8.709  1.00  0.00     0.029 A 
ATOM     60  C   UNL     1       2.904 -12.652   9.428  1.00  0.00     0.049 A 
ATOM     61  H   UNL     1       0.973 -13.346   9.075  1.00  0.00     0.167 HD
ATOM     62  C   UNL     1      -3.201 -14.500   8.472  1.00  0.00     0.037 A 
ATOM     63  C   UNL     1       3.400 -13.364  10.459  1.00  0.00     0.037 A 
ATOM     64  C   UNL     1      -2.732 -15.360   9.525  1.00  0.00     0.049 A 
ATOM     65  C   UNL     1       2.544 -14.413  11.116  1.00  0.00     0.074 A 
ATOM     66  C   UNL     1      -3.403 -16.389  10.164  1.00  0.00     0.029 A 
ATOM     67  N   UNL     1      -1.465 -15.300  10.086  1.00  0.00    -0.354 N 
ATOM     68  N   UNL     1       1.311 -14.763  10.846  1.00  0.00    -0.248 NA
ATOM     69  C   UNL     1       3.153 -15.168  12.221  1.00  0.00     0.031 C 
ATOM     70  C   UNL     1      -2.552 -16.931  11.133  1.00  0.00     0.029 A 
ATOM     71  C   UNL     1      -1.339 -16.265  11.072  1.00  0.00     0.049 A 
ATOM     72  H   UNL     1      -0.760 -14.665   9.822  1.00  0.00     0.167 HD
ATOM     73  C   UNL     1       1.005 -15.794  11.725  1.00  0.00     0.074 A 
ATOM     74  C   UNL     1       2.187 -16.021  12.531  1.00  0.00     0.031 C 
ATOM     75  C   UNL     1      -0.151 -16.488  11.854  1.00  0.00     0.037 A 
BRANCH  62  76
ATOM     76  C   UNL     1      -4.632 -14.633   8.034  1.00  0.00     0.064 A 
ATOM     77  C   UNL     1      -4.978 -15.179   6.789  1.00  0.00     0.173 A 
ATOM     78  C   UNL     1      -5.674 -14.235   8.886  1.00  0.00     0.173 A 
ATOM     79  F   UNL     1      -4.020 -15.566   5.933  1.00  0.00    -0.203 F 
ATOM     80  C   UNL     1      -6.310 -15.287   6.397  1.00  0.00     0.198 A 
ATOM     81  C   UNL     1      -7.007 -14.374   8.504  1.00  0.00     0.198 A 
ATOM     82  F   UNL     1      -5.402 -13.715  10.092  1.00  0.00    -0.203 F 
ATOM     83  F   UNL     1      -6.612 -15.760   5.180  1.00  0.00    -0.200 F 
ATOM     84  C   UNL     1      -7.323 -14.891   7.257  1.00  0.00     0.200 A 
ATOM     85  F   UNL     1      -7.985 -14.002   9.341  1.00  0.00    -0.200 F 
ATOM     86  F   UNL     1      -8.604 -14.999   6.879  1.00  0.00    -0.200 F 
ENDBRANCH  62  76
BRANCH  63  87
ATOM     87  C   UNL     1       4.796 -13.134  10.913  1.00  0.00     0.064 A 
ATOM     88  C   UNL     1       5.793 -14.087  10.660  1.00  0.00     0.173 A 
ATOM     89  C   UNL     1       5.165 -11.969  11.599  1.00  0.00     0.173 A 
ATOM     90  F   UNL     1       5.482 -15.228  10.028  1.00  0.00    -0.203 F 
ATOM     91  C   UNL     1       7.103 -13.890  11.089  1.00  0.00     0.198 A 
ATOM     92  C   UNL     1       6.482 -11.761  12.006  1.00  0.00     0.198 A 
ATOM     93  F   UNL     1       4.248 -11.027  11.864  1.00  0.00    -0.203 F 
ATOM     94  F   UNL     1       8.027 -14.835  10.868  1.00  0.00    -0.200 F 
ATOM     95  C   UNL     1       7.448 -12.724  11.756  1.00  0.00     0.200 A 
ATOM     96  F   UNL     1       6.814 -10.629  12.641  1.00  0.00    -0.200 F 
ATOM     97  F   UNL     1       8.710 -12.532  12.163  1.00  0.00    -0.200 F 
ENDBRANCH  63  87
BRANCH  75  98
ATOM     98  C   UNL     1      -0.185 -17.586  12.875  1.00  0.00     0.064 A 
ATOM     99  C   UNL     1      -0.255 -17.311  14.248  1.00  0.00     0.173 A 
ATOM    100  C   UNL     1      -0.194 -18.930  12.470  1.00  0.00     0.173 A 
ATOM    101  F   UNL     1      -0.235 -16.042  14.683  1.00  0.00    -0.203 F 
ATOM    102  C   UNL     1      -0.311 -18.342  15.181  1.00  0.00     0.198 A 
ATOM    103  C   UNL     1      -0.276 -19.958  13.405  1.00  0.00     0.198 A 
ATOM    104  F   UNL     1      -0.135 -19.245  11.168  1.00  0.00    -0.203 F 
ATOM    105  F   UNL     1      -0.337 -18.058  16.490  1.00  0.00    -0.200 F 
ATOM    106  C   UNL     1      -0.328 -19.664  14.759  1.00  0.00     0.200 A 
ATOM    107  F   UNL     1      -0.303 -21.234  12.996  1.00  0.00    -0.200 F 
ATOM    108  F   UNL     1      -0.389 -20.655  15.659  1.00  0.00    -0.200 F 
ENDBRANCH  75  98
ENDBRANCH  49  50
ENDBRANCH  41  44
ENDBRANCH  39  40
ENDBRANCH  38  39
ENDBRANCH   1  38
TORSDOF 16
