REMARK SMILES CCc1cc(C(=O)c2[nH]c3cc(Cl)ccc3c2CC(=O)NCCCNC(=O)c2ccc(-c3c4nc(c(-c5c(F)c(F)c(F)c(F)c5F)c5ccc([nH]5)c(-c5c(F)c(F)c(F)c(F)c5F)c5nc(c(-c6c(F)c(F)c(F)c(F)c6F)c6ccc3[nH]6)C=C5)C=C4)cc2)ncc1Cl
REMARK SMILES IDX 22 1 21 2 19 3 20 4 18 6 17 7 8 8 9 9 10 10 16 12 11 13
REMARK SMILES IDX 15 14 12 15 14 16 13 17 6 18 7 19 5 20 3 21 4 22 93 23 92 24
REMARK SMILES IDX 94 25 91 26 2 27 1 28 23 29 24 30 25 31 26 32 27 34 28 35
REMARK SMILES IDX 29 36 90 37 30 38 89 39 31 40 32 41 33 42 83 43 34 44 88 45
REMARK SMILES IDX 82 46 84 47 35 48 87 49 81 50 80 51 36 53 68 54 48 55 67 56
REMARK SMILES IDX 49 57 52 58 66 59 85 60 50 61 51 62 65 64 86 65 53 66 37 67
REMARK SMILES IDX 38 68 46 69 39 70 40 71 44 72 47 73 41 74 42 75 45 76 43 77
REMARK SMILES IDX 69 78 70 79 78 80 71 81 72 82 76 83 79 84 73 85 74 86 77 87
REMARK SMILES IDX 75 88 54 89 55 90 63 91 56 92 57 93 61 94 64 95 58 96 59 97
REMARK SMILES IDX 62 98 60 99
REMARK H PARENT 21 5 9 11 25 33 84 52 52 63
REMARK Flexibility Score: inf
ROOT
ATOM      1  C   UNL     1       5.224   0.878   7.716  1.00  0.00     0.117 C 
ENDROOT
BRANCH   1   2
ATOM      2  N   UNL     1       5.183  -0.514   7.309  1.00  0.00    -0.356 N 
ATOM      3  C   UNL     1       5.133  -1.056   6.057  1.00  0.00     0.224 C 
ATOM      4  O   UNL     1       5.209  -2.281   5.944  1.00  0.00    -0.275 OA
ATOM      5  H   UNL     1       5.193  -1.166   8.047  1.00  0.00     0.163 HD
BRANCH   3   6
ATOM      6  C   UNL     1       5.061  -0.167   4.830  1.00  0.00     0.138 C 
BRANCH   6   7
ATOM      7  C   UNL     1       3.752   0.547   4.651  1.00  0.00    -0.002 A 
ATOM      8  C   UNL     1       2.474  -0.003   4.645  1.00  0.00     0.093 A 
ATOM      9  N   UNL     1       1.576   1.029   4.512  1.00  0.00    -0.351 N 
ATOM     10  C   UNL     1       2.231   2.223   4.341  1.00  0.00     0.048 A 
ATOM     11  H   UNL     1       0.597   0.926   4.535  1.00  0.00     0.167 HD
ATOM     12  C   UNL     1       3.597   1.956   4.420  1.00  0.00     0.004 A 
ATOM     13  C   UNL     1       1.715   3.509   4.143  1.00  0.00     0.047 A 
ATOM     14  C   UNL     1       4.498   3.035   4.290  1.00  0.00     0.012 A 
ATOM     15  C   UNL     1       2.631   4.556   4.020  1.00  0.00     0.043 A 
ATOM     16  C   UNL     1       4.002   4.330   4.091  1.00  0.00     0.021 A 
ATOM     17  Cl  UNL     1       2.047   6.158   3.780  1.00  0.00    -0.084 Cl
BRANCH   8  18
ATOM     18  C   UNL     1       2.043  -1.378   4.830  1.00  0.00     0.227 C 
ATOM     19  O   UNL     1       1.943  -1.855   5.955  1.00  0.00    -0.285 OA
BRANCH  18  20
ATOM     20  C   UNL     1       1.615  -2.161   3.606  1.00  0.00     0.113 A 
ATOM     21  C   UNL     1       1.168  -2.338   1.222  1.00  0.00    -0.026 A 
ATOM     22  C   UNL     1       1.660  -1.609   2.320  1.00  0.00     0.037 A 
ATOM     23  C   UNL     1       0.698  -3.637   1.469  1.00  0.00     0.062 A 
ATOM     24  C   UNL     1       0.703  -4.115   2.774  1.00  0.00     0.132 A 
ATOM     25  Cl  UNL     1       0.109  -4.666   0.217  1.00  0.00    -0.082 Cl
ATOM     26  N   UNL     1       1.131  -3.404   3.843  1.00  0.00    -0.251 NA
BRANCH  21  27
ATOM     27  C   UNL     1       1.153  -1.768  -0.183  1.00  0.00     0.034 C 
ATOM     28  C   UNL     1       1.432  -0.274  -0.326  1.00  0.00     0.009 C 
ENDBRANCH  21  27
ENDBRANCH  18  20
ENDBRANCH   8  18
ENDBRANCH   6   7
ENDBRANCH   3   6
ENDBRANCH   1   2
BRANCH   1  29
ATOM     29  C   UNL     1       3.859   1.443   8.107  1.00  0.00     0.042 C 
BRANCH  29  30
ATOM     30  C   UNL     1       3.182   0.744   9.283  1.00  0.00     0.118 C 
BRANCH  30  31
ATOM     31  N   UNL     1       3.870   0.979  10.543  1.00  0.00    -0.352 N 
ATOM     32  C   UNL     1       3.416   1.526  11.716  1.00  0.00     0.251 C 
ATOM     33  H   UNL     1       4.814   0.700  10.555  1.00  0.00     0.163 HD
ATOM     34  O   UNL     1       4.218   1.786  12.609  1.00  0.00    -0.269 OA
BRANCH  32  35
ATOM     35  C   UNL     1       1.979   1.821  11.929  1.00  0.00     0.039 A 
ATOM     36  C   UNL     1       1.638   3.019  12.570  1.00  0.00     0.014 A 
ATOM     37  C   UNL     1       0.977   0.905  11.595  1.00  0.00     0.014 A 
ATOM     38  C   UNL     1       0.299   3.319  12.835  1.00  0.00     0.010 A 
ATOM     39  C   UNL     1      -0.364   1.216  11.834  1.00  0.00     0.010 A 
ATOM     40  C   UNL     1      -0.713   2.424  12.458  1.00  0.00    -0.014 A 
BRANCH  40  41
ATOM     41  C   UNL     1      -2.137   2.728  12.733  1.00  0.00     0.031 A 
ATOM     42  C   UNL     1      -2.860   2.024  13.844  1.00  0.00     0.074 A 
ATOM     43  C   UNL     1      -2.794   3.620  11.969  1.00  0.00     0.049 A 
ATOM     44  N   UNL     1      -4.132   2.058  14.153  1.00  0.00    -0.248 NA
ATOM     45  C   UNL     1      -2.049   1.161  14.715  1.00  0.00     0.031 C 
ATOM     46  C   UNL     1      -2.213   4.376  10.860  1.00  0.00     0.029 A 
ATOM     47  N   UNL     1      -4.101   4.035  12.011  1.00  0.00    -0.354 N 
ATOM     48  C   UNL     1      -4.282   1.189  15.224  1.00  0.00     0.074 A 
ATOM     49  C   UNL     1      -2.968   0.662  15.531  1.00  0.00     0.031 C 
ATOM     50  C   UNL     1      -3.158   5.174  10.334  1.00  0.00     0.029 A 
ATOM     51  C   UNL     1      -4.412   4.966  11.054  1.00  0.00     0.049 A 
ATOM     52  H   UNL     1      -4.754   3.696  12.666  1.00  0.00     0.167 HD
ATOM     53  C   UNL     1      -5.415   0.850  15.881  1.00  0.00     0.037 A 
ATOM     54  C   UNL     1      -5.580   5.576  10.782  1.00  0.00     0.037 A 
ATOM     55  C   UNL     1      -6.719   1.390  15.610  1.00  0.00     0.049 A 
ATOM     56  C   UNL     1      -6.805   5.245  11.582  1.00  0.00     0.074 A 
ATOM     57  C   UNL     1      -7.930   1.075  16.204  1.00  0.00     0.029 A 
ATOM     58  N   UNL     1      -6.977   2.381  14.677  1.00  0.00    -0.354 N 
ATOM     59  N   UNL     1      -6.947   4.373  12.548  1.00  0.00    -0.248 NA
ATOM     60  C   UNL     1      -8.035   5.978  11.245  1.00  0.00     0.031 C 
ATOM     61  C   UNL     1      -8.921   1.886  15.637  1.00  0.00     0.029 A 
ATOM     62  C   UNL     1      -8.324   2.705  14.693  1.00  0.00     0.049 A 
ATOM     63  H   UNL     1      -6.303   2.794  14.090  1.00  0.00     0.167 HD
ATOM     64  C   UNL     1      -8.279   4.441  12.927  1.00  0.00     0.074 A 
ATOM     65  C   UNL     1      -8.903   5.452  12.099  1.00  0.00     0.031 C 
ATOM     66  C   UNL     1      -8.927   3.717  13.869  1.00  0.00     0.037 A 
BRANCH  53  67
ATOM     67  C   UNL     1      -5.293  -0.184  16.953  1.00  0.00     0.064 A 
ATOM     68  C   UNL     1      -4.998   0.172  18.274  1.00  0.00     0.173 A 
ATOM     69  C   UNL     1      -5.503  -1.538  16.657  1.00  0.00     0.173 A 
ATOM     70  F   UNL     1      -4.779   1.456  18.596  1.00  0.00    -0.203 F 
ATOM     71  C   UNL     1      -4.911  -0.798  19.268  1.00  0.00     0.198 A 
ATOM     72  C   UNL     1      -5.420  -2.505  17.655  1.00  0.00     0.198 A 
ATOM     73  F   UNL     1      -5.783  -1.921  15.403  1.00  0.00    -0.203 F 
ATOM     74  F   UNL     1      -4.615  -0.443  20.526  1.00  0.00    -0.200 F 
ATOM     75  C   UNL     1      -5.124  -2.134  18.958  1.00  0.00     0.200 A 
ATOM     76  F   UNL     1      -5.621  -3.795  17.354  1.00  0.00    -0.200 F 
ATOM     77  F   UNL     1      -5.038  -3.067  19.917  1.00  0.00    -0.200 F 
ENDBRANCH  53  67
BRANCH  54  78
ATOM     78  C   UNL     1      -5.643   6.568   9.686  1.00  0.00     0.064 A 
ATOM     79  C   UNL     1      -5.488   7.934   9.950  1.00  0.00     0.173 A 
ATOM     80  C   UNL     1      -5.846   6.166   8.361  1.00  0.00     0.173 A 
ATOM     81  F   UNL     1      -5.308   8.358  11.209  1.00  0.00    -0.203 F 
ATOM     82  C   UNL     1      -5.535   8.869   8.919  1.00  0.00     0.198 A 
ATOM     83  C   UNL     1      -5.888   7.101   7.331  1.00  0.00     0.198 A 
ATOM     84  F   UNL     1      -6.005   4.866   8.070  1.00  0.00    -0.203 F 
ATOM     85  F   UNL     1      -5.396  10.173   9.193  1.00  0.00    -0.200 F 
ATOM     86  C   UNL     1      -5.732   8.451   7.610  1.00  0.00     0.200 A 
ATOM     87  F   UNL     1      -6.080   6.696   6.068  1.00  0.00    -0.200 F 
ATOM     88  F   UNL     1      -5.778   9.351   6.619  1.00  0.00    -0.200 F 
ENDBRANCH  54  78
BRANCH  66  89
ATOM     89  C   UNL     1     -10.384   3.989  14.051  1.00  0.00     0.064 A 
ATOM     90  C   UNL     1     -11.342   3.294  13.301  1.00  0.00     0.173 A 
ATOM     91  C   UNL     1     -10.828   4.923  14.997  1.00  0.00     0.173 A 
ATOM     92  F   UNL     1     -10.958   2.400  12.378  1.00  0.00    -0.203 F 
ATOM     93  C   UNL     1     -12.701   3.527  13.492  1.00  0.00     0.198 A 
ATOM     94  C   UNL     1     -12.188   5.153  15.185  1.00  0.00     0.198 A 
ATOM     95  F   UNL     1      -9.943   5.617  15.727  1.00  0.00    -0.203 F 
ATOM     96  F   UNL     1     -13.603   2.860  12.758  1.00  0.00    -0.200 F 
ATOM     97  C   UNL     1     -13.122   4.454  14.434  1.00  0.00     0.200 A 
ATOM     98  F   UNL     1     -12.595   6.055  16.088  1.00  0.00    -0.200 F 
ATOM     99  F   UNL     1     -14.431   4.682  14.612  1.00  0.00    -0.200 F 
ENDBRANCH  66  89
ENDBRANCH  40  41
ENDBRANCH  32  35
ENDBRANCH  30  31
ENDBRANCH  29  30
ENDBRANCH   1  29
TORSDOF 14
