REMARK SMILES CCC[C@H]1CCc2c(sc(NC(=O)[C@H]3[C@@H](C(=O)NCCCNC(=O)c4ccc(-c5c6nc(c(-c7c(F)c(F)c(F)c(F)c7F)c7ccc([nH]7)c(-c7c(F)c(F)c(F)c(F)c7F)c7nc(c(-c8c(F)c(F)c(F)c(F)c8F)c8ccc5[nH]8)C=C7)C=C6)cc4)[C@H]4CC[C@@H]3O4)c2C(N)=O)C1
REMARK SMILES IDX 19 1 18 2 16 3 17 4 15 6 14 7 91 8 88 9 90 10 92 11 89 12
REMARK SMILES IDX 12 13 11 14 13 16 10 17 4 18 5 19 97 20 6 21 8 22 7 23 9 24
REMARK SMILES IDX 93 25 3 26 2 27 1 28 94 29 95 30 96 31 20 34 21 35 22 36
REMARK SMILES IDX 23 37 24 39 25 40 26 41 87 42 27 43 86 44 28 45 29 46 30 47
REMARK SMILES IDX 80 48 31 49 85 50 79 51 81 52 32 53 84 54 78 55 77 56 33 58
REMARK SMILES IDX 65 59 45 60 64 61 46 62 49 63 63 64 82 65 47 66 48 67 62 69
REMARK SMILES IDX 83 70 50 71 34 72 35 73 43 74 36 75 37 76 41 77 44 78 38 79
REMARK SMILES IDX 39 80 42 81 40 82 66 83 67 84 75 85 68 86 69 87 73 88 76 89
REMARK SMILES IDX 70 90 71 91 74 92 72 93 51 94 52 95 60 96 53 97 54 98 58 99
REMARK SMILES IDX 61 100 55 101 56 102 59 103 57 104
REMARK H PARENT 18 5 11 15 95 32 95 33 22 38 81 57 49 68
REMARK Flexibility Score: inf
ROOT
ATOM      1  C   UNL     1       2.930   0.337  -4.467  1.00  0.00     0.117 C 
ENDROOT
BRANCH   1   2
ATOM      2  N   UNL     1       3.850  -0.263  -3.527  1.00  0.00    -0.356 N 
ATOM      3  C   UNL     1       5.201  -0.244  -3.472  1.00  0.00     0.226 C 
ATOM      4  O   UNL     1       5.745  -1.250  -3.007  1.00  0.00    -0.275 OA
ATOM      5  H   UNL     1       3.419  -0.771  -2.802  1.00  0.00     0.163 HD
BRANCH   3   6
ATOM      6  C   UNL     1       6.051   0.925  -3.914  1.00  0.00     0.122 C 
ATOM      7  C   UNL     1       5.505   2.319  -4.178  1.00  0.00     0.123 C 
ATOM      8  C   UNL     1       5.773   2.437  -5.711  1.00  0.00     0.132 C 
ATOM      9  C   UNL     1       6.871   0.629  -5.176  1.00  0.00     0.132 C 
ATOM     10  C   UNL     1       5.260   1.374  -6.710  1.00  0.00     0.035 C 
ATOM     11  O   UNL     1       7.160   1.971  -5.675  1.00  0.00    -0.373 OA
ATOM     12  C   UNL     1       6.001   0.100  -6.299  1.00  0.00     0.035 C 
BRANCH   7  13
ATOM     13  C   UNL     1       4.197   2.875  -3.626  1.00  0.00     0.231 C 
ATOM     14  N   UNL     1       3.722   2.717  -2.347  1.00  0.00    -0.317 N 
ATOM     15  H   UNL     1       2.986   3.327  -2.112  1.00  0.00     0.170 HD
ATOM     16  O   UNL     1       3.489   3.566  -4.372  1.00  0.00    -0.274 OA
BRANCH  14  17
ATOM     17  C   UNL     1       4.090   1.856  -1.331  1.00  0.00     0.108 A 
ATOM     18  C   UNL     1       4.071  -2.376   1.126  1.00  0.00    -0.006 C 
ATOM     19  C   UNL     1       5.312  -2.379   0.205  1.00  0.00     0.009 C 
ATOM     20  C   UNL     1       2.997  -1.365   0.639  1.00  0.00     0.050 C 
ATOM     21  C   UNL     1       5.978  -0.988   0.189  1.00  0.00     0.038 C 
ATOM     22  C   UNL     1       3.625  -0.126   0.042  1.00  0.00     0.011 A 
ATOM     23  C   UNL     1       4.977   0.079  -0.163  1.00  0.00    -0.019 A 
ATOM     24  S   UNL     1       2.706   1.174  -0.561  1.00  0.00    -0.122 S 
ATOM     25  C   UNL     1       5.258   1.379  -0.759  1.00  0.00     0.077 A 
BRANCH  18  26
ATOM     26  C   UNL     1       3.564  -3.811   1.416  1.00  0.00     0.004 C 
BRANCH  26  27
ATOM     27  C   UNL     1       2.437  -4.404   0.566  1.00  0.00    -0.003 C 
ATOM     28  C   UNL     1       2.759  -4.579  -0.907  1.00  0.00     0.004 C 
ENDBRANCH  26  27
ENDBRANCH  18  26
BRANCH  25  29
ATOM     29  C   UNL     1       6.578   1.999  -0.808  1.00  0.00     0.251 C 
ATOM     30  N   UNL     1       6.628   3.301  -1.199  1.00  0.00    -0.365 N 
ATOM     31  O   UNL     1       7.615   1.423  -0.476  1.00  0.00    -0.269 OA
ATOM     32  H   UNL     1       5.803   3.767  -1.466  1.00  0.00     0.159 HD
ATOM     33  H   UNL     1       7.490   3.777  -1.216  1.00  0.00     0.159 HD
ENDBRANCH  25  29
ENDBRANCH  14  17
ENDBRANCH   7  13
ENDBRANCH   3   6
ENDBRANCH   1   2
BRANCH   1  34
ATOM     34  C   UNL     1       2.387  -0.747  -5.371  1.00  0.00     0.042 C 
BRANCH  34  35
ATOM     35  C   UNL     1       1.089  -1.252  -4.776  1.00  0.00     0.118 C 
BRANCH  35  36
ATOM     36  N   UNL     1      -0.030  -0.457  -5.265  1.00  0.00    -0.352 N 
ATOM     37  C   UNL     1      -0.813  -0.685  -6.373  1.00  0.00     0.251 C 
ATOM     38  H   UNL     1      -0.254   0.343  -4.737  1.00  0.00     0.163 HD
ATOM     39  O   UNL     1      -1.466   0.224  -6.872  1.00  0.00    -0.269 OA
BRANCH  37  40
ATOM     40  C   UNL     1      -0.839  -2.038  -6.963  1.00  0.00     0.039 A 
ATOM     41  C   UNL     1      -0.862  -2.199  -8.349  1.00  0.00     0.014 A 
ATOM     42  C   UNL     1      -0.833  -3.155  -6.127  1.00  0.00     0.014 A 
ATOM     43  C   UNL     1      -0.828  -3.487  -8.889  1.00  0.00     0.010 A 
ATOM     44  C   UNL     1      -0.639  -4.416  -6.661  1.00  0.00     0.010 A 
ATOM     45  C   UNL     1      -0.684  -4.603  -8.047  1.00  0.00    -0.014 A 
BRANCH  45  46
ATOM     46  C   UNL     1      -0.660  -5.991  -8.567  1.00  0.00     0.031 A 
ATOM     47  C   UNL     1      -1.701  -6.971  -8.091  1.00  0.00     0.074 A 
ATOM     48  C   UNL     1       0.332  -6.389  -9.385  1.00  0.00     0.049 A 
ATOM     49  N   UNL     1      -1.791  -8.259  -8.305  1.00  0.00    -0.248 NA
ATOM     50  C   UNL     1      -2.758  -6.441  -7.211  1.00  0.00     0.031 C 
ATOM     51  C   UNL     1       1.427  -5.546  -9.866  1.00  0.00     0.029 A 
ATOM     52  N   UNL     1       0.585  -7.615  -9.947  1.00  0.00    -0.354 N 
ATOM     53  C   UNL     1      -2.884  -8.688  -7.562  1.00  0.00     0.074 A 
ATOM     54  C   UNL     1      -3.379  -7.545  -6.831  1.00  0.00     0.031 C 
ATOM     55  C   UNL     1       2.215  -6.269 -10.677  1.00  0.00     0.029 A 
ATOM     56  C   UNL     1       1.710  -7.636 -10.735  1.00  0.00     0.049 A 
ATOM     57  H   UNL     1       0.015  -8.403  -9.800  1.00  0.00     0.167 HD
ATOM     58  C   UNL     1      -3.449  -9.917  -7.522  1.00  0.00     0.037 A 
ATOM     59  C   UNL     1       2.270  -8.652 -11.418  1.00  0.00     0.037 A 
ATOM     60  C   UNL     1      -2.979 -11.034  -8.294  1.00  0.00     0.049 A 
ATOM     61  C   UNL     1       1.615 -10.007 -11.370  1.00  0.00     0.074 A 
ATOM     62  C   UNL     1      -3.516 -12.304  -8.391  1.00  0.00     0.029 A 
ATOM     63  N   UNL     1      -1.857 -11.008  -9.111  1.00  0.00    -0.354 N 
ATOM     64  N   UNL     1       0.541 -10.386 -10.720  1.00  0.00    -0.248 NA
ATOM     65  C   UNL     1       2.247 -11.074 -12.157  1.00  0.00     0.031 C 
ATOM     66  C   UNL     1      -2.691 -13.062  -9.226  1.00  0.00     0.029 A 
ATOM     67  C   UNL     1      -1.672 -12.248  -9.698  1.00  0.00     0.049 A 
ATOM     68  H   UNL     1      -1.278 -10.224  -9.251  1.00  0.00     0.167 HD
ATOM     69  C   UNL     1       0.351 -11.723 -11.041  1.00  0.00     0.074 A 
ATOM     70  C   UNL     1       1.413 -12.084 -11.959  1.00  0.00     0.031 C 
ATOM     71  C   UNL     1      -0.612 -12.578 -10.616  1.00  0.00     0.037 A 
BRANCH  58  72
ATOM     72  C   UNL     1      -4.639 -10.108  -6.625  1.00  0.00     0.064 A 
ATOM     73  C   UNL     1      -5.869  -9.479  -6.881  1.00  0.00     0.173 A 
ATOM     74  C   UNL     1      -4.557 -10.945  -5.502  1.00  0.00     0.173 A 
ATOM     75  F   UNL     1      -6.000  -8.656  -7.933  1.00  0.00    -0.203 F 
ATOM     76  C   UNL     1      -6.956  -9.650  -6.028  1.00  0.00     0.198 A 
ATOM     77  C   UNL     1      -5.657 -11.143  -4.671  1.00  0.00     0.198 A 
ATOM     78  F   UNL     1      -3.409 -11.574  -5.209  1.00  0.00    -0.203 F 
ATOM     79  F   UNL     1      -8.097  -8.988  -6.260  1.00  0.00    -0.200 F 
ATOM     80  C   UNL     1      -6.852 -10.488  -4.929  1.00  0.00     0.200 A 
ATOM     81  F   UNL     1      -5.559 -11.964  -3.616  1.00  0.00    -0.200 F 
ATOM     82  F   UNL     1      -7.900 -10.657  -4.112  1.00  0.00    -0.200 F 
ENDBRANCH  58  72
BRANCH  59  83
ATOM     83  C   UNL     1       3.494  -8.418 -12.228  1.00  0.00     0.064 A 
ATOM     84  C   UNL     1       3.450  -8.470 -13.629  1.00  0.00     0.173 A 
ATOM     85  C   UNL     1       4.729  -8.137 -11.626  1.00  0.00     0.173 A 
ATOM     86  F   UNL     1       2.296  -8.752 -14.251  1.00  0.00    -0.203 F 
ATOM     87  C   UNL     1       4.598  -8.274 -14.394  1.00  0.00     0.198 A 
ATOM     88  C   UNL     1       5.870  -7.910 -12.394  1.00  0.00     0.198 A 
ATOM     89  F   UNL     1       4.825  -8.066 -10.290  1.00  0.00    -0.203 F 
ATOM     90  F   UNL     1       4.535  -8.378 -15.729  1.00  0.00    -0.200 F 
ATOM     91  C   UNL     1       5.805  -7.988 -13.777  1.00  0.00     0.200 A 
ATOM     92  F   UNL     1       7.031  -7.616 -11.793  1.00  0.00    -0.200 F 
ATOM     93  F   UNL     1       6.908  -7.794 -14.513  1.00  0.00    -0.200 F 
ENDBRANCH  59  83
BRANCH  71  94
ATOM     94  C   UNL     1      -0.584 -13.973 -11.168  1.00  0.00     0.064 A 
ATOM     95  C   UNL     1       0.403 -14.895 -10.792  1.00  0.00     0.173 A 
ATOM     96  C   UNL     1      -1.588 -14.405 -12.049  1.00  0.00     0.173 A 
ATOM     97  F   UNL     1       1.391 -14.527  -9.963  1.00  0.00    -0.203 F 
ATOM     98  C   UNL     1       0.400 -16.191 -11.302  1.00  0.00     0.198 A 
ATOM     99  C   UNL     1      -1.607 -15.710 -12.529  1.00  0.00     0.198 A 
ATOM    100  F   UNL     1      -2.561 -13.563 -12.432  1.00  0.00    -0.203 F 
ATOM    101  F   UNL     1       1.382 -17.040 -10.970  1.00  0.00    -0.200 F 
ATOM    102  C   UNL     1      -0.608 -16.600 -12.162  1.00  0.00     0.200 A 
ATOM    103  F   UNL     1      -2.592 -16.108 -13.345  1.00  0.00    -0.200 F 
ATOM    104  F   UNL     1      -0.614 -17.850 -12.643  1.00  0.00    -0.200 F 
ENDBRANCH  71  94
ENDBRANCH  45  46
ENDBRANCH  37  40
ENDBRANCH  35  36
ENDBRANCH  34  35
ENDBRANCH   1  34
TORSDOF 15
