REMARK SMILES Cc1ccccc1OCc1nc2cc(C(=O)NCCCNC(=O)c3ccc(-c4c5nc(c(-c6c(F)c(F)c(F)c(F)c6F)c6ccc([nH]6)c(-c6c(F)c(F)c(F)c(F)c6F)c6nc(c(-c7c(F)c(F)c(F)c(F)c7F)c7ccc4[nH]7)C=C6)C=C5)cc3)ccc2n1C[C@H](C)O
REMARK SMILES IDX 18 1 17 2 15 3 16 4 14 6 10 7 11 8 90 9 12 10 89 11 13 12
REMARK SMILES IDX 88 13 87 14 9 15 8 16 7 17 1 18 2 19 3 20 4 21 6 22 5 23
REMARK SMILES IDX 91 24 92 25 93 26 94 27 19 29 20 30 21 31 22 32 23 34 24 35
REMARK SMILES IDX 25 36 86 37 26 38 85 39 27 40 28 41 29 42 79 43 30 44 84 45
REMARK SMILES IDX 78 46 80 47 31 48 83 49 77 50 76 51 32 53 64 54 44 55 63 56
REMARK SMILES IDX 45 57 48 58 62 59 81 60 46 61 47 62 61 64 82 65 49 66 33 67
REMARK SMILES IDX 34 68 42 69 35 70 36 71 40 72 43 73 37 74 38 75 41 76 39 77
REMARK SMILES IDX 65 78 66 79 74 80 67 81 68 82 72 83 75 84 69 85 70 86 73 87
REMARK SMILES IDX 71 88 50 89 51 90 59 91 52 92 53 93 57 94 60 95 54 96 55 97
REMARK SMILES IDX 58 98 56 99
REMARK H PARENT 17 5 94 28 21 33 80 52 48 63
REMARK Flexibility Score: inf
ROOT
ATOM      1  C   UNL     1      -1.458   3.695  -0.027  1.00  0.00     0.118 C 
ENDROOT
BRANCH   1   2
ATOM      2  N   UNL     1      -2.814   3.746   0.535  1.00  0.00    -0.352 N 
ATOM      3  C   UNL     1      -3.626   2.685   0.913  1.00  0.00     0.251 C 
ATOM      4  O   UNL     1      -4.755   2.850   1.350  1.00  0.00    -0.269 OA
ATOM      5  H   UNL     1      -3.196   4.645   0.659  1.00  0.00     0.163 HD
BRANCH   3   6
ATOM      6  C   UNL     1      -3.025   1.339   0.832  1.00  0.00     0.042 A 
ATOM      7  C   UNL     1      -0.227  -1.070  -1.625  1.00  0.00     0.148 A 
ATOM      8  N   UNL     1      -1.495  -0.744  -1.855  1.00  0.00    -0.229 NA
ATOM      9  N   UNL     1       0.258  -0.220  -0.665  1.00  0.00    -0.322 N 
ATOM     10  C   UNL     1      -1.874  -0.034  -0.731  1.00  0.00     0.090 A 
ATOM     11  C   UNL     1      -0.813   0.018   0.167  1.00  0.00     0.068 A 
ATOM     12  C   UNL     1      -3.040   0.668  -0.406  1.00  0.00     0.044 A 
ATOM     13  C   UNL     1      -0.909   0.423   1.497  1.00  0.00     0.029 A 
ATOM     14  C   UNL     1      -2.082   1.077   1.833  1.00  0.00     0.016 A 
BRANCH   7  15
ATOM     15  C   UNL     1       0.452  -2.390  -1.846  1.00  0.00     0.304 C 
BRANCH  15  16
ATOM     16  O   UNL     1       0.529  -2.962  -0.520  1.00  0.00    -0.485 OA
BRANCH  16  17
ATOM     17  C   UNL     1       1.719  -3.533  -0.170  1.00  0.00     0.122 A 
ATOM     18  C   UNL     1       1.940  -1.917   1.807  1.00  0.00     0.048 C 
ATOM     19  C   UNL     1       2.409  -3.064   0.965  1.00  0.00    -0.009 A 
ATOM     20  C   UNL     1       3.556  -3.744   1.395  1.00  0.00     0.007 A 
ATOM     21  C   UNL     1       3.993  -4.884   0.730  1.00  0.00     0.001 A 
ATOM     22  C   UNL     1       2.157  -4.677  -0.834  1.00  0.00     0.047 A 
ATOM     23  C   UNL     1       3.291  -5.354  -0.379  1.00  0.00     0.004 A 
ENDBRANCH  16  17
ENDBRANCH  15  16
ENDBRANCH   7  15
BRANCH   9  24
ATOM     24  C   UNL     1       1.410   0.668  -0.743  1.00  0.00     0.155 C 
BRANCH  24  25
ATOM     25  C   UNL     1       2.727   0.082  -1.254  1.00  0.00     0.131 C 
ATOM     26  C   UNL     1       3.908   0.810  -0.621  1.00  0.00     0.040 C 
BRANCH  25  27
ATOM     27  O   UNL     1       2.786   0.247  -2.671  1.00  0.00    -0.392 OA
ATOM     28  H   UNL     1       2.741   1.191  -2.889  1.00  0.00     0.211 HD
ENDBRANCH  25  27
ENDBRANCH  24  25
ENDBRANCH   9  24
ENDBRANCH   3   6
ENDBRANCH   1   2
BRANCH   1  29
ATOM     29  C   UNL     1      -1.452   3.313  -1.508  1.00  0.00     0.042 C 
BRANCH  29  30
ATOM     30  C   UNL     1      -1.291   4.500  -2.434  1.00  0.00     0.118 C 
BRANCH  30  31
ATOM     31  N   UNL     1      -0.030   4.542  -3.173  1.00  0.00    -0.352 N 
ATOM     32  C   UNL     1       0.413   5.530  -4.046  1.00  0.00     0.251 C 
ATOM     33  H   UNL     1       0.577   3.780  -3.036  1.00  0.00     0.163 HD
ATOM     34  O   UNL     1       1.490   5.451  -4.601  1.00  0.00    -0.269 OA
BRANCH  32  35
ATOM     35  C   UNL     1      -0.411   6.758  -4.163  1.00  0.00     0.039 A 
ATOM     36  C   UNL     1       0.184   7.963  -3.779  1.00  0.00     0.014 A 
ATOM     37  C   UNL     1      -1.793   6.652  -4.292  1.00  0.00     0.014 A 
ATOM     38  C   UNL     1      -0.618   8.958  -3.233  1.00  0.00     0.010 A 
ATOM     39  C   UNL     1      -2.575   7.583  -3.639  1.00  0.00     0.010 A 
ATOM     40  C   UNL     1      -1.971   8.692  -3.035  1.00  0.00    -0.014 A 
BRANCH  40  41
ATOM     41  C   UNL     1      -2.802   9.455  -2.115  1.00  0.00     0.031 A 
ATOM     42  C   UNL     1      -3.830  10.371  -2.641  1.00  0.00     0.074 A 
ATOM     43  C   UNL     1      -2.686   9.268  -0.779  1.00  0.00     0.049 A 
ATOM     44  N   UNL     1      -4.389  11.290  -1.930  1.00  0.00    -0.248 NA
ATOM     45  C   UNL     1      -4.261  10.385  -4.037  1.00  0.00     0.031 C 
ATOM     46  C   UNL     1      -3.610   9.710   0.265  1.00  0.00     0.029 A 
ATOM     47  N   UNL     1      -1.556   8.822  -0.067  1.00  0.00    -0.354 N 
ATOM     48  C   UNL     1      -5.456  11.763  -2.647  1.00  0.00     0.074 A 
ATOM     49  C   UNL     1      -5.235  11.301  -3.993  1.00  0.00     0.031 C 
ATOM     50  C   UNL     1      -2.936   9.829   1.419  1.00  0.00     0.029 A 
ATOM     51  C   UNL     1      -1.535   9.605   1.118  1.00  0.00     0.049 A 
ATOM     52  H   UNL     1      -0.920   8.119  -0.333  1.00  0.00     0.167 HD
ATOM     53  C   UNL     1      -6.474  12.361  -1.970  1.00  0.00     0.037 A 
ATOM     54  C   UNL     1      -0.524  10.491   1.359  1.00  0.00     0.037 A 
ATOM     55  C   UNL     1      -6.067  12.738  -0.614  1.00  0.00     0.049 A 
ATOM     56  C   UNL     1      -0.961  11.938   1.494  1.00  0.00     0.074 A 
ATOM     57  C   UNL     1      -6.404  12.358   0.673  1.00  0.00     0.029 A 
ATOM     58  N   UNL     1      -4.955  13.554  -0.485  1.00  0.00    -0.354 N 
ATOM     59  N   UNL     1      -2.189  12.354   1.359  1.00  0.00    -0.248 NA
ATOM     60  C   UNL     1      -0.019  13.044   1.682  1.00  0.00     0.031 C 
ATOM     61  C   UNL     1      -5.442  12.928   1.567  1.00  0.00     0.029 A 
ATOM     62  C   UNL     1      -4.547  13.678   0.825  1.00  0.00     0.049 A 
ATOM     63  H   UNL     1      -4.507  13.995  -1.242  1.00  0.00     0.167 HD
ATOM     64  C   UNL     1      -2.207  13.724   1.347  1.00  0.00     0.074 A 
ATOM     65  C   UNL     1      -0.826  14.112   1.563  1.00  0.00     0.031 C 
ATOM     66  C   UNL     1      -3.341  14.443   1.102  1.00  0.00     0.037 A 
BRANCH  53  67
ATOM     67  C   UNL     1      -7.888  12.497  -2.486  1.00  0.00     0.064 A 
ATOM     68  C   UNL     1      -8.835  13.251  -1.761  1.00  0.00     0.173 A 
ATOM     69  C   UNL     1      -8.412  11.812  -3.605  1.00  0.00     0.173 A 
ATOM     70  F   UNL     1      -8.482  13.941  -0.667  1.00  0.00    -0.203 F 
ATOM     71  C   UNL     1     -10.186  13.304  -2.123  1.00  0.00     0.198 A 
ATOM     72  C   UNL     1      -9.747  11.917  -4.000  1.00  0.00     0.198 A 
ATOM     73  F   UNL     1      -7.681  10.958  -4.329  1.00  0.00    -0.203 F 
ATOM     74  F   UNL     1     -11.053  13.983  -1.358  1.00  0.00    -0.200 F 
ATOM     75  C   UNL     1     -10.639  12.649  -3.250  1.00  0.00     0.200 A 
ATOM     76  F   UNL     1     -10.165  11.270  -5.098  1.00  0.00    -0.200 F 
ATOM     77  F   UNL     1     -11.931  12.702  -3.599  1.00  0.00    -0.200 F 
ENDBRANCH  53  67
BRANCH  54  78
ATOM     78  C   UNL     1       0.774  10.035   0.792  1.00  0.00     0.064 A 
ATOM     79  C   UNL     1       1.312   8.815   1.252  1.00  0.00     0.173 A 
ATOM     80  C   UNL     1       1.263  10.543  -0.415  1.00  0.00     0.173 A 
ATOM     81  F   UNL     1       0.875   8.281   2.405  1.00  0.00    -0.203 F 
ATOM     82  C   UNL     1       2.195   8.074   0.472  1.00  0.00     0.198 A 
ATOM     83  C   UNL     1       2.169   9.808  -1.183  1.00  0.00     0.198 A 
ATOM     84  F   UNL     1       0.775  11.685  -0.920  1.00  0.00    -0.203 F 
ATOM     85  F   UNL     1       2.582   6.855   0.875  1.00  0.00    -0.200 F 
ATOM     86  C   UNL     1       2.601   8.559  -0.759  1.00  0.00     0.200 A 
ATOM     87  F   UNL     1       2.540  10.265  -2.387  1.00  0.00    -0.200 F 
ATOM     88  F   UNL     1       3.369   7.806  -1.557  1.00  0.00    -0.200 F 
ENDBRANCH  54  78
BRANCH  66  89
ATOM     89  C   UNL     1      -3.382  15.946   1.057  1.00  0.00     0.064 A 
ATOM     90  C   UNL     1      -2.774  16.745   2.038  1.00  0.00     0.173 A 
ATOM     91  C   UNL     1      -4.136  16.633   0.080  1.00  0.00     0.173 A 
ATOM     92  F   UNL     1      -2.078  16.189   3.040  1.00  0.00    -0.203 F 
ATOM     93  C   UNL     1      -2.883  18.139   2.020  1.00  0.00     0.198 A 
ATOM     94  C   UNL     1      -4.288  18.018   0.096  1.00  0.00     0.198 A 
ATOM     95  F   UNL     1      -4.720  15.984  -0.937  1.00  0.00    -0.203 F 
ATOM     96  F   UNL     1      -2.242  18.867   2.944  1.00  0.00    -0.200 F 
ATOM     97  C   UNL     1      -3.651  18.773   1.059  1.00  0.00     0.200 A 
ATOM     98  F   UNL     1      -5.048  18.614  -0.834  1.00  0.00    -0.200 F 
ATOM     99  F   UNL     1      -3.773  20.107   1.058  1.00  0.00    -0.200 F 
ENDBRANCH  66  89
ENDBRANCH  40  41
ENDBRANCH  32  35
ENDBRANCH  30  31
ENDBRANCH  29  30
ENDBRANCH   1  29
TORSDOF 16
