REMARK SMILES C=C[C@@H](C)Oc1cnc2ccccc2c1C(=O)NCCCNC(=O)c1ccc(-c2c3nc(c(-c4c(F)c(F)c(F)c(F)c4F)c4ccc([nH]4)c(-c4c(F)c(F)c(F)c(F)c4F)c4nc(c(-c5c(F)c(F)c(F)c(F)c5F)c5ccc2[nH]5)C=C4)C=C3)cc1
REMARK SMILES IDX 19 1 18 2 16 3 17 4 15 6 6 7 7 8 8 9 14 10 9 11 13 12 10 13
REMARK SMILES IDX 12 14 11 15 5 16 3 17 4 18 2 19 1 20 20 21 21 22 22 23 23 24
REMARK SMILES IDX 24 26 25 27 26 28 87 29 27 30 86 31 28 32 29 33 30 34 80 35
REMARK SMILES IDX 31 36 85 37 79 38 81 39 32 40 84 41 78 42 77 43 33 45 65 46
REMARK SMILES IDX 45 47 64 48 46 49 49 50 63 51 82 52 47 53 48 54 62 56 83 57
REMARK SMILES IDX 50 58 34 59 35 60 43 61 36 62 37 63 41 64 44 65 38 66 39 67
REMARK SMILES IDX 42 68 40 69 66 70 67 71 75 72 68 73 69 74 73 75 76 76 70 77
REMARK SMILES IDX 71 78 74 79 72 80 51 81 52 82 60 83 53 84 54 85 58 86 61 87
REMARK SMILES IDX 55 88 56 89 59 90 57 91
REMARK H PARENT 18 5 22 25 81 44 49 55
REMARK Flexibility Score: inf
ROOT
ATOM      1  C   UNL     1      -4.845  -2.156   5.747  1.00  0.00     0.118 C 
ENDROOT
BRANCH   1   2
ATOM      2  N   UNL     1      -4.355  -1.141   4.824  1.00  0.00    -0.352 N 
ATOM      3  C   UNL     1      -3.125  -0.699   4.387  1.00  0.00     0.255 C 
ATOM      4  O   UNL     1      -3.171   0.388   3.805  1.00  0.00    -0.269 OA
ATOM      5  H   UNL     1      -5.093  -0.642   4.404  1.00  0.00     0.163 HD
BRANCH   3   6
ATOM      6  C   UNL     1      -1.816  -1.444   4.476  1.00  0.00     0.092 A 
ATOM      7  C   UNL     1      -0.971  -1.368   3.343  1.00  0.00     0.151 A 
ATOM      8  C   UNL     1       0.222  -2.067   3.383  1.00  0.00     0.159 A 
ATOM      9  N   UNL     1       0.591  -2.897   4.375  1.00  0.00    -0.252 NA
ATOM     10  C   UNL     1      -1.351  -2.175   5.614  1.00  0.00     0.017 A 
ATOM     11  C   UNL     1      -0.172  -2.941   5.464  1.00  0.00     0.071 A 
ATOM     12  C   UNL     1      -1.906  -2.154   6.912  1.00  0.00     0.011 A 
ATOM     13  C   UNL     1       0.275  -3.754   6.497  1.00  0.00     0.029 A 
ATOM     14  C   UNL     1      -1.465  -2.987   7.942  1.00  0.00     0.001 A 
ATOM     15  C   UNL     1      -0.380  -3.813   7.723  1.00  0.00     0.002 A 
BRANCH   7  16
ATOM     16  O   UNL     1      -1.256  -0.516   2.314  1.00  0.00    -0.484 OA
BRANCH  16  17
ATOM     17  C   UNL     1      -1.143  -0.926   0.942  1.00  0.00     0.192 C 
ATOM     18  C   UNL     1      -1.825  -2.261   0.648  1.00  0.00     0.057 C 
BRANCH  17  19
ATOM     19  C   UNL     1       0.272  -0.859   0.418  1.00  0.00     0.009 C 
ATOM     20  C   UNL     1       0.830   0.226  -0.138  1.00  0.00     0.008 C 
ENDBRANCH  17  19
ENDBRANCH  16  17
ENDBRANCH   7  16
ENDBRANCH   3   6
ENDBRANCH   1   2
BRANCH   1  21
ATOM     21  C   UNL     1      -5.165  -1.506   7.105  1.00  0.00     0.042 C 
BRANCH  21  22
ATOM     22  C   UNL     1      -6.552  -0.882   7.213  1.00  0.00     0.118 C 
BRANCH  22  23
ATOM     23  N   UNL     1      -7.552  -1.845   7.644  1.00  0.00    -0.352 N 
ATOM     24  C   UNL     1      -8.219  -1.968   8.835  1.00  0.00     0.251 C 
ATOM     25  H   UNL     1      -7.790  -2.521   6.969  1.00  0.00     0.163 HD
ATOM     26  O   UNL     1      -8.849  -3.013   9.054  1.00  0.00    -0.269 OA
BRANCH  24  27
ATOM     27  C   UNL     1      -8.210  -0.908   9.875  1.00  0.00     0.039 A 
ATOM     28  C   UNL     1      -8.270  -1.289  11.222  1.00  0.00     0.014 A 
ATOM     29  C   UNL     1      -8.234   0.452   9.555  1.00  0.00     0.014 A 
ATOM     30  C   UNL     1      -8.315  -0.322  12.233  1.00  0.00     0.010 A 
ATOM     31  C   UNL     1      -8.190   1.417  10.565  1.00  0.00     0.010 A 
ATOM     32  C   UNL     1      -8.253   1.044  11.915  1.00  0.00    -0.014 A 
BRANCH  32  33
ATOM     33  C   UNL     1      -8.299   2.090  12.975  1.00  0.00     0.031 A 
ATOM     34  C   UNL     1      -9.444   3.069  13.024  1.00  0.00     0.074 A 
ATOM     35  C   UNL     1      -7.291   2.196  13.863  1.00  0.00     0.049 A 
ATOM     36  N   UNL     1      -9.629   4.094  13.819  1.00  0.00    -0.248 NA
ATOM     37  C   UNL     1     -10.511   2.889  12.027  1.00  0.00     0.031 C 
ATOM     38  C   UNL     1      -6.104   1.341  13.901  1.00  0.00     0.029 A 
ATOM     39  N   UNL     1      -7.101   3.074  14.902  1.00  0.00    -0.354 N 
ATOM     40  C   UNL     1     -10.812   4.691  13.401  1.00  0.00     0.074 A 
ATOM     41  C   UNL     1     -11.277   3.945  12.252  1.00  0.00     0.031 C 
ATOM     42  C   UNL     1      -5.321   1.721  14.924  1.00  0.00     0.029 A 
ATOM     43  C   UNL     1      -5.932   2.866  15.593  1.00  0.00     0.049 A 
ATOM     44  H   UNL     1      -7.741   3.786  15.130  1.00  0.00     0.167 HD
ATOM     45  C   UNL     1     -11.466   5.749  13.939  1.00  0.00     0.037 A 
ATOM     46  C   UNL     1      -5.410   3.524  16.647  1.00  0.00     0.037 A 
ATOM     47  C   UNL     1     -11.025   6.466  15.107  1.00  0.00     0.049 A 
ATOM     48  C   UNL     1      -6.169   4.680  17.242  1.00  0.00     0.074 A 
ATOM     49  C   UNL     1     -11.642   7.520  15.759  1.00  0.00     0.029 A 
ATOM     50  N   UNL     1      -9.856   6.196  15.802  1.00  0.00    -0.354 N 
ATOM     51  N   UNL     1      -7.313   5.199  16.869  1.00  0.00    -0.248 NA
ATOM     52  C   UNL     1      -5.567   5.333  18.413  1.00  0.00     0.031 C 
ATOM     53  C   UNL     1     -10.831   7.908  16.831  1.00  0.00     0.029 A 
ATOM     54  C   UNL     1      -9.731   7.067  16.873  1.00  0.00     0.049 A 
ATOM     55  H   UNL     1      -9.210   5.490  15.569  1.00  0.00     0.167 HD
ATOM     56  C   UNL     1      -7.585   6.214  17.777  1.00  0.00     0.074 A 
ATOM     57  C   UNL     1      -6.491   6.231  18.725  1.00  0.00     0.031 C 
ATOM     58  C   UNL     1      -8.646   7.056  17.820  1.00  0.00     0.037 A 
BRANCH  45  59
ATOM     59  C   UNL     1     -12.738   6.191  13.274  1.00  0.00     0.064 A 
ATOM     60  C   UNL     1     -13.906   5.416  13.332  1.00  0.00     0.173 A 
ATOM     61  C   UNL     1     -12.801   7.420  12.599  1.00  0.00     0.173 A 
ATOM     62  F   UNL     1     -13.897   4.228  13.955  1.00  0.00    -0.203 F 
ATOM     63  C   UNL     1     -15.080   5.838  12.712  1.00  0.00     0.198 A 
ATOM     64  C   UNL     1     -13.985   7.854  12.007  1.00  0.00     0.198 A 
ATOM     65  F   UNL     1     -11.716   8.205  12.519  1.00  0.00    -0.203 F 
ATOM     66  F   UNL     1     -16.168   5.056  12.738  1.00  0.00    -0.200 F 
ATOM     67  C   UNL     1     -15.120   7.059  12.056  1.00  0.00     0.200 A 
ATOM     68  F   UNL     1     -14.027   9.040  11.385  1.00  0.00    -0.200 F 
ATOM     69  F   UNL     1     -16.252   7.467  11.466  1.00  0.00    -0.200 F 
ENDBRANCH  45  59
BRANCH  46  70
ATOM     70  C   UNL     1      -4.119   3.080  17.235  1.00  0.00     0.064 A 
ATOM     71  C   UNL     1      -4.078   2.468  18.495  1.00  0.00     0.173 A 
ATOM     72  C   UNL     1      -2.905   3.260  16.557  1.00  0.00     0.173 A 
ATOM     73  F   UNL     1      -5.211   2.293  19.192  1.00  0.00    -0.203 F 
ATOM     74  C   UNL     1      -2.870   2.071  19.065  1.00  0.00     0.198 A 
ATOM     75  C   UNL     1      -1.700   2.838  17.115  1.00  0.00     0.198 A 
ATOM     76  F   UNL     1      -2.891   3.836  15.346  1.00  0.00    -0.203 F 
ATOM     77  F   UNL     1      -2.855   1.529  20.290  1.00  0.00    -0.200 F 
ATOM     78  C   UNL     1      -1.683   2.251  18.372  1.00  0.00     0.200 A 
ATOM     79  F   UNL     1      -0.556   3.001  16.437  1.00  0.00    -0.200 F 
ATOM     80  F   UNL     1      -0.521   1.866  18.917  1.00  0.00    -0.200 F 
ENDBRANCH  46  70
BRANCH  58  81
ATOM     81  C   UNL     1      -8.705   8.031  18.959  1.00  0.00     0.064 A 
ATOM     82  C   UNL     1      -7.855   9.144  19.022  1.00  0.00     0.173 A 
ATOM     83  C   UNL     1      -9.650   7.865  19.983  1.00  0.00     0.173 A 
ATOM     84  F   UNL     1      -6.925   9.338  18.075  1.00  0.00    -0.203 F 
ATOM     85  C   UNL     1      -7.932  10.043  20.083  1.00  0.00     0.198 A 
ATOM     86  C   UNL     1      -9.743   8.780  21.027  1.00  0.00     0.198 A 
ATOM     87  F   UNL     1     -10.491   6.819  19.964  1.00  0.00    -0.203 F 
ATOM     88  F   UNL     1      -7.079  11.074  20.148  1.00  0.00    -0.200 F 
ATOM     89  C   UNL     1      -8.880   9.864  21.081  1.00  0.00     0.200 A 
ATOM     90  F   UNL     1     -10.667   8.612  21.983  1.00  0.00    -0.200 F 
ATOM     91  F   UNL     1      -8.955  10.732  22.098  1.00  0.00    -0.200 F 
ENDBRANCH  58  81
ENDBRANCH  32  33
ENDBRANCH  24  27
ENDBRANCH  22  23
ENDBRANCH  21  22
ENDBRANCH   1  21
TORSDOF 13
