REMARK SMILES CC[C@@H](NS(=O)(=O)c1cc(C)ccc1C)C(=O)NCCCNC(=O)c1ccc(-c2c3nc(c(-c4c(F)c(F)c(F)c(F)c4F)c4ccc([nH]4)c(-c4c(F)c(F)c(F)c(F)c4F)c4nc(c(-c5c(F)c(F)c(F)c(F)c5F)c5ccc2[nH]5)C=C4)C=C3)cc1
REMARK SMILES IDX 19 1 18 2 16 3 17 4 3 6 2 7 1 8 4 9 5 11 6 12 7 13 8 14 9 15
REMARK SMILES IDX 14 16 10 17 13 18 15 19 11 20 12 21 20 22 21 23 22 24 23 25
REMARK SMILES IDX 24 27 25 28 26 29 87 30 27 31 86 32 28 33 29 34 30 35 80 36
REMARK SMILES IDX 31 37 85 38 79 39 81 40 32 41 84 42 78 43 77 44 33 46 65 47
REMARK SMILES IDX 45 48 64 49 46 50 49 51 63 52 82 53 47 54 48 55 62 57 83 58
REMARK SMILES IDX 50 59 34 60 35 61 43 62 36 63 37 64 41 65 44 66 38 67 39 68
REMARK SMILES IDX 42 69 40 70 66 71 67 72 75 73 68 74 69 75 73 76 76 77 70 78
REMARK SMILES IDX 71 79 74 80 72 81 51 82 52 83 60 84 53 85 54 86 58 87 61 88
REMARK SMILES IDX 55 89 56 90 59 91 57 92
REMARK H PARENT 18 5 4 10 22 26 81 45 49 56
REMARK Flexibility Score: inf
ROOT
ATOM      1  C   UNL     1      -2.064   0.994   2.852  1.00  0.00     0.117 C 
ENDROOT
BRANCH   1   2
ATOM      2  N   UNL     1      -1.069   0.153   3.507  1.00  0.00    -0.355 N 
ATOM      3  C   UNL     1       0.237  -0.096   3.204  1.00  0.00     0.238 C 
ATOM      4  O   UNL     1       0.792  -1.017   3.813  1.00  0.00    -0.273 OA
ATOM      5  H   UNL     1      -1.397  -0.315   4.308  1.00  0.00     0.163 HD
BRANCH   3   6
ATOM      6  C   UNL     1       0.982   0.678   2.115  1.00  0.00     0.158 C 
BRANCH   6   7
ATOM      7  C   UNL     1       0.627  -0.017   0.792  1.00  0.00     0.027 C 
ATOM      8  C   UNL     1       1.387   0.502  -0.413  1.00  0.00     0.006 C 
ENDBRANCH   6   7
BRANCH   6   9
ATOM      9  N   UNL     1       0.677   2.119   2.085  1.00  0.00    -0.199 NA
ATOM     10  H   UNL     1      -0.304   2.201   2.351  1.00  0.00     0.142 HD
BRANCH   9  11
ATOM     11  S   UNL     1       1.498   3.269   3.004  1.00  0.00     0.241 S 
ATOM     12  O   UNL     1       2.905   2.904   3.015  1.00  0.00    -0.207 OA
ATOM     13  O   UNL     1       1.055   4.518   2.450  1.00  0.00    -0.207 OA
BRANCH  11  14
ATOM     14  C   UNL     1       0.867   3.075   4.661  1.00  0.00     0.085 A 
ATOM     15  C   UNL     1       1.210   1.859   5.254  1.00  0.00     0.025 A 
ATOM     16  C   UNL     1       0.085   3.991   5.386  1.00  0.00    -0.031 A 
ATOM     17  C   UNL     1       0.615   1.427   6.432  1.00  0.00    -0.050 A 
ATOM     18  C   UNL     1      -0.471   3.562   6.615  1.00  0.00     0.005 A 
ATOM     19  C   UNL     1      -0.166   5.430   5.042  1.00  0.00     0.046 C 
ATOM     20  C   UNL     1       0.883   0.035   6.890  1.00  0.00     0.044 C 
ATOM     21  C   UNL     1      -0.243   2.280   7.115  1.00  0.00     0.004 A 
ENDBRANCH  11  14
ENDBRANCH   9  11
ENDBRANCH   6   9
ENDBRANCH   3   6
ENDBRANCH   1   2
BRANCH   1  22
ATOM     22  C   UNL     1      -3.111   0.153   2.121  1.00  0.00     0.042 C 
BRANCH  22  23
ATOM     23  C   UNL     1      -4.007  -0.602   3.086  1.00  0.00     0.118 C 
BRANCH  23  24
ATOM     24  N   UNL     1      -5.169   0.137   3.567  1.00  0.00    -0.352 N 
ATOM     25  C   UNL     1      -5.885  -0.012   4.743  1.00  0.00     0.251 C 
ATOM     26  H   UNL     1      -5.493   0.846   2.965  1.00  0.00     0.163 HD
ATOM     27  O   UNL     1      -6.899   0.653   4.931  1.00  0.00    -0.269 OA
BRANCH  25  28
ATOM     28  C   UNL     1      -5.375  -0.900   5.815  1.00  0.00     0.039 A 
ATOM     29  C   UNL     1      -5.458  -0.500   7.155  1.00  0.00     0.014 A 
ATOM     30  C   UNL     1      -4.696  -2.065   5.491  1.00  0.00     0.014 A 
ATOM     31  C   UNL     1      -4.729  -1.187   8.133  1.00  0.00     0.010 A 
ATOM     32  C   UNL     1      -3.832  -2.615   6.410  1.00  0.00     0.010 A 
ATOM     33  C   UNL     1      -3.864  -2.211   7.745  1.00  0.00    -0.014 A 
BRANCH  33  34
ATOM     34  C   UNL     1      -3.124  -3.036   8.701  1.00  0.00     0.031 A 
ATOM     35  C   UNL     1      -3.658  -4.409   8.890  1.00  0.00     0.074 A 
ATOM     36  C   UNL     1      -1.934  -2.730   9.249  1.00  0.00     0.049 A 
ATOM     37  N   UNL     1      -4.270  -4.849   9.941  1.00  0.00    -0.248 NA
ATOM     38  C   UNL     1      -3.627  -5.368   7.777  1.00  0.00     0.031 C 
ATOM     39  C   UNL     1      -1.131  -1.536   9.030  1.00  0.00     0.029 A 
ATOM     40  N   UNL     1      -1.131  -3.505  10.044  1.00  0.00    -0.354 N 
ATOM     41  C   UNL     1      -4.539  -6.186   9.677  1.00  0.00     0.074 A 
ATOM     42  C   UNL     1      -4.385  -6.350   8.261  1.00  0.00     0.031 C 
ATOM     43  C   UNL     1       0.121  -1.755   9.494  1.00  0.00     0.029 A 
ATOM     44  C   UNL     1       0.178  -3.053  10.129  1.00  0.00     0.049 A 
ATOM     45  H   UNL     1      -1.453  -4.309  10.513  1.00  0.00     0.167 HD
ATOM     46  C   UNL     1      -4.550  -7.114  10.671  1.00  0.00     0.037 A 
ATOM     47  C   UNL     1       1.246  -3.682  10.674  1.00  0.00     0.037 A 
ATOM     48  C   UNL     1      -4.604  -6.479  11.968  1.00  0.00     0.049 A 
ATOM     49  C   UNL     1       0.722  -4.616  11.688  1.00  0.00     0.074 A 
ATOM     50  C   UNL     1      -5.441  -5.564  12.578  1.00  0.00     0.029 A 
ATOM     51  N   UNL     1      -3.470  -6.512  12.740  1.00  0.00    -0.354 N 
ATOM     52  N   UNL     1       0.188  -4.228  12.811  1.00  0.00    -0.248 NA
ATOM     53  C   UNL     1       0.454  -5.995  11.309  1.00  0.00     0.031 C 
ATOM     54  C   UNL     1      -4.599  -4.778  13.421  1.00  0.00     0.029 A 
ATOM     55  C   UNL     1      -3.304  -5.281  13.316  1.00  0.00     0.049 A 
ATOM     56  H   UNL     1      -2.876  -7.288  12.860  1.00  0.00     0.167 HD
ATOM     57  C   UNL     1      -0.849  -5.119  13.011  1.00  0.00     0.074 A 
ATOM     58  C   UNL     1      -0.528  -6.268  12.171  1.00  0.00     0.031 C 
ATOM     59  C   UNL     1      -2.012  -4.699  13.586  1.00  0.00     0.037 A 
BRANCH  46  60
ATOM     60  C   UNL     1      -4.122  -8.562  10.499  1.00  0.00     0.064 A 
ATOM     61  C   UNL     1      -4.274  -9.438  11.594  1.00  0.00     0.173 A 
ATOM     62  C   UNL     1      -3.334  -9.067   9.438  1.00  0.00     0.173 A 
ATOM     63  F   UNL     1      -4.990  -9.072  12.667  1.00  0.00    -0.203 F 
ATOM     64  C   UNL     1      -3.612 -10.666  11.662  1.00  0.00     0.198 A 
ATOM     65  C   UNL     1      -2.732 -10.324   9.481  1.00  0.00     0.198 A 
ATOM     66  F   UNL     1      -3.011  -8.344   8.363  1.00  0.00    -0.203 F 
ATOM     67  F   UNL     1      -3.671 -11.389  12.788  1.00  0.00    -0.200 F 
ATOM     68  C   UNL     1      -2.837 -11.107  10.607  1.00  0.00     0.200 A 
ATOM     69  F   UNL     1      -1.977 -10.725   8.448  1.00  0.00    -0.200 F 
ATOM     70  F   UNL     1      -2.152 -12.254  10.693  1.00  0.00    -0.200 F 
ENDBRANCH  46  60
BRANCH  47  71
ATOM     71  C   UNL     1       2.681  -3.635  10.309  1.00  0.00     0.064 A 
ATOM     72  C   UNL     1       3.670  -4.072  11.206  1.00  0.00     0.173 A 
ATOM     73  C   UNL     1       3.085  -3.445   8.974  1.00  0.00     0.173 A 
ATOM     74  F   UNL     1       3.363  -4.309  12.489  1.00  0.00    -0.203 F 
ATOM     75  C   UNL     1       4.974  -4.349  10.784  1.00  0.00     0.198 A 
ATOM     76  C   UNL     1       4.390  -3.717   8.555  1.00  0.00     0.198 A 
ATOM     77  F   UNL     1       2.197  -3.087   8.035  1.00  0.00    -0.203 F 
ATOM     78  F   UNL     1       5.868  -4.837  11.656  1.00  0.00    -0.200 F 
ATOM     79  C   UNL     1       5.329  -4.187   9.456  1.00  0.00     0.200 A 
ATOM     80  F   UNL     1       4.714  -3.589   7.260  1.00  0.00    -0.200 F 
ATOM     81  F   UNL     1       6.557  -4.523   9.037  1.00  0.00    -0.200 F 
ENDBRANCH  47  71
BRANCH  59  82
ATOM     82  C   UNL     1      -1.982  -3.401  14.344  1.00  0.00     0.064 A 
ATOM     83  C   UNL     1      -1.701  -2.148  13.772  1.00  0.00     0.173 A 
ATOM     84  C   UNL     1      -2.355  -3.421  15.695  1.00  0.00     0.173 A 
ATOM     85  F   UNL     1      -1.434  -2.026  12.466  1.00  0.00    -0.203 F 
ATOM     86  C   UNL     1      -1.739  -0.980  14.532  1.00  0.00     0.198 A 
ATOM     87  C   UNL     1      -2.430  -2.249  16.442  1.00  0.00     0.198 A 
ATOM     88  F   UNL     1      -2.683  -4.582  16.284  1.00  0.00    -0.203 F 
ATOM     89  F   UNL     1      -1.443   0.200  13.966  1.00  0.00    -0.200 F 
ATOM     90  C   UNL     1      -2.109  -1.031  15.864  1.00  0.00     0.200 A 
ATOM     91  F   UNL     1      -2.835  -2.298  17.718  1.00  0.00    -0.200 F 
ATOM     92  F   UNL     1      -2.181   0.096  16.587  1.00  0.00    -0.200 F 
ENDBRANCH  59  82
ENDBRANCH  33  34
ENDBRANCH  25  28
ENDBRANCH  23  24
ENDBRANCH  22  23
ENDBRANCH   1  22
TORSDOF 14
