REMARK SMILES C=CC[C@@]1(C(=O)NCCCNC(=O)c2ccc(-c3c4nc(c(-c5c(F)c(F)c(F)c(F)c5F)c5ccc([nH]5)c(-c5c(F)c(F)c(F)c(F)c5F)c5nc(c(-c6c(F)c(F)c(F)c(F)c6F)c6ccc3[nH]6)C=C5)C=C4)cc2)CCCN(C(=O)c2ccc3c(c2)OCO3)C1
REMARK SMILES IDX 9 1 8 2 7 3 5 4 6 5 4 7 77 8 92 9 78 10 80 11 79 12 3 13
REMARK SMILES IDX 2 14 1 15 81 16 82 17 83 18 84 19 88 20 85 21 87 22 86 23
REMARK SMILES IDX 89 24 91 25 90 26 10 27 11 28 12 29 13 31 14 32 15 33 76 34
REMARK SMILES IDX 16 35 75 36 17 37 18 38 19 39 69 40 20 41 74 42 68 43 70 44
REMARK SMILES IDX 21 45 73 46 67 47 66 48 22 50 54 51 34 52 53 53 35 54 38 55
REMARK SMILES IDX 52 56 71 57 36 58 37 59 51 61 72 62 39 63 23 64 24 65 32 66
REMARK SMILES IDX 25 67 26 68 30 69 33 70 27 71 28 72 31 73 29 74 55 75 56 76
REMARK SMILES IDX 64 77 57 78 58 79 62 80 65 81 59 82 60 83 63 84 61 85 40 86
REMARK SMILES IDX 41 87 49 88 42 89 43 90 47 91 50 92 44 93 45 94 48 95 46 96
REMARK H PARENT 7 6 11 30 70 49 38 60
REMARK Flexibility Score: inf
ROOT
ATOM      1  C   UNL     1       2.460  -1.432  -0.171  1.00  0.00     0.042 C 
ENDROOT
BRANCH   1   2
ATOM      2  C   UNL     1       1.161  -1.777   0.510  1.00  0.00     0.117 C 
BRANCH   2   3
ATOM      3  N   UNL     1       0.099  -0.824   0.333  1.00  0.00    -0.355 N 
ATOM      4  C   UNL     1      -1.237  -1.081   0.324  1.00  0.00     0.228 C 
ATOM      5  O   UNL     1      -1.930  -0.181   0.819  1.00  0.00    -0.274 OA
ATOM      6  H   UNL     1       0.367   0.114   0.204  1.00  0.00     0.163 HD
BRANCH   4   7
ATOM      7  C   UNL     1      -1.911  -2.306  -0.369  1.00  0.00     0.070 C 
ATOM      8  C   UNL     1      -3.208  -2.627   0.423  1.00  0.00     0.021 C 
ATOM      9  C   UNL     1      -1.163  -3.654  -0.483  1.00  0.00     0.137 C 
ATOM     10  C   UNL     1      -2.866  -3.208   1.804  1.00  0.00     0.023 C 
ATOM     11  N   UNL     1      -0.848  -4.275   0.804  1.00  0.00    -0.338 N 
ATOM     12  C   UNL     1      -1.978  -4.447   1.718  1.00  0.00     0.120 C 
BRANCH   7  13
ATOM     13  C   UNL     1      -2.196  -1.867  -1.839  1.00  0.00     0.045 C 
BRANCH  13  14
ATOM     14  C   UNL     1      -3.129  -0.704  -2.039  1.00  0.00    -0.034 C 
ATOM     15  C   UNL     1      -2.756   0.469  -2.568  1.00  0.00     0.004 C 
ENDBRANCH  13  14
ENDBRANCH   7  13
BRANCH  11  16
ATOM     16  C   UNL     1       0.369  -4.957   0.928  1.00  0.00     0.254 C 
ATOM     17  O   UNL     1       1.195  -5.069   0.026  1.00  0.00    -0.269 OA
BRANCH  16  18
ATOM     18  C   UNL     1       0.706  -5.558   2.226  1.00  0.00     0.043 A 
ATOM     19  C   UNL     1       0.999  -4.740   3.339  1.00  0.00     0.018 A 
ATOM     20  C   UNL     1       0.689  -6.950   2.320  1.00  0.00     0.064 A 
ATOM     21  C   UNL     1       1.210  -5.320   4.591  1.00  0.00     0.051 A 
ATOM     22  C   UNL     1       0.860  -7.482   3.574  1.00  0.00     0.166 A 
ATOM     23  C   UNL     1       1.100  -6.692   4.679  1.00  0.00     0.165 A 
ATOM     24  O   UNL     1       0.764  -8.801   3.891  1.00  0.00    -0.454 OA
ATOM     25  O   UNL     1       1.170  -7.424   5.824  1.00  0.00    -0.454 OA
ATOM     26  C   UNL     1       0.768  -8.719   5.331  1.00  0.00     0.468 C 
ENDBRANCH  16  18
ENDBRANCH  11  16
ENDBRANCH   4   7
ENDBRANCH   2   3
ENDBRANCH   1   2
BRANCH   1  27
ATOM     27  C   UNL     1       3.421  -0.695   0.737  1.00  0.00     0.118 C 
BRANCH  27  28
ATOM     28  N   UNL     1       3.825  -1.469   1.913  1.00  0.00    -0.352 N 
ATOM     29  C   UNL     1       5.010  -2.087   2.248  1.00  0.00     0.251 C 
ATOM     30  H   UNL     1       3.117  -1.567   2.591  1.00  0.00     0.163 HD
ATOM     31  O   UNL     1       5.063  -2.806   3.232  1.00  0.00    -0.269 OA
BRANCH  29  32
ATOM     32  C   UNL     1       6.211  -1.894   1.406  1.00  0.00     0.039 A 
ATOM     33  C   UNL     1       7.084  -2.963   1.186  1.00  0.00     0.014 A 
ATOM     34  C   UNL     1       6.471  -0.658   0.822  1.00  0.00     0.014 A 
ATOM     35  C   UNL     1       8.151  -2.812   0.295  1.00  0.00     0.010 A 
ATOM     36  C   UNL     1       7.425  -0.555  -0.175  1.00  0.00     0.010 A 
ATOM     37  C   UNL     1       8.293  -1.623  -0.438  1.00  0.00    -0.014 A 
BRANCH  37  38
ATOM     38  C   UNL     1       9.351  -1.433  -1.462  1.00  0.00     0.031 A 
ATOM     39  C   UNL     1      10.300  -0.268  -1.336  1.00  0.00     0.074 A 
ATOM     40  C   UNL     1       9.384  -2.223  -2.553  1.00  0.00     0.049 A 
ATOM     41  N   UNL     1      11.169   0.193  -2.198  1.00  0.00    -0.248 NA
ATOM     42  C   UNL     1      10.218   0.522  -0.095  1.00  0.00     0.031 C 
ATOM     43  C   UNL     1       8.474  -3.338  -2.826  1.00  0.00     0.029 A 
ATOM     44  N   UNL     1      10.209  -2.196  -3.650  1.00  0.00    -0.354 N 
ATOM     45  C   UNL     1      11.690   1.347  -1.626  1.00  0.00     0.074 A 
ATOM     46  C   UNL     1      10.999   1.554  -0.375  1.00  0.00     0.031 C 
ATOM     47  C   UNL     1       8.814  -3.910  -3.993  1.00  0.00     0.029 A 
ATOM     48  C   UNL     1       9.933  -3.175  -4.573  1.00  0.00     0.049 A 
ATOM     49  H   UNL     1      10.931  -1.536  -3.764  1.00  0.00     0.167 HD
ATOM     50  C   UNL     1      12.680   2.146  -2.088  1.00  0.00     0.037 A 
ATOM     51  C   UNL     1      10.517  -3.442  -5.756  1.00  0.00     0.037 A 
ATOM     52  C   UNL     1      13.421   1.884  -3.291  1.00  0.00     0.049 A 
ATOM     53  C   UNL     1      11.657  -2.574  -6.216  1.00  0.00     0.074 A 
ATOM     54  C   UNL     1      14.512   2.566  -3.798  1.00  0.00     0.029 A 
ATOM     55  N   UNL     1      13.154   0.841  -4.166  1.00  0.00    -0.354 N 
ATOM     56  N   UNL     1      12.189  -1.528  -5.633  1.00  0.00    -0.248 NA
ATOM     57  C   UNL     1      12.281  -2.927  -7.498  1.00  0.00     0.031 C 
ATOM     58  C   UNL     1      14.886   1.955  -4.999  1.00  0.00     0.029 A 
ATOM     59  C   UNL     1      14.054   0.868  -5.217  1.00  0.00     0.049 A 
ATOM     60  H   UNL     1      12.433   0.180  -4.056  1.00  0.00     0.167 HD
ATOM     61  C   UNL     1      13.228  -1.119  -6.456  1.00  0.00     0.074 A 
ATOM     62  C   UNL     1      13.261  -2.038  -7.575  1.00  0.00     0.031 C 
ATOM     63  C   UNL     1      14.079  -0.075  -6.305  1.00  0.00     0.037 A 
BRANCH  50  64
ATOM     64  C   UNL     1      13.036   3.360  -1.280  1.00  0.00     0.064 A 
ATOM     65  C   UNL     1      13.664   3.255  -0.029  1.00  0.00     0.173 A 
ATOM     66  C   UNL     1      12.781   4.646  -1.779  1.00  0.00     0.173 A 
ATOM     67  F   UNL     1      13.918   2.049   0.501  1.00  0.00    -0.203 F 
ATOM     68  C   UNL     1      13.995   4.391   0.704  1.00  0.00     0.198 A 
ATOM     69  C   UNL     1      13.144   5.780  -1.058  1.00  0.00     0.198 A 
ATOM     70  F   UNL     1      12.186   4.803  -2.971  1.00  0.00    -0.203 F 
ATOM     71  F   UNL     1      14.547   4.264   1.919  1.00  0.00    -0.200 F 
ATOM     72  C   UNL     1      13.743   5.652   0.186  1.00  0.00     0.200 A 
ATOM     73  F   UNL     1      12.911   6.999  -1.565  1.00  0.00    -0.200 F 
ATOM     74  F   UNL     1      14.073   6.745   0.889  1.00  0.00    -0.200 F 
ENDBRANCH  50  64
BRANCH  51  75
ATOM     75  C   UNL     1      10.068  -4.603  -6.570  1.00  0.00     0.064 A 
ATOM     76  C   UNL     1      10.893  -5.726  -6.727  1.00  0.00     0.173 A 
ATOM     77  C   UNL     1       8.825  -4.611  -7.219  1.00  0.00     0.173 A 
ATOM     78  F   UNL     1      12.099  -5.756  -6.141  1.00  0.00    -0.203 F 
ATOM     79  C   UNL     1      10.505  -6.800  -7.525  1.00  0.00     0.198 A 
ATOM     80  C   UNL     1       8.426  -5.699  -7.994  1.00  0.00     0.198 A 
ATOM     81  F   UNL     1       7.995  -3.565  -7.097  1.00  0.00    -0.203 F 
ATOM     82  F   UNL     1      11.338  -7.835  -7.700  1.00  0.00    -0.200 F 
ATOM     83  C   UNL     1       9.271  -6.788  -8.155  1.00  0.00     0.200 A 
ATOM     84  F   UNL     1       7.227  -5.689  -8.593  1.00  0.00    -0.200 F 
ATOM     85  F   UNL     1       8.900  -7.819  -8.926  1.00  0.00    -0.200 F 
ENDBRANCH  51  75
BRANCH  63  86
ATOM     86  C   UNL     1      15.144   0.099  -7.345  1.00  0.00     0.064 A 
ATOM     87  C   UNL     1      14.845   0.570  -8.631  1.00  0.00     0.173 A 
ATOM     88  C   UNL     1      16.486  -0.164  -7.032  1.00  0.00     0.173 A 
ATOM     89  F   UNL     1      13.574   0.822  -8.979  1.00  0.00    -0.203 F 
ATOM     90  C   UNL     1      15.851   0.750  -9.575  1.00  0.00     0.198 A 
ATOM     91  C   UNL     1      17.492   0.045  -7.970  1.00  0.00     0.198 A 
ATOM     92  F   UNL     1      16.822  -0.609  -5.812  1.00  0.00    -0.203 F 
ATOM     93  F   UNL     1      15.539   1.160 -10.813  1.00  0.00    -0.200 F 
ATOM     94  C   UNL     1      17.173   0.495  -9.242  1.00  0.00     0.200 A 
ATOM     95  F   UNL     1      18.771  -0.187  -7.642  1.00  0.00    -0.200 F 
ATOM     96  F   UNL     1      18.141   0.679 -10.151  1.00  0.00    -0.200 F 
ENDBRANCH  63  86
ENDBRANCH  37  38
ENDBRANCH  29  32
ENDBRANCH  27  28
ENDBRANCH   1  27
TORSDOF 14
