REMARK SMILES CCc1ccc2oc(-c3ccccc3)c(OCC(=O)NCCCNC(=O)c3ccc(-c4c5nc(c(-c6c(F)c(F)c(F)c(F)c6F)c6ccc([nH]6)c(-c6c(F)c(F)c(F)c(F)c6F)c6nc(c(-c7c(F)c(F)c(F)c(F)c7F)c7ccc4[nH]7)C=C6)C=C5)cc3)c(=O)c2c1
REMARK SMILES IDX 21 1 20 2 18 3 19 4 17 6 16 7 15 8 3 9 4 10 93 11 5 12 92 13
REMARK SMILES IDX 6 14 90 15 7 16 91 17 8 18 2 19 1 20 9 21 10 22 14 23 11 24
REMARK SMILES IDX 13 25 12 26 22 27 23 28 24 29 25 30 26 32 27 33 28 34 89 35
REMARK SMILES IDX 29 36 88 37 30 38 31 39 32 40 82 41 33 42 87 43 81 44 83 45
REMARK SMILES IDX 34 46 86 47 80 48 79 49 35 51 67 52 47 53 66 54 48 55 51 56
REMARK SMILES IDX 65 57 84 58 49 59 50 60 64 62 85 63 52 64 36 65 37 66 45 67
REMARK SMILES IDX 38 68 39 69 43 70 46 71 40 72 41 73 44 74 42 75 68 76 69 77
REMARK SMILES IDX 77 78 70 79 71 80 75 81 78 82 72 83 73 84 76 85 74 86 53 87
REMARK SMILES IDX 54 88 62 89 55 90 56 91 60 92 63 93 57 94 58 95 61 96 59 97
REMARK H PARENT 20 5 24 31 83 50 51 61
REMARK Flexibility Score: inf
ROOT
ATOM      1  C   UNL     1       2.563  -8.781  -1.972  1.00  0.00     0.117 C 
ENDROOT
BRANCH   1   2
ATOM      2  N   UNL     1       1.991  -7.958  -0.926  1.00  0.00    -0.353 N 
ATOM      3  C   UNL     1       0.771  -7.345  -0.885  1.00  0.00     0.257 C 
ATOM      4  O   UNL     1       0.446  -6.801   0.171  1.00  0.00    -0.271 OA
ATOM      5  H   UNL     1       2.561  -7.821  -0.135  1.00  0.00     0.163 HD
BRANCH   3   6
ATOM      6  C   UNL     1      -0.162  -7.432  -2.102  1.00  0.00     0.329 C 
BRANCH   6   7
ATOM      7  O   UNL     1       0.344  -7.020  -3.363  1.00  0.00    -0.476 OA
BRANCH   7   8
ATOM      8  C   UNL     1       0.657  -5.687  -3.590  1.00  0.00     0.211 A 
ATOM      9  C   UNL     1       0.925  -0.882  -2.405  1.00  0.00    -0.047 A 
ATOM     10  C   UNL     1       1.663  -0.684  -3.582  1.00  0.00     0.007 A 
ATOM     11  C   UNL     1       0.463  -2.171  -2.112  1.00  0.00     0.020 A 
ATOM     12  C   UNL     1       1.942  -1.756  -4.439  1.00  0.00     0.048 A 
ATOM     13  C   UNL     1       0.745  -3.237  -2.973  1.00  0.00     0.069 A 
ATOM     14  C   UNL     1       1.481  -3.035  -4.130  1.00  0.00     0.138 A 
ATOM     15  C   UNL     1       0.230  -4.579  -2.685  1.00  0.00     0.235 A 
ATOM     16  O   UNL     1       1.758  -4.044  -5.011  1.00  0.00    -0.452 OA
ATOM     17  O   UNL     1      -0.557  -4.732  -1.758  1.00  0.00    -0.285 OA
ATOM     18  C   UNL     1       1.336  -5.328  -4.703  1.00  0.00     0.180 A 
BRANCH   9  19
ATOM     19  C   UNL     1       0.584   0.275  -1.498  1.00  0.00     0.032 C 
ATOM     20  C   UNL     1       1.093   0.095  -0.074  1.00  0.00     0.009 C 
ENDBRANCH   9  19
BRANCH  18  21
ATOM     21  C   UNL     1       1.680  -6.303  -5.760  1.00  0.00     0.021 A 
ATOM     22  C   UNL     1       3.005  -6.463  -6.186  1.00  0.00     0.012 A 
ATOM     23  C   UNL     1       0.672  -7.042  -6.400  1.00  0.00     0.012 A 
ATOM     24  C   UNL     1       3.317  -7.362  -7.211  1.00  0.00     0.001 A 
ATOM     25  C   UNL     1       0.983  -7.937  -7.425  1.00  0.00     0.001 A 
ATOM     26  C   UNL     1       2.306  -8.099  -7.828  1.00  0.00     0.000 A 
ENDBRANCH  18  21
ENDBRANCH   7   8
ENDBRANCH   6   7
ENDBRANCH   3   6
ENDBRANCH   1   2
BRANCH   1  27
ATOM     27  C   UNL     1       3.755  -8.115  -2.645  1.00  0.00     0.042 C 
BRANCH  27  28
ATOM     28  C   UNL     1       4.908  -7.781  -1.703  1.00  0.00     0.118 C 
BRANCH  28  29
ATOM     29  N   UNL     1       5.495  -8.954  -1.069  1.00  0.00    -0.352 N 
ATOM     30  C   UNL     1       6.788  -9.415  -1.085  1.00  0.00     0.251 C 
ATOM     31  H   UNL     1       4.866  -9.503  -0.547  1.00  0.00     0.163 HD
ATOM     32  O   UNL     1       7.054 -10.513  -0.601  1.00  0.00    -0.269 OA
BRANCH  30  33
ATOM     33  C   UNL     1       7.862  -8.611  -1.706  1.00  0.00     0.039 A 
ATOM     34  C   UNL     1       8.796  -9.249  -2.528  1.00  0.00     0.014 A 
ATOM     35  C   UNL     1       7.960  -7.238  -1.471  1.00  0.00     0.014 A 
ATOM     36  C   UNL     1       9.780  -8.498  -3.176  1.00  0.00     0.010 A 
ATOM     37  C   UNL     1       8.888  -6.481  -2.179  1.00  0.00     0.010 A 
ATOM     38  C   UNL     1       9.809  -7.102  -3.038  1.00  0.00    -0.014 A 
BRANCH  38  39
ATOM     39  C   UNL     1      10.793  -6.263  -3.769  1.00  0.00     0.031 A 
ATOM     40  C   UNL     1      11.793  -5.444  -3.002  1.00  0.00     0.074 A 
ATOM     41  C   UNL     1      10.728  -6.165  -5.110  1.00  0.00     0.049 A 
ATOM     42  N   UNL     1      12.639  -4.544  -3.438  1.00  0.00    -0.248 NA
ATOM     43  C   UNL     1      11.821  -5.639  -1.544  1.00  0.00     0.031 C 
ATOM     44  C   UNL     1       9.783  -6.883  -5.966  1.00  0.00     0.029 A 
ATOM     45  N   UNL     1      11.459  -5.403  -5.988  1.00  0.00    -0.354 N 
ATOM     46  C   UNL     1      13.278  -4.051  -2.308  1.00  0.00     0.074 A 
ATOM     47  C   UNL     1      12.688  -4.713  -1.165  1.00  0.00     0.031 C 
ATOM     48  C   UNL     1       9.997  -6.535  -7.245  1.00  0.00     0.029 A 
ATOM     49  C   UNL     1      11.061  -5.536  -7.296  1.00  0.00     0.049 A 
ATOM     50  H   UNL     1      12.197  -4.816  -5.707  1.00  0.00     0.167 HD
ATOM     51  C   UNL     1      14.280  -3.142  -2.233  1.00  0.00     0.037 A 
ATOM     52  C   UNL     1      11.491  -4.910  -8.408  1.00  0.00     0.037 A 
ATOM     53  C   UNL     1      14.879  -2.505  -3.376  1.00  0.00     0.049 A 
ATOM     54  C   UNL     1      12.595  -3.893  -8.300  1.00  0.00     0.074 A 
ATOM     55  C   UNL     1      15.939  -1.616  -3.412  1.00  0.00     0.029 A 
ATOM     56  N   UNL     1      14.466  -2.688  -4.689  1.00  0.00    -0.354 N 
ATOM     57  N   UNL     1      13.233  -3.475  -7.234  1.00  0.00    -0.248 NA
ATOM     58  C   UNL     1      13.043  -3.263  -9.550  1.00  0.00     0.031 C 
ATOM     59  C   UNL     1      16.131  -1.218  -4.738  1.00  0.00     0.029 A 
ATOM     60  C   UNL     1      15.234  -1.908  -5.538  1.00  0.00     0.049 A 
ATOM     61  H   UNL     1      13.736  -3.283  -4.974  1.00  0.00     0.167 HD
ATOM     62  C   UNL     1      14.180  -2.564  -7.686  1.00  0.00     0.074 A 
ATOM     63  C   UNL     1      14.034  -2.492  -9.125  1.00  0.00     0.031 C 
ATOM     64  C   UNL     1      15.090  -1.858  -6.972  1.00  0.00     0.037 A 
BRANCH  51  65
ATOM     65  C   UNL     1      14.782  -2.775  -0.865  1.00  0.00     0.064 A 
ATOM     66  C   UNL     1      15.482  -3.691  -0.064  1.00  0.00     0.173 A 
ATOM     67  C   UNL     1      14.577  -1.484  -0.356  1.00  0.00     0.173 A 
ATOM     68  F   UNL     1      15.697  -4.942  -0.498  1.00  0.00    -0.203 F 
ATOM     69  C   UNL     1      15.921  -3.340   1.211  1.00  0.00     0.198 A 
ATOM     70  C   UNL     1      15.049  -1.125   0.904  1.00  0.00     0.198 A 
ATOM     71  F   UNL     1      13.921  -0.566  -1.082  1.00  0.00    -0.203 F 
ATOM     72  F   UNL     1      16.531  -4.251   1.981  1.00  0.00    -0.200 F 
ATOM     73  C   UNL     1      15.710  -2.056   1.691  1.00  0.00     0.200 A 
ATOM     74  F   UNL     1      14.858   0.120   1.360  1.00  0.00    -0.200 F 
ATOM     75  F   UNL     1      16.135  -1.719   2.916  1.00  0.00    -0.200 F 
ENDBRANCH  51  65
BRANCH  52  76
ATOM     76  C   UNL     1      10.885  -5.244  -9.724  1.00  0.00     0.064 A 
ATOM     77  C   UNL     1      11.617  -5.939 -10.697  1.00  0.00     0.173 A 
ATOM     78  C   UNL     1       9.564  -4.888 -10.032  1.00  0.00     0.173 A 
ATOM     79  F   UNL     1      12.890  -6.284 -10.456  1.00  0.00    -0.203 F 
ATOM     80  C   UNL     1      11.055  -6.253 -11.932  1.00  0.00     0.198 A 
ATOM     81  C   UNL     1       8.994  -5.228 -11.257  1.00  0.00     0.198 A 
ATOM     82  F   UNL     1       8.818  -4.228  -9.133  1.00  0.00    -0.203 F 
ATOM     83  F   UNL     1      11.790  -6.884 -12.859  1.00  0.00    -0.200 F 
ATOM     84  C   UNL     1       9.742  -5.904 -12.209  1.00  0.00     0.200 A 
ATOM     85  F   UNL     1       7.719  -4.904 -11.513  1.00  0.00    -0.200 F 
ATOM     86  F   UNL     1       9.199  -6.215 -13.394  1.00  0.00    -0.200 F 
ENDBRANCH  52  76
BRANCH  64  87
ATOM     87  C   UNL     1      16.042  -0.981  -7.733  1.00  0.00     0.064 A 
ATOM     88  C   UNL     1      15.629   0.215  -8.336  1.00  0.00     0.173 A 
ATOM     89  C   UNL     1      17.404  -1.314  -7.801  1.00  0.00     0.173 A 
ATOM     90  F   UNL     1      14.335   0.572  -8.312  1.00  0.00    -0.203 F 
ATOM     91  C   UNL     1      16.541   1.037  -8.993  1.00  0.00     0.198 A 
ATOM     92  C   UNL     1      18.318  -0.475  -8.431  1.00  0.00     0.198 A 
ATOM     93  F   UNL     1      17.853  -2.445  -7.234  1.00  0.00    -0.203 F 
ATOM     94  F   UNL     1      16.117   2.157  -9.596  1.00  0.00    -0.200 F 
ATOM     95  C   UNL     1      17.885   0.697  -9.031  1.00  0.00     0.200 A 
ATOM     96  F   UNL     1      19.619  -0.798  -8.452  1.00  0.00    -0.200 F 
ATOM     97  F   UNL     1      18.764   1.498  -9.650  1.00  0.00    -0.200 F 
ENDBRANCH  64  87
ENDBRANCH  38  39
ENDBRANCH  30  33
ENDBRANCH  28  29
ENDBRANCH  27  28
ENDBRANCH   1  27
TORSDOF 14
