REMARK SMILES C[C@H](NC(=O)c1ccncc1/C=C/C(=O)NCCCNC(=O)c1ccc(-c2c3nc(c(-c4c(F)c(F)c(F)c(F)c4F)c4ccc([nH]4)c(-c4c(F)c(F)c(F)c(F)c4F)c4nc(c(-c5c(F)c(F)c(F)c(F)c5F)c5ccc2[nH]5)C=C4)C=C3)cc1)c1ccco1
REMARK SMILES IDX 17 1 16 2 14 3 15 4 13 6 12 7 11 8 6 9 7 10 8 11 10 12 9 13
REMARK SMILES IDX 4 14 3 15 5 17 2 18 1 19 86 20 87 21 90 22 88 23 89 24 18 25
REMARK SMILES IDX 19 26 20 27 21 28 22 30 23 31 24 32 85 33 25 34 84 35 26 36
REMARK SMILES IDX 27 37 28 38 78 39 29 40 83 41 77 42 79 43 30 44 82 45 76 46
REMARK SMILES IDX 75 47 31 49 63 50 43 51 62 52 44 53 47 54 61 55 80 56 45 57
REMARK SMILES IDX 46 58 60 60 81 61 48 62 32 63 33 64 41 65 34 66 35 67 39 68
REMARK SMILES IDX 42 69 36 70 37 71 40 72 38 73 64 74 65 75 73 76 66 77 67 78
REMARK SMILES IDX 71 79 74 80 68 81 69 82 72 83 70 84 49 85 50 86 58 87 51 88
REMARK SMILES IDX 52 89 56 90 59 91 53 92 54 93 57 94 55 95
REMARK H PARENT 16 5 3 16 20 29 79 48 47 59
REMARK Flexibility Score: inf
ROOT
ATOM      1  C   UNL     1      -0.114  -1.171   4.748  1.00  0.00     0.118 C 
ENDROOT
BRANCH   1   2
ATOM      2  N   UNL     1      -0.964  -2.276   5.159  1.00  0.00    -0.352 N 
ATOM      3  C   UNL     1      -1.105  -3.513   4.613  1.00  0.00     0.244 C 
ATOM      4  O   UNL     1      -1.819  -4.351   5.157  1.00  0.00    -0.270 OA
ATOM      5  H   UNL     1      -1.521  -2.103   5.952  1.00  0.00     0.163 HD
BRANCH   3   6
ATOM      6  C   UNL     1      -0.311  -3.890   3.426  1.00  0.00     0.072 C 
ATOM      7  C   UNL     1      -0.329  -3.233   2.255  1.00  0.00     0.016 C 
BRANCH   7   8
ATOM      8  C   UNL     1       0.543  -3.641   1.142  1.00  0.00     0.006 A 
ATOM      9  C   UNL     1       1.359  -2.749   0.431  1.00  0.00     0.050 A 
ATOM     10  C   UNL     1       2.313  -3.232  -0.469  1.00  0.00     0.034 A 
ATOM     11  C   UNL     1       2.326  -4.584  -0.745  1.00  0.00     0.112 A 
ATOM     12  C   UNL     1       0.628  -4.978   0.760  1.00  0.00     0.119 A 
ATOM     13  N   UNL     1       1.481  -5.463  -0.175  1.00  0.00    -0.264 NA
BRANCH   9  14
ATOM     14  C   UNL     1       1.372  -1.307   0.725  1.00  0.00     0.252 C 
ATOM     15  N   UNL     1       1.011  -0.376  -0.209  1.00  0.00    -0.342 N 
ATOM     16  H   UNL     1       1.262   0.538   0.056  1.00  0.00     0.164 HD
ATOM     17  O   UNL     1       1.752  -0.932   1.832  1.00  0.00    -0.269 OA
BRANCH  15  18
ATOM     18  C   UNL     1       0.339  -0.418  -1.507  1.00  0.00     0.145 C 
ATOM     19  C   UNL     1       0.876  -1.388  -2.549  1.00  0.00     0.039 C 
BRANCH  18  20
ATOM     20  C   UNL     1      -1.134  -0.544  -1.315  1.00  0.00     0.125 A 
ATOM     21  C   UNL     1      -2.009  -1.607  -1.194  1.00  0.00     0.048 A 
ATOM     22  O   UNL     1      -1.835   0.630  -1.302  1.00  0.00    -0.467 OA
ATOM     23  C   UNL     1      -3.310  -1.051  -1.133  1.00  0.00     0.042 A 
ATOM     24  C   UNL     1      -3.150   0.312  -1.201  1.00  0.00     0.195 A 
ENDBRANCH  18  20
ENDBRANCH  15  18
ENDBRANCH   9  14
ENDBRANCH   7   8
ENDBRANCH   3   6
ENDBRANCH   1   2
BRANCH   1  25
ATOM     25  C   UNL     1      -0.933  -0.051   4.112  1.00  0.00     0.042 C 
BRANCH  25  26
ATOM     26  C   UNL     1      -1.766   0.734   5.122  1.00  0.00     0.118 C 
BRANCH  26  27
ATOM     27  N   UNL     1      -0.941   1.541   6.009  1.00  0.00    -0.352 N 
ATOM     28  C   UNL     1      -1.014   2.875   6.316  1.00  0.00     0.251 C 
ATOM     29  H   UNL     1      -0.216   1.051   6.461  1.00  0.00     0.163 HD
ATOM     30  O   UNL     1      -0.100   3.402   6.943  1.00  0.00    -0.269 OA
BRANCH  28  31
ATOM     31  C   UNL     1      -2.175   3.692   5.897  1.00  0.00     0.039 A 
ATOM     32  C   UNL     1      -1.945   5.007   5.480  1.00  0.00     0.014 A 
ATOM     33  C   UNL     1      -3.482   3.206   5.977  1.00  0.00     0.014 A 
ATOM     34  C   UNL     1      -3.019   5.822   5.117  1.00  0.00     0.010 A 
ATOM     35  C   UNL     1      -4.548   3.996   5.550  1.00  0.00     0.010 A 
ATOM     36  C   UNL     1      -4.329   5.318   5.134  1.00  0.00    -0.014 A 
BRANCH  36  37
ATOM     37  C   UNL     1      -5.481   6.175   4.754  1.00  0.00     0.031 A 
ATOM     38  C   UNL     1      -6.513   6.550   5.782  1.00  0.00     0.074 A 
ATOM     39  C   UNL     1      -5.620   6.579   3.477  1.00  0.00     0.049 A 
ATOM     40  N   UNL     1      -7.611   7.249   5.637  1.00  0.00    -0.248 NA
ATOM     41  C   UNL     1      -6.297   6.051   7.149  1.00  0.00     0.031 C 
ATOM     42  C   UNL     1      -4.709   6.245   2.382  1.00  0.00     0.029 A 
ATOM     43  N   UNL     1      -6.585   7.354   2.884  1.00  0.00    -0.354 N 
ATOM     44  C   UNL     1      -8.223   7.255   6.885  1.00  0.00     0.074 A 
ATOM     45  C   UNL     1      -7.401   6.451   7.762  1.00  0.00     0.031 C 
ATOM     46  C   UNL     1      -5.144   6.831   1.255  1.00  0.00     0.029 A 
ATOM     47  C   UNL     1      -6.380   7.554   1.541  1.00  0.00     0.049 A 
ATOM     48  H   UNL     1      -7.351   7.730   3.374  1.00  0.00     0.167 HD
ATOM     49  C   UNL     1      -9.356   7.891   7.268  1.00  0.00     0.037 A 
ATOM     50  C   UNL     1      -7.109   8.243   0.643  1.00  0.00     0.037 A 
ATOM     51  C   UNL     1     -10.151   8.720   6.401  1.00  0.00     0.049 A 
ATOM     52  C   UNL     1      -8.353   8.956   1.099  1.00  0.00     0.074 A 
ATOM     53  C   UNL     1     -11.280   9.459   6.708  1.00  0.00     0.029 A 
ATOM     54  N   UNL     1      -9.897   8.921   5.052  1.00  0.00    -0.354 N 
ATOM     55  N   UNL     1      -8.886   9.008   2.296  1.00  0.00    -0.248 NA
ATOM     56  C   UNL     1      -9.091   9.715   0.080  1.00  0.00     0.031 C 
ATOM     57  C   UNL     1     -11.733  10.074   5.536  1.00  0.00     0.029 A 
ATOM     58  C   UNL     1     -10.858   9.759   4.509  1.00  0.00     0.049 A 
ATOM     59  H   UNL     1      -9.145   8.526   4.554  1.00  0.00     0.167 HD
ATOM     60  C   UNL     1     -10.000   9.828   2.182  1.00  0.00     0.074 A 
ATOM     61  C   UNL     1     -10.060  10.262   0.802  1.00  0.00     0.031 C 
ATOM     62  C   UNL     1     -10.894  10.190   3.135  1.00  0.00     0.037 A 
BRANCH  49  63
ATOM     63  C   UNL     1      -9.802   7.718   8.692  1.00  0.00     0.064 A 
ATOM     64  C   UNL     1      -9.095   8.289   9.761  1.00  0.00     0.173 A 
ATOM     65  C   UNL     1     -10.969   6.998   8.989  1.00  0.00     0.173 A 
ATOM     66  F   UNL     1      -7.966   8.978   9.533  1.00  0.00    -0.203 F 
ATOM     67  C   UNL     1      -9.522   8.120  11.076  1.00  0.00     0.198 A 
ATOM     68  C   UNL     1     -11.411   6.857  10.302  1.00  0.00     0.198 A 
ATOM     69  F   UNL     1     -11.687   6.437   8.005  1.00  0.00    -0.203 F 
ATOM     70  F   UNL     1      -8.802   8.632  12.083  1.00  0.00    -0.200 F 
ATOM     71  C   UNL     1     -10.683   7.410  11.345  1.00  0.00     0.200 A 
ATOM     72  F   UNL     1     -12.540   6.182  10.560  1.00  0.00    -0.200 F 
ATOM     73  F   UNL     1     -11.096   7.254  12.610  1.00  0.00    -0.200 F 
ENDBRANCH  49  63
BRANCH  50  74
ATOM     74  C   UNL     1      -6.660   8.324  -0.771  1.00  0.00     0.064 A 
ATOM     75  C   UNL     1      -6.176   9.528  -1.303  1.00  0.00     0.173 A 
ATOM     76  C   UNL     1      -6.706   7.208  -1.619  1.00  0.00     0.173 A 
ATOM     77  F   UNL     1      -6.132  10.628  -0.536  1.00  0.00    -0.203 F 
ATOM     78  C   UNL     1      -5.775   9.617  -2.634  1.00  0.00     0.198 A 
ATOM     79  C   UNL     1      -6.278   7.292  -2.942  1.00  0.00     0.198 A 
ATOM     80  F   UNL     1      -7.154   6.031  -1.157  1.00  0.00    -0.203 F 
ATOM     81  F   UNL     1      -5.359  10.791  -3.128  1.00  0.00    -0.200 F 
ATOM     82  C   UNL     1      -5.821   8.498  -3.451  1.00  0.00     0.200 A 
ATOM     83  F   UNL     1      -6.311   6.205  -3.725  1.00  0.00    -0.200 F 
ATOM     84  F   UNL     1      -5.432   8.584  -4.730  1.00  0.00    -0.200 F 
ENDBRANCH  50  74
BRANCH  62  85
ATOM     85  C   UNL     1     -11.988  11.133   2.727  1.00  0.00     0.064 A 
ATOM     86  C   UNL     1     -13.049  10.722   1.908  1.00  0.00     0.173 A 
ATOM     87  C   UNL     1     -11.989  12.458   3.190  1.00  0.00     0.173 A 
ATOM     88  F   UNL     1     -13.084   9.470   1.427  1.00  0.00    -0.203 F 
ATOM     89  C   UNL     1     -14.056  11.611   1.543  1.00  0.00     0.198 A 
ATOM     90  C   UNL     1     -13.013  13.336   2.848  1.00  0.00     0.198 A 
ATOM     91  F   UNL     1     -10.999  12.899   3.982  1.00  0.00    -0.203 F 
ATOM     92  F   UNL     1     -15.034  11.211   0.718  1.00  0.00    -0.200 F 
ATOM     93  C   UNL     1     -14.041  12.914   2.019  1.00  0.00     0.200 A 
ATOM     94  F   UNL     1     -13.004  14.591   3.319  1.00  0.00    -0.200 F 
ATOM     95  F   UNL     1     -15.014  13.767   1.670  1.00  0.00    -0.200 F 
ENDBRANCH  62  85
ENDBRANCH  36  37
ENDBRANCH  28  31
ENDBRANCH  26  27
ENDBRANCH  25  26
ENDBRANCH   1  25
TORSDOF 14
