REMARK SMILES NC(=O)CC[C@@H](C(=O)NCCCNC(=O)c1ccc(-c2c3nc(c(-c4c(F)c(F)c(F)c(F)c4F)c4ccc([nH]4)c(-c4c(F)c(F)c(F)c(F)c4F)c4nc(c(-c5c(F)c(F)c(F)c(F)c5F)c5ccc2[nH]5)C=C4)C=C3)cc1)N1C(=O)/C(=C/c2ccc(C=O)cc2)SC1=S
REMARK SMILES IDX 10 1 9 2 7 3 8 4 6 6 5 7 4 8 2 9 1 10 3 13 79 14 80 15 93 16
REMARK SMILES IDX 81 17 82 18 92 19 94 20 83 21 84 22 85 23 91 24 86 25 90 26
REMARK SMILES IDX 87 27 88 28 89 29 11 30 12 31 13 32 14 33 15 35 16 36 17 37
REMARK SMILES IDX 78 38 18 39 77 40 19 41 20 42 21 43 71 44 22 45 76 46 70 47
REMARK SMILES IDX 72 48 23 49 75 50 69 51 68 52 24 54 56 55 36 56 55 57 37 58
REMARK SMILES IDX 40 59 54 60 73 61 38 62 39 63 53 65 74 66 41 67 25 68 26 69
REMARK SMILES IDX 34 70 27 71 28 72 32 73 35 74 29 75 30 76 33 77 31 78 57 79
REMARK SMILES IDX 58 80 66 81 59 82 60 83 64 84 67 85 61 86 62 87 65 88 63 89
REMARK SMILES IDX 42 90 43 91 51 92 44 93 45 94 49 95 52 96 46 97 47 98 50 99
REMARK SMILES IDX 48 100
REMARK H PARENT 9 5 1 11 1 12 13 34 72 53 40 64
REMARK Flexibility Score: inf
ROOT
ATOM      1  C   UNL     1       2.467  -0.933  -2.038  1.00  0.00     0.117 C 
ENDROOT
BRANCH   1   2
ATOM      2  N   UNL     1       3.561  -0.009  -2.289  1.00  0.00    -0.354 N 
ATOM      3  C   UNL     1       3.738   1.293  -1.913  1.00  0.00     0.243 C 
ATOM      4  O   UNL     1       4.687   1.896  -2.420  1.00  0.00    -0.273 OA
ATOM      5  H   UNL     1       4.299  -0.385  -2.820  1.00  0.00     0.163 HD
BRANCH   3   6
ATOM      6  C   UNL     1       2.834   1.945  -0.833  1.00  0.00     0.181 C 
BRANCH   6   7
ATOM      7  C   UNL     1       1.517   2.559  -1.360  1.00  0.00     0.045 C 
BRANCH   7   8
ATOM      8  C   UNL     1       0.319   1.720  -1.766  1.00  0.00     0.102 C 
BRANCH   8   9
ATOM      9  C   UNL     1      -0.560   1.064  -0.725  1.00  0.00     0.217 C 
ATOM     10  N   UNL     1      -0.002   0.544   0.394  1.00  0.00    -0.370 N 
ATOM     11  H   UNL     1      -0.571   0.117   1.074  1.00  0.00     0.159 HD
ATOM     12  H   UNL     1       0.972   0.594   0.527  1.00  0.00     0.159 HD
ATOM     13  O   UNL     1      -1.763   0.903  -0.917  1.00  0.00    -0.275 OA
ENDBRANCH   8   9
ENDBRANCH   7   8
ENDBRANCH   6   7
BRANCH   6  14
ATOM     14  N   UNL     1       3.694   2.979  -0.155  1.00  0.00    -0.280 N 
ATOM     15  C   UNL     1       3.635   4.317  -0.522  1.00  0.00     0.266 C 
ATOM     16  C   UNL     1       4.680   2.671   0.767  1.00  0.00     0.149 C 
ATOM     17  O   UNL     1       2.949   4.824  -1.395  1.00  0.00    -0.268 OA
ATOM     18  C   UNL     1       4.539   5.138   0.318  1.00  0.00     0.081 C 
ATOM     19  S   UNL     1       5.544   4.130   1.260  1.00  0.00    -0.054 SA
ATOM     20  S   UNL     1       5.062   1.172   1.401  1.00  0.00    -0.052 S 
ATOM     21  C   UNL     1       4.464   6.475   0.271  1.00  0.00     0.029 C 
BRANCH  21  22
ATOM     22  C   UNL     1       5.354   7.432   0.926  1.00  0.00    -0.024 A 
ATOM     23  C   UNL     1       4.859   8.341   1.868  1.00  0.00     0.009 A 
ATOM     24  C   UNL     1       6.690   7.513   0.517  1.00  0.00     0.009 A 
ATOM     25  C   UNL     1       5.704   9.317   2.407  1.00  0.00     0.012 A 
ATOM     26  C   UNL     1       7.535   8.487   1.049  1.00  0.00     0.012 A 
ATOM     27  C   UNL     1       7.037   9.386   1.994  1.00  0.00     0.014 A 
BRANCH  27  28
ATOM     28  C   UNL     1       7.937  10.422   2.537  1.00  0.00     0.260 C 
ATOM     29  O   UNL     1       7.561  11.249   3.358  1.00  0.00    -0.298 OA
ENDBRANCH  27  28
ENDBRANCH  21  22
ENDBRANCH   6  14
ENDBRANCH   3   6
ENDBRANCH   1   2
BRANCH   1  30
ATOM     30  C   UNL     1       1.613  -1.087  -3.295  1.00  0.00     0.042 C 
BRANCH  30  31
ATOM     31  C   UNL     1       2.107  -2.163  -4.242  1.00  0.00     0.118 C 
BRANCH  31  32
ATOM     32  N   UNL     1       1.717  -3.494  -3.808  1.00  0.00    -0.352 N 
ATOM     33  C   UNL     1       0.895  -4.413  -4.417  1.00  0.00     0.251 C 
ATOM     34  H   UNL     1       2.100  -3.782  -2.947  1.00  0.00     0.163 HD
ATOM     35  O   UNL     1       0.521  -5.399  -3.788  1.00  0.00    -0.269 OA
BRANCH  33  36
ATOM     36  C   UNL     1       0.439  -4.213  -5.813  1.00  0.00     0.039 A 
ATOM     37  C   UNL     1      -0.866  -4.576  -6.159  1.00  0.00     0.014 A 
ATOM     38  C   UNL     1       1.292  -3.690  -6.787  1.00  0.00     0.014 A 
ATOM     39  C   UNL     1      -1.330  -4.352  -7.459  1.00  0.00     0.010 A 
ATOM     40  C   UNL     1       0.797  -3.367  -8.046  1.00  0.00     0.010 A 
ATOM     41  C   UNL     1      -0.515  -3.708  -8.403  1.00  0.00    -0.014 A 
BRANCH  41  42
ATOM     42  C   UNL     1      -0.999  -3.403  -9.775  1.00  0.00     0.031 A 
ATOM     43  C   UNL     1      -0.298  -3.999 -10.967  1.00  0.00     0.074 A 
ATOM     44  C   UNL     1      -2.019  -2.541  -9.952  1.00  0.00     0.049 A 
ATOM     45  N   UNL     1      -0.499  -3.782 -12.243  1.00  0.00    -0.248 NA
ATOM     46  C   UNL     1       0.797  -4.942 -10.688  1.00  0.00     0.031 C 
ATOM     47  C   UNL     1      -2.754  -1.867  -8.880  1.00  0.00     0.029 A 
ATOM     48  N   UNL     1      -2.611  -2.076 -11.101  1.00  0.00    -0.354 N 
ATOM     49  C   UNL     1       0.449  -4.548 -12.911  1.00  0.00     0.074 A 
ATOM     50  C   UNL     1       1.269  -5.180 -11.902  1.00  0.00     0.031 C 
ATOM     51  C   UNL     1      -3.714  -1.099  -9.419  1.00  0.00     0.029 A 
ATOM     52  C   UNL     1      -3.633  -1.186 -10.874  1.00  0.00     0.049 A 
ATOM     53  H   UNL     1      -2.329  -2.354 -12.002  1.00  0.00     0.167 HD
ATOM     54  C   UNL     1       0.602  -4.732 -14.243  1.00  0.00     0.037 A 
ATOM     55  C   UNL     1      -4.407  -0.508 -11.742  1.00  0.00     0.037 A 
ATOM     56  C   UNL     1      -0.233  -4.118 -15.242  1.00  0.00     0.049 A 
ATOM     57  C   UNL     1      -4.192  -0.703 -13.220  1.00  0.00     0.074 A 
ATOM     58  C   UNL     1      -0.192  -4.276 -16.616  1.00  0.00     0.029 A 
ATOM     59  N   UNL     1      -1.261  -3.227 -14.972  1.00  0.00    -0.354 N 
ATOM     60  N   UNL     1      -3.334  -1.478 -13.838  1.00  0.00    -0.248 NA
ATOM     61  C   UNL     1      -5.056   0.070 -14.123  1.00  0.00     0.031 C 
ATOM     62  C   UNL     1      -1.159  -3.439 -17.180  1.00  0.00     0.029 A 
ATOM     63  C   UNL     1      -1.844  -2.806 -16.156  1.00  0.00     0.049 A 
ATOM     64  H   UNL     1      -1.535  -2.936 -14.072  1.00  0.00     0.167 HD
ATOM     65  C   UNL     1      -3.576  -1.312 -15.195  1.00  0.00     0.074 A 
ATOM     66  C   UNL     1      -4.673  -0.374 -15.311  1.00  0.00     0.031 C 
ATOM     67  C   UNL     1      -2.946  -1.883 -16.251  1.00  0.00     0.037 A 
BRANCH  54  68
ATOM     68  C   UNL     1       1.708  -5.641 -14.699  1.00  0.00     0.064 A 
ATOM     69  C   UNL     1       1.668  -7.024 -14.464  1.00  0.00     0.173 A 
ATOM     70  C   UNL     1       2.804  -5.131 -15.413  1.00  0.00     0.173 A 
ATOM     71  F   UNL     1       0.650  -7.563 -13.776  1.00  0.00    -0.203 F 
ATOM     72  C   UNL     1       2.696  -7.857 -14.897  1.00  0.00     0.198 A 
ATOM     73  C   UNL     1       3.813  -5.972 -15.876  1.00  0.00     0.198 A 
ATOM     74  F   UNL     1       2.891  -3.818 -15.672  1.00  0.00    -0.203 F 
ATOM     75  F   UNL     1       2.661  -9.166 -14.612  1.00  0.00    -0.200 F 
ATOM     76  C   UNL     1       3.763  -7.332 -15.610  1.00  0.00     0.200 A 
ATOM     77  F   UNL     1       4.836  -5.465 -16.578  1.00  0.00    -0.200 F 
ATOM     78  F   UNL     1       4.747  -8.136 -16.035  1.00  0.00    -0.200 F 
ENDBRANCH  54  68
BRANCH  55  79
ATOM     79  C   UNL     1      -5.469   0.408 -11.244  1.00  0.00     0.064 A 
ATOM     80  C   UNL     1      -6.825   0.119 -11.455  1.00  0.00     0.173 A 
ATOM     81  C   UNL     1      -5.155   1.598 -10.570  1.00  0.00     0.173 A 
ATOM     82  F   UNL     1      -7.177  -0.995 -12.113  1.00  0.00    -0.203 F 
ATOM     83  C   UNL     1      -7.823   0.998 -11.038  1.00  0.00     0.198 A 
ATOM     84  C   UNL     1      -6.156   2.459 -10.123  1.00  0.00     0.198 A 
ATOM     85  F   UNL     1      -3.874   1.921 -10.338  1.00  0.00    -0.203 F 
ATOM     86  F   UNL     1      -9.107   0.724 -11.305  1.00  0.00    -0.200 F 
ATOM     87  C   UNL     1      -7.488   2.164 -10.368  1.00  0.00     0.200 A 
ATOM     88  F   UNL     1      -5.828   3.578  -9.463  1.00  0.00    -0.200 F 
ATOM     89  F   UNL     1      -8.448   3.009  -9.968  1.00  0.00    -0.200 F 
ENDBRANCH  55  79
BRANCH  67  90
ATOM     90  C   UNL     1      -3.453  -1.546 -17.623  1.00  0.00     0.064 A 
ATOM     91  C   UNL     1      -3.254  -0.280 -18.193  1.00  0.00     0.173 A 
ATOM     92  C   UNL     1      -4.099  -2.521 -18.399  1.00  0.00     0.173 A 
ATOM     93  F   UNL     1      -2.655   0.692 -17.488  1.00  0.00    -0.203 F 
ATOM     94  C   UNL     1      -3.705   0.004 -19.479  1.00  0.00     0.198 A 
ATOM     95  C   UNL     1      -4.518  -2.244 -19.697  1.00  0.00     0.198 A 
ATOM     96  F   UNL     1      -4.307  -3.751 -17.904  1.00  0.00    -0.203 F 
ATOM     97  F   UNL     1      -3.547   1.235 -19.986  1.00  0.00    -0.200 F 
ATOM     98  C   UNL     1      -4.327  -0.980 -20.233  1.00  0.00     0.200 A 
ATOM     99  F   UNL     1      -5.102  -3.202 -20.430  1.00  0.00    -0.200 F 
ATOM    100  F   UNL     1      -4.747  -0.708 -21.476  1.00  0.00    -0.200 F 
ENDBRANCH  67  90
ENDBRANCH  41  42
ENDBRANCH  33  36
ENDBRANCH  31  32
ENDBRANCH  30  31
ENDBRANCH   1  30
TORSDOF 16
