REMARK SMILES O=C1C[C@H](C(=O)NCCCNC(=O)c2ccc(-c3c4nc(c(-c5c(F)c(F)c(F)c(F)c5F)c5ccc([nH]5)c(-c5c(F)c(F)c(F)c(F)c5F)c5nc(c(-c6c(F)c(F)c(F)c(F)c6F)c6ccc3[nH]6)C=C5)C=C4)cc2)c2c(nc(Nc3ccc(Oc4ccccc4)cc3)[nH]c2=O)N1
REMARK SMILES IDX 8 1 7 2 5 3 6 4 4 6 1 7 2 8 3 9 98 10 78 11 77 13 79 14
REMARK SMILES IDX 96 15 80 16 95 17 97 18 81 20 82 22 83 23 94 24 84 25 93 26
REMARK SMILES IDX 85 27 86 28 87 29 88 30 92 31 89 32 91 33 90 34 9 35 10 36
REMARK SMILES IDX 11 37 12 38 13 40 14 41 15 42 76 43 16 44 75 45 17 46 18 47
REMARK SMILES IDX 19 48 69 49 20 50 74 51 68 52 70 53 21 54 73 55 67 56 66 57
REMARK SMILES IDX 22 59 54 60 34 61 53 62 35 63 38 64 52 65 71 66 36 67 37 68
REMARK SMILES IDX 51 70 72 71 39 72 23 73 24 74 32 75 25 76 26 77 30 78 33 79
REMARK SMILES IDX 27 80 28 81 31 82 29 83 55 84 56 85 64 86 57 87 58 88 62 89
REMARK SMILES IDX 65 90 59 91 60 92 63 93 61 94 40 95 41 96 49 97 42 98 43 99
REMARK SMILES IDX 47 100 50 101 44 102 45 103 48 104 46 105
REMARK H PARENT 7 5 98 12 95 19 81 21 11 39 70 58 38 69
REMARK Flexibility Score: inf
ROOT
ATOM      1  C   UNL     1       6.251  -1.036   0.466  1.00  0.00     0.117 C 
ENDROOT
BRANCH   1   2
ATOM      2  N   UNL     1       5.908  -2.279  -0.206  1.00  0.00    -0.355 N 
ATOM      3  C   UNL     1       4.849  -2.627  -0.987  1.00  0.00     0.228 C 
ATOM      4  O   UNL     1       4.747  -3.817  -1.298  1.00  0.00    -0.274 OA
ATOM      5  H   UNL     1       6.563  -3.001  -0.072  1.00  0.00     0.163 HD
BRANCH   3   6
ATOM      6  C   UNL     1       3.778  -1.622  -1.408  1.00  0.00     0.127 C 
ATOM      7  O   UNL     1       1.511   0.391   0.733  1.00  0.00    -0.275 OA
ATOM      8  C   UNL     1       2.403   0.084  -0.055  1.00  0.00     0.226 C 
ATOM      9  C   UNL     1       2.858  -1.346  -0.213  1.00  0.00     0.119 C 
ATOM     10  N   UNL     1       3.069   1.038  -0.761  1.00  0.00    -0.310 N 
ATOM     11  C   UNL     1       4.034   0.830  -1.692  1.00  0.00     0.146 A 
ATOM     12  H   UNL     1       2.825   1.974  -0.578  1.00  0.00     0.171 HD
ATOM     13  C   UNL     1       4.378  -0.410  -2.045  1.00  0.00     0.073 A 
ATOM     14  N   UNL     1       4.586   1.968  -2.177  1.00  0.00    -0.196 NA
ATOM     15  C   UNL     1       5.415  -0.521  -3.086  1.00  0.00     0.258 A 
ATOM     16  C   UNL     1       5.520   1.879  -3.074  1.00  0.00     0.209 A 
ATOM     17  N   UNL     1       5.934   0.659  -3.533  1.00  0.00    -0.292 N 
ATOM     18  O   UNL     1       5.803  -1.597  -3.524  1.00  0.00    -0.269 OA
ATOM     19  H   UNL     1       6.640   0.632  -4.218  1.00  0.00     0.173 HD
BRANCH  16  20
ATOM     20  N   UNL     1       6.124   2.975  -3.632  1.00  0.00    -0.326 N 
ATOM     21  H   UNL     1       6.705   2.843  -4.415  1.00  0.00     0.170 HD
BRANCH  20  22
ATOM     22  C   UNL     1       5.952   4.279  -3.137  1.00  0.00     0.041 A 
ATOM     23  C   UNL     1       5.465   5.288  -3.973  1.00  0.00     0.030 A 
ATOM     24  C   UNL     1       6.122   4.559  -1.775  1.00  0.00     0.030 A 
ATOM     25  C   UNL     1       5.137   6.544  -3.450  1.00  0.00     0.049 A 
ATOM     26  C   UNL     1       5.811   5.814  -1.254  1.00  0.00     0.049 A 
ATOM     27  C   UNL     1       5.310   6.813  -2.091  1.00  0.00     0.127 A 
BRANCH  27  28
ATOM     28  O   UNL     1       4.915   8.069  -1.673  1.00  0.00    -0.457 OA
BRANCH  28  29
ATOM     29  C   UNL     1       5.279   8.449  -0.405  1.00  0.00     0.127 A 
ATOM     30  C   UNL     1       4.316   8.447   0.603  1.00  0.00     0.047 A 
ATOM     31  C   UNL     1       6.591   8.846  -0.142  1.00  0.00     0.047 A 
ATOM     32  C   UNL     1       4.685   8.794   1.903  1.00  0.00     0.004 A 
ATOM     33  C   UNL     1       6.956   9.189   1.159  1.00  0.00     0.004 A 
ATOM     34  C   UNL     1       6.005   9.156   2.181  1.00  0.00     0.000 A 
ENDBRANCH  28  29
ENDBRANCH  27  28
ENDBRANCH  20  22
ENDBRANCH  16  20
ENDBRANCH   3   6
ENDBRANCH   1   2
BRANCH   1  35
ATOM     35  C   UNL     1       6.241  -1.194   1.980  1.00  0.00     0.042 C 
BRANCH  35  36
ATOM     36  C   UNL     1       7.282  -2.180   2.491  1.00  0.00     0.118 C 
BRANCH  36  37
ATOM     37  N   UNL     1       8.640  -1.676   2.340  1.00  0.00    -0.352 N 
ATOM     38  C   UNL     1       9.520  -1.259   3.308  1.00  0.00     0.251 C 
ATOM     39  H   UNL     1       8.975  -1.629   1.415  1.00  0.00     0.163 HD
ATOM     40  O   UNL     1      10.552  -0.671   3.001  1.00  0.00    -0.269 OA
BRANCH  38  41
ATOM     41  C   UNL     1       9.204  -1.505   4.728  1.00  0.00     0.039 A 
ATOM     42  C   UNL     1       9.304  -0.453   5.640  1.00  0.00     0.014 A 
ATOM     43  C   UNL     1       8.802  -2.776   5.151  1.00  0.00     0.014 A 
ATOM     44  C   UNL     1       8.940  -0.661   6.971  1.00  0.00     0.010 A 
ATOM     45  C   UNL     1       8.372  -2.963   6.459  1.00  0.00     0.010 A 
ATOM     46  C   UNL     1       8.448  -1.910   7.382  1.00  0.00    -0.014 A 
BRANCH  46  47
ATOM     47  C   UNL     1       8.051  -2.147   8.790  1.00  0.00     0.031 A 
ATOM     48  C   UNL     1       8.873  -3.066   9.646  1.00  0.00     0.074 A 
ATOM     49  C   UNL     1       6.939  -1.570   9.280  1.00  0.00     0.049 A 
ATOM     50  N   UNL     1       8.690  -3.418  10.893  1.00  0.00    -0.248 NA
ATOM     51  C   UNL     1      10.048  -3.688   9.013  1.00  0.00     0.031 C 
ATOM     52  C   UNL     1       6.042  -0.692   8.529  1.00  0.00     0.029 A 
ATOM     53  N   UNL     1       6.371  -1.640  10.527  1.00  0.00    -0.354 N 
ATOM     54  C   UNL     1       9.725  -4.293  11.191  1.00  0.00     0.074 A 
ATOM     55  C   UNL     1      10.495  -4.473   9.981  1.00  0.00     0.031 C 
ATOM     56  C   UNL     1       5.050  -0.283   9.338  1.00  0.00     0.029 A 
ATOM     57  C   UNL     1       5.228  -0.890  10.655  1.00  0.00     0.049 A 
ATOM     58  H   UNL     1       6.748  -2.177  11.261  1.00  0.00     0.167 HD
ATOM     59  C   UNL     1      10.026  -4.867  12.378  1.00  0.00     0.037 A 
ATOM     60  C   UNL     1       4.420  -0.711  11.718  1.00  0.00     0.037 A 
ATOM     61  C   UNL     1       9.268  -4.671  13.584  1.00  0.00     0.049 A 
ATOM     62  C   UNL     1       4.756  -1.392  13.018  1.00  0.00     0.074 A 
ATOM     63  C   UNL     1       9.520  -5.169  14.849  1.00  0.00     0.029 A 
ATOM     64  N   UNL     1       8.107  -3.917  13.670  1.00  0.00    -0.354 N 
ATOM     65  N   UNL     1       5.777  -2.161  13.308  1.00  0.00    -0.248 NA
ATOM     66  C   UNL     1       3.830  -1.176  14.139  1.00  0.00     0.031 C 
ATOM     67  C   UNL     1       8.488  -4.749  15.694  1.00  0.00     0.029 A 
ATOM     68  C   UNL     1       7.617  -3.956  14.964  1.00  0.00     0.049 A 
ATOM     69  H   UNL     1       7.694  -3.428  12.923  1.00  0.00     0.167 HD
ATOM     70  C   UNL     1       5.630  -2.503  14.645  1.00  0.00     0.074 A 
ATOM     71  C   UNL     1       4.427  -1.847  15.115  1.00  0.00     0.031 C 
ATOM     72  C   UNL     1       6.421  -3.290  15.414  1.00  0.00     0.037 A 
BRANCH  59  73
ATOM     73  C   UNL     1      11.241  -5.743  12.437  1.00  0.00     0.064 A 
ATOM     74  C   UNL     1      12.533  -5.200  12.369  1.00  0.00     0.173 A 
ATOM     75  C   UNL     1      11.118  -7.129  12.612  1.00  0.00     0.173 A 
ATOM     76  F   UNL     1      12.702  -3.881  12.188  1.00  0.00    -0.203 F 
ATOM     77  C   UNL     1      13.658  -6.015  12.454  1.00  0.00     0.198 A 
ATOM     78  C   UNL     1      12.245  -7.938  12.724  1.00  0.00     0.198 A 
ATOM     79  F   UNL     1       9.905  -7.697  12.686  1.00  0.00    -0.203 F 
ATOM     80  F   UNL     1      14.881  -5.479  12.348  1.00  0.00    -0.200 F 
ATOM     81  C   UNL     1      13.513  -7.381  12.640  1.00  0.00     0.200 A 
ATOM     82  F   UNL     1      12.105  -9.257  12.914  1.00  0.00    -0.200 F 
ATOM     83  F   UNL     1      14.597  -8.164  12.735  1.00  0.00    -0.200 F 
ENDBRANCH  59  73
BRANCH  60  84
ATOM     84  C   UNL     1       3.241   0.185  11.607  1.00  0.00     0.064 A 
ATOM     85  C   UNL     1       3.227   1.430  12.251  1.00  0.00     0.173 A 
ATOM     86  C   UNL     1       2.118  -0.172  10.848  1.00  0.00     0.173 A 
ATOM     87  F   UNL     1       4.271   1.805  13.004  1.00  0.00    -0.203 F 
ATOM     88  C   UNL     1       2.128   2.280  12.149  1.00  0.00     0.198 A 
ATOM     89  C   UNL     1       1.028   0.690  10.728  1.00  0.00     0.198 A 
ATOM     90  F   UNL     1       2.084  -1.351  10.211  1.00  0.00    -0.203 F 
ATOM     91  F   UNL     1       2.127   3.450  12.802  1.00  0.00    -0.200 F 
ATOM     92  C   UNL     1       1.032   1.912  11.383  1.00  0.00     0.200 A 
ATOM     93  F   UNL     1      -0.024   0.336   9.978  1.00  0.00    -0.200 F 
ATOM     94  F   UNL     1      -0.021   2.734  11.279  1.00  0.00    -0.200 F 
ENDBRANCH  60  84
BRANCH  72  95
ATOM     95  C   UNL     1       6.029  -3.483  16.848  1.00  0.00     0.064 A 
ATOM     96  C   UNL     1       4.961  -4.317  17.206  1.00  0.00     0.173 A 
ATOM     97  C   UNL     1       6.790  -2.906  17.877  1.00  0.00     0.173 A 
ATOM     98  F   UNL     1       4.198  -4.881  16.257  1.00  0.00    -0.203 F 
ATOM     99  C   UNL     1       4.664  -4.563  18.543  1.00  0.00     0.198 A 
ATOM    100  C   UNL     1       6.506  -3.175  19.212  1.00  0.00     0.198 A 
ATOM    101  F   UNL     1       7.827  -2.107  17.584  1.00  0.00    -0.203 F 
ATOM    102  F   UNL     1       3.624  -5.345  18.864  1.00  0.00    -0.200 F 
ATOM    103  C   UNL     1       5.444  -4.002  19.544  1.00  0.00     0.200 A 
ATOM    104  F   UNL     1       7.270  -2.645  20.178  1.00  0.00    -0.200 F 
ATOM    105  F   UNL     1       5.170  -4.258  20.831  1.00  0.00    -0.200 F 
ENDBRANCH  72  95
ENDBRANCH  46  47
ENDBRANCH  38  41
ENDBRANCH  36  37
ENDBRANCH  35  36
ENDBRANCH   1  35
TORSDOF 14
