REMARK SMILES Cc1oc(CSc2ccncc2N)cc1C(=O)NCCCNC(=O)c1ccc(-c2c3nc(c(-c4c(F)c(F)c(F)c(F)c4F)c4ccc([nH]4)c(-c4c(F)c(F)c(F)c(F)c4F)c4nc(c(-c5c(F)c(F)c(F)c(F)c5F)c5ccc2[nH]5)C=C4)C=C3)cc1
REMARK SMILES IDX 19 1 18 2 16 3 17 4 15 6 1 7 2 8 3 9 4 10 14 11 5 12 6 13
REMARK SMILES IDX 7 14 8 15 12 16 9 17 11 18 10 19 13 20 20 23 21 24 22 25
REMARK SMILES IDX 23 26 24 28 25 29 26 30 87 31 27 32 86 33 28 34 29 35 30 36
REMARK SMILES IDX 80 37 31 38 85 39 79 40 81 41 32 42 84 43 78 44 77 45 33 47
REMARK SMILES IDX 65 48 45 49 64 50 46 51 49 52 63 53 82 54 47 55 48 56 62 58
REMARK SMILES IDX 83 59 50 60 34 61 35 62 43 63 36 64 37 65 41 66 44 67 38 68
REMARK SMILES IDX 39 69 42 70 40 71 66 72 67 73 75 74 68 75 69 76 73 77 76 78
REMARK SMILES IDX 70 79 71 80 74 81 72 82 51 83 52 84 60 85 53 86 54 87 58 88
REMARK SMILES IDX 61 89 55 90 56 91 59 92 57 93
REMARK H PARENT 18 5 13 21 13 22 22 27 81 46 49 57
REMARK Flexibility Score: inf
ROOT
ATOM      1  C   UNL     1       2.680  -2.431  -0.573  1.00  0.00     0.118 C 
ENDROOT
BRANCH   1   2
ATOM      2  N   UNL     1       1.378  -2.947  -0.236  1.00  0.00    -0.352 N 
ATOM      3  C   UNL     1       0.168  -2.364  -0.007  1.00  0.00     0.254 C 
ATOM      4  O   UNL     1      -0.753  -3.165   0.194  1.00  0.00    -0.269 OA
ATOM      5  H   UNL     1       1.358  -3.928  -0.155  1.00  0.00     0.163 HD
BRANCH   3   6
ATOM      6  C   UNL     1      -0.116  -0.931  -0.025  1.00  0.00     0.081 A 
ATOM      7  C   UNL     1       2.014   0.670   0.314  1.00  0.00     0.088 C 
ATOM      8  C   UNL     1       0.613   0.248   0.118  1.00  0.00     0.113 A 
ATOM      9  O   UNL     1      -0.228   1.332   0.104  1.00  0.00    -0.465 OA
ATOM     10  C   UNL     1      -1.497   0.880  -0.012  1.00  0.00     0.115 A 
ATOM     11  C   UNL     1      -1.474  -0.482  -0.163  1.00  0.00     0.060 A 
BRANCH  10  12
ATOM     12  C   UNL     1      -2.595   1.868  -0.019  1.00  0.00     0.150 C 
BRANCH  12  13
ATOM     13  S   UNL     1      -2.931   2.756   1.538  1.00  0.00    -0.116 SA
BRANCH  13  14
ATOM     14  C   UNL     1      -2.664   1.603   2.892  1.00  0.00     0.034 A 
ATOM     15  C   UNL     1      -2.054   2.177   4.020  1.00  0.00     0.037 A 
ATOM     16  C   UNL     1      -3.067   0.260   2.958  1.00  0.00     0.064 A 
ATOM     17  C   UNL     1      -1.830   1.404   5.147  1.00  0.00     0.112 A 
ATOM     18  C   UNL     1      -2.761  -0.426   4.141  1.00  0.00     0.137 A 
ATOM     19  N   UNL     1      -2.152   0.103   5.228  1.00  0.00    -0.262 NA
BRANCH  16  20
ATOM     20  N   UNL     1      -3.840  -0.368   1.990  1.00  0.00    -0.397 N 
ATOM     21  H   UNL     1      -4.062   0.103   1.155  1.00  0.00     0.156 HD
ATOM     22  H   UNL     1      -4.166  -1.285   2.140  1.00  0.00     0.156 HD
ENDBRANCH  16  20
ENDBRANCH  13  14
ENDBRANCH  12  13
ENDBRANCH  10  12
ENDBRANCH   3   6
ENDBRANCH   1   2
BRANCH   1  23
ATOM     23  C   UNL     1       3.586  -2.411   0.656  1.00  0.00     0.042 C 
BRANCH  23  24
ATOM     24  C   UNL     1       4.162  -3.775   1.020  1.00  0.00     0.118 C 
BRANCH  24  25
ATOM     25  N   UNL     1       5.134  -4.230   0.036  1.00  0.00    -0.352 N 
ATOM     26  C   UNL     1       6.475  -4.476   0.167  1.00  0.00     0.251 C 
ATOM     27  H   UNL     1       4.770  -4.386  -0.865  1.00  0.00     0.163 HD
ATOM     28  O   UNL     1       7.166  -4.598  -0.845  1.00  0.00    -0.269 OA
BRANCH  26  29
ATOM     29  C   UNL     1       7.105  -4.594   1.500  1.00  0.00     0.039 A 
ATOM     30  C   UNL     1       8.397  -4.091   1.680  1.00  0.00     0.014 A 
ATOM     31  C   UNL     1       6.461  -5.251   2.552  1.00  0.00     0.014 A 
ATOM     32  C   UNL     1       9.024  -4.208   2.923  1.00  0.00     0.010 A 
ATOM     33  C   UNL     1       7.053  -5.298   3.811  1.00  0.00     0.010 A 
ATOM     34  C   UNL     1       8.346  -4.789   4.006  1.00  0.00    -0.014 A 
BRANCH  34  35
ATOM     35  C   UNL     1       8.977  -4.886   5.345  1.00  0.00     0.031 A 
ATOM     36  C   UNL     1       9.272  -6.233   5.946  1.00  0.00     0.074 A 
ATOM     37  C   UNL     1       9.227  -3.763   6.044  1.00  0.00     0.049 A 
ATOM     38  N   UNL     1       9.753  -6.526   7.129  1.00  0.00    -0.248 NA
ATOM     39  C   UNL     1       8.959  -7.409   5.120  1.00  0.00     0.031 C 
ATOM     40  C   UNL     1       8.941  -2.403   5.585  1.00  0.00     0.029 A 
ATOM     41  N   UNL     1       9.768  -3.585   7.292  1.00  0.00    -0.354 N 
ATOM     42  C   UNL     1       9.782  -7.913   7.192  1.00  0.00     0.074 A 
ATOM     43  C   UNL     1       9.222  -8.405   5.952  1.00  0.00     0.031 C 
ATOM     44  C   UNL     1       9.326  -1.530   6.529  1.00  0.00     0.029 A 
ATOM     45  C   UNL     1       9.851  -2.268   7.673  1.00  0.00     0.049 A 
ATOM     46  H   UNL     1      10.067  -4.331   7.861  1.00  0.00     0.167 HD
ATOM     47  C   UNL     1      10.254  -8.704   8.185  1.00  0.00     0.037 A 
ATOM     48  C   UNL     1      10.294  -1.720   8.820  1.00  0.00     0.037 A 
ATOM     49  C   UNL     1      10.835  -8.207   9.405  1.00  0.00     0.049 A 
ATOM     50  C   UNL     1      10.816  -2.620   9.906  1.00  0.00     0.074 A 
ATOM     51  C   UNL     1      11.398  -8.921  10.448  1.00  0.00     0.029 A 
ATOM     52  N   UNL     1      10.924  -6.864   9.746  1.00  0.00    -0.354 N 
ATOM     53  N   UNL     1      10.902  -3.928   9.928  1.00  0.00    -0.248 NA
ATOM     54  C   UNL     1      11.311  -1.967  11.126  1.00  0.00     0.031 C 
ATOM     55  C   UNL     1      11.787  -8.014  11.439  1.00  0.00     0.029 A 
ATOM     56  C   UNL     1      11.515  -6.731  10.992  1.00  0.00     0.049 A 
ATOM     57  H   UNL     1      10.613  -6.117   9.185  1.00  0.00     0.167 HD
ATOM     58  C   UNL     1      11.483  -4.253  11.145  1.00  0.00     0.074 A 
ATOM     59  C   UNL     1      11.745  -3.003  11.828  1.00  0.00     0.031 C 
ATOM     60  C   UNL     1      11.774  -5.477  11.653  1.00  0.00     0.037 A 
BRANCH  47  61
ATOM     61  C   UNL     1      10.166 -10.191   7.993  1.00  0.00     0.064 A 
ATOM     62  C   UNL     1      10.954 -10.859   7.043  1.00  0.00     0.173 A 
ATOM     63  C   UNL     1       9.307 -10.964   8.790  1.00  0.00     0.173 A 
ATOM     64  F   UNL     1      11.783 -10.167   6.247  1.00  0.00    -0.203 F 
ATOM     65  C   UNL     1      10.863 -12.239   6.877  1.00  0.00     0.198 A 
ATOM     66  C   UNL     1       9.243 -12.347   8.643  1.00  0.00     0.198 A 
ATOM     67  F   UNL     1       8.536 -10.378   9.718  1.00  0.00    -0.203 F 
ATOM     68  F   UNL     1      11.588 -12.847   5.928  1.00  0.00    -0.200 F 
ATOM     69  C   UNL     1      10.014 -12.982   7.682  1.00  0.00     0.200 A 
ATOM     70  F   UNL     1       8.431 -13.066   9.431  1.00  0.00    -0.200 F 
ATOM     71  F   UNL     1       9.933 -14.311   7.525  1.00  0.00    -0.200 F 
ENDBRANCH  47  61
BRANCH  48  72
ATOM     72  C   UNL     1      10.287  -0.244   8.988  1.00  0.00     0.064 A 
ATOM     73  C   UNL     1      11.486   0.481   9.024  1.00  0.00     0.173 A 
ATOM     74  C   UNL     1       9.088   0.473   9.112  1.00  0.00     0.173 A 
ATOM     75  F   UNL     1      12.660  -0.161   8.927  1.00  0.00    -0.203 F 
ATOM     76  C   UNL     1      11.488   1.863   9.200  1.00  0.00     0.198 A 
ATOM     77  C   UNL     1       9.089   1.859   9.259  1.00  0.00     0.198 A 
ATOM     78  F   UNL     1       7.913  -0.172   9.076  1.00  0.00    -0.203 F 
ATOM     79  F   UNL     1      12.650   2.525   9.276  1.00  0.00    -0.200 F 
ATOM     80  C   UNL     1      10.289   2.552   9.311  1.00  0.00     0.200 A 
ATOM     81  F   UNL     1       7.929   2.522   9.350  1.00  0.00    -0.200 F 
ATOM     82  F   UNL     1      10.291   3.881   9.475  1.00  0.00    -0.200 F 
ENDBRANCH  48  72
BRANCH  60  83
ATOM     83  C   UNL     1      12.441  -5.521  12.996  1.00  0.00     0.064 A 
ATOM     84  C   UNL     1      11.748  -5.204  14.174  1.00  0.00     0.173 A 
ATOM     85  C   UNL     1      13.782  -5.921  13.109  1.00  0.00     0.173 A 
ATOM     86  F   UNL     1      10.470  -4.801  14.117  1.00  0.00    -0.203 F 
ATOM     87  C   UNL     1      12.381  -5.260  15.413  1.00  0.00     0.198 A 
ATOM     88  C   UNL     1      14.402  -6.006  14.352  1.00  0.00     0.198 A 
ATOM     89  F   UNL     1      14.486  -6.241  12.013  1.00  0.00    -0.203 F 
ATOM     90  F   UNL     1      11.715  -4.905  16.520  1.00  0.00    -0.200 F 
ATOM     91  C   UNL     1      13.704  -5.668  15.502  1.00  0.00     0.200 A 
ATOM     92  F   UNL     1      15.675  -6.415  14.437  1.00  0.00    -0.200 F 
ATOM     93  F   UNL     1      14.309  -5.729  16.696  1.00  0.00    -0.200 F 
ENDBRANCH  60  83
ENDBRANCH  34  35
ENDBRANCH  26  29
ENDBRANCH  24  25
ENDBRANCH  23  24
ENDBRANCH   1  23
TORSDOF 14
