REMARK SMILES O=C(NCCCNC(=O)[C@@H]1CS[C@H](c2ncc(-c3ccccc3)s2)[NH2+]1)c1ccc(-c2c3nc(c(-c4c(F)c(F)c(F)c(F)c4F)c4ccc([nH]4)c(-c4c(F)c(F)c(F)c(F)c4F)c4nc(c(-c5c(F)c(F)c(F)c(F)c5F)c5ccc2[nH]5)C=C4)C=C3)cc1
REMARK SMILES IDX 5 1 4 2 3 3 1 4 2 5 26 7 27 8 88 9 28 10 87 11 29 12 30 13
REMARK SMILES IDX 31 14 81 15 32 16 86 17 80 18 82 19 33 20 85 21 79 22 78 23
REMARK SMILES IDX 34 25 66 26 46 27 65 28 47 29 50 30 64 31 83 32 48 33 49 34
REMARK SMILES IDX 63 36 84 37 51 38 35 39 36 40 44 41 37 42 38 43 42 44 45 45
REMARK SMILES IDX 39 46 40 47 43 48 41 49 67 50 68 51 76 52 69 53 70 54 74 55
REMARK SMILES IDX 77 56 71 57 72 58 75 59 73 60 52 61 53 62 61 63 54 64 55 65
REMARK SMILES IDX 59 66 62 67 56 68 57 69 60 70 58 71 6 72 7 73 8 74 9 76
REMARK SMILES IDX 10 77 11 78 25 79 12 80 13 81 14 84 15 85 24 86 16 87 17 88
REMARK SMILES IDX 18 89 19 90 23 91 20 92 22 93 21 94
REMARK H PARENT 3 6 82 24 50 35 7 75 25 82 25 83
REMARK Flexibility Score: inf
ROOT
ATOM      1  C   UNL     1       6.241  -3.490   3.920  1.00  0.00     0.042 C 
ENDROOT
BRANCH   1   2
ATOM      2  C   UNL     1       7.507  -3.042   4.642  1.00  0.00     0.118 C 
BRANCH   2   3
ATOM      3  N   UNL     1       7.717  -1.603   4.568  1.00  0.00    -0.352 N 
ATOM      4  O   UNL     1       7.667   0.543   5.242  1.00  0.00    -0.269 OA
ATOM      5  C   UNL     1       7.663  -0.649   5.551  1.00  0.00     0.251 C 
ATOM      6  H   UNL     1       7.932  -1.262   3.670  1.00  0.00     0.163 HD
BRANCH   5   7
ATOM      7  C   UNL     1       7.587  -1.034   6.976  1.00  0.00     0.039 A 
ATOM      8  C   UNL     1       8.357  -2.084   7.478  1.00  0.00     0.014 A 
ATOM      9  C   UNL     1       6.764  -0.300   7.838  1.00  0.00     0.014 A 
ATOM     10  C   UNL     1       8.195  -2.496   8.796  1.00  0.00     0.010 A 
ATOM     11  C   UNL     1       6.677  -0.653   9.187  1.00  0.00     0.010 A 
ATOM     12  C   UNL     1       7.370  -1.773   9.671  1.00  0.00    -0.014 A 
BRANCH  12  13
ATOM     13  C   UNL     1       7.306  -2.166  11.102  1.00  0.00     0.031 A 
ATOM     14  C   UNL     1       6.026  -2.648  11.721  1.00  0.00     0.074 A 
ATOM     15  C   UNL     1       8.431  -2.100  11.839  1.00  0.00     0.049 A 
ATOM     16  N   UNL     1       5.802  -3.046  12.949  1.00  0.00    -0.248 NA
ATOM     17  C   UNL     1       4.839  -2.679  10.855  1.00  0.00     0.031 C 
ATOM     18  C   UNL     1       9.731  -1.637  11.348  1.00  0.00     0.029 A 
ATOM     19  N   UNL     1       8.671  -2.436  13.147  1.00  0.00    -0.354 N 
ATOM     20  C   UNL     1       4.450  -3.359  13.007  1.00  0.00     0.074 A 
ATOM     21  C   UNL     1       3.897  -3.071  11.701  1.00  0.00     0.031 C 
ATOM     22  C   UNL     1      10.640  -1.762  12.324  1.00  0.00     0.029 A 
ATOM     23  C   UNL     1       9.977  -2.248  13.528  1.00  0.00     0.049 A 
ATOM     24  H   UNL     1       7.975  -2.777  13.753  1.00  0.00     0.167 HD
ATOM     25  C   UNL     1       3.741  -3.851  14.054  1.00  0.00     0.037 A 
ATOM     26  C   UNL     1      10.573  -2.430  14.720  1.00  0.00     0.037 A 
ATOM     27  C   UNL     1       4.304  -4.135  15.351  1.00  0.00     0.049 A 
ATOM     28  C   UNL     1       9.754  -2.932  15.874  1.00  0.00     0.074 A 
ATOM     29  C   UNL     1       3.680  -4.671  16.464  1.00  0.00     0.029 A 
ATOM     30  N   UNL     1       5.623  -3.894  15.712  1.00  0.00    -0.354 N 
ATOM     31  N   UNL     1       8.488  -3.268  15.906  1.00  0.00    -0.248 NA
ATOM     32  C   UNL     1      10.448  -3.077  17.160  1.00  0.00     0.031 C 
ATOM     33  C   UNL     1       4.603  -4.693  17.516  1.00  0.00     0.029 A 
ATOM     34  C   UNL     1       5.822  -4.237  17.042  1.00  0.00     0.049 A 
ATOM     35  H   UNL     1       6.315  -3.532  15.113  1.00  0.00     0.167 HD
ATOM     36  C   UNL     1       8.237  -3.687  17.204  1.00  0.00     0.074 A 
ATOM     37  C   UNL     1       9.490  -3.579  17.925  1.00  0.00     0.031 C 
ATOM     38  C   UNL     1       7.074  -4.123  17.749  1.00  0.00     0.037 A 
BRANCH  25  39
ATOM     39  C   UNL     1       2.269  -4.083  13.848  1.00  0.00     0.064 A 
ATOM     40  C   UNL     1       1.788  -5.088  12.995  1.00  0.00     0.173 A 
ATOM     41  C   UNL     1       1.325  -3.302  14.533  1.00  0.00     0.173 A 
ATOM     42  F   UNL     1       2.644  -5.859  12.309  1.00  0.00    -0.203 F 
ATOM     43  C   UNL     1       0.420  -5.275  12.805  1.00  0.00     0.198 A 
ATOM     44  C   UNL     1      -0.041  -3.514  14.368  1.00  0.00     0.198 A 
ATOM     45  F   UNL     1       1.727  -2.333  15.369  1.00  0.00    -0.203 F 
ATOM     46  F   UNL     1      -0.015  -6.200  11.938  1.00  0.00    -0.200 F 
ATOM     47  C   UNL     1      -0.493  -4.492  13.495  1.00  0.00     0.200 A 
ATOM     48  F   UNL     1      -0.921  -2.767  15.049  1.00  0.00    -0.200 F 
ATOM     49  F   UNL     1      -1.808  -4.674  13.313  1.00  0.00    -0.200 F 
ENDBRANCH  25  39
BRANCH  26  50
ATOM     50  C   UNL     1      12.022  -2.137  14.869  1.00  0.00     0.064 A 
ATOM     51  C   UNL     1      12.947  -3.168  15.081  1.00  0.00     0.173 A 
ATOM     52  C   UNL     1      12.514  -0.827  14.774  1.00  0.00     0.173 A 
ATOM     53  F   UNL     1      12.523  -4.435  15.195  1.00  0.00    -0.203 F 
ATOM     54  C   UNL     1      14.308  -2.897  15.205  1.00  0.00     0.198 A 
ATOM     55  C   UNL     1      13.878  -0.561  14.865  1.00  0.00     0.198 A 
ATOM     56  F   UNL     1      11.670   0.194  14.563  1.00  0.00    -0.203 F 
ATOM     57  F   UNL     1      15.168  -3.897  15.445  1.00  0.00    -0.200 F 
ATOM     58  C   UNL     1      14.773  -1.596  15.088  1.00  0.00     0.200 A 
ATOM     59  F   UNL     1      14.324   0.695  14.730  1.00  0.00    -0.200 F 
ATOM     60  F   UNL     1      16.084  -1.339  15.193  1.00  0.00    -0.200 F 
ENDBRANCH  26  50
BRANCH  38  61
ATOM     61  C   UNL     1       7.111  -4.551  19.188  1.00  0.00     0.064 A 
ATOM     62  C   UNL     1       7.275  -3.627  20.232  1.00  0.00     0.173 A 
ATOM     63  C   UNL     1       6.953  -5.904  19.529  1.00  0.00     0.173 A 
ATOM     64  F   UNL     1       7.448  -2.325  19.960  1.00  0.00    -0.203 F 
ATOM     65  C   UNL     1       7.310  -4.046  21.559  1.00  0.00     0.198 A 
ATOM     66  C   UNL     1       6.954  -6.314  20.859  1.00  0.00     0.198 A 
ATOM     67  F   UNL     1       6.789  -6.828  18.571  1.00  0.00    -0.203 F 
ATOM     68  F   UNL     1       7.525  -3.153  22.535  1.00  0.00    -0.200 F 
ATOM     69  C   UNL     1       7.142  -5.386  21.872  1.00  0.00     0.200 A 
ATOM     70  F   UNL     1       6.776  -7.607  21.160  1.00  0.00    -0.200 F 
ATOM     71  F   UNL     1       7.169  -5.786  23.151  1.00  0.00    -0.200 F 
ENDBRANCH  38  61
ENDBRANCH  12  13
ENDBRANCH   5   7
ENDBRANCH   2   3
ENDBRANCH   1   2
BRANCH   1  72
ATOM     72  C   UNL     1       6.287  -3.293   2.408  1.00  0.00     0.118 C 
BRANCH  72  73
ATOM     73  N   UNL     1       7.326  -4.088   1.788  1.00  0.00    -0.351 N 
ATOM     74  C   UNL     1       7.312  -5.226   1.050  1.00  0.00     0.279 C 
ATOM     75  H   UNL     1       8.231  -3.728   1.932  1.00  0.00     0.163 HD
ATOM     76  O   UNL     1       8.413  -5.537   0.575  1.00  0.00    -0.268 OA
BRANCH  74  77
ATOM     77  C   UNL     1       6.029  -6.033   0.712  1.00  0.00     0.284 C 
ATOM     78  C   UNL     1       4.879  -6.022   1.720  1.00  0.00     0.151 C 
ATOM     79  N   UNL     1       6.422  -7.451   0.400  1.00  0.00    -0.319 N 
ATOM     80  S   UNL     1       4.241  -7.704   1.737  1.00  0.00    -0.085 SA
ATOM     81  C   UNL     1       5.906  -8.357   1.438  1.00  0.00     0.303 C 
ATOM     82  H   UNL     1       7.439  -7.520   0.366  1.00  0.00     0.348 HD
ATOM     83  H   UNL     1       6.028  -7.717  -0.503  1.00  0.00     0.348 HD
BRANCH  81  84
ATOM     84  C   UNL     1       6.726  -8.437   2.727  1.00  0.00     0.162 A 
ATOM     85  N   UNL     1       6.242  -8.806   3.902  1.00  0.00    -0.242 NA
ATOM     86  S   UNL     1       8.418  -8.089   2.744  1.00  0.00    -0.112 S 
ATOM     87  C   UNL     1       7.226  -8.744   4.871  1.00  0.00     0.132 A 
ATOM     88  C   UNL     1       8.459  -8.305   4.440  1.00  0.00     0.055 A 
BRANCH  88  89
ATOM     89  C   UNL     1       9.685  -8.058   5.186  1.00  0.00    -0.007 A 
ATOM     90  C   UNL     1      10.143  -6.747   5.381  1.00  0.00     0.009 A 
ATOM     91  C   UNL     1      10.422  -9.124   5.713  1.00  0.00     0.009 A 
ATOM     92  C   UNL     1      11.326  -6.507   6.082  1.00  0.00     0.001 A 
ATOM     93  C   UNL     1      11.609  -8.883   6.409  1.00  0.00     0.001 A 
ATOM     94  C   UNL     1      12.060  -7.577   6.592  1.00  0.00     0.000 A 
ENDBRANCH  88  89
ENDBRANCH  81  84
ENDBRANCH  74  77
ENDBRANCH  72  73
ENDBRANCH   1  72
TORSDOF 12
