REMARK SMILES O=C(Cc1sc(N2N=C(c3cccs3)C[C@@H]2c2ccco2)nc1-c1ccccc1)NCCCNC(=O)c1ccc(-c2c3nc(c(-c4c(F)c(F)c(F)c(F)c4F)c4ccc([nH]4)c(-c4c(F)c(F)c(F)c(F)c4F)c4nc(c(-c5c(F)c(F)c(F)c(F)c5F)c5ccc2[nH]5)C=C4)C=C3)cc1
REMARK SMILES IDX 31 1 30 2 1 3 2 4 3 6 4 7 5 8 23 9 6 10 22 11 24 12 25 13
REMARK SMILES IDX 29 14 26 15 28 16 27 17 7 18 8 19 16 20 9 21 15 22 17 23
REMARK SMILES IDX 18 24 21 25 19 26 20 27 10 28 11 29 14 30 12 31 13 32 32 33
REMARK SMILES IDX 33 34 34 35 35 36 36 38 37 39 38 40 99 41 39 42 98 43 40 44
REMARK SMILES IDX 41 45 42 46 92 47 43 48 97 49 91 50 93 51 44 52 96 53 90 54
REMARK SMILES IDX 89 55 45 57 77 58 57 59 76 60 58 61 61 62 75 63 94 64 59 65
REMARK SMILES IDX 60 66 74 68 95 69 62 70 46 71 47 72 55 73 48 74 49 75 53 76
REMARK SMILES IDX 56 77 50 78 51 79 54 80 52 81 78 82 79 83 87 84 80 85 81 86
REMARK SMILES IDX 85 87 88 88 82 89 83 90 86 91 84 92 63 93 64 94 72 95 65 96
REMARK SMILES IDX 66 97 70 98 73 99 67 100 68 101 71 102 69 103
REMARK H PARENT 30 5 34 37 93 56 61 67
REMARK Flexibility Score: inf
ROOT
ATOM      1  C   UNL     1       2.103  -1.912   1.472  1.00  0.00     0.117 C 
ENDROOT
BRANCH   1   2
ATOM      2  N   UNL     1       2.820  -0.907   0.715  1.00  0.00    -0.356 N 
ATOM      3  O   UNL     1       0.987   0.138  -0.197  1.00  0.00    -0.275 OA
ATOM      4  C   UNL     1       2.205   0.048  -0.070  1.00  0.00     0.225 C 
ATOM      5  H   UNL     1       3.803  -0.906   0.761  1.00  0.00     0.163 HD
BRANCH   4   6
ATOM      6  C   UNL     1       3.178   0.957  -0.814  1.00  0.00     0.149 C 
BRANCH   6   7
ATOM      7  C   UNL     1       3.859   1.873   0.153  1.00  0.00     0.044 A 
ATOM      8  S   UNL     1       5.239   1.337   1.024  1.00  0.00    -0.099 S 
ATOM      9  C   UNL     1       3.632   3.203   0.460  1.00  0.00     0.087 A 
ATOM     10  C   UNL     1       5.260   2.815   1.920  1.00  0.00     0.207 A 
ATOM     11  N   UNL     1       4.386   3.710   1.506  1.00  0.00    -0.218 NA
BRANCH   9  12
ATOM     12  C   UNL     1       2.744   4.051  -0.316  1.00  0.00     0.001 A 
ATOM     13  C   UNL     1       1.365   3.822  -0.360  1.00  0.00     0.010 A 
ATOM     14  C   UNL     1       3.302   5.060  -1.112  1.00  0.00     0.010 A 
ATOM     15  C   UNL     1       0.559   4.575  -1.220  1.00  0.00     0.001 A 
ATOM     16  C   UNL     1       2.496   5.808  -1.972  1.00  0.00     0.001 A 
ATOM     17  C   UNL     1       1.126   5.559  -2.031  1.00  0.00     0.000 A 
ENDBRANCH   9  12
BRANCH  10  18
ATOM     18  N   UNL     1       6.114   2.966   2.966  1.00  0.00    -0.228 N 
ATOM     19  N   UNL     1       7.436   2.602   2.959  1.00  0.00    -0.173 NA
ATOM     20  C   UNL     1       5.689   3.623   4.202  1.00  0.00     0.183 C 
ATOM     21  C   UNL     1       7.924   2.950   4.107  1.00  0.00     0.081 C 
ATOM     22  C   UNL     1       6.957   3.566   5.066  1.00  0.00     0.095 C 
BRANCH  20  23
ATOM     23  C   UNL     1       4.540   3.018   4.969  1.00  0.00     0.128 A 
ATOM     24  C   UNL     1       3.975   3.310   6.197  1.00  0.00     0.048 A 
ATOM     25  O   UNL     1       3.886   1.954   4.413  1.00  0.00    -0.467 OA
ATOM     26  C   UNL     1       2.925   2.381   6.393  1.00  0.00     0.042 A 
ATOM     27  C   UNL     1       2.903   1.588   5.271  1.00  0.00     0.195 A 
ENDBRANCH  20  23
BRANCH  21  28
ATOM     28  C   UNL     1       9.301   2.759   4.470  1.00  0.00     0.050 A 
ATOM     29  C   UNL     1       9.818   2.100   5.566  1.00  0.00     0.022 A 
ATOM     30  S   UNL     1      10.531   3.436   3.495  1.00  0.00    -0.142 S 
ATOM     31  C   UNL     1      11.242   2.156   5.603  1.00  0.00     0.012 A 
ATOM     32  C   UNL     1      11.758   2.874   4.547  1.00  0.00     0.065 A 
ENDBRANCH  21  28
ENDBRANCH  10  18
ENDBRANCH   6   7
ENDBRANCH   4   6
ENDBRANCH   1   2
BRANCH   1  33
ATOM     33  C   UNL     1       2.409  -3.322   0.980  1.00  0.00     0.042 C 
BRANCH  33  34
ATOM     34  C   UNL     1       3.887  -3.706   1.019  1.00  0.00     0.118 C 
BRANCH  34  35
ATOM     35  N   UNL     1       4.440  -3.748   2.366  1.00  0.00    -0.352 N 
ATOM     36  C   UNL     1       5.061  -4.772   3.039  1.00  0.00     0.251 C 
ATOM     37  H   UNL     1       4.355  -2.910   2.875  1.00  0.00     0.163 HD
ATOM     38  O   UNL     1       5.337  -4.640   4.230  1.00  0.00    -0.269 OA
BRANCH  36  39
ATOM     39  C   UNL     1       5.369  -6.050   2.359  1.00  0.00     0.039 A 
ATOM     40  C   UNL     1       5.090  -7.247   3.027  1.00  0.00     0.014 A 
ATOM     41  C   UNL     1       5.934  -6.082   1.082  1.00  0.00     0.014 A 
ATOM     42  C   UNL     1       5.291  -8.469   2.380  1.00  0.00     0.010 A 
ATOM     43  C   UNL     1       6.066  -7.297   0.411  1.00  0.00     0.010 A 
ATOM     44  C   UNL     1       5.731  -8.503   1.047  1.00  0.00    -0.014 A 
BRANCH  44  45
ATOM     45  C   UNL     1       5.799  -9.782   0.291  1.00  0.00     0.031 A 
ATOM     46  C   UNL     1       7.112 -10.302  -0.222  1.00  0.00     0.074 A 
ATOM     47  C   UNL     1       4.658 -10.440   0.003  1.00  0.00     0.049 A 
ATOM     48  N   UNL     1       7.352 -11.350  -0.972  1.00  0.00    -0.248 NA
ATOM     49  C   UNL     1       8.312  -9.533   0.136  1.00  0.00     0.031 C 
ATOM     50  C   UNL     1       3.316 -10.021   0.410  1.00  0.00     0.029 A 
ATOM     51  N   UNL     1       4.441 -11.591  -0.714  1.00  0.00    -0.354 N 
ATOM     52  C   UNL     1       8.724 -11.360  -1.181  1.00  0.00     0.074 A 
ATOM     53  C   UNL     1       9.259 -10.188  -0.521  1.00  0.00     0.031 C 
ATOM     54  C   UNL     1       2.420 -10.909  -0.047  1.00  0.00     0.029 A 
ATOM     55  C   UNL     1       3.115 -11.932  -0.821  1.00  0.00     0.049 A 
ATOM     56  H   UNL     1       5.168 -12.122  -1.113  1.00  0.00     0.167 HD
ATOM     57  C   UNL     1       9.471 -12.274  -1.847  1.00  0.00     0.037 A 
ATOM     58  C   UNL     1       2.521 -12.943  -1.485  1.00  0.00     0.037 A 
ATOM     59  C   UNL     1       8.937 -13.444  -2.496  1.00  0.00     0.049 A 
ATOM     60  C   UNL     1       3.371 -13.919  -2.252  1.00  0.00     0.074 A 
ATOM     61  C   UNL     1       9.620 -14.457  -3.147  1.00  0.00     0.029 A 
ATOM     62  N   UNL     1       7.587 -13.753  -2.587  1.00  0.00    -0.354 N 
ATOM     63  N   UNL     1       4.675 -13.958  -2.384  1.00  0.00    -0.248 NA
ATOM     64  C   UNL     1       2.665 -14.995  -2.963  1.00  0.00     0.031 C 
ATOM     65  C   UNL     1       8.682 -15.344  -3.685  1.00  0.00     0.029 A 
ATOM     66  C   UNL     1       7.416 -14.921  -3.315  1.00  0.00     0.049 A 
ATOM     67  H   UNL     1       6.858 -13.221  -2.193  1.00  0.00     0.167 HD
ATOM     68  C   UNL     1       4.947 -15.070  -3.169  1.00  0.00     0.074 A 
ATOM     69  C   UNL     1       3.674 -15.693  -3.466  1.00  0.00     0.031 C 
ATOM     70  C   UNL     1       6.144 -15.533  -3.606  1.00  0.00     0.037 A 
BRANCH  57  71
ATOM     71  C   UNL     1      10.954 -12.043  -1.917  1.00  0.00     0.064 A 
ATOM     72  C   UNL     1      11.773 -12.153  -0.782  1.00  0.00     0.173 A 
ATOM     73  C   UNL     1      11.573 -11.754  -3.143  1.00  0.00     0.173 A 
ATOM     74  F   UNL     1      11.232 -12.421   0.416  1.00  0.00    -0.203 F 
ATOM     75  C   UNL     1      13.148 -11.952  -0.867  1.00  0.00     0.198 A 
ATOM     76  C   UNL     1      12.953 -11.586  -3.230  1.00  0.00     0.198 A 
ATOM     77  F   UNL     1      10.841 -11.646  -4.262  1.00  0.00    -0.203 F 
ATOM     78  F   UNL     1      13.902 -12.013   0.240  1.00  0.00    -0.200 F 
ATOM     79  C   UNL     1      13.738 -11.677  -2.091  1.00  0.00     0.200 A 
ATOM     80  F   UNL     1      13.523 -11.337  -4.417  1.00  0.00    -0.200 F 
ATOM     81  F   UNL     1      15.063 -11.494  -2.172  1.00  0.00    -0.200 F 
ENDBRANCH  57  71
BRANCH  58  82
ATOM     82  C   UNL     1       1.041 -13.086  -1.454  1.00  0.00     0.064 A 
ATOM     83  C   UNL     1       0.435 -14.170  -0.804  1.00  0.00     0.173 A 
ATOM     84  C   UNL     1       0.203 -12.153  -2.083  1.00  0.00     0.173 A 
ATOM     85  F   UNL     1       1.193 -15.102  -0.207  1.00  0.00    -0.203 F 
ATOM     86  C   UNL     1      -0.950 -14.328  -0.804  1.00  0.00     0.198 A 
ATOM     87  C   UNL     1      -1.183 -12.294  -2.054  1.00  0.00     0.198 A 
ATOM     88  F   UNL     1       0.731 -11.095  -2.716  1.00  0.00    -0.203 F 
ATOM     89  F   UNL     1      -1.499 -15.402  -0.221  1.00  0.00    -0.200 F 
ATOM     90  C   UNL     1      -1.758 -13.386  -1.423  1.00  0.00     0.200 A 
ATOM     91  F   UNL     1      -1.960 -11.373  -2.640  1.00  0.00    -0.200 F 
ATOM     92  F   UNL     1      -3.089 -13.537  -1.420  1.00  0.00    -0.200 F 
ENDBRANCH  58  82
BRANCH  70  93
ATOM     93  C   UNL     1       6.138 -16.788  -4.432  1.00  0.00     0.064 A 
ATOM     94  C   UNL     1       5.634 -16.808  -5.741  1.00  0.00     0.173 A 
ATOM     95  C   UNL     1       6.677 -17.979  -3.920  1.00  0.00     0.173 A 
ATOM     96  F   UNL     1       5.093 -15.701  -6.273  1.00  0.00    -0.203 F 
ATOM     97  C   UNL     1       5.643 -17.979  -6.495  1.00  0.00     0.198 A 
ATOM     98  C   UNL     1       6.716 -19.139  -4.689  1.00  0.00     0.198 A 
ATOM     99  F   UNL     1       7.178 -18.015  -2.676  1.00  0.00    -0.203 F 
ATOM    100  F   UNL     1       5.106 -17.986  -7.723  1.00  0.00    -0.200 F 
ATOM    101  C   UNL     1       6.191 -19.140  -5.972  1.00  0.00     0.200 A 
ATOM    102  F   UNL     1       7.261 -20.256  -4.188  1.00  0.00    -0.200 F 
ATOM    103  F   UNL     1       6.207 -20.264  -6.703  1.00  0.00    -0.200 F 
ENDBRANCH  70  93
ENDBRANCH  44  45
ENDBRANCH  36  39
ENDBRANCH  34  35
ENDBRANCH  33  34
ENDBRANCH   1  33
TORSDOF 15
