REMARK SMILES Cc1csc([C@H](C)Nc2cc(C)c(N)c(C(=O)NCCCNC(=O)c3ccc(-c4c5nc(c(-c6c(F)c(F)c(F)c(F)c6F)c6ccc([nH]6)c(-c6c(F)c(F)c(F)c(F)c6F)c6nc(c(-c7c(F)c(F)c(F)c(F)c7F)c7ccc4[nH]7)C=C6)C=C5)cc3)c2)n1
REMARK SMILES IDX 19 1 18 2 16 3 17 4 15 6 9 7 10 8 88 9 11 10 12 11 13 12
REMARK SMILES IDX 8 13 6 15 7 16 5 17 1 18 2 19 3 20 89 21 4 22 14 23 20 26
REMARK SMILES IDX 21 27 22 28 23 29 24 31 25 32 26 33 87 34 27 35 86 36 28 37
REMARK SMILES IDX 29 38 30 39 80 40 31 41 85 42 79 43 81 44 32 45 84 46 78 47
REMARK SMILES IDX 77 48 33 50 65 51 45 52 64 53 46 54 49 55 63 56 82 57 47 58
REMARK SMILES IDX 48 59 62 61 83 62 50 63 34 64 35 65 43 66 36 67 37 68 41 69
REMARK SMILES IDX 44 70 38 71 39 72 42 73 40 74 66 75 67 76 75 77 68 78 69 79
REMARK SMILES IDX 73 80 76 81 70 82 71 83 74 84 72 85 51 86 52 87 60 88 53 89
REMARK SMILES IDX 54 90 58 91 61 92 55 93 56 94 59 95 57 96
REMARK H PARENT 18 5 8 14 14 24 14 25 22 30 81 49 49 60
REMARK Flexibility Score: inf
ROOT
ATOM      1  C   UNL     1       0.165   3.430   5.783  1.00  0.00     0.118 C 
ENDROOT
BRANCH   1   2
ATOM      2  N   UNL     1       1.506   3.511   6.333  1.00  0.00    -0.352 N 
ATOM      3  C   UNL     1       2.753   3.662   5.776  1.00  0.00     0.253 C 
ATOM      4  O   UNL     1       3.694   3.690   6.577  1.00  0.00    -0.269 OA
ATOM      5  H   UNL     1       1.526   3.444   7.316  1.00  0.00     0.163 HD
BRANCH   3   6
ATOM      6  C   UNL     1       3.020   3.815   4.306  1.00  0.00     0.065 A 
ATOM      7  C   UNL     1       2.357   3.468   1.972  1.00  0.00     0.036 A 
ATOM      8  C   UNL     1       3.495   4.151   1.557  1.00  0.00     0.031 A 
ATOM      9  C   UNL     1       2.147   3.300   3.341  1.00  0.00     0.041 A 
ATOM     10  C   UNL     1       4.436   4.628   2.488  1.00  0.00    -0.025 A 
ATOM     11  C   UNL     1       5.660   5.341   1.976  1.00  0.00     0.046 C 
ATOM     12  C   UNL     1       4.214   4.449   3.873  1.00  0.00     0.047 A 
BRANCH   7  13
ATOM     13  N   UNL     1       1.321   3.126   1.115  1.00  0.00    -0.376 N 
ATOM     14  H   UNL     1       0.398   3.358   1.368  1.00  0.00     0.161 HD
BRANCH  13  15
ATOM     15  C   UNL     1       1.556   2.429  -0.159  1.00  0.00     0.135 C 
ATOM     16  C   UNL     1       0.633   1.201  -0.129  1.00  0.00     0.039 C 
BRANCH  15  17
ATOM     17  C   UNL     1       1.315   3.310  -1.385  1.00  0.00     0.115 A 
ATOM     18  C   UNL     1       1.154   6.629  -2.793  1.00  0.00     0.067 C 
ATOM     19  C   UNL     1       1.116   5.155  -2.618  1.00  0.00     0.049 A 
ATOM     20  C   UNL     1       0.902   4.212  -3.602  1.00  0.00     0.090 A 
ATOM     21  N   UNL     1       1.325   4.631  -1.352  1.00  0.00    -0.244 NA
ATOM     22  S   UNL     1       1.048   2.637  -2.951  1.00  0.00    -0.125 S 
ENDBRANCH  15  17
ENDBRANCH  13  15
ENDBRANCH   7  13
BRANCH  12  23
ATOM     23  N   UNL     1       5.090   5.048   4.789  1.00  0.00    -0.398 N 
ATOM     24  H   UNL     1       5.913   5.484   4.470  1.00  0.00     0.156 HD
ATOM     25  H   UNL     1       4.882   5.034   5.751  1.00  0.00     0.156 HD
ENDBRANCH  12  23
ENDBRANCH   3   6
ENDBRANCH   1   2
BRANCH   1  26
ATOM     26  C   UNL     1      -0.282   1.973   5.636  1.00  0.00     0.042 C 
BRANCH  26  27
ATOM     27  C   UNL     1      -0.625   1.305   6.966  1.00  0.00     0.118 C 
BRANCH  27  28
ATOM     28  N   UNL     1      -1.859   1.826   7.534  1.00  0.00    -0.352 N 
ATOM     29  C   UNL     1      -3.010   1.175   7.899  1.00  0.00     0.251 C 
ATOM     30  H   UNL     1      -1.869   2.799   7.680  1.00  0.00     0.163 HD
ATOM     31  O   UNL     1      -4.018   1.827   8.153  1.00  0.00    -0.269 OA
BRANCH  29  32
ATOM     32  C   UNL     1      -3.055  -0.302   7.986  1.00  0.00     0.039 A 
ATOM     33  C   UNL     1      -4.210  -0.961   7.550  1.00  0.00     0.014 A 
ATOM     34  C   UNL     1      -2.008  -1.034   8.553  1.00  0.00     0.014 A 
ATOM     35  C   UNL     1      -4.297  -2.353   7.641  1.00  0.00     0.010 A 
ATOM     36  C   UNL     1      -2.070  -2.426   8.587  1.00  0.00     0.010 A 
ATOM     37  C   UNL     1      -3.217  -3.099   8.139  1.00  0.00    -0.014 A 
BRANCH  37  38
ATOM     38  C   UNL     1      -3.274  -4.581   8.203  1.00  0.00     0.031 A 
ATOM     39  C   UNL     1      -3.266  -5.283   9.533  1.00  0.00     0.074 A 
ATOM     40  C   UNL     1      -3.271  -5.296   7.062  1.00  0.00     0.049 A 
ATOM     41  N   UNL     1      -3.232  -6.566   9.792  1.00  0.00    -0.248 NA
ATOM     42  C   UNL     1      -3.271  -4.428  10.730  1.00  0.00     0.031 C 
ATOM     43  C   UNL     1      -3.238  -4.731   5.713  1.00  0.00     0.029 A 
ATOM     44  N   UNL     1      -3.281  -6.652   6.855  1.00  0.00    -0.354 N 
ATOM     45  C   UNL     1      -3.193  -6.671  11.176  1.00  0.00     0.074 A 
ATOM     46  C   UNL     1      -3.163  -5.323  11.702  1.00  0.00     0.031 C 
ATOM     47  C   UNL     1      -3.246  -5.731   4.818  1.00  0.00     0.029 A 
ATOM     48  C   UNL     1      -3.249  -7.006   5.528  1.00  0.00     0.049 A 
ATOM     49  H   UNL     1      -3.308  -7.309   7.588  1.00  0.00     0.167 HD
ATOM     50  C   UNL     1      -3.199  -7.791  11.939  1.00  0.00     0.037 A 
ATOM     51  C   UNL     1      -3.217  -8.222   4.951  1.00  0.00     0.037 A 
ATOM     52  C   UNL     1      -3.258  -9.130  11.413  1.00  0.00     0.049 A 
ATOM     53  C   UNL     1      -3.233  -9.449   5.821  1.00  0.00     0.074 A 
ATOM     54  C   UNL     1      -3.329 -10.327  12.104  1.00  0.00     0.029 A 
ATOM     55  N   UNL     1      -3.252  -9.447  10.063  1.00  0.00    -0.354 N 
ATOM     56  N   UNL     1      -3.257  -9.536   7.128  1.00  0.00    -0.248 NA
ATOM     57  C   UNL     1      -3.226 -10.748   5.133  1.00  0.00     0.031 C 
ATOM     58  C   UNL     1      -3.328 -11.370  11.172  1.00  0.00     0.029 A 
ATOM     59  C   UNL     1      -3.301 -10.822   9.900  1.00  0.00     0.049 A 
ATOM     60  H   UNL     1      -3.218  -8.792   9.329  1.00  0.00     0.167 HD
ATOM     61  C   UNL     1      -3.294 -10.892   7.420  1.00  0.00     0.074 A 
ATOM     62  C   UNL     1      -3.303 -11.592   6.152  1.00  0.00     0.031 C 
ATOM     63  C   UNL     1      -3.319 -11.502   8.630  1.00  0.00     0.037 A 
BRANCH  50  64
ATOM     64  C   UNL     1      -3.144  -7.616  13.430  1.00  0.00     0.064 A 
ATOM     65  C   UNL     1      -4.236  -7.107  14.150  1.00  0.00     0.173 A 
ATOM     66  C   UNL     1      -2.002  -7.996  14.150  1.00  0.00     0.173 A 
ATOM     67  F   UNL     1      -5.348  -6.720  13.508  1.00  0.00    -0.203 F 
ATOM     68  C   UNL     1      -4.174  -6.958  15.534  1.00  0.00     0.198 A 
ATOM     69  C   UNL     1      -1.955  -7.873  15.537  1.00  0.00     0.198 A 
ATOM     70  F   UNL     1      -0.934  -8.495  13.511  1.00  0.00    -0.203 F 
ATOM     71  F   UNL     1      -5.211  -6.426  16.195  1.00  0.00    -0.200 F 
ATOM     72  C   UNL     1      -3.038  -7.347  16.226  1.00  0.00     0.200 A 
ATOM     73  F   UNL     1      -0.861  -8.261  16.206  1.00  0.00    -0.200 F 
ATOM     74  F   UNL     1      -2.983  -7.210  17.558  1.00  0.00    -0.200 F 
ENDBRANCH  50  64
BRANCH  51  75
ATOM     75  C   UNL     1      -3.195  -8.336   3.470  1.00  0.00     0.064 A 
ATOM     76  C   UNL     1      -4.316  -8.801   2.770  1.00  0.00     0.173 A 
ATOM     77  C   UNL     1      -2.062  -7.976   2.727  1.00  0.00     0.173 A 
ATOM     78  F   UNL     1      -5.415  -9.176   3.440  1.00  0.00    -0.203 F 
ATOM     79  C   UNL     1      -4.299  -8.918   1.381  1.00  0.00     0.198 A 
ATOM     80  C   UNL     1      -2.055  -8.068   1.337  1.00  0.00     0.198 A 
ATOM     81  F   UNL     1      -0.966  -7.519   3.350  1.00  0.00    -0.203 F 
ATOM     82  F   UNL     1      -5.370  -9.403   0.739  1.00  0.00    -0.200 F 
ATOM     83  C   UNL     1      -3.171  -8.545   0.666  1.00  0.00     0.200 A 
ATOM     84  F   UNL     1      -0.969  -7.694   0.647  1.00  0.00    -0.200 F 
ATOM     85  F   UNL     1      -3.158  -8.652  -0.670  1.00  0.00    -0.200 F 
ENDBRANCH  51  75
BRANCH  63  86
ATOM     86  C   UNL     1      -3.393 -13.000   8.642  1.00  0.00     0.064 A 
ATOM     87  C   UNL     1      -2.287 -13.793   8.303  1.00  0.00     0.173 A 
ATOM     88  C   UNL     1      -4.572 -13.648   9.039  1.00  0.00     0.173 A 
ATOM     89  F   UNL     1      -1.143 -13.220   7.901  1.00  0.00    -0.203 F 
ATOM     90  C   UNL     1      -2.367 -15.183   8.339  1.00  0.00     0.198 A 
ATOM     91  C   UNL     1      -4.639 -15.037   9.101  1.00  0.00     0.198 A 
ATOM     92  F   UNL     1      -5.655 -12.934   9.379  1.00  0.00    -0.203 F 
ATOM     93  F   UNL     1      -1.312 -15.922   7.970  1.00  0.00    -0.200 F 
ATOM     94  C   UNL     1      -3.540 -15.803   8.745  1.00  0.00     0.200 A 
ATOM     95  F   UNL     1      -5.769 -15.634   9.504  1.00  0.00    -0.200 F 
ATOM     96  F   UNL     1      -3.612 -17.140   8.787  1.00  0.00    -0.200 F 
ENDBRANCH  63  86
ENDBRANCH  37  38
ENDBRANCH  29  32
ENDBRANCH  27  28
ENDBRANCH  26  27
ENDBRANCH   1  26
TORSDOF 14
