REMARK SMILES CCc1ccc(C(=O)NCCCNC(=O)c2ccc(-c3c4nc(c(-c5c(F)c(F)c(F)c(F)c5F)c5ccc([nH]5)c(-c5c(F)c(F)c(F)c(F)c5F)c5nc(c(-c6c(F)c(F)c(F)c(F)c6F)c6ccc3[nH]6)C=C5)C=C4)cc2)cc1S(=O)(=O)Nc1ccc(F)c(F)c1F
REMARK SMILES IDX 10 1 9 2 7 3 8 4 6 6 3 7 4 8 80 9 5 10 79 11 2 12 1 13 81 14
REMARK SMILES IDX 82 15 83 16 84 17 85 19 86 20 92 21 87 22 90 23 93 24 88 25
REMARK SMILES IDX 91 26 89 27 11 28 12 29 13 30 14 31 15 33 16 34 17 35 78 36
REMARK SMILES IDX 18 37 77 38 19 39 20 40 21 41 71 42 22 43 76 44 70 45 72 46
REMARK SMILES IDX 23 47 75 48 69 49 68 50 24 52 56 53 36 54 55 55 37 56 40 57
REMARK SMILES IDX 54 58 73 59 38 60 39 61 53 63 74 64 41 65 25 66 26 67 34 68
REMARK SMILES IDX 27 69 28 70 32 71 35 72 29 73 30 74 33 75 31 76 57 77 58 78
REMARK SMILES IDX 66 79 59 80 60 81 64 82 67 83 61 84 62 85 65 86 63 87 42 88
REMARK SMILES IDX 43 89 51 90 44 91 45 92 49 93 52 94 46 95 47 96 50 97 48 98
REMARK H PARENT 9 5 84 18 13 32 72 51 40 62
REMARK Flexibility Score: inf
ROOT
ATOM      1  C   UNL     1       0.434   6.694  -3.572  1.00  0.00     0.118 C 
ENDROOT
BRANCH   1   2
ATOM      2  N   UNL     1       1.656   6.223  -4.204  1.00  0.00    -0.352 N 
ATOM      3  C   UNL     1       2.469   5.153  -3.937  1.00  0.00     0.251 C 
ATOM      4  O   UNL     1       3.510   5.027  -4.577  1.00  0.00    -0.269 OA
ATOM      5  H   UNL     1       1.953   6.773  -4.964  1.00  0.00     0.163 HD
BRANCH   3   6
ATOM      6  C   UNL     1       2.040   4.076  -3.017  1.00  0.00     0.041 A 
ATOM      7  C   UNL     1       0.755   1.937  -1.679  1.00  0.00    -0.028 A 
ATOM      8  C   UNL     1       1.550   1.731  -2.831  1.00  0.00     0.006 A 
ATOM      9  C   UNL     1       0.768   3.229  -1.106  1.00  0.00     0.091 A 
ATOM     10  C   UNL     1       2.180   2.780  -3.491  1.00  0.00     0.014 A 
ATOM     11  C   UNL     1       1.433   4.283  -1.781  1.00  0.00     0.036 A 
BRANCH   7  12
ATOM     12  C   UNL     1      -0.180   0.803  -1.325  1.00  0.00     0.033 C 
ATOM     13  C   UNL     1       0.393  -0.609  -1.464  1.00  0.00     0.009 C 
ENDBRANCH   7  12
BRANCH   9  14
ATOM     14  S   UNL     1      -0.064   3.815   0.375  1.00  0.00     0.262 S 
ATOM     15  O   UNL     1       0.889   4.558   1.157  1.00  0.00    -0.201 OA
ATOM     16  O   UNL     1      -1.263   4.480  -0.120  1.00  0.00    -0.201 OA
BRANCH  14  17
ATOM     17  N   UNL     1      -0.650   2.570   1.303  1.00  0.00    -0.277 N 
ATOM     18  H   UNL     1      -1.620   2.571   1.471  1.00  0.00     0.180 HD
BRANCH  17  19
ATOM     19  C   UNL     1       0.088   1.499   1.885  1.00  0.00     0.088 A 
ATOM     20  C   UNL     1      -0.695   0.411   2.317  1.00  0.00     0.033 A 
ATOM     21  C   UNL     1       1.480   1.368   1.873  1.00  0.00     0.185 A 
ATOM     22  C   UNL     1      -0.101  -0.814   2.618  1.00  0.00     0.045 A 
ATOM     23  C   UNL     1       2.070   0.151   2.199  1.00  0.00     0.196 A 
ATOM     24  F   UNL     1       2.270   2.369   1.466  1.00  0.00    -0.201 F 
ATOM     25  C   UNL     1       1.280  -0.939   2.539  1.00  0.00     0.162 A 
ATOM     26  F   UNL     1       3.401   0.011   2.118  1.00  0.00    -0.200 F 
ATOM     27  F   UNL     1       1.839  -2.136   2.759  1.00  0.00    -0.204 F 
ENDBRANCH  17  19
ENDBRANCH  14  17
ENDBRANCH   9  14
ENDBRANCH   3   6
ENDBRANCH   1   2
BRANCH   1  28
ATOM     28  C   UNL     1       0.750   7.856  -2.635  1.00  0.00     0.042 C 
BRANCH  28  29
ATOM     29  C   UNL     1       1.206   9.107  -3.383  1.00  0.00     0.118 C 
BRANCH  29  30
ATOM     30  N   UNL     1       0.115   9.733  -4.114  1.00  0.00    -0.352 N 
ATOM     31  C   UNL     1      -0.274  11.047  -4.127  1.00  0.00     0.251 C 
ATOM     32  H   UNL     1      -0.418   9.128  -4.678  1.00  0.00     0.163 HD
ATOM     33  O   UNL     1      -1.342  11.364  -4.642  1.00  0.00    -0.269 OA
BRANCH  31  34
ATOM     34  C   UNL     1       0.585  12.084  -3.518  1.00  0.00     0.039 A 
ATOM     35  C   UNL     1      -0.017  13.095  -2.764  1.00  0.00     0.014 A 
ATOM     36  C   UNL     1       1.967  12.093  -3.730  1.00  0.00     0.014 A 
ATOM     37  C   UNL     1       0.770  14.103  -2.203  1.00  0.00     0.010 A 
ATOM     38  C   UNL     1       2.757  13.060  -3.115  1.00  0.00     0.010 A 
ATOM     39  C   UNL     1       2.164  14.086  -2.365  1.00  0.00    -0.014 A 
BRANCH  39  40
ATOM     40  C   UNL     1       3.013  15.165  -1.802  1.00  0.00     0.031 A 
ATOM     41  C   UNL     1       3.757  16.088  -2.730  1.00  0.00     0.074 A 
ATOM     42  C   UNL     1       3.155  15.283  -0.469  1.00  0.00     0.049 A 
ATOM     43  N   UNL     1       4.608  17.042  -2.445  1.00  0.00    -0.248 NA
ATOM     44  C   UNL     1       3.535  15.895  -4.172  1.00  0.00     0.031 C 
ATOM     45  C   UNL     1       2.517  14.422   0.529  1.00  0.00     0.029 A 
ATOM     46  N   UNL     1       3.892  16.168   0.278  1.00  0.00    -0.354 N 
ATOM     47  C   UNL     1       5.038  17.541  -3.668  1.00  0.00     0.074 A 
ATOM     48  C   UNL     1       4.391  16.759  -4.698  1.00  0.00     0.031 C 
ATOM     49  C   UNL     1       2.879  14.830   1.756  1.00  0.00     0.029 A 
ATOM     50  C   UNL     1       3.798  15.957   1.632  1.00  0.00     0.049 A 
ATOM     51  H   UNL     1       4.436  16.885  -0.120  1.00  0.00     0.167 HD
ATOM     52  C   UNL     1       5.881  18.573  -3.908  1.00  0.00     0.037 A 
ATOM     53  C   UNL     1       4.393  16.601   2.654  1.00  0.00     0.037 A 
ATOM     54  C   UNL     1       6.488  19.375  -2.880  1.00  0.00     0.049 A 
ATOM     55  C   UNL     1       5.305  17.761   2.357  1.00  0.00     0.074 A 
ATOM     56  C   UNL     1       7.309  20.480  -3.018  1.00  0.00     0.029 A 
ATOM     57  N   UNL     1       6.331  19.160  -1.519  1.00  0.00    -0.354 N 
ATOM     58  N   UNL     1       5.655  18.264   1.198  1.00  0.00    -0.248 NA
ATOM     59  C   UNL     1       5.896  18.452   3.512  1.00  0.00     0.031 C 
ATOM     60  C   UNL     1       7.679  20.913  -1.741  1.00  0.00     0.029 A 
ATOM     61  C   UNL     1       7.049  20.107  -0.807  1.00  0.00     0.049 A 
ATOM     62  H   UNL     1       5.790  18.442  -1.118  1.00  0.00     0.167 HD
ATOM     63  C   UNL     1       6.473  19.349   1.484  1.00  0.00     0.074 A 
ATOM     64  C   UNL     1       6.559  19.438   2.926  1.00  0.00     0.031 C 
ATOM     65  C   UNL     1       7.098  20.195   0.629  1.00  0.00     0.037 A 
BRANCH  52  66
ATOM     66  C   UNL     1       6.193  18.904  -5.339  1.00  0.00     0.064 A 
ATOM     67  C   UNL     1       5.237  19.488  -6.184  1.00  0.00     0.173 A 
ATOM     68  C   UNL     1       7.479  18.684  -5.856  1.00  0.00     0.173 A 
ATOM     69  F   UNL     1       3.990  19.707  -5.742  1.00  0.00    -0.203 F 
ATOM     70  C   UNL     1       5.551  19.821  -7.499  1.00  0.00     0.198 A 
ATOM     71  C   UNL     1       7.798  19.045  -7.162  1.00  0.00     0.198 A 
ATOM     72  F   UNL     1       8.432  18.134  -5.088  1.00  0.00    -0.203 F 
ATOM     73  F   UNL     1       4.611  20.341  -8.299  1.00  0.00    -0.200 F 
ATOM     74  C   UNL     1       6.833  19.608  -7.984  1.00  0.00     0.200 A 
ATOM     75  F   UNL     1       9.040  18.851  -7.626  1.00  0.00    -0.200 F 
ATOM     76  F   UNL     1       7.137  19.941  -9.246  1.00  0.00    -0.200 F 
ENDBRANCH  52  66
BRANCH  53  77
ATOM     77  C   UNL     1       4.128  16.184   4.056  1.00  0.00     0.064 A 
ATOM     78  C   UNL     1       3.404  17.010   4.928  1.00  0.00     0.173 A 
ATOM     79  C   UNL     1       4.612  14.969   4.561  1.00  0.00     0.173 A 
ATOM     80  F   UNL     1       2.937  18.192   4.497  1.00  0.00    -0.203 F 
ATOM     81  C   UNL     1       3.200  16.651   6.258  1.00  0.00     0.198 A 
ATOM     82  C   UNL     1       4.382  14.597   5.884  1.00  0.00     0.198 A 
ATOM     83  F   UNL     1       5.306  14.140   3.767  1.00  0.00    -0.203 F 
ATOM     84  F   UNL     1       2.554  17.485   7.084  1.00  0.00    -0.200 F 
ATOM     85  C   UNL     1       3.686  15.443   6.734  1.00  0.00     0.200 A 
ATOM     86  F   UNL     1       4.843  13.423   6.337  1.00  0.00    -0.200 F 
ATOM     87  F   UNL     1       3.494  15.099   8.015  1.00  0.00    -0.200 F 
ENDBRANCH  53  77
BRANCH  65  88
ATOM     88  C   UNL     1       7.879  21.327   1.230  1.00  0.00     0.064 A 
ATOM     89  C   UNL     1       9.103  21.117   1.880  1.00  0.00     0.173 A 
ATOM     90  C   UNL     1       7.411  22.645   1.114  1.00  0.00     0.173 A 
ATOM     91  F   UNL     1       9.584  19.874   2.028  1.00  0.00    -0.203 F 
ATOM     92  C   UNL     1       9.818  22.184   2.417  1.00  0.00     0.198 A 
ATOM     93  C   UNL     1       8.144  23.712   1.625  1.00  0.00     0.198 A 
ATOM     94  F   UNL     1       6.250  22.899   0.493  1.00  0.00    -0.203 F 
ATOM     95  F   UNL     1      10.962  21.956   3.077  1.00  0.00    -0.200 F 
ATOM     96  C   UNL     1       9.342  23.480   2.283  1.00  0.00     0.200 A 
ATOM     97  F   UNL     1       7.689  24.965   1.483  1.00  0.00    -0.200 F 
ATOM     98  F   UNL     1      10.036  24.506   2.795  1.00  0.00    -0.200 F 
ENDBRANCH  65  88
ENDBRANCH  39  40
ENDBRANCH  31  34
ENDBRANCH  29  30
ENDBRANCH  28  29
ENDBRANCH   1  28
TORSDOF 14
