REMARK SMILES CSc1ccc(/C=C2\C(C)=C(CC(=O)NCCCNC(=O)c3ccc(-c4c5nc(c(-c6c(F)c(F)c(F)c(F)c6F)c6ccc([nH]6)c(-c6c(F)c(F)c(F)c(F)c6F)c6nc(c(-c7c(F)c(F)c(F)c(F)c7F)c7ccc4[nH]7)C=C6)C=C5)cc3)c3cc(F)ccc32)cc1
REMARK SMILES IDX 16 1 15 2 13 3 14 4 12 6 11 7 7 8 8 9 9 10 91 11 10 12 85 13
REMARK SMILES IDX 90 14 86 15 89 16 87 17 88 18 6 19 3 20 4 21 93 22 5 23
REMARK SMILES IDX 92 24 2 25 1 26 17 27 18 28 19 29 20 30 21 32 22 33 23 34
REMARK SMILES IDX 84 35 24 36 83 37 25 38 26 39 27 40 77 41 28 42 82 43 76 44
REMARK SMILES IDX 78 45 29 46 81 47 75 48 74 49 30 51 62 52 42 53 61 54 43 55
REMARK SMILES IDX 46 56 60 57 79 58 44 59 45 60 59 62 80 63 47 64 31 65 32 66
REMARK SMILES IDX 40 67 33 68 34 69 38 70 41 71 35 72 36 73 39 74 37 75 63 76
REMARK SMILES IDX 64 77 72 78 65 79 66 80 70 81 73 82 67 83 68 84 71 85 69 86
REMARK SMILES IDX 48 87 49 88 57 89 50 90 51 91 55 92 58 93 52 94 53 95 56 96
REMARK SMILES IDX 54 97
REMARK H PARENT 15 5 19 31 78 50 46 61
REMARK Flexibility Score: inf
ROOT
ATOM      1  C   UNL     1       1.135   8.246   4.279  1.00  0.00     0.117 C 
ENDROOT
BRANCH   1   2
ATOM      2  N   UNL     1       2.243   8.606   5.145  1.00  0.00    -0.356 N 
ATOM      3  C   UNL     1       3.551   8.224   5.080  1.00  0.00     0.224 C 
ATOM      4  O   UNL     1       4.295   8.521   6.016  1.00  0.00    -0.275 OA
ATOM      5  H   UNL     1       2.018   9.215   5.885  1.00  0.00     0.163 HD
BRANCH   3   6
ATOM      6  C   UNL     1       4.057   7.455   3.877  1.00  0.00     0.136 C 
BRANCH   6   7
ATOM      7  C   UNL     1       3.973   5.956   4.109  1.00  0.00    -0.027 C 
ATOM      8  C   UNL     1       3.906   4.708   0.854  1.00  0.00     0.017 C 
ATOM      9  C   UNL     1       4.164   4.837   2.164  1.00  0.00    -0.014 C 
ATOM     10  C   UNL     1       3.243   5.163   3.273  1.00  0.00    -0.039 C 
ATOM     11  C   UNL     1       5.473   4.676   2.816  1.00  0.00    -0.010 A 
ATOM     12  C   UNL     1       2.643   3.877   3.861  1.00  0.00     0.045 C 
ATOM     13  C   UNL     1       5.304   5.296   4.070  1.00  0.00    -0.011 A 
ATOM     14  C   UNL     1       6.486   3.760   2.594  1.00  0.00     0.012 A 
ATOM     15  C   UNL     1       6.129   5.005   5.141  1.00  0.00     0.048 A 
ATOM     16  C   UNL     1       7.314   3.446   3.676  1.00  0.00     0.040 A 
ATOM     17  C   UNL     1       7.124   4.056   4.928  1.00  0.00     0.123 A 
ATOM     18  F   UNL     1       7.861   3.644   5.968  1.00  0.00    -0.207 F 
BRANCH   8  19
ATOM     19  C   UNL     1       2.606   4.569   0.152  1.00  0.00    -0.025 A 
ATOM     20  C   UNL     1       0.578   3.135  -1.125  1.00  0.00     0.007 A 
ATOM     21  C   UNL     1       0.413   3.533   0.196  1.00  0.00     0.015 A 
ATOM     22  C   UNL     1       1.625   3.665  -1.877  1.00  0.00     0.015 A 
ATOM     23  C   UNL     1       1.411   4.279   0.818  1.00  0.00     0.009 A 
ATOM     24  C   UNL     1       2.639   4.383  -1.237  1.00  0.00     0.009 A 
BRANCH  20  25
ATOM     25  S   UNL     1      -0.354   1.750  -1.746  1.00  0.00    -0.130 SA
ATOM     26  C   UNL     1       0.493   0.461  -0.767  1.00  0.00     0.091 C 
ENDBRANCH  20  25
ENDBRANCH   8  19
ENDBRANCH   6   7
ENDBRANCH   3   6
ENDBRANCH   1   2
BRANCH   1  27
ATOM     27  C   UNL     1       0.489   6.928   4.689  1.00  0.00     0.042 C 
BRANCH  27  28
ATOM     28  C   UNL     1       0.007   6.886   6.131  1.00  0.00     0.118 C 
BRANCH  28  29
ATOM     29  N   UNL     1      -1.095   7.801   6.356  1.00  0.00    -0.352 N 
ATOM     30  C   UNL     1      -2.429   7.546   6.542  1.00  0.00     0.251 C 
ATOM     31  H   UNL     1      -0.847   8.754   6.377  1.00  0.00     0.163 HD
ATOM     32  O   UNL     1      -3.237   8.461   6.429  1.00  0.00    -0.269 OA
BRANCH  30  33
ATOM     33  C   UNL     1      -2.904   6.187   6.887  1.00  0.00     0.039 A 
ATOM     34  C   UNL     1      -4.136   5.761   6.380  1.00  0.00     0.014 A 
ATOM     35  C   UNL     1      -2.203   5.372   7.781  1.00  0.00     0.014 A 
ATOM     36  C   UNL     1      -4.657   4.522   6.759  1.00  0.00     0.010 A 
ATOM     37  C   UNL     1      -2.682   4.103   8.095  1.00  0.00     0.010 A 
ATOM     38  C   UNL     1      -3.932   3.683   7.617  1.00  0.00    -0.014 A 
BRANCH  38  39
ATOM     39  C   UNL     1      -4.503   2.401   8.100  1.00  0.00     0.031 A 
ATOM     40  C   UNL     1      -4.830   2.237   9.561  1.00  0.00     0.074 A 
ATOM     41  C   UNL     1      -4.687   1.379   7.245  1.00  0.00     0.049 A 
ATOM     42  N   UNL     1      -5.268   1.182  10.201  1.00  0.00    -0.248 NA
ATOM     43  C   UNL     1      -4.604   3.408  10.424  1.00  0.00     0.031 C 
ATOM     44  C   UNL     1      -4.372   1.404   5.816  1.00  0.00     0.029 A 
ATOM     45  N   UNL     1      -5.178   0.116   7.457  1.00  0.00    -0.354 N 
ATOM     46  C   UNL     1      -5.336   1.553  11.538  1.00  0.00     0.074 A 
ATOM     47  C   UNL     1      -4.853   2.913  11.626  1.00  0.00     0.031 C 
ATOM     48  C   UNL     1      -4.698   0.219   5.275  1.00  0.00     0.029 A 
ATOM     49  C   UNL     1      -5.219  -0.656   6.322  1.00  0.00     0.049 A 
ATOM     50  H   UNL     1      -5.474  -0.207   8.338  1.00  0.00     0.167 HD
ATOM     51  C   UNL     1      -5.782   0.833  12.594  1.00  0.00     0.037 A 
ATOM     52  C   UNL     1      -5.633  -1.925   6.150  1.00  0.00     0.037 A 
ATOM     53  C   UNL     1      -6.312  -0.501  12.494  1.00  0.00     0.049 A 
ATOM     54  C   UNL     1      -6.171  -2.687   7.330  1.00  0.00     0.074 A 
ATOM     55  C   UNL     1      -6.846  -1.297  13.492  1.00  0.00     0.029 A 
ATOM     56  N   UNL     1      -6.385  -1.230  11.316  1.00  0.00    -0.354 N 
ATOM     57  N   UNL     1      -6.279  -2.308   8.580  1.00  0.00    -0.248 NA
ATOM     58  C   UNL     1      -6.658  -4.049   7.072  1.00  0.00     0.031 C 
ATOM     59  C   UNL     1      -7.219  -2.520  12.921  1.00  0.00     0.029 A 
ATOM     60  C   UNL     1      -6.952  -2.469  11.562  1.00  0.00     0.049 A 
ATOM     61  H   UNL     1      -6.079  -0.913  10.436  1.00  0.00     0.167 HD
ATOM     62  C   UNL     1      -6.876  -3.368   9.250  1.00  0.00     0.074 A 
ATOM     63  C   UNL     1      -7.113  -4.403   8.265  1.00  0.00     0.031 C 
ATOM     64  C   UNL     1      -7.199  -3.474  10.562  1.00  0.00     0.037 A 
BRANCH  51  65
ATOM     65  C   UNL     1      -5.722   1.478  13.948  1.00  0.00     0.064 A 
ATOM     66  C   UNL     1      -6.575   2.535  14.299  1.00  0.00     0.173 A 
ATOM     67  C   UNL     1      -4.814   1.020  14.914  1.00  0.00     0.173 A 
ATOM     68  F   UNL     1      -7.451   3.020  13.406  1.00  0.00    -0.203 F 
ATOM     69  C   UNL     1      -6.499   3.131  15.555  1.00  0.00     0.198 A 
ATOM     70  C   UNL     1      -4.761   1.599  16.180  1.00  0.00     0.198 A 
ATOM     71  F   UNL     1      -3.979   0.008  14.633  1.00  0.00    -0.203 F 
ATOM     72  F   UNL     1      -7.287   4.174  15.849  1.00  0.00    -0.200 F 
ATOM     73  C   UNL     1      -5.596   2.659  16.496  1.00  0.00     0.200 A 
ATOM     74  F   UNL     1      -3.896   1.134  17.092  1.00  0.00    -0.200 F 
ATOM     75  F   UNL     1      -5.527   3.231  17.706  1.00  0.00    -0.200 F 
ENDBRANCH  51  65
BRANCH  52  76
ATOM     76  C   UNL     1      -5.603  -2.536   4.797  1.00  0.00     0.064 A 
ATOM     77  C   UNL     1      -6.790  -2.768   4.089  1.00  0.00     0.173 A 
ATOM     78  C   UNL     1      -4.394  -2.894   4.183  1.00  0.00     0.173 A 
ATOM     79  F   UNL     1      -7.971  -2.459   4.644  1.00  0.00    -0.203 F 
ATOM     80  C   UNL     1      -6.772  -3.355   2.826  1.00  0.00     0.198 A 
ATOM     81  C   UNL     1      -4.375  -3.458   2.909  1.00  0.00     0.198 A 
ATOM     82  F   UNL     1      -3.231  -2.684   4.816  1.00  0.00    -0.203 F 
ATOM     83  F   UNL     1      -7.924  -3.604   2.189  1.00  0.00    -0.200 F 
ATOM     84  C   UNL     1      -5.564  -3.695   2.235  1.00  0.00     0.200 A 
ATOM     85  F   UNL     1      -3.206  -3.773   2.335  1.00  0.00    -0.200 F 
ATOM     86  F   UNL     1      -5.546  -4.256   1.018  1.00  0.00    -0.200 F 
ENDBRANCH  52  76
BRANCH  64  87
ATOM     87  C   UNL     1      -7.890  -4.731  10.997  1.00  0.00     0.064 A 
ATOM     88  C   UNL     1      -7.202  -5.947  11.115  1.00  0.00     0.173 A 
ATOM     89  C   UNL     1      -9.252  -4.708  11.335  1.00  0.00     0.173 A 
ATOM     90  F   UNL     1      -5.903  -6.021  10.789  1.00  0.00    -0.203 F 
ATOM     91  C   UNL     1      -7.859  -7.101  11.534  1.00  0.00     0.198 A 
ATOM     92  C   UNL     1      -9.899  -5.857  11.777  1.00  0.00     0.198 A 
ATOM     93  F   UNL     1      -9.951  -3.567  11.244  1.00  0.00    -0.203 F 
ATOM     94  F   UNL     1      -7.193  -8.262  11.598  1.00  0.00    -0.200 F 
ATOM     95  C   UNL     1      -9.204  -7.054  11.870  1.00  0.00     0.200 A 
ATOM     96  F   UNL     1     -11.196  -5.809  12.111  1.00  0.00    -0.200 F 
ATOM     97  F   UNL     1      -9.833  -8.165  12.275  1.00  0.00    -0.200 F 
ENDBRANCH  64  87
ENDBRANCH  38  39
ENDBRANCH  30  33
ENDBRANCH  28  29
ENDBRANCH  27  28
ENDBRANCH   1  27
TORSDOF 13
