REMARK SMILES O=C(NCCCNC(=O)[C@@H]1C=C[C@H](NC(=O)[C@@H]2Cc3ccccc3O2)C1)c1ccc(-c2c3nc(c(-c4c(F)c(F)c(F)c(F)c4F)c4ccc([nH]4)c(-c4c(F)c(F)c(F)c(F)c4F)c4nc(c(-c5c(F)c(F)c(F)c(F)c5F)c5ccc2[nH]5)C=C4)C=C3)cc1
REMARK SMILES IDX 5 1 4 2 3 3 1 4 2 5 27 7 28 8 89 9 29 10 88 11 30 12 31 13
REMARK SMILES IDX 32 14 82 15 33 16 87 17 81 18 83 19 34 20 86 21 80 22 79 23
REMARK SMILES IDX 35 25 67 26 47 27 66 28 48 29 51 30 65 31 84 32 49 33 50 34
REMARK SMILES IDX 64 36 85 37 52 38 36 39 37 40 45 41 38 42 39 43 43 44 46 45
REMARK SMILES IDX 40 46 41 47 44 48 42 49 68 50 69 51 77 52 70 53 71 54 75 55
REMARK SMILES IDX 78 56 72 57 73 58 76 59 74 60 53 61 54 62 62 63 55 64 56 65
REMARK SMILES IDX 60 66 63 67 57 68 58 69 61 70 59 71 6 72 7 73 8 74 9 76
REMARK SMILES IDX 10 77 11 78 26 79 12 80 13 81 14 82 15 83 16 85 17 86 18 87
REMARK SMILES IDX 25 88 19 89 24 90 20 91 23 92 21 93 22 94
REMARK H PARENT 3 6 83 24 51 35 7 75 14 84
REMARK Flexibility Score: inf
ROOT
ATOM      1  C   UNL     1      -4.496  -2.899   6.233  1.00  0.00     0.042 C 
ENDROOT
BRANCH   1   2
ATOM      2  C   UNL     1      -4.224  -3.407   4.814  1.00  0.00     0.118 C 
BRANCH   2   3
ATOM      3  N   UNL     1      -4.910  -4.659   4.542  1.00  0.00    -0.352 N 
ATOM      4  O   UNL     1      -6.626  -5.997   3.979  1.00  0.00    -0.269 OA
ATOM      5  C   UNL     1      -6.089  -4.886   3.891  1.00  0.00     0.251 C 
ATOM      6  H   UNL     1      -4.456  -5.466   4.877  1.00  0.00     0.163 HD
BRANCH   5   7
ATOM      7  C   UNL     1      -6.745  -3.828   3.096  1.00  0.00     0.039 A 
ATOM      8  C   UNL     1      -6.030  -3.053   2.176  1.00  0.00     0.014 A 
ATOM      9  C   UNL     1      -8.131  -3.676   3.205  1.00  0.00     0.014 A 
ATOM     10  C   UNL     1      -6.684  -2.072   1.429  1.00  0.00     0.010 A 
ATOM     11  C   UNL     1      -8.793  -2.732   2.417  1.00  0.00     0.010 A 
ATOM     12  C   UNL     1      -8.074  -1.913   1.533  1.00  0.00    -0.014 A 
BRANCH  12  13
ATOM     13  C   UNL     1      -8.795  -0.933   0.681  1.00  0.00     0.031 A 
ATOM     14  C   UNL     1      -9.470   0.258   1.294  1.00  0.00     0.074 A 
ATOM     15  C   UNL     1      -8.893  -1.155  -0.642  1.00  0.00     0.049 A 
ATOM     16  N   UNL     1     -10.237   1.158   0.730  1.00  0.00    -0.248 NA
ATOM     17  C   UNL     1      -9.269   0.457   2.737  1.00  0.00     0.031 C 
ATOM     18  C   UNL     1      -8.294  -2.285  -1.353  1.00  0.00     0.029 A 
ATOM     19  N   UNL     1      -9.553  -0.455  -1.622  1.00  0.00    -0.354 N 
ATOM     20  C   UNL     1     -10.627   2.015   1.750  1.00  0.00     0.074 A 
ATOM     21  C   UNL     1     -10.032   1.515   2.971  1.00  0.00     0.031 C 
ATOM     22  C   UNL     1      -8.617  -2.206  -2.652  1.00  0.00     0.029 A 
ATOM     23  C   UNL     1      -9.485  -1.049  -2.857  1.00  0.00     0.049 A 
ATOM     24  H   UNL     1     -10.030   0.390  -1.454  1.00  0.00     0.167 HD
ATOM     25  C   UNL     1     -11.407   3.120   1.669  1.00  0.00     0.037 A 
ATOM     26  C   UNL     1     -10.080  -0.721  -4.020  1.00  0.00     0.037 A 
ATOM     27  C   UNL     1     -11.985   3.620   0.449  1.00  0.00     0.049 A 
ATOM     28  C   UNL     1     -10.960   0.495  -4.082  1.00  0.00     0.074 A 
ATOM     29  C   UNL     1     -12.741   4.763   0.257  1.00  0.00     0.029 A 
ATOM     30  N   UNL     1     -11.880   2.998  -0.787  1.00  0.00    -0.354 N 
ATOM     31  N   UNL     1     -11.283   1.328  -3.123  1.00  0.00    -0.248 NA
ATOM     32  C   UNL     1     -11.557   0.818  -5.385  1.00  0.00     0.031 C 
ATOM     33  C   UNL     1     -13.134   4.808  -1.085  1.00  0.00     0.029 A 
ATOM     34  C   UNL     1     -12.582   3.719  -1.741  1.00  0.00     0.049 A 
ATOM     35  H   UNL     1     -11.382   2.167  -0.962  1.00  0.00     0.167 HD
ATOM     36  C   UNL     1     -12.101   2.284  -3.708  1.00  0.00     0.074 A 
ATOM     37  C   UNL     1     -12.223   1.932  -5.107  1.00  0.00     0.031 C 
ATOM     38  C   UNL     1     -12.691   3.361  -3.133  1.00  0.00     0.037 A 
BRANCH  25  39
ATOM     39  C   UNL     1     -11.701   3.852   2.946  1.00  0.00     0.064 A 
ATOM     40  C   UNL     1     -10.717   4.591   3.619  1.00  0.00     0.173 A 
ATOM     41  C   UNL     1     -12.993   3.829   3.494  1.00  0.00     0.173 A 
ATOM     42  F   UNL     1      -9.463   4.637   3.143  1.00  0.00    -0.203 F 
ATOM     43  C   UNL     1     -11.006   5.250   4.812  1.00  0.00     0.198 A 
ATOM     44  C   UNL     1     -13.286   4.513   4.671  1.00  0.00     0.198 A 
ATOM     45  F   UNL     1     -13.973   3.144   2.886  1.00  0.00    -0.203 F 
ATOM     46  F   UNL     1     -10.037   5.905   5.466  1.00  0.00    -0.200 F 
ATOM     47  C   UNL     1     -12.290   5.214   5.334  1.00  0.00     0.200 A 
ATOM     48  F   UNL     1     -14.530   4.486   5.168  1.00  0.00    -0.200 F 
ATOM     49  F   UNL     1     -12.566   5.847   6.482  1.00  0.00    -0.200 F 
ENDBRANCH  25  39
BRANCH  26  50
ATOM     50  C   UNL     1      -9.854  -1.575  -5.212  1.00  0.00     0.064 A 
ATOM     51  C   UNL     1      -9.038  -1.143  -6.265  1.00  0.00     0.173 A 
ATOM     52  C   UNL     1     -10.406  -2.862  -5.295  1.00  0.00     0.173 A 
ATOM     53  F   UNL     1      -8.505   0.087  -6.238  1.00  0.00    -0.203 F 
ATOM     54  C   UNL     1      -8.780  -1.969  -7.357  1.00  0.00     0.198 A 
ATOM     55  C   UNL     1     -10.128  -3.695  -6.376  1.00  0.00     0.198 A 
ATOM     56  F   UNL     1     -11.190  -3.321  -4.308  1.00  0.00    -0.203 F 
ATOM     57  F   UNL     1      -8.013  -1.526  -8.362  1.00  0.00    -0.200 F 
ATOM     58  C   UNL     1      -9.317  -3.247  -7.407  1.00  0.00     0.200 A 
ATOM     59  F   UNL     1     -10.636  -4.935  -6.412  1.00  0.00    -0.200 F 
ATOM     60  F   UNL     1      -9.053  -4.047  -8.449  1.00  0.00    -0.200 F 
ENDBRANCH  26  50
BRANCH  38  61
ATOM     61  C   UNL     1     -13.498   4.263  -4.018  1.00  0.00     0.064 A 
ATOM     62  C   UNL     1     -14.776   3.901  -4.467  1.00  0.00     0.173 A 
ATOM     63  C   UNL     1     -13.015   5.535  -4.360  1.00  0.00     0.173 A 
ATOM     64  F   UNL     1     -15.274   2.689  -4.179  1.00  0.00    -0.203 F 
ATOM     65  C   UNL     1     -15.539   4.779  -5.233  1.00  0.00     0.198 A 
ATOM     66  C   UNL     1     -13.789   6.419  -5.106  1.00  0.00     0.198 A 
ATOM     67  F   UNL     1     -11.800   5.929  -3.950  1.00  0.00    -0.203 F 
ATOM     68  F   UNL     1     -16.748   4.404  -5.674  1.00  0.00    -0.200 F 
ATOM     69  C   UNL     1     -15.049   6.040  -5.543  1.00  0.00     0.200 A 
ATOM     70  F   UNL     1     -13.319   7.640  -5.394  1.00  0.00    -0.200 F 
ATOM     71  F   UNL     1     -15.792   6.889  -6.266  1.00  0.00    -0.200 F 
ENDBRANCH  38  61
ENDBRANCH  12  13
ENDBRANCH   5   7
ENDBRANCH   2   3
ENDBRANCH   1   2
BRANCH   1  72
ATOM     72  C   UNL     1      -3.850  -3.738   7.346  1.00  0.00     0.117 C 
BRANCH  72  73
ATOM     73  N   UNL     1      -2.416  -3.881   7.164  1.00  0.00    -0.356 N 
ATOM     74  C   UNL     1      -1.646  -2.759   7.015  1.00  0.00     0.227 C 
ATOM     75  H   UNL     1      -2.003  -4.775   7.148  1.00  0.00     0.163 HD
ATOM     76  O   UNL     1      -1.247  -2.489   5.885  1.00  0.00    -0.274 OA
BRANCH  74  77
ATOM     77  C   UNL     1      -1.372  -1.903   8.254  1.00  0.00     0.103 C 
ATOM     78  C   UNL     1      -1.153  -0.480   7.839  1.00  0.00    -0.016 C 
ATOM     79  C   UNL     1      -0.038  -2.280   8.943  1.00  0.00     0.047 C 
ATOM     80  C   UNL     1       0.096  -0.061   8.069  1.00  0.00    -0.006 C 
ATOM     81  C   UNL     1       0.918  -1.085   8.771  1.00  0.00     0.106 C 
BRANCH  81  82
ATOM     82  N   UNL     1       2.222  -1.240   8.132  1.00  0.00    -0.347 N 
ATOM     83  C   UNL     1       2.710  -1.889   7.029  1.00  0.00     0.261 C 
ATOM     84  H   UNL     1       2.929  -0.755   8.616  1.00  0.00     0.164 HD
ATOM     85  O   UNL     1       3.874  -1.655   6.698  1.00  0.00    -0.271 OA
BRANCH  83  86
ATOM     86  C   UNL     1       1.846  -2.898   6.292  1.00  0.00     0.266 C 
ATOM     87  C   UNL     1       2.116  -4.327   6.777  1.00  0.00     0.095 C 
ATOM     88  O   UNL     1       1.911  -2.946   4.851  1.00  0.00    -0.480 OA
ATOM     89  C   UNL     1       1.357  -5.014   5.705  1.00  0.00    -0.002 A 
ATOM     90  C   UNL     1       1.314  -4.166   4.602  1.00  0.00     0.123 A 
ATOM     91  C   UNL     1       0.740  -6.250   5.684  1.00  0.00     0.008 A 
ATOM     92  C   UNL     1       0.678  -4.521   3.433  1.00  0.00     0.047 A 
ATOM     93  C   UNL     1       0.062  -6.618   4.519  1.00  0.00     0.001 A 
ATOM     94  C   UNL     1       0.035  -5.763   3.400  1.00  0.00     0.004 A 
ENDBRANCH  83  86
ENDBRANCH  81  82
ENDBRANCH  74  77
ENDBRANCH  72  73
ENDBRANCH   1  72
TORSDOF 12
