REMARK SMILES CC[NH2+][C@@]1(C(=O)NCCCNC(=O)c2ccc(-c3c4nc(c(-c5c(F)c(F)c(F)c(F)c5F)c5ccc([nH]5)c(-c5c(F)c(F)c(F)c(F)c5F)c5nc(c(-c6c(F)c(F)c(F)c(F)c6F)c6ccc3[nH]6)C=C5)C=C4)cc2)CCC[C@@H](Sc2ncc(C)cn2)C1
REMARK SMILES IDX 9 1 8 2 7 3 5 4 6 5 4 7 77 8 89 9 78 10 80 11 79 12 3 13
REMARK SMILES IDX 2 16 1 17 81 18 82 19 83 20 88 21 84 22 87 23 85 24 86 25
REMARK SMILES IDX 10 26 11 27 12 28 13 30 14 31 15 32 76 33 16 34 75 35 17 36
REMARK SMILES IDX 18 37 19 38 69 39 20 40 74 41 68 42 70 43 21 44 73 45 67 46
REMARK SMILES IDX 66 47 22 49 54 50 34 51 53 52 35 53 38 54 52 55 71 56 36 57
REMARK SMILES IDX 37 58 51 60 72 61 39 62 23 63 24 64 32 65 25 66 26 67 30 68
REMARK SMILES IDX 33 69 27 70 28 71 31 72 29 73 55 74 56 75 64 76 57 77 58 78
REMARK SMILES IDX 62 79 65 80 59 81 60 82 63 83 61 84 40 85 41 86 49 87 42 88
REMARK SMILES IDX 43 89 47 90 50 91 44 92 45 93 48 94 46 95
REMARK H PARENT 7 6 3 14 3 15 11 29 70 48 38 59
REMARK Flexibility Score: inf
ROOT
ATOM      1  C   UNL     1       0.670   3.724  -6.972  1.00  0.00     0.042 C 
ENDROOT
BRANCH   1   2
ATOM      2  C   UNL     1      -0.060   2.471  -6.501  1.00  0.00     0.118 C 
BRANCH   2   3
ATOM      3  N   UNL     1       0.832   1.527  -5.872  1.00  0.00    -0.351 N 
ATOM      4  C   UNL     1       1.063   1.140  -4.596  1.00  0.00     0.281 C 
ATOM      5  O   UNL     1       2.022   0.351  -4.494  1.00  0.00    -0.268 OA
ATOM      6  H   UNL     1       1.405   1.056  -6.520  1.00  0.00     0.163 HD
BRANCH   4   7
ATOM      7  C   UNL     1       0.313   1.634  -3.265  1.00  0.00     0.176 C 
ATOM      8  C   UNL     1      -1.231   1.620  -3.343  1.00  0.00     0.079 C 
ATOM      9  C   UNL     1       0.901   2.992  -2.832  1.00  0.00     0.094 C 
ATOM     10  C   UNL     1      -1.978   2.924  -3.651  1.00  0.00     0.008 C 
ATOM     11  C   UNL     1       0.263   4.180  -3.537  1.00  0.00     0.061 C 
ATOM     12  C   UNL     1      -1.251   4.232  -3.345  1.00  0.00     0.015 C 
BRANCH   7  13
ATOM     13  N   UNL     1       0.694   0.549  -2.284  1.00  0.00    -0.334 N 
ATOM     14  H   UNL     1       0.141  -0.275  -2.523  1.00  0.00     0.347 HD
ATOM     15  H   UNL     1       1.706   0.472  -2.392  1.00  0.00     0.347 HD
BRANCH  13  16
ATOM     16  C   UNL     1       0.517   0.780  -0.857  1.00  0.00     0.257 C 
ATOM     17  C   UNL     1       1.067  -0.407  -0.074  1.00  0.00     0.071 C 
ENDBRANCH  13  16
ENDBRANCH   7  13
BRANCH  11  18
ATOM     18  S   UNL     1       1.112   5.770  -3.173  1.00  0.00    -0.083 SA
BRANCH  18  19
ATOM     19  C   UNL     1       0.491   6.111  -1.554  1.00  0.00     0.187 A 
ATOM     20  N   UNL     1       0.818   5.266  -0.565  1.00  0.00    -0.231 NA
ATOM     21  N   UNL     1      -0.326   7.168  -1.427  1.00  0.00    -0.231 NA
ATOM     22  C   UNL     1       0.261   5.505   0.634  1.00  0.00     0.119 A 
ATOM     23  C   UNL     1      -0.848   7.368  -0.204  1.00  0.00     0.119 A 
ATOM     24  C   UNL     1      -0.600   6.552   0.879  1.00  0.00    -0.014 A 
ATOM     25  C   UNL     1      -1.209   6.799   2.214  1.00  0.00     0.048 C 
ENDBRANCH  18  19
ENDBRANCH  11  18
ENDBRANCH   4   7
ENDBRANCH   2   3
ENDBRANCH   1   2
BRANCH   1  26
ATOM     26  C   UNL     1       1.036   3.689  -8.440  1.00  0.00     0.118 C 
BRANCH  26  27
ATOM     27  N   UNL     1      -0.137   3.780  -9.300  1.00  0.00    -0.352 N 
ATOM     28  C   UNL     1      -0.534   4.769 -10.168  1.00  0.00     0.251 C 
ATOM     29  H   UNL     1      -0.745   3.007  -9.251  1.00  0.00     0.163 HD
ATOM     30  O   UNL     1      -1.666   4.743 -10.639  1.00  0.00    -0.269 OA
BRANCH  28  31
ATOM     31  C   UNL     1       0.387   5.872 -10.522  1.00  0.00     0.039 A 
ATOM     32  C   UNL     1      -0.127   7.156 -10.721  1.00  0.00     0.014 A 
ATOM     33  C   UNL     1       1.755   5.644 -10.670  1.00  0.00     0.014 A 
ATOM     34  C   UNL     1       0.740   8.215 -11.001  1.00  0.00     0.010 A 
ATOM     35  C   UNL     1       2.626   6.714 -10.810  1.00  0.00     0.010 A 
ATOM     36  C   UNL     1       2.129   8.009 -11.007  1.00  0.00    -0.014 A 
BRANCH  36  37
ATOM     37  C   UNL     1       3.088   9.111 -11.275  1.00  0.00     0.031 A 
ATOM     38  C   UNL     1       4.033   9.000 -12.444  1.00  0.00     0.074 A 
ATOM     39  C   UNL     1       3.155  10.166 -10.441  1.00  0.00     0.049 A 
ATOM     40  N   UNL     1       5.027   9.780 -12.785  1.00  0.00    -0.248 NA
ATOM     41  C   UNL     1       3.865   7.832 -13.328  1.00  0.00     0.031 C 
ATOM     42  C   UNL     1       2.327  10.363  -9.250  1.00  0.00     0.029 A 
ATOM     43  N   UNL     1       3.970  11.271 -10.461  1.00  0.00    -0.354 N 
ATOM     44  C   UNL     1       5.603   9.190 -13.903  1.00  0.00     0.074 A 
ATOM     45  C   UNL     1       4.904   7.948 -14.139  1.00  0.00     0.031 C 
ATOM     46  C   UNL     1       2.655  11.530  -8.671  1.00  0.00     0.029 A 
ATOM     47  C   UNL     1       3.748  12.140  -9.419  1.00  0.00     0.049 A 
ATOM     48  H   UNL     1       4.649  11.427 -11.157  1.00  0.00     0.167 HD
ATOM     49  C   UNL     1       6.598   9.660 -14.690  1.00  0.00     0.037 A 
ATOM     50  C   UNL     1       4.370  13.292  -9.102  1.00  0.00     0.037 A 
ATOM     51  C   UNL     1       7.266  10.915 -14.473  1.00  0.00     0.049 A 
ATOM     52  C   UNL     1       5.489  13.780  -9.985  1.00  0.00     0.074 A 
ATOM     53  C   UNL     1       8.264  11.502 -15.228  1.00  0.00     0.029 A 
ATOM     54  N   UNL     1       6.990  11.780 -13.425  1.00  0.00    -0.354 N 
ATOM     55  N   UNL     1       5.986  13.239 -11.072  1.00  0.00    -0.248 NA
ATOM     56  C   UNL     1       6.131  15.045  -9.602  1.00  0.00     0.031 C 
ATOM     57  C   UNL     1       8.622  12.706 -14.615  1.00  0.00     0.029 A 
ATOM     58  C   UNL     1       7.807  12.894 -13.510  1.00  0.00     0.049 A 
ATOM     59  H   UNL     1       6.315  11.625 -12.726  1.00  0.00     0.167 HD
ATOM     60  C   UNL     1       6.963  14.117 -11.523  1.00  0.00     0.074 A 
ATOM     61  C   UNL     1       6.979  15.232 -10.602  1.00  0.00     0.031 C 
ATOM     62  C   UNL     1       7.779  14.009 -12.600  1.00  0.00     0.037 A 
BRANCH  49  63
ATOM     63  C   UNL     1       7.005   8.833 -15.875  1.00  0.00     0.064 A 
ATOM     64  C   UNL     1       6.156   8.676 -16.982  1.00  0.00     0.173 A 
ATOM     65  C   UNL     1       8.275   8.240 -15.934  1.00  0.00     0.173 A 
ATOM     66  F   UNL     1       4.925   9.210 -16.971  1.00  0.00    -0.203 F 
ATOM     67  C   UNL     1       6.556   7.941 -18.095  1.00  0.00     0.198 A 
ATOM     68  C   UNL     1       8.684   7.533 -17.062  1.00  0.00     0.198 A 
ATOM     69  F   UNL     1       9.127   8.361 -14.905  1.00  0.00    -0.203 F 
ATOM     70  F   UNL     1       5.711   7.769 -19.121  1.00  0.00    -0.200 F 
ATOM     71  C   UNL     1       7.823   7.380 -18.139  1.00  0.00     0.200 A 
ATOM     72  F   UNL     1       9.914   7.004 -17.110  1.00  0.00    -0.200 F 
ATOM     73  F   UNL     1       8.213   6.688 -19.218  1.00  0.00    -0.200 F 
ENDBRANCH  49  63
BRANCH  50  74
ATOM     74  C   UNL     1       3.953  14.076  -7.907  1.00  0.00     0.064 A 
ATOM     75  C   UNL     1       3.396  15.356  -8.043  1.00  0.00     0.173 A 
ATOM     76  C   UNL     1       4.153  13.591  -6.606  1.00  0.00     0.173 A 
ATOM     77  F   UNL     1       3.200  15.874  -9.265  1.00  0.00    -0.203 F 
ATOM     78  C   UNL     1       3.101  16.138  -6.928  1.00  0.00     0.198 A 
ATOM     79  C   UNL     1       3.823  14.359  -5.491  1.00  0.00     0.198 A 
ATOM     80  F   UNL     1       4.676  12.371  -6.416  1.00  0.00    -0.203 F 
ATOM     81  F   UNL     1       2.644  17.387  -7.090  1.00  0.00    -0.200 F 
ATOM     82  C   UNL     1       3.313  15.638  -5.652  1.00  0.00     0.200 A 
ATOM     83  F   UNL     1       4.014  13.867  -4.259  1.00  0.00    -0.200 F 
ATOM     84  F   UNL     1       3.041  16.395  -4.580  1.00  0.00    -0.200 F 
ENDBRANCH  50  74
BRANCH  62  85
ATOM     85  C   UNL     1       8.706  15.155 -12.882  1.00  0.00     0.064 A 
ATOM     86  C   UNL     1       9.815  15.428 -12.068  1.00  0.00     0.173 A 
ATOM     87  C   UNL     1       8.505  15.962 -14.013  1.00  0.00     0.173 A 
ATOM     88  F   UNL     1      10.043  14.694 -10.968  1.00  0.00    -0.203 F 
ATOM     89  C   UNL     1      10.671  16.486 -12.360  1.00  0.00     0.198 A 
ATOM     90  C   UNL     1       9.384  16.995 -14.322  1.00  0.00     0.198 A 
ATOM     91  F   UNL     1       7.465  15.735 -14.830  1.00  0.00    -0.203 F 
ATOM     92  F   UNL     1      11.694  16.762 -11.539  1.00  0.00    -0.200 F 
ATOM     93  C   UNL     1      10.461  17.262 -13.491  1.00  0.00     0.200 A 
ATOM     94  F   UNL     1       9.190  17.730 -15.425  1.00  0.00    -0.200 F 
ATOM     95  F   UNL     1      11.294  18.272 -13.776  1.00  0.00    -0.200 F 
ENDBRANCH  62  85
ENDBRANCH  36  37
ENDBRANCH  28  31
ENDBRANCH  26  27
ENDBRANCH   1  26
TORSDOF 14
