REMARK SMILES Cc1c(F)cccc1NCc1ccc(C(=O)NCCCNC(=O)c2ccc(-c3c4nc(c(-c5c(F)c(F)c(F)c(F)c5F)c5ccc([nH]5)c(-c5c(F)c(F)c(F)c(F)c5F)c5nc(c(-c6c(F)c(F)c(F)c(F)c6F)c6ccc3[nH]6)C=C5)C=C4)cc2)cn1
REMARK SMILES IDX 18 1 17 2 15 3 16 4 14 6 11 7 12 8 88 9 13 10 87 11 10 12
REMARK SMILES IDX 9 13 8 15 1 16 2 17 3 18 4 19 5 20 7 21 6 22 19 23 20 24
REMARK SMILES IDX 21 25 22 26 23 28 24 29 25 30 86 31 26 32 85 33 27 34 28 35
REMARK SMILES IDX 29 36 79 37 30 38 84 39 78 40 80 41 31 42 83 43 77 44 76 45
REMARK SMILES IDX 32 47 64 48 44 49 63 50 45 51 48 52 62 53 81 54 46 55 47 56
REMARK SMILES IDX 61 58 82 59 49 60 33 61 34 62 42 63 35 64 36 65 40 66 43 67
REMARK SMILES IDX 37 68 38 69 41 70 39 71 65 72 66 73 74 74 67 75 68 76 72 77
REMARK SMILES IDX 75 78 69 79 70 80 73 81 71 82 50 83 51 84 59 85 52 86 53 87
REMARK SMILES IDX 57 88 60 89 54 90 55 91 58 92 56 93
REMARK H PARENT 17 5 9 14 21 27 80 46 48 57
REMARK Flexibility Score: inf
ROOT
ATOM      1  C   UNL     1      -4.084   4.713   5.819  1.00  0.00     0.118 C 
ENDROOT
BRANCH   1   2
ATOM      2  N   UNL     1      -3.500   6.003   5.506  1.00  0.00    -0.352 N 
ATOM      3  C   UNL     1      -2.907   6.447   4.350  1.00  0.00     0.252 C 
ATOM      4  O   UNL     1      -2.495   7.605   4.320  1.00  0.00    -0.269 OA
ATOM      5  H   UNL     1      -3.533   6.662   6.236  1.00  0.00     0.163 HD
BRANCH   3   6
ATOM      6  C   UNL     1      -2.786   5.595   3.139  1.00  0.00     0.058 A 
ATOM      7  C   UNL     1      -2.597   4.207   0.753  1.00  0.00     0.059 A 
ATOM      8  C   UNL     1      -2.713   3.500   1.935  1.00  0.00     0.026 A 
ATOM      9  N   UNL     1      -2.554   5.564   0.722  1.00  0.00    -0.259 NA
ATOM     10  C   UNL     1      -2.777   4.205   3.121  1.00  0.00     0.017 A 
ATOM     11  C   UNL     1      -2.650   6.222   1.910  1.00  0.00     0.125 A 
BRANCH   7  12
ATOM     12  C   UNL     1      -2.416   3.428  -0.531  1.00  0.00     0.169 C 
BRANCH  12  13
ATOM     13  N   UNL     1      -1.147   2.710  -0.486  1.00  0.00    -0.379 N 
ATOM     14  H   UNL     1      -0.340   3.249  -0.654  1.00  0.00     0.160 HD
BRANCH  13  15
ATOM     15  C   UNL     1      -0.936   1.367  -0.237  1.00  0.00     0.040 A 
ATOM     16  C   UNL     1       1.618   1.705  -0.075  1.00  0.00     0.050 C 
ATOM     17  C   UNL     1       0.373   0.857  -0.087  1.00  0.00     0.008 A 
ATOM     18  C   UNL     1       0.567  -0.530   0.044  1.00  0.00     0.128 A 
ATOM     19  F   UNL     1       1.814  -1.018   0.145  1.00  0.00    -0.207 F 
ATOM     20  C   UNL     1      -0.492  -1.425   0.068  1.00  0.00     0.039 A 
ATOM     21  C   UNL     1      -1.996   0.440  -0.191  1.00  0.00     0.026 A 
ATOM     22  C   UNL     1      -1.784  -0.935  -0.034  1.00  0.00     0.005 A 
ENDBRANCH  13  15
ENDBRANCH  12  13
ENDBRANCH   7  12
ENDBRANCH   3   6
ENDBRANCH   1   2
BRANCH   1  23
ATOM     23  C   UNL     1      -2.999   3.724   6.269  1.00  0.00     0.042 C 
BRANCH  23  24
ATOM     24  C   UNL     1      -2.838   3.789   7.752  1.00  0.00     0.118 C 
BRANCH  24  25
ATOM     25  N   UNL     1      -3.933   3.095   8.421  1.00  0.00    -0.352 N 
ATOM     26  C   UNL     1      -3.947   2.555   9.687  1.00  0.00     0.251 C 
ATOM     27  H   UNL     1      -4.764   3.001   7.902  1.00  0.00     0.163 HD
ATOM     28  O   UNL     1      -4.745   1.688   9.988  1.00  0.00    -0.269 OA
BRANCH  26  29
ATOM     29  C   UNL     1      -3.005   3.096  10.680  1.00  0.00     0.039 A 
ATOM     30  C   UNL     1      -2.681   2.401  11.848  1.00  0.00     0.014 A 
ATOM     31  C   UNL     1      -2.534   4.387  10.479  1.00  0.00     0.014 A 
ATOM     32  C   UNL     1      -1.942   3.056  12.826  1.00  0.00     0.010 A 
ATOM     33  C   UNL     1      -1.581   4.905  11.274  1.00  0.00     0.010 A 
ATOM     34  C   UNL     1      -1.444   4.320  12.519  1.00  0.00    -0.014 A 
BRANCH  34  35
ATOM     35  C   UNL     1      -0.797   5.234  13.419  1.00  0.00     0.031 A 
ATOM     36  C   UNL     1       0.582   4.956  13.765  1.00  0.00     0.074 A 
ATOM     37  C   UNL     1      -1.437   6.417  13.572  1.00  0.00     0.049 A 
ATOM     38  N   UNL     1       1.161   5.415  14.806  1.00  0.00    -0.248 NA
ATOM     39  C   UNL     1       1.429   4.083  12.961  1.00  0.00     0.031 C 
ATOM     40  C   UNL     1      -0.964   7.710  14.030  1.00  0.00     0.029 A 
ATOM     41  N   UNL     1      -2.811   6.632  13.347  1.00  0.00    -0.354 N 
ATOM     42  C   UNL     1       2.510   5.258  14.596  1.00  0.00     0.074 A 
ATOM     43  C   UNL     1       2.607   4.250  13.569  1.00  0.00     0.031 C 
ATOM     44  C   UNL     1      -2.033   8.444  14.400  1.00  0.00     0.029 A 
ATOM     45  C   UNL     1      -3.204   7.586  14.298  1.00  0.00     0.049 A 
ATOM     46  H   UNL     1      -3.377   6.203  12.665  1.00  0.00     0.167 HD
ATOM     47  C   UNL     1       3.341   6.171  15.175  1.00  0.00     0.037 A 
ATOM     48  C   UNL     1      -3.961   7.131  15.339  1.00  0.00     0.037 A 
ATOM     49  C   UNL     1       2.533   7.148  15.938  1.00  0.00     0.049 A 
ATOM     50  C   UNL     1      -3.182   7.114  16.632  1.00  0.00     0.074 A 
ATOM     51  C   UNL     1       2.127   8.450  15.689  1.00  0.00     0.029 A 
ATOM     52  N   UNL     1       1.686   6.682  16.942  1.00  0.00    -0.354 N 
ATOM     53  N   UNL     1      -1.880   7.186  16.733  1.00  0.00    -0.248 NA
ATOM     54  C   UNL     1      -3.839   7.072  17.922  1.00  0.00     0.031 C 
ATOM     55  C   UNL     1       1.024   8.747  16.551  1.00  0.00     0.029 A 
ATOM     56  C   UNL     1       0.764   7.636  17.337  1.00  0.00     0.049 A 
ATOM     57  H   UNL     1       1.738   5.777  17.327  1.00  0.00     0.167 HD
ATOM     58  C   UNL     1      -1.503   7.240  18.054  1.00  0.00     0.074 A 
ATOM     59  C   UNL     1      -2.782   7.165  18.746  1.00  0.00     0.031 C 
ATOM     60  C   UNL     1      -0.178   7.336  18.427  1.00  0.00     0.037 A 
BRANCH  47  61
ATOM     61  C   UNL     1       4.813   6.366  14.853  1.00  0.00     0.064 A 
ATOM     62  C   UNL     1       5.483   7.534  15.283  1.00  0.00     0.173 A 
ATOM     63  C   UNL     1       5.632   5.469  14.133  1.00  0.00     0.173 A 
ATOM     64  F   UNL     1       4.865   8.457  16.031  1.00  0.00    -0.203 F 
ATOM     65  C   UNL     1       6.823   7.798  14.973  1.00  0.00     0.198 A 
ATOM     66  C   UNL     1       6.963   5.746  13.799  1.00  0.00     0.198 A 
ATOM     67  F   UNL     1       5.215   4.259  13.762  1.00  0.00    -0.203 F 
ATOM     68  F   UNL     1       7.395   8.926  15.416  1.00  0.00    -0.200 F 
ATOM     69  C   UNL     1       7.560   6.911  14.219  1.00  0.00     0.200 A 
ATOM     70  F   UNL     1       7.663   4.857  13.078  1.00  0.00    -0.200 F 
ATOM     71  F   UNL     1       8.841   7.164  13.920  1.00  0.00    -0.200 F 
ENDBRANCH  47  61
BRANCH  48  72
ATOM     72  C   UNL     1      -4.990   6.141  14.865  1.00  0.00     0.064 A 
ATOM     73  C   UNL     1      -5.914   6.628  13.912  1.00  0.00     0.173 A 
ATOM     74  C   UNL     1      -4.745   4.760  14.865  1.00  0.00     0.173 A 
ATOM     75  F   UNL     1      -6.226   7.934  13.894  1.00  0.00    -0.203 F 
ATOM     76  C   UNL     1      -6.367   5.827  12.866  1.00  0.00     0.198 A 
ATOM     77  C   UNL     1      -5.252   3.946  13.842  1.00  0.00     0.198 A 
ATOM     78  F   UNL     1      -3.913   4.218  15.765  1.00  0.00    -0.203 F 
ATOM     79  F   UNL     1      -7.070   6.372  11.862  1.00  0.00    -0.200 F 
ATOM     80  C   UNL     1      -5.998   4.496  12.808  1.00  0.00     0.200 A 
ATOM     81  F   UNL     1      -4.941   2.642  13.809  1.00  0.00    -0.200 F 
ATOM     82  F   UNL     1      -6.324   3.762  11.734  1.00  0.00    -0.200 F 
ENDBRANCH  48  72
BRANCH  60  83
ATOM     83  C   UNL     1       0.425   7.141  19.831  1.00  0.00     0.064 A 
ATOM     84  C   UNL     1      -0.292   6.990  21.026  1.00  0.00     0.173 A 
ATOM     85  C   UNL     1       1.837   7.031  20.009  1.00  0.00     0.173 A 
ATOM     86  F   UNL     1      -1.605   7.186  21.104  1.00  0.00    -0.203 F 
ATOM     87  C   UNL     1       0.315   6.662  22.245  1.00  0.00     0.198 A 
ATOM     88  C   UNL     1       2.440   6.677  21.216  1.00  0.00     0.198 A 
ATOM     89  F   UNL     1       2.715   7.272  19.028  1.00  0.00    -0.203 F 
ATOM     90  F   UNL     1      -0.448   6.524  23.338  1.00  0.00    -0.200 F 
ATOM     91  C   UNL     1       1.675   6.478  22.336  1.00  0.00     0.200 A 
ATOM     92  F   UNL     1       3.771   6.525  21.271  1.00  0.00    -0.200 F 
ATOM     93  F   UNL     1       2.245   6.137  23.498  1.00  0.00    -0.200 F 
ENDBRANCH  60  83
ENDBRANCH  34  35
ENDBRANCH  26  29
ENDBRANCH  24  25
ENDBRANCH  23  24
ENDBRANCH   1  23
TORSDOF 13
