REMARK SMILES [NH2+]=C1S[C@@H](C(=O)Nc2ccc(C(=O)NCCCNC(=O)c3ccc(-c4c5nc(c(-c6c(F)c(F)c(F)c(F)c6F)c6ccc([nH]6)c(-c6c(F)c(F)c(F)c(F)c6F)c6nc(c(-c7c(F)c(F)c(F)c(F)c7F)c7ccc4[nH]7)C=C6)C=C5)cc3)cc2)CC(=O)N1/N=C/c1ccc(Cl)cc1
REMARK SMILES IDX 15 1 14 2 12 3 13 4 11 6 8 7 9 8 85 9 10 10 84 11 7 12 5 13
REMARK SMILES IDX 6 14 4 16 1 17 2 18 3 21 89 22 87 23 86 24 88 25 90 26 91 27
REMARK SMILES IDX 92 28 93 29 98 30 94 31 97 32 95 33 96 34 16 35 17 36 18 37
REMARK SMILES IDX 19 38 20 40 21 41 22 42 83 43 23 44 82 45 24 46 25 47 26 48
REMARK SMILES IDX 76 49 27 50 81 51 75 52 77 53 28 54 80 55 74 56 73 57 29 59
REMARK SMILES IDX 61 60 41 61 60 62 42 63 45 64 59 65 78 66 43 67 44 68 58 70
REMARK SMILES IDX 79 71 46 72 30 73 31 74 39 75 32 76 33 77 37 78 40 79 34 80
REMARK SMILES IDX 35 81 38 82 36 83 62 84 63 85 71 86 64 87 65 88 69 89 72 90
REMARK SMILES IDX 66 91 67 92 70 93 68 94 47 95 48 96 56 97 49 98 50 99 54 100
REMARK SMILES IDX 57 101 51 102 52 103 55 104 53 105
REMARK H PARENT 14 5 7 15 1 19 1 20 18 39 77 58 45 69
REMARK Flexibility Score: inf
ROOT
ATOM      1  C   UNL     1      -4.626  -1.875  -0.367  1.00  0.00     0.118 C 
ENDROOT
BRANCH   1   2
ATOM      2  N   UNL     1      -4.997  -0.463  -0.331  1.00  0.00    -0.352 N 
ATOM      3  C   UNL     1      -4.328   0.615   0.191  1.00  0.00     0.251 C 
ATOM      4  O   UNL     1      -4.704   1.750  -0.093  1.00  0.00    -0.269 OA
ATOM      5  H   UNL     1      -5.864  -0.251  -0.748  1.00  0.00     0.163 HD
BRANCH   3   6
ATOM      6  C   UNL     1      -3.111   0.434   1.008  1.00  0.00     0.039 A 
ATOM      7  C   UNL     1      -0.704  -0.017   2.324  1.00  0.00     0.041 A 
ATOM      8  C   UNL     1      -0.803   1.035   1.414  1.00  0.00     0.027 A 
ATOM      9  C   UNL     1      -1.840  -0.734   2.693  1.00  0.00     0.027 A 
ATOM     10  C   UNL     1      -2.001   1.241   0.732  1.00  0.00     0.016 A 
ATOM     11  C   UNL     1      -3.052  -0.499   2.045  1.00  0.00     0.016 A 
BRANCH   7  12
ATOM     12  N   UNL     1       0.529  -0.271   2.913  1.00  0.00    -0.325 N 
ATOM     13  C   UNL     1       1.191  -1.447   3.100  1.00  0.00     0.238 C 
ATOM     14  O   UNL     1       2.051  -1.468   3.990  1.00  0.00    -0.273 OA
ATOM     15  H   UNL     1       0.998   0.527   3.250  1.00  0.00     0.169 HD
BRANCH  13  16
ATOM     16  C   UNL     1       1.085  -2.638   2.128  1.00  0.00     0.160 C 
ATOM     17  N   UNL     1       1.112  -0.466  -0.933  1.00  0.00    -0.279 N 
ATOM     18  C   UNL     1       0.740  -1.524  -0.298  1.00  0.00     0.338 C 
ATOM     19  H   UNL     1       2.039  -0.145  -0.853  1.00  0.00     0.302 HD
ATOM     20  H   UNL     1       0.470   0.021  -1.498  1.00  0.00     0.302 HD
ATOM     21  S   UNL     1       1.992  -2.308   0.608  1.00  0.00    -0.022 SA
ATOM     22  N   UNL     1      -0.535  -2.090  -0.319  1.00  0.00    -0.057 N 
ATOM     23  C   UNL     1      -0.985  -3.071   0.581  1.00  0.00     0.337 C 
ATOM     24  C   UNL     1      -0.207  -3.354   1.855  1.00  0.00     0.155 C 
ATOM     25  O   UNL     1      -2.012  -3.743   0.405  1.00  0.00    -0.244 OA
BRANCH  22  26
ATOM     26  N   UNL     1      -1.504  -1.786  -1.306  1.00  0.00    -0.082 NA
ATOM     27  C   UNL     1      -1.258  -1.043  -2.332  1.00  0.00     0.167 C 
BRANCH  27  28
ATOM     28  C   UNL     1      -2.276  -0.867  -3.389  1.00  0.00    -0.003 A 
ATOM     29  C   UNL     1      -2.113  -1.572  -4.584  1.00  0.00     0.011 A 
ATOM     30  C   UNL     1      -3.344   0.017  -3.231  1.00  0.00     0.011 A 
ATOM     31  C   UNL     1      -3.045  -1.414  -5.614  1.00  0.00     0.021 A 
ATOM     32  C   UNL     1      -4.286   0.159  -4.255  1.00  0.00     0.021 A 
ATOM     33  C   UNL     1      -4.132  -0.557  -5.442  1.00  0.00     0.041 A 
ATOM     34  Cl  UNL     1      -5.282  -0.372  -6.708  1.00  0.00    -0.084 Cl
ENDBRANCH  27  28
ENDBRANCH  22  26
ENDBRANCH  13  16
ENDBRANCH   7  12
ENDBRANCH   3   6
ENDBRANCH   1   2
BRANCH   1  35
ATOM     35  C   UNL     1      -5.762  -2.753   0.131  1.00  0.00     0.042 C 
BRANCH  35  36
ATOM     36  C   UNL     1      -6.893  -2.852  -0.883  1.00  0.00     0.118 C 
BRANCH  36  37
ATOM     37  N   UNL     1      -6.684  -3.912  -1.861  1.00  0.00    -0.352 N 
ATOM     38  C   UNL     1      -7.489  -4.987  -2.157  1.00  0.00     0.251 C 
ATOM     39  H   UNL     1      -5.850  -3.850  -2.381  1.00  0.00     0.163 HD
ATOM     40  O   UNL     1      -7.095  -5.875  -2.907  1.00  0.00    -0.269 OA
BRANCH  38  41
ATOM     41  C   UNL     1      -8.827  -5.093  -1.532  1.00  0.00     0.039 A 
ATOM     42  C   UNL     1      -9.214  -6.310  -0.966  1.00  0.00     0.014 A 
ATOM     43  C   UNL     1      -9.680  -3.989  -1.469  1.00  0.00     0.014 A 
ATOM     44  C   UNL     1     -10.420  -6.394  -0.265  1.00  0.00     0.010 A 
ATOM     45  C   UNL     1     -10.832  -4.048  -0.691  1.00  0.00     0.010 A 
ATOM     46  C   UNL     1     -11.217  -5.251  -0.080  1.00  0.00    -0.014 A 
BRANCH  46  47
ATOM     47  C   UNL     1     -12.452  -5.293   0.747  1.00  0.00     0.031 A 
ATOM     48  C   UNL     1     -13.787  -4.979   0.127  1.00  0.00     0.074 A 
ATOM     49  C   UNL     1     -12.368  -5.550   2.067  1.00  0.00     0.049 A 
ATOM     50  N   UNL     1     -14.964  -4.890   0.694  1.00  0.00    -0.248 NA
ATOM     51  C   UNL     1     -13.797  -4.701  -1.318  1.00  0.00     0.031 C 
ATOM     52  C   UNL     1     -11.130  -5.822   2.800  1.00  0.00     0.029 A 
ATOM     53  N   UNL     1     -13.343  -5.613   3.033  1.00  0.00    -0.354 N 
ATOM     54  C   UNL     1     -15.845  -4.535  -0.319  1.00  0.00     0.074 A 
ATOM     55  C   UNL     1     -15.061  -4.364  -1.522  1.00  0.00     0.031 C 
ATOM     56  C   UNL     1     -11.423  -6.049   4.091  1.00  0.00     0.029 A 
ATOM     57  C   UNL     1     -12.860  -5.894   4.289  1.00  0.00     0.049 A 
ATOM     58  H   UNL     1     -14.299  -5.470   2.843  1.00  0.00     0.167 HD
ATOM     59  C   UNL     1     -17.191  -4.391  -0.259  1.00  0.00     0.037 A 
ATOM     60  C   UNL     1     -13.503  -6.004   5.468  1.00  0.00     0.037 A 
ATOM     61  C   UNL     1     -17.973  -4.583   0.934  1.00  0.00     0.049 A 
ATOM     62  C   UNL     1     -14.997  -5.819   5.510  1.00  0.00     0.074 A 
ATOM     63  C   UNL     1     -19.347  -4.513   1.085  1.00  0.00     0.029 A 
ATOM     64  N   UNL     1     -17.448  -4.880   2.183  1.00  0.00    -0.354 N 
ATOM     65  N   UNL     1     -15.827  -5.553   4.531  1.00  0.00    -0.248 NA
ATOM     66  C   UNL     1     -15.644  -5.955   6.822  1.00  0.00     0.031 C 
ATOM     67  C   UNL     1     -19.650  -4.714   2.435  1.00  0.00     0.029 A 
ATOM     68  C   UNL     1     -18.471  -4.972   3.115  1.00  0.00     0.049 A 
ATOM     69  H   UNL     1     -16.492  -5.007   2.379  1.00  0.00     0.167 HD
ATOM     70  C   UNL     1     -17.093  -5.525   5.101  1.00  0.00     0.074 A 
ATOM     71  C   UNL     1     -16.924  -5.816   6.508  1.00  0.00     0.031 C 
ATOM     72  C   UNL     1     -18.289  -5.278   4.511  1.00  0.00     0.037 A 
BRANCH  59  73
ATOM     73  C   UNL     1     -17.909  -4.013  -1.523  1.00  0.00     0.064 A 
ATOM     74  C   UNL     1     -18.017  -4.904  -2.602  1.00  0.00     0.173 A 
ATOM     75  C   UNL     1     -18.538  -2.765  -1.640  1.00  0.00     0.173 A 
ATOM     76  F   UNL     1     -17.425  -6.107  -2.547  1.00  0.00    -0.203 F 
ATOM     77  C   UNL     1     -18.703  -4.549  -3.761  1.00  0.00     0.198 A 
ATOM     78  C   UNL     1     -19.252  -2.426  -2.787  1.00  0.00     0.198 A 
ATOM     79  F   UNL     1     -18.473  -1.877  -0.636  1.00  0.00    -0.203 F 
ATOM     80  F   UNL     1     -18.750  -5.398  -4.796  1.00  0.00    -0.200 F 
ATOM     81  C   UNL     1     -19.327  -3.314  -3.849  1.00  0.00     0.200 A 
ATOM     82  F   UNL     1     -19.869  -1.238  -2.864  1.00  0.00    -0.200 F 
ATOM     83  F   UNL     1     -19.998  -2.979  -4.959  1.00  0.00    -0.200 F 
ENDBRANCH  59  73
BRANCH  60  84
ATOM     84  C   UNL     1     -12.745  -6.320   6.708  1.00  0.00     0.064 A 
ATOM     85  C   UNL     1     -12.927  -7.542   7.373  1.00  0.00     0.173 A 
ATOM     86  C   UNL     1     -11.846  -5.402   7.271  1.00  0.00     0.173 A 
ATOM     87  F   UNL     1     -13.791  -8.445   6.888  1.00  0.00    -0.203 F 
ATOM     88  C   UNL     1     -12.264  -7.819   8.567  1.00  0.00     0.198 A 
ATOM     89  C   UNL     1     -11.158  -5.694   8.447  1.00  0.00     0.198 A 
ATOM     90  F   UNL     1     -11.630  -4.221   6.674  1.00  0.00    -0.203 F 
ATOM     91  F   UNL     1     -12.503  -8.969   9.212  1.00  0.00    -0.200 F 
ATOM     92  C   UNL     1     -11.376  -6.897   9.101  1.00  0.00     0.200 A 
ATOM     93  F   UNL     1     -10.289  -4.807   8.950  1.00  0.00    -0.200 F 
ATOM     94  F   UNL     1     -10.740  -7.164  10.249  1.00  0.00    -0.200 F 
ENDBRANCH  60  84
BRANCH  72  95
ATOM     95  C   UNL     1     -19.516  -5.360   5.374  1.00  0.00     0.064 A 
ATOM     96  C   UNL     1     -19.794  -4.400   6.358  1.00  0.00     0.173 A 
ATOM     97  C   UNL     1     -20.446  -6.394   5.185  1.00  0.00     0.173 A 
ATOM     98  F   UNL     1     -18.930  -3.399   6.589  1.00  0.00    -0.203 F 
ATOM     99  C   UNL     1     -20.942  -4.488   7.140  1.00  0.00     0.198 A 
ATOM    100  C   UNL     1     -21.611  -6.459   5.945  1.00  0.00     0.198 A 
ATOM    101  F   UNL     1     -20.233  -7.334   4.252  1.00  0.00    -0.203 F 
ATOM    102  F   UNL     1     -21.161  -3.590   8.110  1.00  0.00    -0.200 F 
ATOM    103  C   UNL     1     -21.854  -5.512   6.927  1.00  0.00     0.200 A 
ATOM    104  F   UNL     1     -22.497  -7.440   5.726  1.00  0.00    -0.200 F 
ATOM    105  F   UNL     1     -22.963  -5.590   7.675  1.00  0.00    -0.200 F 
ENDBRANCH  72  95
ENDBRANCH  46  47
ENDBRANCH  38  41
ENDBRANCH  36  37
ENDBRANCH  35  36
ENDBRANCH   1  35
TORSDOF 14
