REMARK SMILES O=C(NCCCNC(=O)[C@@H](Cc1ccc(O)cc1)Nc1c2ccccc2nc2ccccc12)c1ccc(-c2c3nc(c(-c4c(F)c(F)c(F)c(F)c4F)c4ccc([nH]4)c(-c4c(F)c(F)c(F)c(F)c4F)c4nc(c(-c5c(F)c(F)c(F)c(F)c5F)c5ccc2[nH]5)C=C4)C=C3)cc1
REMARK SMILES IDX 5 1 4 2 3 3 1 4 2 5 34 7 35 8 96 9 36 10 95 11 37 12 38 13
REMARK SMILES IDX 39 14 89 15 40 16 94 17 88 18 90 19 41 20 93 21 87 22 86 23
REMARK SMILES IDX 42 25 74 26 54 27 73 28 55 29 58 30 72 31 91 32 56 33 57 34
REMARK SMILES IDX 71 36 92 37 59 38 43 39 44 40 52 41 45 42 46 43 50 44 53 45
REMARK SMILES IDX 47 46 48 47 51 48 49 49 75 50 76 51 84 52 77 53 78 54 82 55
REMARK SMILES IDX 85 56 79 57 80 58 83 59 81 60 60 61 61 62 69 63 62 64 63 65
REMARK SMILES IDX 67 66 70 67 64 68 65 69 68 70 66 71 6 72 7 73 8 74 9 76
REMARK SMILES IDX 10 77 11 78 12 79 13 80 18 81 14 82 17 83 15 84 16 85 19 87
REMARK SMILES IDX 20 89 21 90 33 91 22 92 26 93 28 94 32 95 23 96 25 97 27 98
REMARK SMILES IDX 29 99 31 100 24 101 30 102
REMARK H PARENT 3 6 90 24 58 35 7 75 16 86 19 88
REMARK Flexibility Score: inf
ROOT
ATOM      1  C   UNL     1       4.526   2.422  -0.414  1.00  0.00     0.042 C 
ENDROOT
BRANCH   1   2
ATOM      2  C   UNL     1       4.164   1.734   0.892  1.00  0.00     0.118 C 
BRANCH   2   3
ATOM      3  N   UNL     1       2.801   1.224   0.860  1.00  0.00    -0.352 N 
ATOM      4  O   UNL     1       1.083  -0.044   0.203  1.00  0.00    -0.269 OA
ATOM      5  C   UNL     1       2.291   0.018   0.445  1.00  0.00     0.251 C 
ATOM      6  H   UNL     1       2.124   1.855   1.195  1.00  0.00     0.163 HD
BRANCH   5   7
ATOM      7  C   UNL     1       3.121  -1.207   0.287  1.00  0.00     0.039 A 
ATOM      8  C   UNL     1       4.249  -1.455   1.068  1.00  0.00     0.014 A 
ATOM      9  C   UNL     1       2.672  -2.215  -0.581  1.00  0.00     0.014 A 
ATOM     10  C   UNL     1       4.984  -2.629   0.903  1.00  0.00     0.010 A 
ATOM     11  C   UNL     1       3.345  -3.443  -0.664  1.00  0.00     0.010 A 
ATOM     12  C   UNL     1       4.516  -3.659   0.073  1.00  0.00    -0.014 A 
BRANCH  12  13
ATOM     13  C   UNL     1       5.208  -4.977   0.094  1.00  0.00     0.031 A 
ATOM     14  C   UNL     1       5.859  -5.544  -1.135  1.00  0.00     0.074 A 
ATOM     15  C   UNL     1       5.266  -5.658   1.258  1.00  0.00     0.049 A 
ATOM     16  N   UNL     1       6.531  -6.662  -1.270  1.00  0.00    -0.248 NA
ATOM     17  C   UNL     1       5.734  -4.768  -2.377  1.00  0.00     0.031 C 
ATOM     18  C   UNL     1       4.643  -5.231   2.513  1.00  0.00     0.029 A 
ATOM     19  N   UNL     1       5.894  -6.833   1.587  1.00  0.00    -0.354 N 
ATOM     20  C   UNL     1       6.890  -6.733  -2.609  1.00  0.00     0.074 A 
ATOM     21  C   UNL     1       6.341  -5.558  -3.253  1.00  0.00     0.031 C 
ATOM     22  C   UNL     1       4.972  -6.091   3.486  1.00  0.00     0.029 A 
ATOM     23  C   UNL     1       5.773  -7.167   2.915  1.00  0.00     0.049 A 
ATOM     24  H   UNL     1       6.383  -7.385   0.935  1.00  0.00     0.167 HD
ATOM     25  C   UNL     1       7.619  -7.687  -3.238  1.00  0.00     0.037 A 
ATOM     26  C   UNL     1       6.244  -8.226   3.601  1.00  0.00     0.037 A 
ATOM     27  C   UNL     1       8.184  -8.844  -2.590  1.00  0.00     0.049 A 
ATOM     28  C   UNL     1       7.051  -9.264   2.877  1.00  0.00     0.074 A 
ATOM     29  C   UNL     1       8.971  -9.843  -3.138  1.00  0.00     0.029 A 
ATOM     30  N   UNL     1       8.022  -9.157  -1.248  1.00  0.00    -0.354 N 
ATOM     31  N   UNL     1       7.413  -9.297   1.618  1.00  0.00    -0.248 NA
ATOM     32  C   UNL     1       7.509 -10.415   3.666  1.00  0.00     0.031 C 
ATOM     33  C   UNL     1       9.252 -10.780  -2.138  1.00  0.00     0.029 A 
ATOM     34  C   UNL     1       8.678 -10.344  -0.956  1.00  0.00     0.049 A 
ATOM     35  H   UNL     1       7.516  -8.617  -0.599  1.00  0.00     0.167 HD
ATOM     36  C   UNL     1       8.149 -10.462   1.465  1.00  0.00     0.074 A 
ATOM     37  C   UNL     1       8.203 -11.097   2.766  1.00  0.00     0.031 C 
ATOM     38  C   UNL     1       8.722 -10.963   0.344  1.00  0.00     0.037 A 
BRANCH  25  39
ATOM     39  C   UNL     1       7.844  -7.530  -4.714  1.00  0.00     0.064 A 
ATOM     40  C   UNL     1       8.723  -6.565  -5.227  1.00  0.00     0.173 A 
ATOM     41  C   UNL     1       7.213  -8.393  -5.624  1.00  0.00     0.173 A 
ATOM     42  F   UNL     1       9.345  -5.712  -4.400  1.00  0.00    -0.203 F 
ATOM     43  C   UNL     1       8.945  -6.455  -6.598  1.00  0.00     0.198 A 
ATOM     44  C   UNL     1       7.457  -8.297  -6.991  1.00  0.00     0.198 A 
ATOM     45  F   UNL     1       6.370  -9.340  -5.185  1.00  0.00    -0.203 F 
ATOM     46  F   UNL     1       9.762  -5.502  -7.068  1.00  0.00    -0.200 F 
ATOM     47  C   UNL     1       8.318  -7.325  -7.478  1.00  0.00     0.200 A 
ATOM     48  F   UNL     1       6.861  -9.147  -7.839  1.00  0.00    -0.200 F 
ATOM     49  F   UNL     1       8.541  -7.224  -8.795  1.00  0.00    -0.200 F 
ENDBRANCH  25  39
BRANCH  26  50
ATOM     50  C   UNL     1       5.962  -8.349   5.054  1.00  0.00     0.064 A 
ATOM     51  C   UNL     1       6.984  -8.205   6.003  1.00  0.00     0.173 A 
ATOM     52  C   UNL     1       4.664  -8.595   5.525  1.00  0.00     0.173 A 
ATOM     53  F   UNL     1       8.245  -7.989   5.601  1.00  0.00    -0.203 F 
ATOM     54  C   UNL     1       6.720  -8.313   7.367  1.00  0.00     0.198 A 
ATOM     55  C   UNL     1       4.396  -8.673   6.890  1.00  0.00     0.198 A 
ATOM     56  F   UNL     1       3.651  -8.736   4.658  1.00  0.00    -0.203 F 
ATOM     57  F   UNL     1       7.721  -8.208   8.251  1.00  0.00    -0.200 F 
ATOM     58  C   UNL     1       5.425  -8.539   7.809  1.00  0.00     0.200 A 
ATOM     59  F   UNL     1       3.141  -8.874   7.313  1.00  0.00    -0.200 F 
ATOM     60  F   UNL     1       5.170  -8.631   9.121  1.00  0.00    -0.200 F 
ENDBRANCH  26  50
BRANCH  38  61
ATOM     61  C   UNL     1       9.474 -12.253   0.483  1.00  0.00     0.064 A 
ATOM     62  C   UNL     1       8.808 -13.475   0.654  1.00  0.00     0.173 A 
ATOM     63  C   UNL     1      10.876 -12.269   0.421  1.00  0.00     0.173 A 
ATOM     64  F   UNL     1       7.469 -13.508   0.739  1.00  0.00    -0.203 F 
ATOM     65  C   UNL     1       9.519 -14.665   0.780  1.00  0.00     0.198 A 
ATOM     66  C   UNL     1      11.582 -13.464   0.522  1.00  0.00     0.198 A 
ATOM     67  F   UNL     1      11.558 -11.127   0.256  1.00  0.00    -0.203 F 
ATOM     68  F   UNL     1       8.864 -15.816   0.989  1.00  0.00    -0.200 F 
ATOM     69  C   UNL     1      10.904 -14.659   0.708  1.00  0.00     0.200 A 
ATOM     70  F   UNL     1      12.920 -13.459   0.443  1.00  0.00    -0.200 F 
ATOM     71  F   UNL     1      11.587 -15.806   0.828  1.00  0.00    -0.200 F 
ENDBRANCH  38  61
ENDBRANCH  12  13
ENDBRANCH   5   7
ENDBRANCH   2   3
ENDBRANCH   1   2
BRANCH   1  72
ATOM     72  C   UNL     1       4.057   3.870  -0.493  1.00  0.00     0.117 C 
BRANCH  72  73
ATOM     73  N   UNL     1       5.033   4.756   0.108  1.00  0.00    -0.354 N 
ATOM     74  C   UNL     1       6.080   5.453  -0.412  1.00  0.00     0.242 C 
ATOM     75  H   UNL     1       4.916   4.878   1.078  1.00  0.00     0.163 HD
ATOM     76  O   UNL     1       6.903   5.864   0.419  1.00  0.00    -0.273 OA
BRANCH  74  77
ATOM     77  C   UNL     1       6.296   5.753  -1.920  1.00  0.00     0.173 C 
BRANCH  77  78
ATOM     78  C   UNL     1       6.957   4.601  -2.720  1.00  0.00     0.070 C 
BRANCH  78  79
ATOM     79  C   UNL     1       6.196   3.367  -3.158  1.00  0.00    -0.045 A 
ATOM     80  C   UNL     1       4.979   3.433  -3.852  1.00  0.00     0.007 A 
ATOM     81  C   UNL     1       6.772   2.100  -2.956  1.00  0.00     0.007 A 
ATOM     82  C   UNL     1       4.283   2.268  -4.194  1.00  0.00     0.046 A 
ATOM     83  C   UNL     1       6.092   0.934  -3.319  1.00  0.00     0.046 A 
ATOM     84  C   UNL     1       4.836   1.027  -3.900  1.00  0.00     0.115 A 
BRANCH  84  85
ATOM     85  O   UNL     1       4.163  -0.132  -4.151  1.00  0.00    -0.508 OA
ATOM     86  H   UNL     1       3.312  -0.104  -4.542  1.00  0.00     0.293 HD
ENDBRANCH  84  85
ENDBRANCH  78  79
ENDBRANCH  77  78
BRANCH  77  87
ATOM     87  N   UNL     1       5.107   6.326  -2.558  1.00  0.00    -0.372 N 
ATOM     88  H   UNL     1       4.319   5.736  -2.576  1.00  0.00     0.161 HD
BRANCH  87  89
ATOM     89  C   UNL     1       4.919   7.584  -3.146  1.00  0.00     0.054 A 
ATOM     90  C   UNL     1       5.934   8.329  -3.843  1.00  0.00     0.024 A 
ATOM     91  C   UNL     1       3.602   8.162  -3.036  1.00  0.00     0.024 A 
ATOM     92  C   UNL     1       7.290   7.953  -4.066  1.00  0.00     0.012 A 
ATOM     93  C   UNL     1       5.545   9.563  -4.412  1.00  0.00     0.073 A 
ATOM     94  C   UNL     1       3.367   9.389  -3.684  1.00  0.00     0.073 A 
ATOM     95  C   UNL     1       2.511   7.599  -2.310  1.00  0.00     0.012 A 
ATOM     96  C   UNL     1       8.204   8.754  -4.756  1.00  0.00     0.001 A 
ATOM     97  C   UNL     1       6.461  10.344  -5.106  1.00  0.00     0.029 A 
ATOM     98  N   UNL     1       4.309  10.056  -4.347  1.00  0.00    -0.248 NA
ATOM     99  C   UNL     1       2.105   9.966  -3.647  1.00  0.00     0.029 A 
ATOM    100  C   UNL     1       1.251   8.200  -2.275  1.00  0.00     0.001 A 
ATOM    101  C   UNL     1       7.787   9.960  -5.278  1.00  0.00     0.002 A 
ATOM    102  C   UNL     1       1.043   9.385  -2.958  1.00  0.00     0.002 A 
ENDBRANCH  87  89
ENDBRANCH  77  87
ENDBRANCH  74  77
ENDBRANCH  72  73
ENDBRANCH   1  72
TORSDOF 15
