REMARK SMILES Cc1cc(C)n(C)c(=O)c1C(=O)N1CCC2(CC1)C[NH2+][C@@H](C(=O)NCCCNC(=O)c1ccc(-c3c4nc(c(-c5c(F)c(F)c(F)c(F)c5F)c5ccc([nH]5)c(-c5c(F)c(F)c(F)c(F)c5F)c5nc(c(-c6c(F)c(F)c(F)c(F)c6F)c6ccc3[nH]6)C=C5)C=C4)cc1)C2
REMARK SMILES IDX 26 1 25 2 24 3 22 4 23 5 21 7 11 8 12 9 13 10 14 11 18 12
REMARK SMILES IDX 15 13 17 14 16 15 19 16 94 17 20 18 10 21 1 22 2 23 3 24
REMARK SMILES IDX 4 25 8 26 5 27 6 28 9 29 7 30 27 31 28 32 29 33 30 35 31 36
REMARK SMILES IDX 32 37 93 38 33 39 92 40 34 41 35 42 36 43 86 44 37 45 91 46
REMARK SMILES IDX 85 47 87 48 38 49 90 50 84 51 83 52 39 54 71 55 51 56 70 57
REMARK SMILES IDX 52 58 55 59 69 60 88 61 53 62 54 63 68 65 89 66 56 67 40 68
REMARK SMILES IDX 41 69 49 70 42 71 43 72 47 73 50 74 44 75 45 76 48 77 46 78
REMARK SMILES IDX 72 79 73 80 81 81 74 82 75 83 79 84 82 85 76 86 77 87 80 88
REMARK SMILES IDX 78 89 57 90 58 91 66 92 59 93 60 94 64 95 67 96 61 97 62 98
REMARK SMILES IDX 65 99 63 100
REMARK H PARENT 24 6 20 19 20 20 28 34 87 53 55 64
REMARK Flexibility Score: inf
ROOT
ATOM      1  C   UNL     1      -0.986  -0.347  -6.085  1.00  0.00     0.042 C 
ENDROOT
BRANCH   1   2
ATOM      2  C   UNL     1       0.150  -1.358  -6.112  1.00  0.00     0.118 C 
BRANCH   2   3
ATOM      3  N   UNL     1       1.221  -0.954  -7.008  1.00  0.00    -0.351 N 
ATOM      4  C   UNL     1       2.505  -0.583  -6.738  1.00  0.00     0.278 C 
ATOM      5  O   UNL     1       3.228  -0.293  -7.696  1.00  0.00    -0.268 OA
ATOM      6  H   UNL     1       0.980  -0.948  -7.963  1.00  0.00     0.163 HD
BRANCH   4   7
ATOM      7  C   UNL     1       3.036  -0.485  -5.304  1.00  0.00     0.273 C 
ATOM      8  C   UNL     1       1.497   2.569   0.323  1.00  0.00     0.259 C 
ATOM      9  O   UNL     1       2.280   3.453   0.685  1.00  0.00    -0.269 OA
ATOM     10  N   UNL     1       1.566   2.076  -0.976  1.00  0.00    -0.338 N 
ATOM     11  C   UNL     1       2.807   2.287  -1.707  1.00  0.00     0.120 C 
ATOM     12  C   UNL     1       0.485   1.526  -1.784  1.00  0.00     0.120 C 
ATOM     13  C   UNL     1       3.342   0.934  -2.141  1.00  0.00     0.034 C 
ATOM     14  C   UNL     1       0.887   0.241  -2.535  1.00  0.00     0.034 C 
ATOM     15  C   UNL     1       2.359   0.166  -3.048  1.00  0.00     0.029 C 
ATOM     16  C   UNL     1       2.849  -1.303  -3.134  1.00  0.00     0.268 C 
ATOM     17  C   UNL     1       2.450   0.675  -4.506  1.00  0.00     0.088 C 
ATOM     18  N   UNL     1       2.716  -1.692  -4.526  1.00  0.00    -0.336 N 
ATOM     19  H   UNL     1       1.762  -1.999  -4.721  1.00  0.00     0.346 HD
ATOM     20  H   UNL     1       3.332  -2.470  -4.763  1.00  0.00     0.346 HD
BRANCH   8  21
ATOM     21  C   UNL     1       0.598   1.952   1.363  1.00  0.00     0.108 A 
ATOM     22  C   UNL     1       1.017  -0.493   0.714  1.00  0.00     0.045 C 
ATOM     23  C   UNL     1       0.447   0.619   1.538  1.00  0.00    -0.031 A 
ATOM     24  C   UNL     1      -0.238   0.098   2.703  1.00  0.00     0.026 A 
ATOM     25  C   UNL     1      -0.542   0.870   3.752  1.00  0.00     0.018 A 
ATOM     26  C   UNL     1       0.093   2.857   2.474  1.00  0.00     0.263 A 
ATOM     27  C   UNL     1      -1.115   0.218   4.982  1.00  0.00     0.064 C 
ATOM     28  N   UNL     1      -0.331   2.240   3.668  1.00  0.00    -0.315 N 
ATOM     29  O   UNL     1       0.062   4.078   2.323  1.00  0.00    -0.268 OA
ATOM     30  C   UNL     1      -0.588   3.098   4.819  1.00  0.00     0.153 C 
ENDBRANCH   8  21
ENDBRANCH   4   7
ENDBRANCH   2   3
ENDBRANCH   1   2
BRANCH   1  31
ATOM     31  C   UNL     1      -1.692  -0.192  -7.421  1.00  0.00     0.118 C 
BRANCH  31  32
ATOM     32  N   UNL     1      -2.357  -1.417  -7.843  1.00  0.00    -0.352 N 
ATOM     33  C   UNL     1      -3.689  -1.670  -8.052  1.00  0.00     0.251 C 
ATOM     34  H   UNL     1      -1.758  -2.182  -8.001  1.00  0.00     0.163 HD
ATOM     35  O   UNL     1      -4.077  -2.821  -8.208  1.00  0.00    -0.269 OA
BRANCH  33  36
ATOM     36  C   UNL     1      -4.660  -0.556  -8.069  1.00  0.00     0.039 A 
ATOM     37  C   UNL     1      -5.890  -0.727  -7.430  1.00  0.00     0.014 A 
ATOM     38  C   UNL     1      -4.369   0.644  -8.723  1.00  0.00     0.014 A 
ATOM     39  C   UNL     1      -6.803   0.328  -7.397  1.00  0.00     0.010 A 
ATOM     40  C   UNL     1      -5.240   1.722  -8.613  1.00  0.00     0.010 A 
ATOM     41  C   UNL     1      -6.471   1.571  -7.960  1.00  0.00    -0.014 A 
BRANCH  41  42
ATOM     42  C   UNL     1      -7.411   2.715  -7.896  1.00  0.00     0.031 A 
ATOM     43  C   UNL     1      -7.999   3.275  -9.161  1.00  0.00     0.074 A 
ATOM     44  C   UNL     1      -7.706   3.271  -6.706  1.00  0.00     0.049 A 
ATOM     45  N   UNL     1      -8.808   4.293  -9.317  1.00  0.00    -0.248 NA
ATOM     46  C   UNL     1      -7.611   2.619 -10.421  1.00  0.00     0.031 C 
ATOM     47  C   UNL     1      -7.172   2.833  -5.415  1.00  0.00     0.029 A 
ATOM     48  N   UNL     1      -8.527   4.323  -6.386  1.00  0.00    -0.354 N 
ATOM     49  C   UNL     1      -9.023   4.396 -10.684  1.00  0.00     0.074 A 
ATOM     50  C   UNL     1      -8.210   3.384 -11.321  1.00  0.00     0.031 C 
ATOM     51  C   UNL     1      -7.707   3.586  -4.441  1.00  0.00     0.029 A 
ATOM     52  C   UNL     1      -8.587   4.586  -5.040  1.00  0.00     0.049 A 
ATOM     53  H   UNL     1      -9.027   4.840  -7.059  1.00  0.00     0.167 HD
ATOM     54  C   UNL     1      -9.851   5.237 -11.345  1.00  0.00     0.037 A 
ATOM     55  C   UNL     1      -9.274   5.528  -4.365  1.00  0.00     0.037 A 
ATOM     56  C   UNL     1     -10.671   6.231 -10.705  1.00  0.00     0.049 A 
ATOM     57  C   UNL     1     -10.153   6.481  -5.129  1.00  0.00     0.074 A 
ATOM     58  C   UNL     1     -11.572   7.106 -11.284  1.00  0.00     0.029 A 
ATOM     59  N   UNL     1     -10.689   6.481  -9.340  1.00  0.00    -0.354 N 
ATOM     60  N   UNL     1     -10.393   6.533  -6.417  1.00  0.00    -0.248 NA
ATOM     61  C   UNL     1     -10.859   7.505  -4.346  1.00  0.00     0.031 C 
ATOM     62  C   UNL     1     -12.095   7.922 -10.277  1.00  0.00     0.029 A 
ATOM     63  C   UNL     1     -11.565   7.517  -9.062  1.00  0.00     0.049 A 
ATOM     64  H   UNL     1     -10.157   5.994  -8.669  1.00  0.00     0.167 HD
ATOM     65  C   UNL     1     -11.293   7.575  -6.597  1.00  0.00     0.074 A 
ATOM     66  C   UNL     1     -11.570   8.117  -5.283  1.00  0.00     0.031 C 
ATOM     67  C   UNL     1     -11.836   8.042  -7.747  1.00  0.00     0.037 A 
BRANCH  54  68
ATOM     68  C   UNL     1      -9.929   5.111 -12.839  1.00  0.00     0.064 A 
ATOM     69  C   UNL     1     -10.529   3.999 -13.450  1.00  0.00     0.173 A 
ATOM     70  C   UNL     1      -9.458   6.139 -13.670  1.00  0.00     0.173 A 
ATOM     71  F   UNL     1     -10.985   2.982 -12.702  1.00  0.00    -0.203 F 
ATOM     72  C   UNL     1     -10.637   3.912 -14.835  1.00  0.00     0.198 A 
ATOM     73  C   UNL     1      -9.596   6.063 -15.053  1.00  0.00     0.198 A 
ATOM     74  F   UNL     1      -8.880   7.227 -13.138  1.00  0.00    -0.203 F 
ATOM     75  F   UNL     1     -11.177   2.821 -15.396  1.00  0.00    -0.200 F 
ATOM     76  C   UNL     1     -10.180   4.948 -15.635  1.00  0.00     0.200 A 
ATOM     77  F   UNL     1      -9.168   7.073 -15.824  1.00  0.00    -0.200 F 
ATOM     78  F   UNL     1     -10.301   4.871 -16.967  1.00  0.00    -0.200 F 
ENDBRANCH  54  68
BRANCH  55  79
ATOM     79  C   UNL     1      -9.183   5.587  -2.882  1.00  0.00     0.064 A 
ATOM     80  C   UNL     1     -10.284   5.247  -2.083  1.00  0.00     0.173 A 
ATOM     81  C   UNL     1      -7.997   5.959  -2.233  1.00  0.00     0.173 A 
ATOM     82  F   UNL     1     -11.446   4.903  -2.656  1.00  0.00    -0.203 F 
ATOM     83  C   UNL     1     -10.204   5.286  -0.693  1.00  0.00     0.198 A 
ATOM     84  C   UNL     1      -7.909   5.969  -0.842  1.00  0.00     0.198 A 
ATOM     85  F   UNL     1      -6.913   6.289  -2.951  1.00  0.00    -0.203 F 
ATOM     86  F   UNL     1     -11.281   4.988   0.046  1.00  0.00    -0.200 F 
ATOM     87  C   UNL     1      -9.014   5.638  -0.073  1.00  0.00     0.200 A 
ATOM     88  F   UNL     1      -6.753   6.293  -0.248  1.00  0.00    -0.200 F 
ATOM     89  F   UNL     1      -8.934   5.660   1.264  1.00  0.00    -0.200 F 
ENDBRANCH  55  79
BRANCH  67  90
ATOM     90  C   UNL     1     -12.802   9.187  -7.649  1.00  0.00     0.064 A 
ATOM     91  C   UNL     1     -12.371  10.485  -7.343  1.00  0.00     0.173 A 
ATOM     92  C   UNL     1     -14.161   8.999  -7.948  1.00  0.00     0.173 A 
ATOM     93  F   UNL     1     -11.085  10.715  -7.038  1.00  0.00    -0.203 F 
ATOM     94  C   UNL     1     -13.266  11.551  -7.326  1.00  0.00     0.198 A 
ATOM     95  C   UNL     1     -15.046  10.072  -7.963  1.00  0.00     0.198 A 
ATOM     96  F   UNL     1     -14.623   7.778  -8.257  1.00  0.00    -0.203 F 
ATOM     97  F   UNL     1     -12.838  12.778  -6.997  1.00  0.00    -0.200 F 
ATOM     98  C   UNL     1     -14.600  11.347  -7.648  1.00  0.00     0.200 A 
ATOM     99  F   UNL     1     -16.331   9.875  -8.293  1.00  0.00    -0.200 F 
ATOM    100  F   UNL     1     -15.455  12.378  -7.653  1.00  0.00    -0.200 F 
ENDBRANCH  67  90
ENDBRANCH  41  42
ENDBRANCH  33  36
ENDBRANCH  31  32
ENDBRANCH   1  31
TORSDOF 11
