REMARK SMILES O=C(NCCCNC(=O)c1ccc(-c2c3nc(c(-c4c(F)c(F)c(F)c(F)c4F)c4ccc([nH]4)c(-c4c(F)c(F)c(F)c(F)c4F)c4nc(c(-c5c(F)c(F)c(F)c(F)c5F)c5ccc2[nH]5)C=C4)C=C3)cc1)/C(=C/c1ccsc1)c1ccccc1
REMARK SMILES IDX 5 1 4 2 3 3 1 4 2 5 73 7 74 8 80 9 81 10 85 11 82 12 84 13
REMARK SMILES IDX 83 14 75 15 76 16 79 17 77 18 78 19 6 20 7 21 8 22 9 24
REMARK SMILES IDX 10 25 11 26 72 27 12 28 71 29 13 30 14 31 15 32 65 33 16 34
REMARK SMILES IDX 70 35 64 36 66 37 17 38 69 39 63 40 62 41 18 43 50 44 30 45
REMARK SMILES IDX 49 46 31 47 34 48 48 49 67 50 32 51 33 52 47 54 68 55 35 56
REMARK SMILES IDX 19 57 20 58 28 59 21 60 22 61 26 62 29 63 23 64 24 65 27 66
REMARK SMILES IDX 25 67 51 68 52 69 60 70 53 71 54 72 58 73 61 74 55 75 56 76
REMARK SMILES IDX 59 77 57 78 36 79 37 80 45 81 38 82 39 83 43 84 46 85 40 86
REMARK SMILES IDX 41 87 44 88 42 89
REMARK H PARENT 3 6 7 23 66 42 34 53
REMARK Flexibility Score: inf
ROOT
ATOM      1  C   UNL     1       4.789  -2.788   0.164  1.00  0.00     0.042 C 
ENDROOT
BRANCH   1   2
ATOM      2  C   UNL     1       4.531  -1.394  -0.373  1.00  0.00     0.118 C 
BRANCH   2   3
ATOM      3  N   UNL     1       3.138  -0.986  -0.293  1.00  0.00    -0.352 N 
ATOM      4  O   UNL     1       1.297   0.190  -0.005  1.00  0.00    -0.269 OA
ATOM      5  C   UNL     1       2.527   0.170   0.095  1.00  0.00     0.251 C 
ATOM      6  H   UNL     1       2.507  -1.686  -0.577  1.00  0.00     0.163 HD
BRANCH   5   7
ATOM      7  C   UNL     1       3.276   1.363   0.634  1.00  0.00     0.047 C 
ATOM      8  C   UNL     1       2.513   2.314   1.226  1.00  0.00     0.023 C 
BRANCH   7   9
ATOM      9  C   UNL     1       4.740   1.506   0.581  1.00  0.00    -0.013 A 
ATOM     10  C   UNL     1       5.498   1.408   1.761  1.00  0.00     0.009 A 
ATOM     11  C   UNL     1       5.396   1.686  -0.645  1.00  0.00     0.009 A 
ATOM     12  C   UNL     1       6.889   1.456   1.710  1.00  0.00     0.001 A 
ATOM     13  C   UNL     1       6.791   1.717  -0.693  1.00  0.00     0.001 A 
ATOM     14  C   UNL     1       7.534   1.598   0.482  1.00  0.00     0.000 A 
ENDBRANCH   7   9
BRANCH   8  15
ATOM     15  C   UNL     1       2.971   3.523   1.851  1.00  0.00    -0.014 A 
ATOM     16  C   UNL     1       3.920   4.448   1.318  1.00  0.00     0.020 A 
ATOM     17  C   UNL     1       2.524   3.916   3.095  1.00  0.00     0.073 A 
ATOM     18  C   UNL     1       4.226   5.453   2.209  1.00  0.00     0.065 A 
ATOM     19  S   UNL     1       3.317   5.329   3.651  1.00  0.00    -0.152 S 
ENDBRANCH   8  15
ENDBRANCH   5   7
ENDBRANCH   2   3
ENDBRANCH   1   2
BRANCH   1  20
ATOM     20  C   UNL     1       4.159  -3.901  -0.649  1.00  0.00     0.118 C 
BRANCH  20  21
ATOM     21  N   UNL     1       4.710  -4.010  -1.993  1.00  0.00    -0.352 N 
ATOM     22  C   UNL     1       5.541  -4.941  -2.567  1.00  0.00     0.251 C 
ATOM     23  H   UNL     1       4.439  -3.284  -2.600  1.00  0.00     0.163 HD
ATOM     24  O   UNL     1       6.009  -4.718  -3.681  1.00  0.00    -0.269 OA
BRANCH  22  25
ATOM     25  C   UNL     1       5.907  -6.192  -1.862  1.00  0.00     0.039 A 
ATOM     26  C   UNL     1       7.184  -6.727  -2.059  1.00  0.00     0.014 A 
ATOM     27  C   UNL     1       5.005  -6.866  -1.039  1.00  0.00     0.014 A 
ATOM     28  C   UNL     1       7.569  -7.886  -1.379  1.00  0.00     0.010 A 
ATOM     29  C   UNL     1       5.430  -7.939  -0.263  1.00  0.00     0.010 A 
ATOM     30  C   UNL     1       6.709  -8.479  -0.440  1.00  0.00    -0.014 A 
BRANCH  30  31
ATOM     31  C   UNL     1       7.126  -9.675   0.339  1.00  0.00     0.031 A 
ATOM     32  C   UNL     1       6.345 -10.960   0.242  1.00  0.00     0.074 A 
ATOM     33  C   UNL     1       8.178  -9.588   1.177  1.00  0.00     0.049 A 
ATOM     34  N   UNL     1       6.545 -12.100   0.857  1.00  0.00    -0.248 NA
ATOM     35  C   UNL     1       5.160 -10.958  -0.632  1.00  0.00     0.031 C 
ATOM     36  C   UNL     1       8.964  -8.378   1.427  1.00  0.00     0.029 A 
ATOM     37  N   UNL     1       8.769 -10.536   1.975  1.00  0.00    -0.354 N 
ATOM     38  C   UNL     1       5.505 -12.932   0.462  1.00  0.00     0.074 A 
ATOM     39  C   UNL     1       4.638 -12.151  -0.391  1.00  0.00     0.031 C 
ATOM     40  C   UNL     1       9.957  -8.666   2.282  1.00  0.00     0.029 A 
ATOM     41  C   UNL     1       9.861 -10.070   2.666  1.00  0.00     0.049 A 
ATOM     42  H   UNL     1       8.442 -11.461   2.045  1.00  0.00     0.167 HD
ATOM     43  C   UNL     1       5.308 -14.239   0.754  1.00  0.00     0.037 A 
ATOM     44  C   UNL     1      10.695 -10.707   3.509  1.00  0.00     0.037 A 
ATOM     45  C   UNL     1       6.197 -15.027   1.566  1.00  0.00     0.049 A 
ATOM     46  C   UNL     1      10.484 -12.173   3.775  1.00  0.00     0.074 A 
ATOM     47  C   UNL     1       6.133 -16.378   1.857  1.00  0.00     0.029 A 
ATOM     48  N   UNL     1       7.318 -14.531   2.215  1.00  0.00    -0.354 N 
ATOM     49  N   UNL     1       9.548 -12.971   3.322  1.00  0.00    -0.248 NA
ATOM     50  C   UNL     1      11.457 -12.829   4.659  1.00  0.00     0.031 C 
ATOM     51  C   UNL     1       7.190 -16.690   2.719  1.00  0.00     0.029 A 
ATOM     52  C   UNL     1       7.944 -15.545   2.921  1.00  0.00     0.049 A 
ATOM     53  H   UNL     1       7.624 -13.595   2.179  1.00  0.00     0.167 HD
ATOM     54  C   UNL     1       9.831 -14.226   3.844  1.00  0.00     0.074 A 
ATOM     55  C   UNL     1      11.042 -14.087   4.625  1.00  0.00     0.031 C 
ATOM     56  C   UNL     1       9.148 -15.388   3.695  1.00  0.00     0.037 A 
BRANCH  43  57
ATOM     57  C   UNL     1       4.090 -14.906   0.180  1.00  0.00     0.064 A 
ATOM     58  C   UNL     1       3.965 -15.156  -1.196  1.00  0.00     0.173 A 
ATOM     59  C   UNL     1       3.050 -15.335   1.018  1.00  0.00     0.173 A 
ATOM     60  F   UNL     1       4.924 -14.756  -2.045  1.00  0.00    -0.203 F 
ATOM     61  C   UNL     1       2.834 -15.783  -1.713  1.00  0.00     0.198 A 
ATOM     62  C   UNL     1       1.935 -15.991   0.502  1.00  0.00     0.198 A 
ATOM     63  F   UNL     1       3.118 -15.126   2.342  1.00  0.00    -0.203 F 
ATOM     64  F   UNL     1       2.715 -15.963  -3.036  1.00  0.00    -0.200 F 
ATOM     65  C   UNL     1       1.824 -16.207  -0.863  1.00  0.00     0.200 A 
ATOM     66  F   UNL     1       0.965 -16.412   1.326  1.00  0.00    -0.200 F 
ATOM     67  F   UNL     1       0.740 -16.818  -1.361  1.00  0.00    -0.200 F 
ENDBRANCH  43  57
BRANCH  44  68
ATOM     68  C   UNL     1      11.833  -9.975   4.127  1.00  0.00     0.064 A 
ATOM     69  C   UNL     1      13.156 -10.259   3.760  1.00  0.00     0.173 A 
ATOM     70  C   UNL     1      11.623  -8.985   5.097  1.00  0.00     0.173 A 
ATOM     71  F   UNL     1      13.410 -11.209   2.849  1.00  0.00    -0.203 F 
ATOM     72  C   UNL     1      14.227  -9.600   4.362  1.00  0.00     0.198 A 
ATOM     73  C   UNL     1      12.693  -8.306   5.675  1.00  0.00     0.198 A 
ATOM     74  F   UNL     1      10.376  -8.669   5.476  1.00  0.00    -0.203 F 
ATOM     75  F   UNL     1      15.483  -9.928   4.030  1.00  0.00    -0.200 F 
ATOM     76  C   UNL     1      13.995  -8.621   5.315  1.00  0.00     0.200 A 
ATOM     77  F   UNL     1      12.464  -7.348   6.584  1.00  0.00    -0.200 F 
ATOM     78  F   UNL     1      15.024  -7.986   5.891  1.00  0.00    -0.200 F 
ENDBRANCH  44  68
BRANCH  56  79
ATOM     79  C   UNL     1       9.715 -16.602   4.372  1.00  0.00     0.064 A 
ATOM     80  C   UNL     1       9.703 -16.739   5.769  1.00  0.00     0.173 A 
ATOM     81  C   UNL     1      10.268 -17.645   3.615  1.00  0.00     0.173 A 
ATOM     82  F   UNL     1       9.196 -15.764   6.538  1.00  0.00    -0.203 F 
ATOM     83  C   UNL     1      10.262 -17.856   6.383  1.00  0.00     0.198 A 
ATOM     84  C   UNL     1      10.796 -18.776   4.230  1.00  0.00     0.198 A 
ATOM     85  F   UNL     1      10.296 -17.568   2.276  1.00  0.00    -0.203 F 
ATOM     86  F   UNL     1      10.298 -17.935   7.720  1.00  0.00    -0.200 F 
ATOM     87  C   UNL     1      10.803 -18.875   5.613  1.00  0.00     0.200 A 
ATOM     88  F   UNL     1      11.305 -19.767   3.485  1.00  0.00    -0.200 F 
ATOM     89  F   UNL     1      11.343 -19.949   6.206  1.00  0.00    -0.200 F 
ENDBRANCH  56  79
ENDBRANCH  30  31
ENDBRANCH  22  25
ENDBRANCH  20  21
ENDBRANCH   1  20
TORSDOF 12
