REMARK SMILES O=C(NCCCNC(=O)[C@H]1C=C[C@@H](NC(=O)c2ccc(Cl)cn2)C1)c1ccc(-c2c3nc(c(-c4c(F)c(F)c(F)c(F)c4F)c4ccc([nH]4)c(-c4c(F)c(F)c(F)c(F)c4F)c4nc(c(-c5c(F)c(F)c(F)c(F)c5F)c5ccc2[nH]5)C=C4)C=C3)cc1
REMARK SMILES IDX 5 1 4 2 3 3 1 4 2 5 25 7 26 8 87 9 27 10 86 11 28 12 29 13
REMARK SMILES IDX 30 14 80 15 31 16 85 17 79 18 81 19 32 20 84 21 78 22 77 23
REMARK SMILES IDX 33 25 65 26 45 27 64 28 46 29 49 30 63 31 82 32 47 33 48 34
REMARK SMILES IDX 62 36 83 37 50 38 34 39 35 40 43 41 36 42 37 43 41 44 44 45
REMARK SMILES IDX 38 46 39 47 42 48 40 49 66 50 67 51 75 52 68 53 69 54 73 55
REMARK SMILES IDX 76 56 70 57 71 58 74 59 72 60 51 61 52 62 60 63 53 64 54 65
REMARK SMILES IDX 58 66 61 67 55 68 56 69 59 70 57 71 6 72 7 73 8 74 9 76
REMARK SMILES IDX 10 77 11 78 24 79 12 80 13 81 14 82 15 83 16 85 17 86 18 87
REMARK SMILES IDX 23 88 19 89 22 90 20 91 21 92
REMARK H PARENT 3 6 81 24 49 35 7 75 14 84
REMARK Flexibility Score: inf
ROOT
ATOM      1  C   UNL     1       4.986  -2.342  -0.058  1.00  0.00     0.042 C 
ENDROOT
BRANCH   1   2
ATOM      2  C   UNL     1       4.594  -1.075  -0.801  1.00  0.00     0.118 C 
BRANCH   2   3
ATOM      3  N   UNL     1       3.157  -0.834  -0.819  1.00  0.00    -0.352 N 
ATOM      4  O   UNL     1       1.179   0.075  -0.240  1.00  0.00    -0.269 OA
ATOM      5  C   UNL     1       2.405   0.143  -0.212  1.00  0.00     0.251 C 
ATOM      6  H   UNL     1       2.639  -1.478  -1.355  1.00  0.00     0.163 HD
BRANCH   5   7
ATOM      7  C   UNL     1       3.061   1.252   0.514  1.00  0.00     0.039 A 
ATOM      8  C   UNL     1       4.198   1.873   0.000  1.00  0.00     0.014 A 
ATOM      9  C   UNL     1       2.533   1.675   1.738  1.00  0.00     0.014 A 
ATOM     10  C   UNL     1       4.927   2.746   0.797  1.00  0.00     0.010 A 
ATOM     11  C   UNL     1       3.204   2.646   2.488  1.00  0.00     0.010 A 
ATOM     12  C   UNL     1       4.439   3.148   2.051  1.00  0.00    -0.014 A 
BRANCH  12  13
ATOM     13  C   UNL     1       5.237   4.101   2.865  1.00  0.00     0.031 A 
ATOM     14  C   UNL     1       5.782   3.708   4.213  1.00  0.00     0.074 A 
ATOM     15  C   UNL     1       5.520   5.315   2.353  1.00  0.00     0.049 A 
ATOM     16  N   UNL     1       6.538   4.399   5.030  1.00  0.00    -0.248 NA
ATOM     17  C   UNL     1       5.426   2.373   4.716  1.00  0.00     0.031 C 
ATOM     18  C   UNL     1       5.041   5.816   1.063  1.00  0.00     0.029 A 
ATOM     19  N   UNL     1       6.301   6.334   2.834  1.00  0.00    -0.354 N 
ATOM     20  C   UNL     1       6.718   3.600   6.153  1.00  0.00     0.074 A 
ATOM     21  C   UNL     1       5.977   2.379   5.922  1.00  0.00     0.031 C 
ATOM     22  C   UNL     1       5.592   7.014   0.823  1.00  0.00     0.029 A 
ATOM     23  C   UNL     1       6.409   7.396   1.969  1.00  0.00     0.049 A 
ATOM     24  H   UNL     1       6.742   6.308   3.715  1.00  0.00     0.167 HD
ATOM     25  C   UNL     1       7.441   3.860   7.269  1.00  0.00     0.037 A 
ATOM     26  C   UNL     1       7.087   8.552   2.086  1.00  0.00     0.037 A 
ATOM     27  C   UNL     1       8.210   5.060   7.479  1.00  0.00     0.049 A 
ATOM     28  C   UNL     1       7.886   8.807   3.330  1.00  0.00     0.074 A 
ATOM     29  C   UNL     1       9.011   5.396   8.557  1.00  0.00     0.029 A 
ATOM     30  N   UNL     1       8.274   6.123   6.590  1.00  0.00    -0.354 N 
ATOM     31  N   UNL     1       8.071   8.030   4.368  1.00  0.00    -0.248 NA
ATOM     32  C   UNL     1       8.568  10.105   3.419  1.00  0.00     0.031 C 
ATOM     33  C   UNL     1       9.527   6.678   8.339  1.00  0.00     0.029 A 
ATOM     34  C   UNL     1       9.086   7.122   7.103  1.00  0.00     0.049 A 
ATOM     35  H   UNL     1       7.810   6.162   5.722  1.00  0.00     0.167 HD
ATOM     36  C   UNL     1       8.909   8.731   5.223  1.00  0.00     0.074 A 
ATOM     37  C   UNL     1       9.209   9.991   4.574  1.00  0.00     0.031 C 
ATOM     38  C   UNL     1       9.384   8.365   6.439  1.00  0.00     0.037 A 
BRANCH  25  39
ATOM     39  C   UNL     1       7.422   2.834   8.367  1.00  0.00     0.064 A 
ATOM     40  C   UNL     1       8.090   1.607   8.246  1.00  0.00     0.173 A 
ATOM     41  C   UNL     1       6.758   3.103   9.574  1.00  0.00     0.173 A 
ATOM     42  F   UNL     1       8.729   1.294   7.109  1.00  0.00    -0.203 F 
ATOM     43  C   UNL     1       8.072   0.676   9.284  1.00  0.00     0.198 A 
ATOM     44  C   UNL     1       6.765   2.183  10.619  1.00  0.00     0.198 A 
ATOM     45  F   UNL     1       6.109   4.265   9.744  1.00  0.00    -0.203 F 
ATOM     46  F   UNL     1       8.679  -0.509   9.129  1.00  0.00    -0.200 F 
ATOM     47  C   UNL     1       7.416   0.968  10.470  1.00  0.00     0.200 A 
ATOM     48  F   UNL     1       6.141   2.471  11.769  1.00  0.00    -0.200 F 
ATOM     49  F   UNL     1       7.405   0.073  11.469  1.00  0.00    -0.200 F 
ENDBRANCH  25  39
BRANCH  26  50
ATOM     50  C   UNL     1       7.048   9.543   0.981  1.00  0.00     0.064 A 
ATOM     51  C   UNL     1       8.185   9.795   0.202  1.00  0.00     0.173 A 
ATOM     52  C   UNL     1       5.873  10.243   0.670  1.00  0.00     0.173 A 
ATOM     53  F   UNL     1       9.336   9.162   0.473  1.00  0.00    -0.203 F 
ATOM     54  C   UNL     1       8.152  10.720  -0.839  1.00  0.00     0.198 A 
ATOM     55  C   UNL     1       5.833  11.146  -0.390  1.00  0.00     0.198 A 
ATOM     56  F   UNL     1       4.757  10.031   1.382  1.00  0.00    -0.203 F 
ATOM     57  F   UNL     1       9.263  10.970  -1.545  1.00  0.00    -0.200 F 
ATOM     58  C   UNL     1       6.975  11.389  -1.139  1.00  0.00     0.200 A 
ATOM     59  F   UNL     1       4.689  11.776  -0.686  1.00  0.00    -0.200 F 
ATOM     60  F   UNL     1       6.941  12.271  -2.146  1.00  0.00    -0.200 F 
ENDBRANCH  26  50
BRANCH  38  61
ATOM     61  C   UNL     1      10.314   9.323   7.122  1.00  0.00     0.064 A 
ATOM     62  C   UNL     1       9.854  10.523   7.683  1.00  0.00     0.173 A 
ATOM     63  C   UNL     1      11.681   9.026   7.230  1.00  0.00     0.173 A 
ATOM     64  F   UNL     1       8.558  10.859   7.590  1.00  0.00    -0.203 F 
ATOM     65  C   UNL     1      10.735  11.406   8.301  1.00  0.00     0.198 A 
ATOM     66  C   UNL     1      12.554   9.898   7.873  1.00  0.00     0.198 A 
ATOM     67  F   UNL     1      12.169   7.888   6.714  1.00  0.00    -0.203 F 
ATOM     68  F   UNL     1      10.283  12.572   8.783  1.00  0.00    -0.200 F 
ATOM     69  C   UNL     1      12.082  11.091   8.400  1.00  0.00     0.200 A 
ATOM     70  F   UNL     1      13.853   9.587   7.978  1.00  0.00    -0.200 F 
ATOM     71  F   UNL     1      12.928  11.942   8.996  1.00  0.00    -0.200 F 
ENDBRANCH  38  61
ENDBRANCH  12  13
ENDBRANCH   5   7
ENDBRANCH   2   3
ENDBRANCH   1   2
BRANCH   1  72
ATOM     72  C   UNL     1       4.468  -3.623  -0.688  1.00  0.00     0.117 C 
BRANCH  72  73
ATOM     73  N   UNL     1       4.875  -3.772  -2.074  1.00  0.00    -0.356 N 
ATOM     74  C   UNL     1       5.502  -4.817  -2.691  1.00  0.00     0.227 C 
ATOM     75  H   UNL     1       4.667  -3.006  -2.656  1.00  0.00     0.163 HD
ATOM     76  O   UNL     1       5.725  -4.716  -3.897  1.00  0.00    -0.274 OA
BRANCH  74  77
ATOM     77  C   UNL     1       5.946  -6.015  -1.856  1.00  0.00     0.103 C 
ATOM     78  C   UNL     1       4.793  -6.787  -1.273  1.00  0.00    -0.016 C 
ATOM     79  C   UNL     1       6.651  -7.096  -2.694  1.00  0.00     0.047 C 
ATOM     80  C   UNL     1       4.995  -8.104  -1.346  1.00  0.00    -0.006 C 
ATOM     81  C   UNL     1       6.275  -8.428  -2.040  1.00  0.00     0.106 C 
BRANCH  81  82
ATOM     82  N   UNL     1       5.980  -9.476  -2.984  1.00  0.00    -0.344 N 
ATOM     83  C   UNL     1       6.342 -10.802  -2.927  1.00  0.00     0.270 C 
ATOM     84  H   UNL     1       5.452  -9.209  -3.771  1.00  0.00     0.164 HD
ATOM     85  O   UNL     1       5.919 -11.596  -3.762  1.00  0.00    -0.267 OA
BRANCH  83  86
ATOM     86  C   UNL     1       7.255 -11.259  -1.844  1.00  0.00     0.128 A 
ATOM     87  C   UNL     1       6.841 -11.232  -0.514  1.00  0.00     0.036 A 
ATOM     88  N   UNL     1       8.498 -11.634  -2.240  1.00  0.00    -0.250 NA
ATOM     89  C   UNL     1       7.767 -11.575   0.471  1.00  0.00     0.024 A 
ATOM     90  C   UNL     1       9.361 -11.992  -1.260  1.00  0.00     0.132 A 
ATOM     91  C   UNL     1       9.049 -11.964   0.091  1.00  0.00     0.059 A 
ATOM     92  Cl  UNL     1      10.218 -12.384   1.274  1.00  0.00    -0.083 Cl
ENDBRANCH  83  86
ENDBRANCH  81  82
ENDBRANCH  74  77
ENDBRANCH  72  73
ENDBRANCH   1  72
TORSDOF 12
