REMARK SMILES CC(C)C[C@@H](CNC(=O)[C@@H]1CCOC1)C(=O)NCCCNC(=O)c1ccc(-c2c3nc(c(-c4c(F)c(F)c(F)c(F)c4F)c4ccc([nH]4)c(-c4c(F)c(F)c(F)c(F)c4F)c4nc(c(-c5c(F)c(F)c(F)c(F)c5F)c5ccc2[nH]5)C=C4)C=C3)cc1
REMARK SMILES IDX 18 1 17 2 15 3 16 4 5 6 4 7 2 8 1 9 3 10 6 11 7 12 8 13 9 15
REMARK SMILES IDX 10 16 11 17 14 18 12 19 13 20 19 21 20 22 21 23 22 24 23 26
REMARK SMILES IDX 24 27 25 28 86 29 26 30 85 31 27 32 28 33 29 34 79 35 30 36
REMARK SMILES IDX 84 37 78 38 80 39 31 40 83 41 77 42 76 43 32 45 64 46 44 47
REMARK SMILES IDX 63 48 45 49 48 50 62 51 81 52 46 53 47 54 61 56 82 57 49 58
REMARK SMILES IDX 33 59 34 60 42 61 35 62 36 63 40 64 43 65 37 66 38 67 41 68
REMARK SMILES IDX 39 69 65 70 66 71 74 72 67 73 68 74 72 75 75 76 69 77 70 78
REMARK SMILES IDX 73 79 71 80 50 81 51 82 59 83 52 84 53 85 57 86 60 87 54 88
REMARK SMILES IDX 55 89 58 90 56 91
REMARK H PARENT 17 5 7 14 21 25 80 44 48 55
REMARK Flexibility Score: inf
ROOT
ATOM      1  C   UNL     1      -3.192   2.211  -2.885  1.00  0.00     0.117 C 
ENDROOT
BRANCH   1   2
ATOM      2  N   UNL     1      -3.591   1.825  -1.542  1.00  0.00    -0.356 N 
ATOM      3  C   UNL     1      -2.870   1.585  -0.417  1.00  0.00     0.224 C 
ATOM      4  O   UNL     1      -3.510   1.405   0.624  1.00  0.00    -0.275 OA
ATOM      5  H   UNL     1      -4.563   1.719  -1.427  1.00  0.00     0.163 HD
BRANCH   3   6
ATOM      6  C   UNL     1      -1.345   1.558  -0.382  1.00  0.00     0.098 C 
BRANCH   6   7
ATOM      7  C   UNL     1      -0.742   0.529  -1.359  1.00  0.00     0.018 C 
BRANCH   7   8
ATOM      8  C   UNL     1       0.793   0.400  -1.354  1.00  0.00    -0.017 C 
ATOM      9  C   UNL     1       1.343  -0.035   0.004  1.00  0.00     0.007 C 
ATOM     10  C   UNL     1       1.222  -0.607  -2.428  1.00  0.00     0.007 C 
ENDBRANCH   7   8
ENDBRANCH   6   7
BRANCH   6  11
ATOM     11  C   UNL     1      -0.738   2.973  -0.336  1.00  0.00     0.129 C 
BRANCH  11  12
ATOM     12  N   UNL     1      -0.786   3.720  -1.578  1.00  0.00    -0.355 N 
ATOM     13  C   UNL     1      -1.579   4.779  -1.925  1.00  0.00     0.225 C 
ATOM     14  H   UNL     1      -0.156   3.421  -2.273  1.00  0.00     0.163 HD
ATOM     15  O   UNL     1      -1.580   5.132  -3.104  1.00  0.00    -0.275 OA
BRANCH  13  16
ATOM     16  C   UNL     1      -2.438   5.449  -0.863  1.00  0.00     0.106 C 
ATOM     17  C   UNL     1      -3.495   6.368  -1.441  1.00  0.00     0.044 C 
ATOM     18  C   UNL     1      -1.581   6.407  -0.055  1.00  0.00     0.173 C 
ATOM     19  C   UNL     1      -2.742   7.664  -1.639  1.00  0.00     0.161 C 
ATOM     20  O   UNL     1      -1.774   7.729  -0.584  1.00  0.00    -0.381 OA
ENDBRANCH  13  16
ENDBRANCH  11  12
ENDBRANCH   6  11
ENDBRANCH   3   6
ENDBRANCH   1   2
BRANCH   1  21
ATOM     21  C   UNL     1      -3.658   1.233  -3.946  1.00  0.00     0.042 C 
BRANCH  21  22
ATOM     22  C   UNL     1      -5.161   1.277  -4.172  1.00  0.00     0.118 C 
BRANCH  22  23
ATOM     23  N   UNL     1      -5.616   2.552  -4.721  1.00  0.00    -0.352 N 
ATOM     24  C   UNL     1      -6.133   2.853  -5.958  1.00  0.00     0.251 C 
ATOM     25  H   UNL     1      -5.539   3.317  -4.107  1.00  0.00     0.163 HD
ATOM     26  O   UNL     1      -6.306   4.021  -6.291  1.00  0.00    -0.269 OA
BRANCH  24  27
ATOM     27  C   UNL     1      -6.458   1.764  -6.898  1.00  0.00     0.039 A 
ATOM     28  C   UNL     1      -6.064   1.868  -8.234  1.00  0.00     0.014 A 
ATOM     29  C   UNL     1      -7.128   0.626  -6.447  1.00  0.00     0.014 A 
ATOM     30  C   UNL     1      -6.255   0.786  -9.096  1.00  0.00     0.010 A 
ATOM     31  C   UNL     1      -7.221  -0.484  -7.273  1.00  0.00     0.010 A 
ATOM     32  C   UNL     1      -6.786  -0.417  -8.606  1.00  0.00    -0.014 A 
BRANCH  32  33
ATOM     33  C   UNL     1      -6.924  -1.630  -9.449  1.00  0.00     0.031 A 
ATOM     34  C   UNL     1      -8.285  -2.237  -9.645  1.00  0.00     0.074 A 
ATOM     35  C   UNL     1      -5.826  -2.252  -9.922  1.00  0.00     0.049 A 
ATOM     36  N   UNL     1      -8.612  -3.402 -10.140  1.00  0.00    -0.248 NA
ATOM     37  C   UNL     1      -9.430  -1.442  -9.171  1.00  0.00     0.031 C 
ATOM     38  C   UNL     1      -4.448  -1.786  -9.761  1.00  0.00     0.029 A 
ATOM     39  N   UNL     1      -5.698  -3.431 -10.613  1.00  0.00    -0.354 N 
ATOM     40  C   UNL     1      -9.989  -3.498  -9.994  1.00  0.00     0.074 A 
ATOM     41  C   UNL     1     -10.432  -2.294  -9.325  1.00  0.00     0.031 C 
ATOM     42  C   UNL     1      -3.616  -2.660 -10.348  1.00  0.00     0.029 A 
ATOM     43  C   UNL     1      -4.395  -3.772 -10.883  1.00  0.00     0.049 A 
ATOM     44  H   UNL     1      -6.467  -3.980 -10.889  1.00  0.00     0.167 HD
ATOM     45  C   UNL     1     -10.813  -4.493 -10.399  1.00  0.00     0.037 A 
ATOM     46  C   UNL     1      -3.888  -4.868 -11.478  1.00  0.00     0.037 A 
ATOM     47  C   UNL     1     -10.371  -5.657 -11.117  1.00  0.00     0.049 A 
ATOM     48  C   UNL     1      -4.827  -5.943 -11.954  1.00  0.00     0.074 A 
ATOM     49  C   UNL     1     -11.129  -6.692 -11.634  1.00  0.00     0.029 A 
ATOM     50  N   UNL     1      -9.048  -5.932 -11.432  1.00  0.00    -0.354 N 
ATOM     51  N   UNL     1      -6.132  -6.007 -11.847  1.00  0.00    -0.248 NA
ATOM     52  C   UNL     1      -4.225  -7.098 -12.635  1.00  0.00     0.031 C 
ATOM     53  C   UNL     1     -10.262  -7.608 -12.238  1.00  0.00     0.029 A 
ATOM     54  C   UNL     1      -8.968  -7.122 -12.133  1.00  0.00     0.049 A 
ATOM     55  H   UNL     1      -8.280  -5.364 -11.192  1.00  0.00     0.167 HD
ATOM     56  C   UNL     1      -6.510  -7.184 -12.476  1.00  0.00     0.074 A 
ATOM     57  C   UNL     1      -5.296  -7.805 -12.965  1.00  0.00     0.031 C 
ATOM     58  C   UNL     1      -7.751  -7.704 -12.636  1.00  0.00     0.037 A 
BRANCH  45  59
ATOM     59  C   UNL     1     -12.273  -4.357 -10.083  1.00  0.00     0.064 A 
ATOM     60  C   UNL     1     -13.078  -3.399 -10.716  1.00  0.00     0.173 A 
ATOM     61  C   UNL     1     -12.881  -5.213  -9.151  1.00  0.00     0.173 A 
ATOM     62  F   UNL     1     -12.543  -2.547 -11.604  1.00  0.00    -0.203 F 
ATOM     63  C   UNL     1     -14.430  -3.279 -10.404  1.00  0.00     0.198 A 
ATOM     64  C   UNL     1     -14.240  -5.111  -8.865  1.00  0.00     0.198 A 
ATOM     65  F   UNL     1     -12.158  -6.150  -8.520  1.00  0.00    -0.203 F 
ATOM     66  F   UNL     1     -15.166  -2.319 -10.981  1.00  0.00    -0.200 F 
ATOM     67  C   UNL     1     -15.011  -4.139  -9.485  1.00  0.00     0.200 A 
ATOM     68  F   UNL     1     -14.803  -5.951  -7.985  1.00  0.00    -0.200 F 
ATOM     69  F   UNL     1     -16.313  -4.026  -9.190  1.00  0.00    -0.200 F 
ENDBRANCH  45  59
BRANCH  46  70
ATOM     70  C   UNL     1      -2.421  -4.991 -11.683  1.00  0.00     0.064 A 
ATOM     71  C   UNL     1      -1.868  -4.885 -12.967  1.00  0.00     0.173 A 
ATOM     72  C   UNL     1      -1.545  -5.210 -10.611  1.00  0.00     0.173 A 
ATOM     73  F   UNL     1      -2.668  -4.695 -14.026  1.00  0.00    -0.203 F 
ATOM     74  C   UNL     1      -0.496  -5.013 -13.173  1.00  0.00     0.198 A 
ATOM     75  C   UNL     1      -0.170  -5.312 -10.815  1.00  0.00     0.198 A 
ATOM     76  F   UNL     1      -2.023  -5.311  -9.362  1.00  0.00    -0.203 F 
ATOM     77  F   UNL     1       0.001  -4.949 -14.416  1.00  0.00    -0.200 F 
ATOM     78  C   UNL     1       0.352  -5.221 -12.096  1.00  0.00     0.200 A 
ATOM     79  F   UNL     1       0.648  -5.499  -9.770  1.00  0.00    -0.200 F 
ATOM     80  F   UNL     1       1.672  -5.340 -12.294  1.00  0.00    -0.200 F 
ENDBRANCH  46  70
BRANCH  58  81
ATOM     81  C   UNL     1      -7.872  -8.975 -13.422  1.00  0.00     0.064 A 
ATOM     82  C   UNL     1      -7.504 -10.213 -12.880  1.00  0.00     0.173 A 
ATOM     83  C   UNL     1      -8.430  -8.955 -14.709  1.00  0.00     0.173 A 
ATOM     84  F   UNL     1      -6.954 -10.280 -11.659  1.00  0.00    -0.203 F 
ATOM     85  C   UNL     1      -7.681 -11.389 -13.605  1.00  0.00     0.198 A 
ATOM     86  C   UNL     1      -8.627 -10.134 -15.421  1.00  0.00     0.198 A 
ATOM     87  F   UNL     1      -8.802  -7.793 -15.267  1.00  0.00    -0.203 F 
ATOM     88  F   UNL     1      -7.295 -12.560 -13.082  1.00  0.00    -0.200 F 
ATOM     89  C   UNL     1      -8.250 -11.349 -14.870  1.00  0.00     0.200 A 
ATOM     90  F   UNL     1      -9.189 -10.094 -16.637  1.00  0.00    -0.200 F 
ATOM     91  F   UNL     1      -8.432 -12.483 -15.560  1.00  0.00    -0.200 F 
ENDBRANCH  58  81
ENDBRANCH  32  33
ENDBRANCH  24  27
ENDBRANCH  22  23
ENDBRANCH  21  22
ENDBRANCH   1  21
TORSDOF 15
