REMARK SMILES C=CCN(CC(=O)NCCCNC(=O)c1ccc(-c2c3nc(c(-c4c(F)c(F)c(F)c(F)c4F)c4ccc([nH]4)c(-c4c(F)c(F)c(F)c(F)c4F)c4nc(c(-c5c(F)c(F)c(F)c(F)c5F)c5ccc2[nH]5)C=C4)C=C3)cc1)C(=O)NC
REMARK SMILES IDX 9 1 8 2 6 3 7 4 5 6 4 7 3 8 2 9 1 10 78 11 79 12 80 13 81 14
REMARK SMILES IDX 10 16 11 17 12 18 13 19 14 21 15 22 16 23 77 24 17 25 76 26
REMARK SMILES IDX 18 27 19 28 20 29 70 30 21 31 75 32 69 33 71 34 22 35 74 36
REMARK SMILES IDX 68 37 67 38 23 40 55 41 35 42 54 43 36 44 39 45 53 46 72 47
REMARK SMILES IDX 37 48 38 49 52 51 73 52 40 53 24 54 25 55 33 56 26 57 27 58
REMARK SMILES IDX 31 59 34 60 28 61 29 62 32 63 30 64 56 65 57 66 65 67 58 68
REMARK SMILES IDX 59 69 63 70 66 71 60 72 61 73 64 74 62 75 41 76 42 77 50 78
REMARK SMILES IDX 43 79 44 80 48 81 51 82 45 83 46 84 49 85 47 86
REMARK H PARENT 8 5 80 15 12 20 71 39 39 50
REMARK Flexibility Score: inf
ROOT
ATOM      1  C   UNL     1      -4.407  -0.007  -1.014  1.00  0.00     0.117 C 
ENDROOT
BRANCH   1   2
ATOM      2  N   UNL     1      -4.659   1.171  -1.815  1.00  0.00    -0.354 N 
ATOM      3  C   UNL     1      -3.838   1.813  -2.695  1.00  0.00     0.239 C 
ATOM      4  O   UNL     1      -4.365   2.607  -3.481  1.00  0.00    -0.273 OA
ATOM      5  H   UNL     1      -5.554   1.566  -1.711  1.00  0.00     0.163 HD
BRANCH   3   6
ATOM      6  C   UNL     1      -2.345   1.468  -2.810  1.00  0.00     0.221 C 
BRANCH   6   7
ATOM      7  N   UNL     1      -1.589   1.572  -1.560  1.00  0.00    -0.312 N 
BRANCH   7   8
ATOM      8  C   UNL     1      -0.999   0.337  -1.043  1.00  0.00     0.149 C 
BRANCH   8   9
ATOM      9  C   UNL     1       0.490   0.336  -1.230  1.00  0.00    -0.013 C 
ATOM     10  C   UNL     1       1.353   0.133  -0.224  1.00  0.00     0.006 C 
ENDBRANCH   8   9
ENDBRANCH   7   8
BRANCH   7  11
ATOM     11  C   UNL     1      -1.380   2.707  -0.826  1.00  0.00     0.317 C 
ATOM     12  O   UNL     1      -0.905   2.661   0.314  1.00  0.00    -0.249 OA
ATOM     13  N   UNL     1      -1.689   3.942  -1.256  1.00  0.00    -0.341 N 
ATOM     14  C   UNL     1      -2.164   4.552  -2.476  1.00  0.00     0.144 C 
ATOM     15  H   UNL     1      -1.556   4.612  -0.547  1.00  0.00     0.165 HD
ENDBRANCH   7  11
ENDBRANCH   6   7
ENDBRANCH   3   6
ENDBRANCH   1   2
BRANCH   1  16
ATOM     16  C   UNL     1      -4.215   0.297   0.468  1.00  0.00     0.042 C 
BRANCH  16  17
ATOM     17  C   UNL     1      -5.451   0.852   1.168  1.00  0.00     0.118 C 
BRANCH  17  18
ATOM     18  N   UNL     1      -6.589  -0.055   1.113  1.00  0.00    -0.352 N 
ATOM     19  C   UNL     1      -7.313  -0.656   2.107  1.00  0.00     0.251 C 
ATOM     20  H   UNL     1      -6.889  -0.274   0.201  1.00  0.00     0.163 HD
ATOM     21  O   UNL     1      -8.122  -1.535   1.804  1.00  0.00    -0.269 OA
BRANCH  19  22
ATOM     22  C   UNL     1      -7.147  -0.285   3.530  1.00  0.00     0.039 A 
ATOM     23  C   UNL     1      -7.263  -1.291   4.497  1.00  0.00     0.014 A 
ATOM     24  C   UNL     1      -6.959   1.039   3.933  1.00  0.00     0.014 A 
ATOM     25  C   UNL     1      -7.147  -0.978   5.853  1.00  0.00     0.010 A 
ATOM     26  C   UNL     1      -6.769   1.341   5.281  1.00  0.00     0.010 A 
ATOM     27  C   UNL     1      -6.875   0.339   6.256  1.00  0.00    -0.014 A 
BRANCH  27  28
ATOM     28  C   UNL     1      -6.718   0.679   7.694  1.00  0.00     0.031 A 
ATOM     29  C   UNL     1      -7.705   1.590   8.372  1.00  0.00     0.074 A 
ATOM     30  C   UNL     1      -5.661   0.203   8.379  1.00  0.00     0.049 A 
ATOM     31  N   UNL     1      -7.715   2.030   9.606  1.00  0.00    -0.248 NA
ATOM     32  C   UNL     1      -8.814   2.095   7.548  1.00  0.00     0.031 C 
ATOM     33  C   UNL     1      -4.607  -0.646   7.822  1.00  0.00     0.029 A 
ATOM     34  N   UNL     1      -5.294   0.373   9.691  1.00  0.00    -0.354 N 
ATOM     35  C   UNL     1      -8.816   2.872   9.699  1.00  0.00     0.074 A 
ATOM     36  C   UNL     1      -9.422   2.922   8.386  1.00  0.00     0.031 C 
ATOM     37  C   UNL     1      -3.726  -0.943   8.790  1.00  0.00     0.029 A 
ATOM     38  C   UNL     1      -4.134  -0.282  10.026  1.00  0.00     0.049 A 
ATOM     39  H   UNL     1      -5.813   0.912  10.330  1.00  0.00     0.167 HD
ATOM     40  C   UNL     1      -9.291   3.526  10.786  1.00  0.00     0.037 A 
ATOM     41  C   UNL     1      -3.475  -0.341  11.198  1.00  0.00     0.037 A 
ATOM     42  C   UNL     1      -8.706   3.450  12.099  1.00  0.00     0.049 A 
ATOM     43  C   UNL     1      -4.035   0.380  12.394  1.00  0.00     0.074 A 
ATOM     44  C   UNL     1      -9.150   4.023  13.278  1.00  0.00     0.029 A 
ATOM     45  N   UNL     1      -7.545   2.756  12.405  1.00  0.00    -0.354 N 
ATOM     46  N   UNL     1      -5.116   1.115  12.487  1.00  0.00    -0.248 NA
ATOM     47  C   UNL     1      -3.286   0.252  13.652  1.00  0.00     0.031 C 
ATOM     48  C   UNL     1      -8.237   3.708  14.290  1.00  0.00     0.029 A 
ATOM     49  C   UNL     1      -7.248   2.900  13.752  1.00  0.00     0.049 A 
ATOM     50  H   UNL     1      -7.011   2.236  11.762  1.00  0.00     0.167 HD
ATOM     51  C   UNL     1      -5.191   1.517  13.813  1.00  0.00     0.074 A 
ATOM     52  C   UNL     1      -4.056   0.928  14.493  1.00  0.00     0.031 C 
ATOM     53  C   UNL     1      -6.117   2.304  14.414  1.00  0.00     0.037 A 
BRANCH  40  54
ATOM     54  C   UNL     1     -10.514   4.378  10.602  1.00  0.00     0.064 A 
ATOM     55  C   UNL     1     -11.777   3.812  10.372  1.00  0.00     0.173 A 
ATOM     56  C   UNL     1     -10.429   5.776  10.692  1.00  0.00     0.173 A 
ATOM     57  F   UNL     1     -11.911   2.481  10.267  1.00  0.00    -0.203 F 
ATOM     58  C   UNL     1     -12.904   4.614  10.209  1.00  0.00     0.198 A 
ATOM     59  C   UNL     1     -11.562   6.574  10.558  1.00  0.00     0.198 A 
ATOM     60  F   UNL     1      -9.247   6.369  10.918  1.00  0.00    -0.203 F 
ATOM     61  F   UNL     1     -14.091   4.053   9.941  1.00  0.00    -0.200 F 
ATOM     62  C   UNL     1     -12.797   5.993  10.309  1.00  0.00     0.200 A 
ATOM     63  F   UNL     1     -11.460   7.905  10.667  1.00  0.00    -0.200 F 
ATOM     64  F   UNL     1     -13.883   6.763  10.157  1.00  0.00    -0.200 F 
ENDBRANCH  40  54
BRANCH  41  65
ATOM     65  C   UNL     1      -2.228  -1.141  11.306  1.00  0.00     0.064 A 
ATOM     66  C   UNL     1      -2.205  -2.338  12.035  1.00  0.00     0.173 A 
ATOM     67  C   UNL     1      -1.040  -0.729  10.687  1.00  0.00     0.173 A 
ATOM     68  F   UNL     1      -3.312  -2.762  12.662  1.00  0.00    -0.203 F 
ATOM     69  C   UNL     1      -1.034  -3.083  12.158  1.00  0.00     0.198 A 
ATOM     70  C   UNL     1       0.124  -1.489  10.788  1.00  0.00     0.198 A 
ATOM     71  F   UNL     1      -1.012   0.406   9.974  1.00  0.00    -0.203 F 
ATOM     72  F   UNL     1      -1.028  -4.201  12.897  1.00  0.00    -0.200 F 
ATOM     73  C   UNL     1       0.128  -2.661  11.529  1.00  0.00     0.200 A 
ATOM     74  F   UNL     1       1.241  -1.085  10.169  1.00  0.00    -0.200 F 
ATOM     75  F   UNL     1       1.252  -3.380  11.644  1.00  0.00    -0.200 F 
ENDBRANCH  41  65
BRANCH  53  76
ATOM     76  C   UNL     1      -5.955   2.550  15.885  1.00  0.00     0.064 A 
ATOM     77  C   UNL     1      -4.942   3.382  16.384  1.00  0.00     0.173 A 
ATOM     78  C   UNL     1      -6.841   1.968  16.804  1.00  0.00     0.173 A 
ATOM     79  F   UNL     1      -4.060   3.949  15.547  1.00  0.00    -0.203 F 
ATOM     80  C   UNL     1      -4.806   3.599  17.753  1.00  0.00     0.198 A 
ATOM     81  C   UNL     1      -6.720   2.211  18.169  1.00  0.00     0.198 A 
ATOM     82  F   UNL     1      -7.831   1.169  16.377  1.00  0.00    -0.203 F 
ATOM     83  F   UNL     1      -3.800   4.358  18.211  1.00  0.00    -0.200 F 
ATOM     84  C   UNL     1      -5.697   3.019  18.643  1.00  0.00     0.200 A 
ATOM     85  F   UNL     1      -7.589   1.659  19.027  1.00  0.00    -0.200 F 
ATOM     86  F   UNL     1      -5.566   3.233  19.959  1.00  0.00    -0.200 F 
ENDBRANCH  53  76
ENDBRANCH  27  28
ENDBRANCH  19  22
ENDBRANCH  17  18
ENDBRANCH  16  17
ENDBRANCH   1  16
TORSDOF 14
