REMARK SMILES O=C(NCCCNC(=O)c1cccc(-c2ccc(/C=N\O)o2)c1)c1ccc(-c2c3nc(c(-c4c(F)c(F)c(F)c(F)c4F)c4ccc([nH]4)c(-c4c(F)c(F)c(F)c(F)c4F)c4nc(c(-c5c(F)c(F)c(F)c(F)c5F)c5ccc2[nH]5)C=C4)C=C3)cc1
REMARK SMILES IDX 5 1 4 2 3 3 1 4 2 5 24 7 25 8 86 9 26 10 85 11 27 12 28 13
REMARK SMILES IDX 29 14 79 15 30 16 84 17 78 18 80 19 31 20 83 21 77 22 76 23
REMARK SMILES IDX 32 25 64 26 44 27 63 28 45 29 48 30 62 31 81 32 46 33 47 34
REMARK SMILES IDX 61 36 82 37 49 38 33 39 34 40 42 41 35 42 36 43 40 44 43 45
REMARK SMILES IDX 37 46 38 47 41 48 39 49 65 50 66 51 74 52 67 53 68 54 72 55
REMARK SMILES IDX 75 56 69 57 70 58 73 59 71 60 50 61 51 62 59 63 52 64 53 65
REMARK SMILES IDX 57 66 60 67 54 68 55 69 58 70 56 71 6 72 7 73 8 74 9 76
REMARK SMILES IDX 10 77 11 78 23 79 12 80 14 81 13 82 15 83 16 84 22 85 17 86
REMARK SMILES IDX 18 87 19 88 20 89 21 90
REMARK H PARENT 3 6 80 24 48 35 7 75 21 91
REMARK Flexibility Score: inf
ROOT
ATOM      1  C   UNL     1       4.861  -2.383   0.254  1.00  0.00     0.042 C 
ENDROOT
BRANCH   1   2
ATOM      2  C   UNL     1       4.499  -1.152  -0.564  1.00  0.00     0.118 C 
BRANCH   2   3
ATOM      3  N   UNL     1       3.065  -0.892  -0.611  1.00  0.00    -0.352 N 
ATOM      4  O   UNL     1       1.100   0.095  -0.125  1.00  0.00    -0.269 OA
ATOM      5  C   UNL     1       2.327   0.148  -0.099  1.00  0.00     0.251 C 
ATOM      6  H   UNL     1       2.539  -1.575  -1.087  1.00  0.00     0.163 HD
BRANCH   5   7
ATOM      7  C   UNL     1       2.995   1.316   0.517  1.00  0.00     0.039 A 
ATOM      8  C   UNL     1       4.138   1.877  -0.051  1.00  0.00     0.014 A 
ATOM      9  C   UNL     1       2.462   1.867   1.687  1.00  0.00     0.014 A 
ATOM     10  C   UNL     1       4.856   2.841   0.645  1.00  0.00     0.010 A 
ATOM     11  C   UNL     1       3.126   2.917   2.331  1.00  0.00     0.010 A 
ATOM     12  C   UNL     1       4.359   3.377   1.844  1.00  0.00    -0.014 A 
BRANCH  12  13
ATOM     13  C   UNL     1       5.140   4.427   2.550  1.00  0.00     0.031 A 
ATOM     14  C   UNL     1       5.691   4.189   3.930  1.00  0.00     0.074 A 
ATOM     15  C   UNL     1       5.392   5.589   1.918  1.00  0.00     0.049 A 
ATOM     16  N   UNL     1       6.431   4.977   4.672  1.00  0.00    -0.248 NA
ATOM     17  C   UNL     1       5.365   2.905   4.568  1.00  0.00     0.031 C 
ATOM     18  C   UNL     1       4.905   5.942   0.583  1.00  0.00     0.029 A 
ATOM     19  N   UNL     1       6.139   6.675   2.296  1.00  0.00    -0.354 N 
ATOM     20  C   UNL     1       6.631   4.299   5.868  1.00  0.00     0.074 A 
ATOM     21  C   UNL     1       5.915   3.046   5.765  1.00  0.00     0.031 C 
ATOM     22  C   UNL     1       5.415   7.130   0.228  1.00  0.00     0.029 A 
ATOM     23  C   UNL     1       6.211   7.652   1.333  1.00  0.00     0.049 A 
ATOM     24  H   UNL     1       6.581   6.748   3.173  1.00  0.00     0.167 HD
ATOM     25  C   UNL     1       7.353   4.685   6.949  1.00  0.00     0.037 A 
ATOM     26  C   UNL     1       6.843   8.839   1.339  1.00  0.00     0.037 A 
ATOM     27  C   UNL     1       8.089   5.921   7.036  1.00  0.00     0.049 A 
ATOM     28  C   UNL     1       7.629   9.243   2.553  1.00  0.00     0.074 A 
ATOM     29  C   UNL     1       8.889   6.379   8.069  1.00  0.00     0.029 A 
ATOM     30  N   UNL     1       8.114   6.898   6.051  1.00  0.00    -0.354 N 
ATOM     31  N   UNL     1       7.842   8.577   3.661  1.00  0.00    -0.248 NA
ATOM     32  C   UNL     1       8.262  10.568   2.516  1.00  0.00     0.031 C 
ATOM     33  C   UNL     1       9.357   7.654   7.730  1.00  0.00     0.029 A 
ATOM     34  C   UNL     1       8.896   7.967   6.462  1.00  0.00     0.049 A 
ATOM     35  H   UNL     1       7.645   6.840   5.187  1.00  0.00     0.167 HD
ATOM     36  C   UNL     1       8.656   9.386   4.441  1.00  0.00     0.074 A 
ATOM     37  C   UNL     1       8.909  10.587   3.673  1.00  0.00     0.031 C 
ATOM     38  C   UNL     1       9.149   9.152   5.682  1.00  0.00     0.037 A 
BRANCH  25  39
ATOM     39  C   UNL     1       7.364   3.771   8.142  1.00  0.00     0.064 A 
ATOM     40  C   UNL     1       8.040   2.541   8.130  1.00  0.00     0.173 A 
ATOM     41  C   UNL     1       6.715   4.149   9.328  1.00  0.00     0.173 A 
ATOM     42  F   UNL     1       8.667   2.127   7.019  1.00  0.00    -0.203 F 
ATOM     43  C   UNL     1       8.039   1.712   9.249  1.00  0.00     0.198 A 
ATOM     44  C   UNL     1       6.742   3.331  10.455  1.00  0.00     0.198 A 
ATOM     45  F   UNL     1       6.061   5.318   9.398  1.00  0.00    -0.203 F 
ATOM     46  F   UNL     1       8.649   0.519   9.198  1.00  0.00    -0.200 F 
ATOM     47  C   UNL     1       7.396   2.109  10.412  1.00  0.00     0.200 A 
ATOM     48  F   UNL     1       6.132   3.724  11.582  1.00  0.00    -0.200 F 
ATOM     49  F   UNL     1       7.401   1.312  11.489  1.00  0.00    -0.200 F 
ENDBRANCH  25  39
BRANCH  26  50
ATOM     50  C   UNL     1       6.772   9.718   0.144  1.00  0.00     0.064 A 
ATOM     51  C   UNL     1       7.903   9.944  -0.651  1.00  0.00     0.173 A 
ATOM     52  C   UNL     1       5.571  10.336  -0.236  1.00  0.00     0.173 A 
ATOM     53  F   UNL     1       9.078   9.389  -0.317  1.00  0.00    -0.203 F 
ATOM     54  C   UNL     1       7.840  10.765  -1.774  1.00  0.00     0.198 A 
ATOM     55  C   UNL     1       5.503  11.133  -1.376  1.00  0.00     0.198 A 
ATOM     56  F   UNL     1       4.459  10.147   0.489  1.00  0.00    -0.203 F 
ATOM     57  F   UNL     1       8.946  10.995  -2.495  1.00  0.00    -0.200 F 
ATOM     58  C   UNL     1       6.639  11.353  -2.140  1.00  0.00     0.200 A 
ATOM     59  F   UNL     1       4.336  11.685  -1.735  1.00  0.00    -0.200 F 
ATOM     60  F   UNL     1       6.577  12.135  -3.226  1.00  0.00    -0.200 F 
ENDBRANCH  26  50
BRANCH  38  61
ATOM     61  C   UNL     1      10.053  10.198   6.266  1.00  0.00     0.064 A 
ATOM     62  C   UNL     1       9.566  11.441   6.696  1.00  0.00     0.173 A 
ATOM     63  C   UNL     1      11.426   9.944   6.410  1.00  0.00     0.173 A 
ATOM     64  F   UNL     1       8.265  11.739   6.563  1.00  0.00    -0.203 F 
ATOM     65  C   UNL     1      10.425  12.402   7.221  1.00  0.00     0.198 A 
ATOM     66  C   UNL     1      12.277  10.896   6.964  1.00  0.00     0.198 A 
ATOM     67  F   UNL     1      11.941   8.769   6.019  1.00  0.00    -0.203 F 
ATOM     68  F   UNL     1       9.947  13.604   7.575  1.00  0.00    -0.200 F 
ATOM     69  C   UNL     1      11.778  12.127   7.361  1.00  0.00     0.200 A 
ATOM     70  F   UNL     1      13.581  10.623   7.109  1.00  0.00    -0.200 F 
ATOM     71  F   UNL     1      12.603  13.054   7.868  1.00  0.00    -0.200 F 
ENDBRANCH  38  61
ENDBRANCH  12  13
ENDBRANCH   5   7
ENDBRANCH   2   3
ENDBRANCH   1   2
BRANCH   1  72
ATOM     72  C   UNL     1       4.378  -3.696  -0.343  1.00  0.00     0.118 C 
BRANCH  72  73
ATOM     73  N   UNL     1       4.955  -3.954  -1.657  1.00  0.00    -0.352 N 
ATOM     74  C   UNL     1       5.796  -4.957  -2.071  1.00  0.00     0.251 C 
ATOM     75  H   UNL     1       4.701  -3.308  -2.356  1.00  0.00     0.163 HD
ATOM     76  O   UNL     1       6.343  -4.881  -3.167  1.00  0.00    -0.269 OA
BRANCH  74  77
ATOM     77  C   UNL     1       6.044  -6.127  -1.204  1.00  0.00     0.040 A 
ATOM     78  C   UNL     1       7.348  -6.599  -1.044  1.00  0.00     0.014 A 
ATOM     79  C   UNL     1       4.980  -6.776  -0.574  1.00  0.00     0.025 A 
ATOM     80  C   UNL     1       7.590  -7.672  -0.186  1.00  0.00     0.002 A 
ATOM     81  C   UNL     1       5.217  -7.823   0.321  1.00  0.00     0.018 A 
ATOM     82  C   UNL     1       6.532  -8.264   0.514  1.00  0.00     0.012 A 
BRANCH  81  83
ATOM     83  C   UNL     1       4.095  -8.401   1.041  1.00  0.00     0.134 A 
ATOM     84  C   UNL     1       2.799  -8.709   0.688  1.00  0.00     0.051 A 
ATOM     85  O   UNL     1       4.279  -8.624   2.373  1.00  0.00    -0.455 OA
ATOM     86  C   UNL     1       2.155  -9.138   1.871  1.00  0.00     0.053 A 
ATOM     87  C   UNL     1       3.087  -9.052   2.890  1.00  0.00     0.149 A 
BRANCH  87  88
ATOM     88  C   UNL     1       2.931  -9.340   4.296  1.00  0.00     0.200 C 
ATOM     89  N   UNL     1       3.756  -9.167   5.289  1.00  0.00    -0.094 NA
BRANCH  89  90
ATOM     90  O   UNL     1       4.971  -8.600   4.899  1.00  0.00    -0.411 OA
ATOM     91  H   UNL     1       5.636  -8.433   5.537  1.00  0.00     0.330 HD
ENDBRANCH  89  90
ENDBRANCH  87  88
ENDBRANCH  81  83
ENDBRANCH  74  77
ENDBRANCH  72  73
ENDBRANCH   1  72
TORSDOF 13
