REMARK SMILES O=C(NCCCNC(=O)c1ccc(-c2c3nc(c(-c4c(F)c(F)c(F)c(F)c4F)c4ccc([nH]4)c(-c4c(F)c(F)c(F)c(F)c4F)c4nc(c(-c5c(F)c(F)c(F)c(F)c5F)c5ccc2[nH]5)C=C4)C=C3)cc1)C1=Cc2cc(Cl)cc(Cl)c2O[C@@H]1C(F)(F)F
REMARK SMILES IDX 5 1 4 2 3 3 1 4 2 5 73 7 74 8 84 9 75 10 83 11 76 12 82 13
REMARK SMILES IDX 77 14 80 15 78 16 79 17 81 18 85 19 86 20 87 21 88 22 6 23
REMARK SMILES IDX 7 24 8 25 9 27 10 28 11 29 72 30 12 31 71 32 13 33 14 34
REMARK SMILES IDX 15 35 65 36 16 37 70 38 64 39 66 40 17 41 69 42 63 43 62 44
REMARK SMILES IDX 18 46 50 47 30 48 49 49 31 50 34 51 48 52 67 53 32 54 33 55
REMARK SMILES IDX 47 57 68 58 35 59 19 60 20 61 28 62 21 63 22 64 26 65 29 66
REMARK SMILES IDX 23 67 24 68 27 69 25 70 51 71 52 72 60 73 53 74 54 75 58 76
REMARK SMILES IDX 61 77 55 78 56 79 59 80 57 81 36 82 37 83 45 84 38 85 39 86
REMARK SMILES IDX 43 87 46 88 40 89 41 90 44 91 42 92
REMARK H PARENT 3 6 7 26 66 45 34 56
REMARK Flexibility Score: inf
ROOT
ATOM      1  C   UNL     1       4.173   2.870  -0.447  1.00  0.00     0.042 C 
ENDROOT
BRANCH   1   2
ATOM      2  C   UNL     1       3.511   1.656   0.188  1.00  0.00     0.118 C 
BRANCH   2   3
ATOM      3  N   UNL     1       2.534   1.007  -0.690  1.00  0.00    -0.352 N 
ATOM      4  O   UNL     1       1.363  -0.727  -1.568  1.00  0.00    -0.270 OA
ATOM      5  C   UNL     1       2.363  -0.323  -0.992  1.00  0.00     0.251 C 
ATOM      6  H   UNL     1       1.903   1.619  -1.133  1.00  0.00     0.163 HD
BRANCH   5   7
ATOM      7  C   UNL     1       3.406  -1.254  -0.523  1.00  0.00     0.067 C 
ATOM      8  C   UNL     1       4.625  -1.125  -1.062  1.00  0.00     0.025 C 
ATOM      9  C   UNL     1       3.155  -1.967   0.767  1.00  0.00     0.314 C 
ATOM     10  C   UNL     1       5.695  -1.077  -0.054  1.00  0.00     0.020 A 
ATOM     11  O   UNL     1       4.159  -1.657   1.762  1.00  0.00    -0.474 OA
ATOM     12  C   UNL     1       6.895  -0.466  -0.440  1.00  0.00     0.032 A 
ATOM     13  C   UNL     1       5.375  -1.194   1.315  1.00  0.00     0.146 A 
ATOM     14  C   UNL     1       7.713   0.117   0.526  1.00  0.00     0.043 A 
ATOM     15  C   UNL     1       6.231  -0.630   2.273  1.00  0.00     0.085 A 
ATOM     16  Cl  UNL     1       9.067   1.053   0.024  1.00  0.00    -0.084 Cl
ATOM     17  C   UNL     1       7.382   0.051   1.877  1.00  0.00     0.045 A 
ATOM     18  Cl  UNL     1       5.796  -0.591   3.945  1.00  0.00    -0.080 Cl
BRANCH   9  19
ATOM     19  C   UNL     1       3.040  -3.485   0.557  1.00  0.00     0.429 C 
ATOM     20  F   UNL     1       2.686  -4.110   1.706  1.00  0.00    -0.167 F 
ATOM     21  F   UNL     1       2.100  -3.798  -0.365  1.00  0.00    -0.167 F 
ATOM     22  F   UNL     1       4.208  -4.033   0.145  1.00  0.00    -0.167 F 
ENDBRANCH   9  19
ENDBRANCH   5   7
ENDBRANCH   2   3
ENDBRANCH   1   2
BRANCH   1  23
ATOM     23  C   UNL     1       3.986   4.128   0.391  1.00  0.00     0.118 C 
BRANCH  23  24
ATOM     24  N   UNL     1       4.754   4.136   1.635  1.00  0.00    -0.352 N 
ATOM     25  C   UNL     1       5.729   5.007   2.086  1.00  0.00     0.251 C 
ATOM     26  H   UNL     1       4.542   3.400   2.254  1.00  0.00     0.163 HD
ATOM     27  O   UNL     1       6.319   4.783   3.130  1.00  0.00    -0.269 OA
BRANCH  25  28
ATOM     28  C   UNL     1       6.095   6.187   1.268  1.00  0.00     0.039 A 
ATOM     29  C   UNL     1       7.444   6.496   1.071  1.00  0.00     0.014 A 
ATOM     30  C   UNL     1       5.110   6.944   0.640  1.00  0.00     0.014 A 
ATOM     31  C   UNL     1       7.801   7.467   0.129  1.00  0.00     0.010 A 
ATOM     32  C   UNL     1       5.466   7.804  -0.387  1.00  0.00     0.010 A 
ATOM     33  C   UNL     1       6.816   8.069  -0.668  1.00  0.00    -0.014 A 
BRANCH  33  34
ATOM     34  C   UNL     1       7.131   8.973  -1.809  1.00  0.00     0.031 A 
ATOM     35  C   UNL     1       6.488  10.332  -1.869  1.00  0.00     0.074 A 
ATOM     36  C   UNL     1       7.860   8.529  -2.853  1.00  0.00     0.049 A 
ATOM     37  N   UNL     1       6.376  11.158  -2.878  1.00  0.00    -0.248 NA
ATOM     38  C   UNL     1       5.822  10.793  -0.640  1.00  0.00     0.031 C 
ATOM     39  C   UNL     1       8.508   7.220  -2.949  1.00  0.00     0.029 A 
ATOM     40  N   UNL     1       8.156   9.130  -4.053  1.00  0.00    -0.354 N 
ATOM     41  C   UNL     1       5.574  12.197  -2.423  1.00  0.00     0.074 A 
ATOM     42  C   UNL     1       5.186  11.871  -1.068  1.00  0.00     0.031 C 
ATOM     43  C   UNL     1       9.152   7.130  -4.124  1.00  0.00     0.029 A 
ATOM     44  C   UNL     1       8.912   8.347  -4.892  1.00  0.00     0.049 A 
ATOM     45  H   UNL     1       7.856  10.037  -4.289  1.00  0.00     0.167 HD
ATOM     46  C   UNL     1       5.213  13.332  -3.067  1.00  0.00     0.037 A 
ATOM     47  C   UNL     1       9.347   8.578  -6.145  1.00  0.00     0.037 A 
ATOM     48  C   UNL     1       5.668  13.687  -4.385  1.00  0.00     0.049 A 
ATOM     49  C   UNL     1       8.971   9.866  -6.826  1.00  0.00     0.074 A 
ATOM     50  C   UNL     1       5.421  14.844  -5.103  1.00  0.00     0.029 A 
ATOM     51  N   UNL     1       6.487  12.892  -5.173  1.00  0.00    -0.354 N 
ATOM     52  N   UNL     1       8.229  10.850  -6.382  1.00  0.00    -0.248 NA
ATOM     53  C   UNL     1       9.489  10.071  -8.187  1.00  0.00     0.031 C 
ATOM     54  C   UNL     1       6.075  14.739  -6.335  1.00  0.00     0.029 A 
ATOM     55  C   UNL     1       6.758  13.534  -6.369  1.00  0.00     0.049 A 
ATOM     56  H   UNL     1       6.825  12.003  -4.919  1.00  0.00     0.167 HD
ATOM     57  C   UNL     1       8.220  11.806  -7.389  1.00  0.00     0.074 A 
ATOM     58  C   UNL     1       9.032  11.284  -8.468  1.00  0.00     0.031 C 
ATOM     59  C   UNL     1       7.596  13.008  -7.416  1.00  0.00     0.037 A 
BRANCH  46  60
ATOM     60  C   UNL     1       4.292  14.273  -2.344  1.00  0.00     0.064 A 
ATOM     61  C   UNL     1       4.707  14.983  -1.207  1.00  0.00     0.173 A 
ATOM     62  C   UNL     1       2.975  14.464  -2.790  1.00  0.00     0.173 A 
ATOM     63  F   UNL     1       5.952  14.825  -0.731  1.00  0.00    -0.203 F 
ATOM     64  C   UNL     1       3.826  15.809  -0.515  1.00  0.00     0.198 A 
ATOM     65  C   UNL     1       2.107  15.320  -2.117  1.00  0.00     0.198 A 
ATOM     66  F   UNL     1       2.527  13.816  -3.876  1.00  0.00    -0.203 F 
ATOM     67  F   UNL     1       4.226  16.418   0.610  1.00  0.00    -0.200 F 
ATOM     68  C   UNL     1       2.529  15.981  -0.973  1.00  0.00     0.200 A 
ATOM     69  F   UNL     1       0.857  15.495  -2.567  1.00  0.00    -0.200 F 
ATOM     70  F   UNL     1       1.681  16.774  -0.304  1.00  0.00    -0.200 F 
ENDBRANCH  46  60
BRANCH  47  71
ATOM     71  C   UNL     1      10.221   7.587  -6.824  1.00  0.00     0.064 A 
ATOM     72  C   UNL     1      11.581   7.864  -7.027  1.00  0.00     0.173 A 
ATOM     73  C   UNL     1       9.732   6.353  -7.276  1.00  0.00     0.173 A 
ATOM     74  F   UNL     1      12.090   9.040  -6.630  1.00  0.00    -0.203 F 
ATOM     75  C   UNL     1      12.415   6.952  -7.670  1.00  0.00     0.198 A 
ATOM     76  C   UNL     1      10.573   5.431  -7.898  1.00  0.00     0.198 A 
ATOM     77  F   UNL     1       8.441   6.037  -7.101  1.00  0.00    -0.203 F 
ATOM     78  F   UNL     1      13.701   7.260  -7.885  1.00  0.00    -0.200 F 
ATOM     79  C   UNL     1      11.912   5.734  -8.100  1.00  0.00     0.200 A 
ATOM     80  F   UNL     1      10.087   4.249  -8.301  1.00  0.00    -0.200 F 
ATOM     81  F   UNL     1      12.714   4.855  -8.715  1.00  0.00    -0.200 F 
ENDBRANCH  47  71
BRANCH  59  82
ATOM     82  C   UNL     1       7.815  13.872  -8.621  1.00  0.00     0.064 A 
ATOM     83  C   UNL     1       7.189  13.602  -9.845  1.00  0.00     0.173 A 
ATOM     84  C   UNL     1       8.616  15.020  -8.527  1.00  0.00     0.173 A 
ATOM     85  F   UNL     1       6.427  12.507  -9.987  1.00  0.00    -0.203 F 
ATOM     86  C   UNL     1       7.367  14.446 -10.938  1.00  0.00     0.198 A 
ATOM     87  C   UNL     1       8.771  15.874  -9.614  1.00  0.00     0.198 A 
ATOM     88  F   UNL     1       9.232  15.322  -7.374  1.00  0.00    -0.203 F 
ATOM     89  F   UNL     1       6.785  14.153 -12.109  1.00  0.00    -0.200 F 
ATOM     90  C   UNL     1       8.150  15.585 -10.819  1.00  0.00     0.200 A 
ATOM     91  F   UNL     1       9.519  16.980  -9.493  1.00  0.00    -0.200 F 
ATOM     92  F   UNL     1       8.309  16.402 -11.869  1.00  0.00    -0.200 F 
ENDBRANCH  59  82
ENDBRANCH  33  34
ENDBRANCH  25  28
ENDBRANCH  23  24
ENDBRANCH   1  23
TORSDOF 11
