REMARK SMILES COc1ncccc1NS(=O)(=O)c1ccc(Br)c(C(=O)NCCCNC(=O)c2ccc(-c3c4nc(c(-c5c(F)c(F)c(F)c(F)c5F)c5ccc([nH]5)c(-c5c(F)c(F)c(F)c(F)c5F)c5nc(c(-c6c(F)c(F)c(F)c(F)c6F)c6ccc3[nH]6)C=C5)C=C4)cc2)c1
REMARK SMILES IDX 22 1 21 2 19 3 20 4 18 6 13 7 14 8 91 9 15 10 16 11 17 12
REMARK SMILES IDX 10 13 11 14 12 15 9 16 8 18 3 19 4 20 5 21 7 22 6 23 2 24
REMARK SMILES IDX 1 25 23 26 24 27 25 28 26 29 27 31 28 32 29 33 90 34 30 35
REMARK SMILES IDX 89 36 31 37 32 38 33 39 83 40 34 41 88 42 82 43 84 44 35 45
REMARK SMILES IDX 87 46 81 47 80 48 36 50 68 51 48 52 67 53 49 54 52 55 66 56
REMARK SMILES IDX 85 57 50 58 51 59 65 61 86 62 53 63 37 64 38 65 46 66 39 67
REMARK SMILES IDX 40 68 44 69 47 70 41 71 42 72 45 73 43 74 69 75 70 76 78 77
REMARK SMILES IDX 71 78 72 79 76 80 79 81 73 82 74 83 77 84 75 85 54 86 55 87
REMARK SMILES IDX 63 88 56 89 57 90 61 91 64 92 58 93 59 94 62 95 60 96
REMARK H PARENT 21 5 9 17 25 30 84 49 52 60
REMARK Flexibility Score: inf
ROOT
ATOM      1  C   UNL     1      -4.348  -0.590  -0.125  1.00  0.00     0.118 C 
ENDROOT
BRANCH   1   2
ATOM      2  N   UNL     1      -3.290   0.276   0.337  1.00  0.00    -0.352 N 
ATOM      3  C   UNL     1      -2.046   0.060   0.862  1.00  0.00     0.252 C 
ATOM      4  O   UNL     1      -1.597   1.031   1.484  1.00  0.00    -0.269 OA
ATOM      5  H   UNL     1      -3.512   1.231   0.256  1.00  0.00     0.163 HD
BRANCH   3   6
ATOM      6  C   UNL     1      -1.135  -1.114   0.615  1.00  0.00     0.055 A 
ATOM      7  C   UNL     1       1.256  -1.503   0.120  1.00  0.00     0.088 A 
ATOM      8  C   UNL     1       1.008  -2.821  -0.212  1.00  0.00     0.023 A 
ATOM      9  C   UNL     1       0.219  -0.707   0.617  1.00  0.00     0.037 A 
ATOM     10  C   UNL     1      -0.290  -3.305  -0.067  1.00  0.00     0.018 A 
ATOM     11  C   UNL     1      -1.358  -2.470   0.350  1.00  0.00     0.030 A 
ATOM     12  Br  UNL     1      -2.927  -3.457   0.732  1.00  0.00    -0.050 Br
BRANCH   7  13
ATOM     13  S   UNL     1       2.895  -0.842   0.039  1.00  0.00     0.262 S 
ATOM     14  O   UNL     1       3.806  -1.927   0.359  1.00  0.00    -0.201 OA
ATOM     15  O   UNL     1       2.938   0.377   0.814  1.00  0.00    -0.201 OA
BRANCH  13  16
ATOM     16  N   UNL     1       3.259  -0.363  -1.544  1.00  0.00    -0.274 N 
ATOM     17  H   UNL     1       4.203  -0.193  -1.765  1.00  0.00     0.180 HD
BRANCH  16  18
ATOM     18  C   UNL     1       2.283  -0.188  -2.588  1.00  0.00     0.111 A 
ATOM     19  C   UNL     1       1.066   0.495  -2.515  1.00  0.00     0.238 A 
ATOM     20  N   UNL     1       0.222   0.675  -3.556  1.00  0.00    -0.220 NA
ATOM     21  C   UNL     1       0.656   0.277  -4.767  1.00  0.00     0.115 A 
ATOM     22  C   UNL     1       2.734  -0.481  -3.876  1.00  0.00     0.034 A 
ATOM     23  C   UNL     1       1.914  -0.255  -4.982  1.00  0.00     0.023 A 
BRANCH  19  24
ATOM     24  O   UNL     1       0.626   1.043  -1.351  1.00  0.00    -0.480 OA
ATOM     25  C   UNL     1       1.175   2.336  -1.134  1.00  0.00     0.280 C 
ENDBRANCH  19  24
ENDBRANCH  16  18
ENDBRANCH  13  16
ENDBRANCH   7  13
ENDBRANCH   3   6
ENDBRANCH   1   2
BRANCH   1  26
ATOM     26  C   UNL     1      -5.146  -1.087   1.084  1.00  0.00     0.042 C 
BRANCH  26  27
ATOM     27  C   UNL     1      -6.288  -0.162   1.473  1.00  0.00     0.118 C 
BRANCH  27  28
ATOM     28  N   UNL     1      -7.396  -0.286   0.535  1.00  0.00    -0.352 N 
ATOM     29  C   UNL     1      -8.632  -0.856   0.708  1.00  0.00     0.251 C 
ATOM     30  H   UNL     1      -7.233   0.097  -0.357  1.00  0.00     0.163 HD
ATOM     31  O   UNL     1      -9.300  -1.165  -0.275  1.00  0.00    -0.269 OA
BRANCH  29  32
ATOM     32  C   UNL     1      -9.168  -1.098   2.066  1.00  0.00     0.039 A 
ATOM     33  C   UNL     1      -9.961  -2.227   2.292  1.00  0.00     0.014 A 
ATOM     34  C   UNL     1      -8.942  -0.188   3.102  1.00  0.00     0.014 A 
ATOM     35  C   UNL     1     -10.489  -2.461   3.563  1.00  0.00     0.010 A 
ATOM     36  C   UNL     1      -9.385  -0.472   4.389  1.00  0.00     0.010 A 
ATOM     37  C   UNL     1     -10.182  -1.600   4.629  1.00  0.00    -0.014 A 
BRANCH  37  38
ATOM     38  C   UNL     1     -10.704  -1.849   5.996  1.00  0.00     0.031 A 
ATOM     39  C   UNL     1     -11.619  -0.847   6.647  1.00  0.00     0.074 A 
ATOM     40  C   UNL     1     -10.308  -2.946   6.668  1.00  0.00     0.049 A 
ATOM     41  N   UNL     1     -12.131  -0.852   7.852  1.00  0.00    -0.248 NA
ATOM     42  C   UNL     1     -11.982   0.336   5.849  1.00  0.00     0.031 C 
ATOM     43  C   UNL     1      -9.383  -3.960   6.159  1.00  0.00     0.029 A 
ATOM     44  N   UNL     1     -10.625  -3.387   7.928  1.00  0.00    -0.354 N 
ATOM     45  C   UNL     1     -12.858   0.327   7.959  1.00  0.00     0.074 A 
ATOM     46  C   UNL     1     -12.671   1.054   6.723  1.00  0.00     0.031 C 
ATOM     47  C   UNL     1      -9.230  -4.919   7.085  1.00  0.00     0.029 A 
ATOM     48  C   UNL     1     -10.008  -4.567   8.268  1.00  0.00     0.049 A 
ATOM     49  H   UNL     1     -11.236  -2.905   8.531  1.00  0.00     0.167 HD
ATOM     50  C   UNL     1     -13.633   0.752   8.985  1.00  0.00     0.037 A 
ATOM     51  C   UNL     1     -10.059  -5.277   9.410  1.00  0.00     0.037 A 
ATOM     52  C   UNL     1     -13.829   0.010  10.203  1.00  0.00     0.049 A 
ATOM     53  C   UNL     1     -10.923  -4.780  10.538  1.00  0.00     0.074 A 
ATOM     54  C   UNL     1     -14.639   0.319  11.281  1.00  0.00     0.029 A 
ATOM     55  N   UNL     1     -13.201  -1.190  10.505  1.00  0.00    -0.354 N 
ATOM     56  N   UNL     1     -11.666  -3.702  10.600  1.00  0.00    -0.248 NA
ATOM     57  C   UNL     1     -10.963  -5.606  11.752  1.00  0.00     0.031 C 
ATOM     58  C   UNL     1     -14.456  -0.663  12.260  1.00  0.00     0.029 A 
ATOM     59  C   UNL     1     -13.585  -1.621  11.765  1.00  0.00     0.049 A 
ATOM     60  H   UNL     1     -12.575  -1.666   9.912  1.00  0.00     0.167 HD
ATOM     61  C   UNL     1     -12.284  -3.734  11.842  1.00  0.00     0.074 A 
ATOM     62  C   UNL     1     -11.843  -4.950  12.494  1.00  0.00     0.031 C 
ATOM     63  C   UNL     1     -13.140  -2.838  12.395  1.00  0.00     0.037 A 
BRANCH  50  64
ATOM     64  C   UNL     1     -14.324   2.078   8.836  1.00  0.00     0.064 A 
ATOM     65  C   UNL     1     -15.356   2.274   7.904  1.00  0.00     0.173 A 
ATOM     66  C   UNL     1     -13.973   3.160   9.658  1.00  0.00     0.173 A 
ATOM     67  F   UNL     1     -15.725   1.278   7.085  1.00  0.00    -0.203 F 
ATOM     68  C   UNL     1     -15.985   3.510   7.778  1.00  0.00     0.198 A 
ATOM     69  C   UNL     1     -14.630   4.384   9.554  1.00  0.00     0.198 A 
ATOM     70  F   UNL     1     -12.999   3.030  10.571  1.00  0.00    -0.203 F 
ATOM     71  F   UNL     1     -16.928   3.687   6.842  1.00  0.00    -0.200 F 
ATOM     72  C   UNL     1     -15.628   4.561   8.608  1.00  0.00     0.200 A 
ATOM     73  F   UNL     1     -14.294   5.394  10.368  1.00  0.00    -0.200 F 
ATOM     74  F   UNL     1     -16.241   5.747   8.492  1.00  0.00    -0.200 F 
ENDBRANCH  50  64
BRANCH  51  75
ATOM     75  C   UNL     1      -9.290  -6.544   9.534  1.00  0.00     0.064 A 
ATOM     76  C   UNL     1      -9.944  -7.781   9.620  1.00  0.00     0.173 A 
ATOM     77  C   UNL     1      -7.888  -6.546   9.572  1.00  0.00     0.173 A 
ATOM     78  F   UNL     1     -11.285  -7.831   9.605  1.00  0.00    -0.203 F 
ATOM     79  C   UNL     1      -9.228  -8.967   9.766  1.00  0.00     0.198 A 
ATOM     80  C   UNL     1      -7.171  -7.736   9.684  1.00  0.00     0.198 A 
ATOM     81  F   UNL     1      -7.211  -5.391   9.485  1.00  0.00    -0.203 F 
ATOM     82  F   UNL     1      -9.882 -10.129   9.899  1.00  0.00    -0.200 F 
ATOM     83  C   UNL     1      -7.842  -8.944   9.792  1.00  0.00     0.200 A 
ATOM     84  F   UNL     1      -5.832  -7.711   9.691  1.00  0.00    -0.200 F 
ATOM     85  F   UNL     1      -7.154 -10.086   9.929  1.00  0.00    -0.200 F 
ENDBRANCH  51  75
BRANCH  63  86
ATOM     86  C   UNL     1     -13.689  -3.162  13.755  1.00  0.00     0.064 A 
ATOM     87  C   UNL     1     -12.884  -3.137  14.904  1.00  0.00     0.173 A 
ATOM     88  C   UNL     1     -15.049  -3.469  13.914  1.00  0.00     0.173 A 
ATOM     89  F   UNL     1     -11.574  -2.863  14.806  1.00  0.00    -0.203 F 
ATOM     90  C   UNL     1     -13.414  -3.441  16.156  1.00  0.00     0.198 A 
ATOM     91  C   UNL     1     -15.583  -3.734  15.171  1.00  0.00     0.198 A 
ATOM     92  F   UNL     1     -15.865  -3.497  12.850  1.00  0.00    -0.203 F 
ATOM     93  F   UNL     1     -12.614  -3.468  17.230  1.00  0.00    -0.200 F 
ATOM     94  C   UNL     1     -14.764  -3.731  16.289  1.00  0.00     0.200 A 
ATOM     95  F   UNL     1     -16.891  -3.996  15.300  1.00  0.00    -0.200 F 
ATOM     96  F   UNL     1     -15.273  -4.015  17.496  1.00  0.00    -0.200 F 
ENDBRANCH  63  86
ENDBRANCH  37  38
ENDBRANCH  29  32
ENDBRANCH  27  28
ENDBRANCH  26  27
ENDBRANCH   1  26
TORSDOF 14
