REMARK SMILES O=C(NCCCNC(=O)c1cccc(Nc2ccnc3ccc(Cl)cc23)c1)c1ccc(-c2c3nc(c(-c4c(F)c(F)c(F)c(F)c4F)c4ccc([nH]4)c(-c4c(F)c(F)c(F)c(F)c4F)c4nc(c(-c5c(F)c(F)c(F)c(F)c5F)c5ccc2[nH]5)C=C4)C=C3)cc1
REMARK SMILES IDX 5 1 4 2 3 3 1 4 2 5 28 7 29 8 90 9 30 10 89 11 31 12 32 13
REMARK SMILES IDX 33 14 83 15 34 16 88 17 82 18 84 19 35 20 87 21 81 22 80 23
REMARK SMILES IDX 36 25 68 26 48 27 67 28 49 29 52 30 66 31 85 32 50 33 51 34
REMARK SMILES IDX 65 36 86 37 53 38 37 39 38 40 46 41 39 42 40 43 44 44 47 45
REMARK SMILES IDX 41 46 42 47 45 48 43 49 69 50 70 51 78 52 71 53 72 54 76 55
REMARK SMILES IDX 79 56 73 57 74 58 77 59 75 60 54 61 55 62 63 63 56 64 57 65
REMARK SMILES IDX 61 66 64 67 58 68 59 69 62 70 60 71 6 72 7 73 8 74 9 76
REMARK SMILES IDX 10 77 11 78 27 79 12 80 14 81 13 82 15 83 16 85 17 86 26 87
REMARK SMILES IDX 18 88 20 89 25 90 19 91 21 92 23 93 22 94 24 95
REMARK H PARENT 3 6 84 24 52 35 7 75 15 84
REMARK Flexibility Score: inf
ROOT
ATOM      1  C   UNL     1       4.936  -2.795  -0.354  1.00  0.00     0.042 C 
ENDROOT
BRANCH   1   2
ATOM      2  C   UNL     1       4.566  -1.415  -0.898  1.00  0.00     0.118 C 
BRANCH   2   3
ATOM      3  N   UNL     1       3.148  -1.093  -0.807  1.00  0.00    -0.352 N 
ATOM      4  O   UNL     1       1.243  -0.075  -0.203  1.00  0.00    -0.269 OA
ATOM      5  C   UNL     1       2.472  -0.075  -0.173  1.00  0.00     0.251 C 
ATOM      6  H   UNL     1       2.563  -1.720  -1.290  1.00  0.00     0.163 HD
BRANCH   5   7
ATOM      7  C   UNL     1       3.172   0.994   0.582  1.00  0.00     0.039 A 
ATOM      8  C   UNL     1       4.353   1.581   0.129  1.00  0.00     0.014 A 
ATOM      9  C   UNL     1       2.593   1.459   1.772  1.00  0.00     0.014 A 
ATOM     10  C   UNL     1       5.039   2.488   0.940  1.00  0.00     0.010 A 
ATOM     11  C   UNL     1       3.240   2.431   2.546  1.00  0.00     0.010 A 
ATOM     12  C   UNL     1       4.500   2.914   2.166  1.00  0.00    -0.014 A 
BRANCH  12  13
ATOM     13  C   UNL     1       5.274   3.850   3.030  1.00  0.00     0.031 A 
ATOM     14  C   UNL     1       5.784   3.414   4.380  1.00  0.00     0.074 A 
ATOM     15  C   UNL     1       5.562   5.087   2.581  1.00  0.00     0.049 A 
ATOM     16  N   UNL     1       6.537   4.066   5.232  1.00  0.00    -0.248 NA
ATOM     17  C   UNL     1       5.390   2.074   4.840  1.00  0.00     0.031 C 
ATOM     18  C   UNL     1       5.113   5.646   1.306  1.00  0.00     0.029 A 
ATOM     19  N   UNL     1       6.319   6.090   3.136  1.00  0.00    -0.354 N 
ATOM     20  C   UNL     1       6.690   3.228   6.330  1.00  0.00     0.074 A 
ATOM     21  C   UNL     1       5.926   2.031   6.052  1.00  0.00     0.031 C 
ATOM     22  C   UNL     1       5.643   6.869   1.151  1.00  0.00     0.029 A 
ATOM     23  C   UNL     1       6.435   7.199   2.333  1.00  0.00     0.049 A 
ATOM     24  H   UNL     1       6.739   6.021   4.024  1.00  0.00     0.167 HD
ATOM     25  C   UNL     1       7.411   3.430   7.460  1.00  0.00     0.037 A 
ATOM     26  C   UNL     1       7.105   8.352   2.523  1.00  0.00     0.037 A 
ATOM     27  C   UNL     1       8.196   4.608   7.729  1.00  0.00     0.049 A 
ATOM     28  C   UNL     1       7.899   8.547   3.784  1.00  0.00     0.074 A 
ATOM     29  C   UNL     1       9.000   4.878   8.824  1.00  0.00     0.029 A 
ATOM     30  N   UNL     1       8.273   5.714   6.897  1.00  0.00    -0.354 N 
ATOM     31  N   UNL     1       8.081   7.722   4.785  1.00  0.00    -0.248 NA
ATOM     32  C   UNL     1       8.586   9.838   3.937  1.00  0.00     0.031 C 
ATOM     33  C   UNL     1       9.528   6.165   8.676  1.00  0.00     0.029 A 
ATOM     34  C   UNL     1       9.094   6.677   7.464  1.00  0.00     0.049 A 
ATOM     35  H   UNL     1       7.812   5.803   6.032  1.00  0.00     0.167 HD
ATOM     36  C   UNL     1       8.925   8.378   5.671  1.00  0.00     0.074 A 
ATOM     37  C   UNL     1       9.230   9.665   5.083  1.00  0.00     0.031 C 
ATOM     38  C   UNL     1       9.403   7.950   6.865  1.00  0.00     0.037 A 
BRANCH  25  39
ATOM     39  C   UNL     1       7.380   2.353   8.508  1.00  0.00     0.064 A 
ATOM     40  C   UNL     1       8.034   1.125   8.325  1.00  0.00     0.173 A 
ATOM     41  C   UNL     1       6.726   2.572   9.730  1.00  0.00     0.173 A 
ATOM     42  F   UNL     1       8.665   0.862   7.172  1.00  0.00    -0.203 F 
ATOM     43  C   UNL     1       8.010   0.147   9.317  1.00  0.00     0.198 A 
ATOM     44  C   UNL     1       6.728   1.603  10.730  1.00  0.00     0.198 A 
ATOM     45  F   UNL     1       6.092   3.732   9.960  1.00  0.00    -0.203 F 
ATOM     46  F   UNL     1       8.604  -1.035   9.102  1.00  0.00    -0.200 F 
ATOM     47  C   UNL     1       7.364   0.389  10.520  1.00  0.00     0.200 A 
ATOM     48  F   UNL     1       6.115   1.844  11.897  1.00  0.00    -0.200 F 
ATOM     49  F   UNL     1       7.349  -0.551  11.475  1.00  0.00    -0.200 F 
ENDBRANCH  25  39
BRANCH  26  50
ATOM     50  C   UNL     1       7.077   9.403   1.473  1.00  0.00     0.064 A 
ATOM     51  C   UNL     1       8.224   9.701   0.724  1.00  0.00     0.173 A 
ATOM     52  C   UNL     1       5.910  10.128   1.198  1.00  0.00     0.173 A 
ATOM     53  F   UNL     1       9.371   9.049   0.966  1.00  0.00    -0.203 F 
ATOM     54  C   UNL     1       8.207  10.697  -0.251  1.00  0.00     0.198 A 
ATOM     55  C   UNL     1       5.886  11.103   0.204  1.00  0.00     0.198 A 
ATOM     56  F   UNL     1       4.786   9.878   1.886  1.00  0.00    -0.203 F 
ATOM     57  F   UNL     1       9.328  10.991  -0.924  1.00  0.00    -0.200 F 
ATOM     58  C   UNL     1       7.037  11.392  -0.515  1.00  0.00     0.200 A 
ATOM     59  F   UNL     1       4.750  11.763  -0.058  1.00  0.00    -0.200 F 
ATOM     60  F   UNL     1       7.019  12.345  -1.457  1.00  0.00    -0.200 F 
ENDBRANCH  26  50
BRANCH  38  61
ATOM     61  C   UNL     1      10.345   8.863   7.595  1.00  0.00     0.064 A 
ATOM     62  C   UNL     1       9.903  10.044   8.209  1.00  0.00     0.173 A 
ATOM     63  C   UNL     1      11.707   8.538   7.698  1.00  0.00     0.173 A 
ATOM     64  F   UNL     1       8.614  10.406   8.125  1.00  0.00    -0.203 F 
ATOM     65  C   UNL     1      10.796  10.882   8.872  1.00  0.00     0.198 A 
ATOM     66  C   UNL     1      12.590   9.364   8.387  1.00  0.00     0.198 A 
ATOM     67  F   UNL     1      12.180   7.417   7.134  1.00  0.00    -0.203 F 
ATOM     68  F   UNL     1      10.361  12.032   9.406  1.00  0.00    -0.200 F 
ATOM     69  C   UNL     1      12.136  10.539   8.966  1.00  0.00     0.200 A 
ATOM     70  F   UNL     1      13.883   9.025   8.486  1.00  0.00    -0.200 F 
ATOM     71  F   UNL     1      12.993  11.347   9.606  1.00  0.00    -0.200 F 
ENDBRANCH  38  61
ENDBRANCH  12  13
ENDBRANCH   5   7
ENDBRANCH   2   3
ENDBRANCH   1   2
BRANCH   1  72
ATOM     72  C   UNL     1       4.293  -3.993  -1.048  1.00  0.00     0.118 C 
BRANCH  72  73
ATOM     73  N   UNL     1       4.546  -4.064  -2.477  1.00  0.00    -0.352 N 
ATOM     74  C   UNL     1       5.268  -4.988  -3.187  1.00  0.00     0.251 C 
ATOM     75  H   UNL     1       4.141  -3.344  -3.012  1.00  0.00     0.163 HD
ATOM     76  O   UNL     1       5.223  -5.006  -4.415  1.00  0.00    -0.269 OA
BRANCH  74  77
ATOM     77  C   UNL     1       6.163  -5.926  -2.490  1.00  0.00     0.041 A 
ATOM     78  C   UNL     1       7.468  -5.496  -2.230  1.00  0.00     0.014 A 
ATOM     79  C   UNL     1       5.747  -7.227  -2.168  1.00  0.00     0.039 A 
ATOM     80  C   UNL     1       8.364  -6.362  -1.617  1.00  0.00     0.003 A 
ATOM     81  C   UNL     1       6.641  -8.095  -1.530  1.00  0.00     0.039 A 
ATOM     82  C   UNL     1       7.945  -7.642  -1.258  1.00  0.00     0.026 A 
BRANCH  81  83
ATOM     83  N   UNL     1       6.231  -9.346  -1.024  1.00  0.00    -0.355 N 
ATOM     84  H   UNL     1       5.732  -9.943  -1.627  1.00  0.00     0.167 HD
BRANCH  83  85
ATOM     85  C   UNL     1       6.488  -9.803   0.293  1.00  0.00     0.050 A 
ATOM     86  C   UNL     1       6.295  -8.908   1.352  1.00  0.00     0.047 A 
ATOM     87  C   UNL     1       6.963 -11.107   0.577  1.00  0.00     0.025 A 
ATOM     88  C   UNL     1       6.580  -9.318   2.635  1.00  0.00     0.114 A 
ATOM     89  C   UNL     1       7.221 -11.416   1.936  1.00  0.00     0.072 A 
ATOM     90  C   UNL     1       7.240 -12.087  -0.406  1.00  0.00     0.033 A 
ATOM     91  N   UNL     1       7.031 -10.547   2.938  1.00  0.00    -0.256 NA
ATOM     92  C   UNL     1       7.716 -12.668   2.266  1.00  0.00     0.030 A 
ATOM     93  C   UNL     1       7.748 -13.335  -0.042  1.00  0.00     0.041 A 
ATOM     94  C   UNL     1       7.983 -13.633   1.294  1.00  0.00     0.023 A 
ATOM     95  Cl  UNL     1       8.102 -14.510  -1.247  1.00  0.00    -0.084 Cl
ENDBRANCH  83  85
ENDBRANCH  81  83
ENDBRANCH  74  77
ENDBRANCH  72  73
ENDBRANCH   1  72
TORSDOF 12
