REMARK SMILES C[C@H](NC(=O)N1CC[C@H](C(=O)NCCCNC(=O)c2ccc(-c3c4nc(c(-c5c(F)c(F)c(F)c(F)c5F)c5ccc([nH]5)c(-c5c(F)c(F)c(F)c(F)c5F)c5nc(c(-c6c(F)c(F)c(F)c(F)c6F)c6ccc3[nH]6)C=C5)C=C4)cc2)[C@@H]1C)[C@@H]1CCCO1
REMARK SMILES IDX 13 1 12 2 10 3 11 4 9 6 6 7 7 8 82 9 8 10 83 11 4 12 3 13
REMARK SMILES IDX 5 15 2 16 1 17 84 18 85 19 88 20 86 21 87 22 14 23 15 24
REMARK SMILES IDX 16 25 17 26 18 28 19 29 20 30 81 31 21 32 80 33 22 34 23 35
REMARK SMILES IDX 24 36 74 37 25 38 79 39 73 40 75 41 26 42 78 43 72 44 71 45
REMARK SMILES IDX 27 47 59 48 39 49 58 50 40 51 43 52 57 53 76 54 41 55 42 56
REMARK SMILES IDX 56 58 77 59 44 60 28 61 29 62 37 63 30 64 31 65 35 66 38 67
REMARK SMILES IDX 32 68 33 69 36 70 34 71 60 72 61 73 69 74 62 75 63 76 67 77
REMARK SMILES IDX 70 78 64 79 65 80 68 81 66 82 45 83 46 84 54 85 47 86 48 87
REMARK SMILES IDX 52 88 55 89 49 90 50 91 53 92 51 93
REMARK H PARENT 12 5 3 14 16 27 75 46 43 57
REMARK Flexibility Score: inf
ROOT
ATOM      1  C   UNL     1       2.364   7.416   1.149  1.00  0.00     0.117 C 
ENDROOT
BRANCH   1   2
ATOM      2  N   UNL     1       3.265   6.817   0.181  1.00  0.00    -0.356 N 
ATOM      3  C   UNL     1       3.233   5.591  -0.415  1.00  0.00     0.225 C 
ATOM      4  O   UNL     1       4.080   5.359  -1.277  1.00  0.00    -0.275 OA
ATOM      5  H   UNL     1       4.020   7.388  -0.089  1.00  0.00     0.163 HD
BRANCH   3   6
ATOM      6  C   UNL     1       2.122   4.618  -0.064  1.00  0.00     0.102 C 
ATOM      7  N   UNL     1       1.588   2.417  -0.773  1.00  0.00    -0.321 N 
ATOM      8  C   UNL     1       1.196   3.284  -1.858  1.00  0.00     0.122 C 
ATOM      9  C   UNL     1       2.506   3.130   0.111  1.00  0.00     0.096 C 
ATOM     10  C   UNL     1       1.059   4.635  -1.180  1.00  0.00     0.037 C 
ATOM     11  C   UNL     1       3.959   2.741  -0.159  1.00  0.00     0.032 C 
BRANCH   7  12
ATOM     12  C   UNL     1       1.296   1.091  -0.813  1.00  0.00     0.317 C 
ATOM     13  N   UNL     1       1.386   0.350   0.322  1.00  0.00    -0.333 N 
ATOM     14  H   UNL     1       2.128  -0.294   0.379  1.00  0.00     0.165 HD
ATOM     15  O   UNL     1       0.997   0.509  -1.857  1.00  0.00    -0.249 OA
BRANCH  13  16
ATOM     16  C   UNL     1       0.470   0.424   1.477  1.00  0.00     0.109 C 
ATOM     17  C   UNL     1       0.794   1.526   2.480  1.00  0.00     0.034 C 
BRANCH  16  18
ATOM     18  C   UNL     1      -1.040   0.453   1.135  1.00  0.00     0.140 C 
ATOM     19  C   UNL     1      -1.558  -0.708   0.301  1.00  0.00     0.036 C 
ATOM     20  O   UNL     1      -1.441   1.658   0.456  1.00  0.00    -0.376 OA
ATOM     21  C   UNL     1      -2.846  -0.125  -0.230  1.00  0.00     0.031 C 
ATOM     22  C   UNL     1      -2.447   1.309  -0.509  1.00  0.00     0.160 C 
ENDBRANCH  16  18
ENDBRANCH  13  16
ENDBRANCH   7  12
ENDBRANCH   3   6
ENDBRANCH   1   2
BRANCH   1  23
ATOM     23  C   UNL     1       2.894   7.327   2.577  1.00  0.00     0.042 C 
BRANCH  23  24
ATOM     24  C   UNL     1       4.252   7.996   2.798  1.00  0.00     0.118 C 
BRANCH  24  25
ATOM     25  N   UNL     1       4.270   9.403   2.425  1.00  0.00    -0.352 N 
ATOM     26  C   UNL     1       4.641  10.521   3.128  1.00  0.00     0.251 C 
ATOM     27  H   UNL     1       3.963   9.583   1.507  1.00  0.00     0.163 HD
ATOM     28  O   UNL     1       4.440  11.629   2.639  1.00  0.00    -0.269 OA
BRANCH  26  29
ATOM     29  C   UNL     1       5.250  10.420   4.473  1.00  0.00     0.039 A 
ATOM     30  C   UNL     1       4.870  11.353   5.444  1.00  0.00     0.014 A 
ATOM     31  C   UNL     1       6.214   9.457   4.779  1.00  0.00     0.014 A 
ATOM     32  C   UNL     1       5.400  11.277   6.734  1.00  0.00     0.010 A 
ATOM     33  C   UNL     1       6.690   9.337   6.086  1.00  0.00     0.010 A 
ATOM     34  C   UNL     1       6.284  10.242   7.078  1.00  0.00    -0.014 A 
BRANCH  34  35
ATOM     35  C   UNL     1       6.763  10.083   8.476  1.00  0.00     0.031 A 
ATOM     36  C   UNL     1       8.221  10.229   8.811  1.00  0.00     0.074 A 
ATOM     37  C   UNL     1       5.883   9.746   9.440  1.00  0.00     0.049 A 
ATOM     38  N   UNL     1       8.825  10.077   9.964  1.00  0.00    -0.248 NA
ATOM     39  C   UNL     1       9.126  10.566   7.702  1.00  0.00     0.031 C 
ATOM     40  C   UNL     1       4.451   9.525   9.235  1.00  0.00     0.029 A 
ATOM     41  N   UNL     1       6.064   9.520  10.782  1.00  0.00    -0.354 N 
ATOM     42  C   UNL     1      10.175  10.288   9.717  1.00  0.00     0.074 A 
ATOM     43  C   UNL     1      10.310  10.529   8.296  1.00  0.00     0.031 C 
ATOM     44  C   UNL     1       3.880   9.217  10.410  1.00  0.00     0.029 A 
ATOM     45  C   UNL     1       4.910   9.179  11.444  1.00  0.00     0.049 A 
ATOM     46  H   UNL     1       6.939   9.595  11.228  1.00  0.00     0.167 HD
ATOM     47  C   UNL     1      11.204  10.298  10.598  1.00  0.00     0.037 A 
ATOM     48  C   UNL     1       4.703   8.863  12.736  1.00  0.00     0.037 A 
ATOM     49  C   UNL     1      11.064  10.079  12.015  1.00  0.00     0.049 A 
ATOM     50  C   UNL     1       5.865   8.877  13.692  1.00  0.00     0.074 A 
ATOM     51  C   UNL     1      12.037  10.139  12.998  1.00  0.00     0.029 A 
ATOM     52  N   UNL     1       9.876   9.750  12.651  1.00  0.00    -0.354 N 
ATOM     53  N   UNL     1       7.125   9.156  13.459  1.00  0.00    -0.248 NA
ATOM     54  C   UNL     1       5.575   8.541  15.092  1.00  0.00     0.031 C 
ATOM     55  C   UNL     1      11.450   9.794  14.219  1.00  0.00     0.029 A 
ATOM     56  C   UNL     1      10.098   9.575  14.008  1.00  0.00     0.049 A 
ATOM     57  H   UNL     1       9.004   9.655  12.204  1.00  0.00     0.167 HD
ATOM     58  C   UNL     1       7.771   9.054  14.684  1.00  0.00     0.074 A 
ATOM     59  C   UNL     1       6.760   8.707  15.661  1.00  0.00     0.031 C 
ATOM     60  C   UNL     1       9.084   9.230  14.972  1.00  0.00     0.037 A 
BRANCH  47  61
ATOM     61  C   UNL     1      12.582  10.556  10.057  1.00  0.00     0.064 A 
ATOM     62  C   UNL     1      12.959  11.817   9.570  1.00  0.00     0.173 A 
ATOM     63  C   UNL     1      13.554   9.543  10.073  1.00  0.00     0.173 A 
ATOM     64  F   UNL     1      12.067  12.818   9.525  1.00  0.00    -0.203 F 
ATOM     65  C   UNL     1      14.247  12.046   9.092  1.00  0.00     0.198 A 
ATOM     66  C   UNL     1      14.850   9.784   9.623  1.00  0.00     0.198 A 
ATOM     67  F   UNL     1      13.250   8.321  10.536  1.00  0.00    -0.203 F 
ATOM     68  F   UNL     1      14.569  13.245   8.588  1.00  0.00    -0.200 F 
ATOM     69  C   UNL     1      15.193  11.032   9.127  1.00  0.00     0.200 A 
ATOM     70  F   UNL     1      15.767   8.808   9.672  1.00  0.00    -0.200 F 
ATOM     71  F   UNL     1      16.435  11.257   8.676  1.00  0.00    -0.200 F 
ENDBRANCH  47  61
BRANCH  48  72
ATOM     72  C   UNL     1       3.336   8.520  13.207  1.00  0.00     0.064 A 
ATOM     73  C   UNL     1       2.636   9.373  14.072  1.00  0.00     0.173 A 
ATOM     74  C   UNL     1       2.703   7.333  12.810  1.00  0.00     0.173 A 
ATOM     75  F   UNL     1       3.207  10.510  14.496  1.00  0.00    -0.203 F 
ATOM     76  C   UNL     1       1.366   9.041  14.539  1.00  0.00     0.198 A 
ATOM     77  C   UNL     1       1.421   7.017  13.253  1.00  0.00     0.198 A 
ATOM     78  F   UNL     1       3.327   6.484  11.979  1.00  0.00    -0.203 F 
ATOM     79  F   UNL     1       0.740   9.852  15.404  1.00  0.00    -0.200 F 
ATOM     80  C   UNL     1       0.757   7.867  14.125  1.00  0.00     0.200 A 
ATOM     81  F   UNL     1       0.830   5.888  12.838  1.00  0.00    -0.200 F 
ATOM     82  F   UNL     1      -0.466   7.550  14.571  1.00  0.00    -0.200 F 
ENDBRANCH  48  72
BRANCH  60  83
ATOM     83  C   UNL     1       9.498   9.080  16.408  1.00  0.00     0.064 A 
ATOM     84  C   UNL     1       9.519   7.829  17.042  1.00  0.00     0.173 A 
ATOM     85  C   UNL     1       9.909  10.199  17.149  1.00  0.00     0.173 A 
ATOM     86  F   UNL     1       9.120   6.731  16.382  1.00  0.00    -0.203 F 
ATOM     87  C   UNL     1       9.906   7.708  18.374  1.00  0.00     0.198 A 
ATOM     88  C   UNL     1      10.327  10.069  18.471  1.00  0.00     0.198 A 
ATOM     89  F   UNL     1       9.915  11.417  16.589  1.00  0.00    -0.203 F 
ATOM     90  F   UNL     1       9.867   6.511  18.975  1.00  0.00    -0.200 F 
ATOM     91  C   UNL     1      10.317   8.826  19.085  1.00  0.00     0.200 A 
ATOM     92  F   UNL     1      10.737  11.149  19.151  1.00  0.00    -0.200 F 
ATOM     93  F   UNL     1      10.695   8.707  20.365  1.00  0.00    -0.200 F 
ENDBRANCH  60  83
ENDBRANCH  34  35
ENDBRANCH  26  29
ENDBRANCH  24  25
ENDBRANCH  23  24
ENDBRANCH   1  23
TORSDOF 13
