REMARK SMILES C[C@@H](c1ccncc1)N1C[C@@H](C(=O)NCCCNC(=O)c2ccc(-c3c4nc(c(-c5c(F)c(F)c(F)c(F)c5F)c5ccc([nH]5)c(-c5c(F)c(F)c(F)c(F)c5F)c5nc(c(-c6c(F)c(F)c(F)c(F)c6F)c6ccc3[nH]6)C=C5)C=C4)cc2)CC1=O
REMARK SMILES IDX 16 1 15 2 14 3 12 4 13 5 11 7 9 8 10 9 85 10 84 11 86 12
REMARK SMILES IDX 2 13 1 14 3 15 4 16 8 17 5 18 7 19 6 20 17 21 18 22 19 23
REMARK SMILES IDX 20 25 21 26 22 27 83 28 23 29 82 30 24 31 25 32 26 33 76 34
REMARK SMILES IDX 27 35 81 36 75 37 77 38 28 39 80 40 74 41 73 42 29 44 61 45
REMARK SMILES IDX 41 46 60 47 42 48 45 49 59 50 78 51 43 52 44 53 58 55 79 56
REMARK SMILES IDX 46 57 30 58 31 59 39 60 32 61 33 62 37 63 40 64 34 65 35 66
REMARK SMILES IDX 38 67 36 68 62 69 63 70 71 71 64 72 65 73 69 74 72 75 66 76
REMARK SMILES IDX 67 77 70 78 68 79 47 80 48 81 56 82 49 83 50 84 54 85 57 86
REMARK SMILES IDX 51 87 52 88 55 89 53 90
REMARK H PARENT 14 6 18 24 77 43 45 54
REMARK Flexibility Score: inf
ROOT
ATOM      1  C   UNL     1      -4.130  -1.678   3.140  1.00  0.00     0.042 C 
ENDROOT
BRANCH   1   2
ATOM      2  C   UNL     1      -3.395  -2.603   2.178  1.00  0.00     0.117 C 
BRANCH   2   3
ATOM      3  N   UNL     1      -4.270  -3.128   1.141  1.00  0.00    -0.356 N 
ATOM      4  C   UNL     1      -4.291  -2.946  -0.204  1.00  0.00     0.225 C 
ATOM      5  O   UNL     1      -5.164  -3.544  -0.840  1.00  0.00    -0.275 OA
ATOM      6  H   UNL     1      -4.976  -3.726   1.476  1.00  0.00     0.163 HD
BRANCH   4   7
ATOM      7  C   UNL     1      -3.293  -2.071  -0.934  1.00  0.00     0.107 C 
ATOM      8  N   UNL     1      -1.077  -1.385  -0.448  1.00  0.00    -0.335 N 
ATOM      9  C   UNL     1      -1.868  -2.555  -0.767  1.00  0.00     0.134 C 
ATOM     10  C   UNL     1      -1.861  -0.250  -0.317  1.00  0.00     0.223 C 
ATOM     11  C   UNL     1      -3.308  -0.613  -0.516  1.00  0.00     0.115 C 
ATOM     12  O   UNL     1      -1.492   0.889  -0.071  1.00  0.00    -0.275 OA
BRANCH   8  13
ATOM     13  C   UNL     1       0.398  -1.464  -0.364  1.00  0.00     0.112 C 
ATOM     14  C   UNL     1       1.112  -0.107  -0.268  1.00  0.00     0.036 C 
BRANCH  13  15
ATOM     15  C   UNL     1       0.857  -2.455   0.705  1.00  0.00    -0.023 A 
ATOM     16  C   UNL     1       0.826  -3.833   0.437  1.00  0.00     0.026 A 
ATOM     17  C   UNL     1       1.316  -2.059   1.967  1.00  0.00     0.026 A 
ATOM     18  C   UNL     1       1.209  -4.729   1.423  1.00  0.00     0.111 A 
ATOM     19  C   UNL     1       1.710  -3.030   2.878  1.00  0.00     0.111 A 
ATOM     20  N   UNL     1       1.653  -4.356   2.638  1.00  0.00    -0.265 NA
ENDBRANCH  13  15
ENDBRANCH   8  13
ENDBRANCH   4   7
ENDBRANCH   2   3
ENDBRANCH   1   2
BRANCH   1  21
ATOM     21  C   UNL     1      -5.251  -2.347   3.927  1.00  0.00     0.118 C 
BRANCH  21  22
ATOM     22  N   UNL     1      -4.775  -3.411   4.798  1.00  0.00    -0.352 N 
ATOM     23  C   UNL     1      -4.849  -3.555   6.161  1.00  0.00     0.251 C 
ATOM     24  H   UNL     1      -4.323  -4.151   4.332  1.00  0.00     0.163 HD
ATOM     25  O   UNL     1      -4.220  -4.460   6.703  1.00  0.00    -0.269 OA
BRANCH  23  26
ATOM     26  C   UNL     1      -5.652  -2.627   6.990  1.00  0.00     0.039 A 
ATOM     27  C   UNL     1      -5.148  -2.251   8.238  1.00  0.00     0.014 A 
ATOM     28  C   UNL     1      -6.900  -2.156   6.578  1.00  0.00     0.014 A 
ATOM     29  C   UNL     1      -5.862  -1.357   9.037  1.00  0.00     0.010 A 
ATOM     30  C   UNL     1      -7.569  -1.193   7.334  1.00  0.00     0.010 A 
ATOM     31  C   UNL     1      -7.059  -0.784   8.574  1.00  0.00    -0.014 A 
BRANCH  31  32
ATOM     32  C   UNL     1      -7.753   0.258   9.374  1.00  0.00     0.031 A 
ATOM     33  C   UNL     1      -9.137   0.029   9.915  1.00  0.00     0.074 A 
ATOM     34  C   UNL     1      -7.134   1.435   9.593  1.00  0.00     0.049 A 
ATOM     35  N   UNL     1      -9.876   0.816  10.659  1.00  0.00    -0.248 NA
ATOM     36  C   UNL     1      -9.791  -1.239   9.556  1.00  0.00     0.031 C 
ATOM     37  C   UNL     1      -5.819   1.806   9.067  1.00  0.00     0.029 A 
ATOM     38  N   UNL     1      -7.522   2.534  10.317  1.00  0.00    -0.354 N 
ATOM     39  C   UNL     1     -11.074   0.141  10.854  1.00  0.00     0.074 A 
ATOM     40  C   UNL     1     -10.991  -1.091  10.099  1.00  0.00     0.031 C 
ATOM     41  C   UNL     1      -5.490   3.025   9.521  1.00  0.00     0.029 A 
ATOM     42  C   UNL     1      -6.585   3.539  10.337  1.00  0.00     0.049 A 
ATOM     43  H   UNL     1      -8.389   2.597  10.779  1.00  0.00     0.167 HD
ATOM     44  C   UNL     1     -12.136   0.503  11.614  1.00  0.00     0.037 A 
ATOM     45  C   UNL     1      -6.604   4.739  10.947  1.00  0.00     0.037 A 
ATOM     46  C   UNL     1     -12.213   1.728  12.369  1.00  0.00     0.049 A 
ATOM     47  C   UNL     1      -7.796   5.115  11.782  1.00  0.00     0.074 A 
ATOM     48  C   UNL     1     -13.222   2.162  13.213  1.00  0.00     0.029 A 
ATOM     49  N   UNL     1     -11.245   2.723  12.365  1.00  0.00    -0.354 N 
ATOM     50  N   UNL     1      -8.887   4.431  12.028  1.00  0.00    -0.248 NA
ATOM     51  C   UNL     1      -7.751   6.429  12.437  1.00  0.00     0.031 C 
ATOM     52  C   UNL     1     -12.892   3.442  13.670  1.00  0.00     0.029 A 
ATOM     53  C   UNL     1     -11.647   3.781  13.168  1.00  0.00     0.049 A 
ATOM     54  H   UNL     1     -10.398   2.683  11.865  1.00  0.00     0.167 HD
ATOM     55  C   UNL     1      -9.647   5.219  12.882  1.00  0.00     0.074 A 
ATOM     56  C   UNL     1      -8.875   6.417  13.138  1.00  0.00     0.031 C 
ATOM     57  C   UNL     1     -10.875   4.975  13.405  1.00  0.00     0.037 A 
BRANCH  44  58
ATOM     58  C   UNL     1     -13.308  -0.439  11.667  1.00  0.00     0.064 A 
ATOM     59  C   UNL     1     -13.220  -1.690  12.297  1.00  0.00     0.173 A 
ATOM     60  C   UNL     1     -14.546  -0.070  11.118  1.00  0.00     0.173 A 
ATOM     61  F   UNL     1     -12.059  -2.099  12.831  1.00  0.00    -0.203 F 
ATOM     62  C   UNL     1     -14.317  -2.548  12.348  1.00  0.00     0.198 A 
ATOM     63  C   UNL     1     -15.649  -0.916  11.201  1.00  0.00     0.198 A 
ATOM     64  F   UNL     1     -14.690   1.116  10.509  1.00  0.00    -0.203 F 
ATOM     65  F   UNL     1     -14.193  -3.759  12.909  1.00  0.00    -0.200 F 
ATOM     66  C   UNL     1     -15.532  -2.157  11.808  1.00  0.00     0.200 A 
ATOM     67  F   UNL     1     -16.828  -0.529  10.692  1.00  0.00    -0.200 F 
ATOM     68  F   UNL     1     -16.589  -2.979  11.866  1.00  0.00    -0.200 F 
ENDBRANCH  44  58
BRANCH  45  69
ATOM     69  C   UNL     1      -5.443   5.660  10.813  1.00  0.00     0.064 A 
ATOM     70  C   UNL     1      -4.631   5.963  11.915  1.00  0.00     0.173 A 
ATOM     71  C   UNL     1      -5.129   6.264   9.587  1.00  0.00     0.173 A 
ATOM     72  F   UNL     1      -4.901   5.426  13.114  1.00  0.00    -0.203 F 
ATOM     73  C   UNL     1      -3.567   6.855  11.802  1.00  0.00     0.198 A 
ATOM     74  C   UNL     1      -4.044   7.129   9.467  1.00  0.00     0.198 A 
ATOM     75  F   UNL     1      -5.870   6.003   8.500  1.00  0.00    -0.203 F 
ATOM     76  F   UNL     1      -2.841   7.170  12.884  1.00  0.00    -0.200 F 
ATOM     77  C   UNL     1      -3.270   7.433  10.577  1.00  0.00     0.200 A 
ATOM     78  F   UNL     1      -3.751   7.670   8.277  1.00  0.00    -0.200 F 
ATOM     79  F   UNL     1      -2.245   8.288  10.467  1.00  0.00    -0.200 F 
ENDBRANCH  45  69
BRANCH  57  80
ATOM     80  C   UNL     1     -11.442   6.021  14.324  1.00  0.00     0.064 A 
ATOM     81  C   UNL     1     -11.817   7.291  13.857  1.00  0.00     0.173 A 
ATOM     82  C   UNL     1     -11.603   5.755  15.693  1.00  0.00     0.173 A 
ATOM     83  F   UNL     1     -11.673   7.604  12.560  1.00  0.00    -0.203 F 
ATOM     84  C   UNL     1     -12.280   8.270  14.733  1.00  0.00     0.198 A 
ATOM     85  C   UNL     1     -12.104   6.723  16.559  1.00  0.00     0.198 A 
ATOM     86  F   UNL     1     -11.271   4.555  16.193  1.00  0.00    -0.203 F 
ATOM     87  F   UNL     1     -12.555   9.499  14.276  1.00  0.00    -0.200 F 
ATOM     88  C   UNL     1     -12.426   7.984  16.082  1.00  0.00     0.200 A 
ATOM     89  F   UNL     1     -12.261   6.439  17.859  1.00  0.00    -0.200 F 
ATOM     90  F   UNL     1     -12.865   8.929  16.925  1.00  0.00    -0.200 F 
ENDBRANCH  57  80
ENDBRANCH  31  32
ENDBRANCH  23  26
ENDBRANCH  21  22
ENDBRANCH   1  21
TORSDOF 12
