REMARK SMILES O=C(NCCCNC(=O)[C@H](CO)NC(=O)[C@H](Cc1c[nH]c2ccccc12)NC(=O)[C@H](Cc1ccc(O)cc1)NC(=O)c1ccc(F)cc1)c1ccc(-c2c3nc(c(-c4c(F)c(F)c(F)c(F)c4F)c4ccc([nH]4)c(-c4c(F)c(F)c(F)c(F)c4F)c4nc(c(-c5c(F)c(F)c(F)c(F)c5F)c5ccc2[nH]5)C=C4)C=C3)cc1
REMARK SMILES IDX 7 1 8 2 9 3 6 5 5 6 4 7 3 8 1 9 2 10 49 12 50 13 111 14
REMARK SMILES IDX 51 15 110 16 52 17 53 18 54 19 104 20 55 21 109 22 103 23
REMARK SMILES IDX 105 24 56 25 108 26 102 27 101 28 57 30 89 31 69 32 88 33
REMARK SMILES IDX 70 34 73 35 87 36 106 37 71 38 72 39 86 41 107 42 74 43
REMARK SMILES IDX 58 44 59 45 67 46 60 47 61 48 65 49 68 50 62 51 63 52 66 53
REMARK SMILES IDX 64 54 90 55 91 56 99 57 92 58 93 59 97 60 100 61 94 62 95 63
REMARK SMILES IDX 98 64 96 65 75 66 76 67 84 68 77 69 78 70 82 71 85 72 79 73
REMARK SMILES IDX 80 74 83 75 81 76 10 77 13 78 14 79 15 81 16 82 27 83 28 84
REMARK SMILES IDX 29 86 30 87 39 88 40 89 41 91 42 92 43 93 48 94 44 95 47 96
REMARK SMILES IDX 45 97 46 98 31 99 32 100 33 101 38 102 34 103 37 104 35 105
REMARK SMILES IDX 36 106 17 108 18 109 19 110 26 111 20 112 21 113 25 114
REMARK SMILES IDX 22 116 24 117 23 118 11 119 12 120
REMARK H PARENT 7 4 3 11 105 29 73 40 13 80 27 85 39 90 36 107 20 115 12 121
REMARK Flexibility Score: inf
ROOT
ATOM      1  N   UNL     1       0.762  -8.525   4.323  1.00  0.00    -0.354 N 
ATOM      2  C   UNL     1       1.901  -8.181   4.980  1.00  0.00     0.244 C 
ATOM      3  O   UNL     1       1.776  -7.467   5.981  1.00  0.00    -0.273 OA
ATOM      4  H   UNL     1      -0.025  -7.966   4.518  1.00  0.00     0.163 HD
ENDROOT
BRANCH   1   5
ATOM      5  C   UNL     1       0.541  -9.600   3.377  1.00  0.00     0.117 C 
BRANCH   5   6
ATOM      6  C   UNL     1       0.222 -10.871   4.146  1.00  0.00     0.042 C 
BRANCH   6   7
ATOM      7  C   UNL     1      -1.091 -10.718   4.895  1.00  0.00     0.118 C 
BRANCH   7   8
ATOM      8  N   UNL     1      -2.196 -10.477   3.971  1.00  0.00    -0.352 N 
ATOM      9  O   UNL     1      -3.902 -11.149   2.647  1.00  0.00    -0.269 OA
ATOM     10  C   UNL     1      -3.237 -11.309   3.667  1.00  0.00     0.251 C 
ATOM     11  H   UNL     1      -2.191  -9.607   3.511  1.00  0.00     0.163 HD
BRANCH  10  12
ATOM     12  C   UNL     1      -3.549 -12.389   4.611  1.00  0.00     0.039 A 
ATOM     13  C   UNL     1      -3.509 -12.111   5.981  1.00  0.00     0.014 A 
ATOM     14  C   UNL     1      -3.854 -13.665   4.143  1.00  0.00     0.014 A 
ATOM     15  C   UNL     1      -3.618 -13.145   6.887  1.00  0.00     0.010 A 
ATOM     16  C   UNL     1      -4.101 -14.680   5.065  1.00  0.00     0.010 A 
ATOM     17  C   UNL     1      -3.972 -14.426   6.440  1.00  0.00    -0.014 A 
BRANCH  17  18
ATOM     18  C   UNL     1      -4.313 -15.447   7.452  1.00  0.00     0.031 A 
ATOM     19  C   UNL     1      -3.516 -16.705   7.582  1.00  0.00     0.074 A 
ATOM     20  C   UNL     1      -5.348 -15.185   8.275  1.00  0.00     0.049 A 
ATOM     21  N   UNL     1      -3.698 -17.704   8.406  1.00  0.00    -0.248 NA
ATOM     22  C   UNL     1      -2.374 -16.876   6.671  1.00  0.00     0.031 C 
ATOM     23  C   UNL     1      -6.177 -13.976   8.223  1.00  0.00     0.029 A 
ATOM     24  N   UNL     1      -5.864 -15.893   9.326  1.00  0.00    -0.354 N 
ATOM     25  C   UNL     1      -2.710 -18.629   8.102  1.00  0.00     0.074 A 
ATOM     26  C   UNL     1      -1.944 -18.087   7.001  1.00  0.00     0.031 C 
ATOM     27  C   UNL     1      -7.052 -13.996   9.235  1.00  0.00     0.029 A 
ATOM     28  C   UNL     1      -6.913 -15.259   9.946  1.00  0.00     0.049 A 
ATOM     29  H   UNL     1      -5.518 -16.770   9.610  1.00  0.00     0.167 HD
ATOM     30  C   UNL     1      -2.473 -19.818   8.703  1.00  0.00     0.037 A 
ATOM     31  C   UNL     1      -7.700 -15.664  10.957  1.00  0.00     0.037 A 
ATOM     32  C   UNL     1      -3.245 -20.328   9.807  1.00  0.00     0.049 A 
ATOM     33  C   UNL     1      -7.441 -17.008  11.567  1.00  0.00     0.074 A 
ATOM     34  C   UNL     1      -3.076 -21.512  10.501  1.00  0.00     0.029 A 
ATOM     35  N   UNL     1      -4.335 -19.683  10.377  1.00  0.00    -0.354 N 
ATOM     36  N   UNL     1      -6.501 -17.875  11.277  1.00  0.00    -0.248 NA
ATOM     37  C   UNL     1      -8.353 -17.438  12.632  1.00  0.00     0.031 C 
ATOM     38  C   UNL     1      -4.097 -21.613  11.449  1.00  0.00     0.029 A 
ATOM     39  C   UNL     1      -4.864 -20.459  11.397  1.00  0.00     0.049 A 
ATOM     40  H   UNL     1      -4.682 -18.804  10.099  1.00  0.00     0.167 HD
ATOM     41  C   UNL     1      -6.695 -18.946  12.134  1.00  0.00     0.074 A 
ATOM     42  C   UNL     1      -7.832 -18.611  12.967  1.00  0.00     0.031 C 
ATOM     43  C   UNL     1      -5.995 -20.103  12.218  1.00  0.00     0.037 A 
BRANCH  30  44
ATOM     44  C   UNL     1      -1.349 -20.663   8.177  1.00  0.00     0.064 A 
ATOM     45  C   UNL     1      -1.620 -21.888   7.546  1.00  0.00     0.173 A 
ATOM     46  C   UNL     1      -0.005 -20.309   8.368  1.00  0.00     0.173 A 
ATOM     47  F   UNL     1      -2.887 -22.277   7.341  1.00  0.00    -0.203 F 
ATOM     48  C   UNL     1      -0.589 -22.734   7.146  1.00  0.00     0.198 A 
ATOM     49  C   UNL     1       1.025 -21.144   7.939  1.00  0.00     0.198 A 
ATOM     50  F   UNL     1       0.310 -19.145   8.957  1.00  0.00    -0.203 F 
ATOM     51  F   UNL     1      -0.875 -23.917   6.585  1.00  0.00    -0.200 F 
ATOM     52  C   UNL     1       0.732 -22.360   7.341  1.00  0.00     0.200 A 
ATOM     53  F   UNL     1       2.301 -20.771   8.107  1.00  0.00    -0.200 F 
ATOM     54  F   UNL     1       1.724 -23.174   6.953  1.00  0.00    -0.200 F 
ENDBRANCH  30  44
BRANCH  31  55
ATOM     55  C   UNL     1      -8.795 -14.779  11.429  1.00  0.00     0.064 A 
ATOM     56  C   UNL     1      -9.887 -14.466  10.604  1.00  0.00     0.173 A 
ATOM     57  C   UNL     1      -8.739 -14.176  12.692  1.00  0.00     0.173 A 
ATOM     58  F   UNL     1      -9.981 -15.007   9.380  1.00  0.00    -0.203 F 
ATOM     59  C   UNL     1     -10.864 -13.563  11.013  1.00  0.00     0.198 A 
ATOM     60  C   UNL     1      -9.735 -13.299  13.114  1.00  0.00     0.198 A 
ATOM     61  F   UNL     1      -7.721 -14.452  13.521  1.00  0.00    -0.203 F 
ATOM     62  F   UNL     1     -11.867 -13.242  10.184  1.00  0.00    -0.200 F 
ATOM     63  C   UNL     1     -10.791 -12.984  12.270  1.00  0.00     0.200 A 
ATOM     64  F   UNL     1      -9.673 -12.757  14.338  1.00  0.00    -0.200 F 
ATOM     65  F   UNL     1     -11.736 -12.122  12.669  1.00  0.00    -0.200 F 
ENDBRANCH  31  55
BRANCH  43  66
ATOM     66  C   UNL     1      -6.419 -21.088  13.267  1.00  0.00     0.064 A 
ATOM     67  C   UNL     1      -5.590 -21.347  14.370  1.00  0.00     0.173 A 
ATOM     68  C   UNL     1      -7.601 -21.832  13.141  1.00  0.00     0.173 A 
ATOM     69  F   UNL     1      -4.446 -20.666  14.531  1.00  0.00    -0.203 F 
ATOM     70  C   UNL     1      -5.920 -22.331  15.296  1.00  0.00     0.198 A 
ATOM     71  C   UNL     1      -7.944 -22.792  14.089  1.00  0.00     0.198 A 
ATOM     72  F   UNL     1      -8.434 -21.608  12.114  1.00  0.00    -0.203 F 
ATOM     73  F   UNL     1      -5.091 -22.591  16.317  1.00  0.00    -0.200 F 
ATOM     74  C   UNL     1      -7.097 -23.050  15.157  1.00  0.00     0.200 A 
ATOM     75  F   UNL     1      -9.096 -23.466  13.970  1.00  0.00    -0.200 F 
ATOM     76  F   UNL     1      -7.418 -23.991  16.055  1.00  0.00    -0.200 F 
ENDBRANCH  43  66
ENDBRANCH  17  18
ENDBRANCH  10  12
ENDBRANCH   7   8
ENDBRANCH   6   7
ENDBRANCH   5   6
ENDBRANCH   1   5
BRANCH   2  77
ATOM     77  C   UNL     1       3.283  -8.420   4.362  1.00  0.00     0.197 C 
BRANCH  77  78
ATOM     78  N   UNL     1       3.520  -9.644   3.598  1.00  0.00    -0.340 N 
ATOM     79  C   UNL     1       3.821 -10.926   3.873  1.00  0.00     0.243 C 
ATOM     80  H   UNL     1       3.438  -9.489   2.629  1.00  0.00     0.164 HD
ATOM     81  O   UNL     1       3.473 -11.720   2.990  1.00  0.00    -0.273 OA
BRANCH  79  82
ATOM     82  C   UNL     1       4.671 -11.389   5.080  1.00  0.00     0.175 C 
BRANCH  82  83
ATOM     83  N   UNL     1       4.930 -10.357   6.096  1.00  0.00    -0.342 N 
ATOM     84  C   UNL     1       5.962  -9.471   6.257  1.00  0.00     0.243 C 
ATOM     85  H   UNL     1       4.233 -10.292   6.788  1.00  0.00     0.164 HD
ATOM     86  O   UNL     1       5.758  -8.559   7.069  1.00  0.00    -0.273 OA
BRANCH  84  87
ATOM     87  C   UNL     1       7.371  -9.613   5.611  1.00  0.00     0.176 C 
BRANCH  87  88
ATOM     88  N   UNL     1       7.577 -10.665   4.625  1.00  0.00    -0.340 N 
ATOM     89  C   UNL     1       8.143 -11.911   4.761  1.00  0.00     0.251 C 
ATOM     90  H   UNL     1       7.261 -10.450   3.718  1.00  0.00     0.164 HD
ATOM     91  O   UNL     1       8.242 -12.623   3.765  1.00  0.00    -0.269 OA
BRANCH  89  92
ATOM     92  C   UNL     1       8.679 -12.387   6.061  1.00  0.00     0.040 A 
ATOM     93  C   UNL     1       7.993 -12.248   7.276  1.00  0.00     0.017 A 
ATOM     94  C   UNL     1       9.932 -13.015   6.043  1.00  0.00     0.017 A 
ATOM     95  C   UNL     1       8.605 -12.629   8.472  1.00  0.00     0.040 A 
ATOM     96  C   UNL     1      10.531 -13.418   7.238  1.00  0.00     0.040 A 
ATOM     97  C   UNL     1       9.873 -13.199   8.443  1.00  0.00     0.123 A 
ATOM     98  F   UNL     1      10.465 -13.548   9.591  1.00  0.00    -0.207 F 
ENDBRANCH  89  92
ENDBRANCH  87  88
BRANCH  87  99
ATOM     99  C   UNL     1       7.976  -8.255   5.166  1.00  0.00     0.070 C 
BRANCH  99 100
ATOM    100  C   UNL     1       7.332  -7.479   4.035  1.00  0.00    -0.045 A 
ATOM    101  C   UNL     1       7.371  -7.933   2.708  1.00  0.00     0.007 A 
ATOM    102  C   UNL     1       6.769  -6.216   4.293  1.00  0.00     0.007 A 
ATOM    103  C   UNL     1       6.804  -7.177   1.673  1.00  0.00     0.046 A 
ATOM    104  C   UNL     1       6.233  -5.443   3.256  1.00  0.00     0.046 A 
ATOM    105  C   UNL     1       6.225  -5.944   1.958  1.00  0.00     0.115 A 
BRANCH 105 106
ATOM    106  O   UNL     1       5.542  -5.243   1.008  1.00  0.00    -0.508 OA
ATOM    107  H   UNL     1       5.517  -5.553   0.124  1.00  0.00     0.293 HD
ENDBRANCH 105 106
ENDBRANCH  99 100
ENDBRANCH  87  99
ENDBRANCH  84  87
ENDBRANCH  82  83
BRANCH  82 108
ATOM    108  C   UNL     1       4.092 -12.692   5.686  1.00  0.00     0.072 C 
BRANCH 108 109
ATOM    109  C   UNL     1       4.522 -13.976   5.002  1.00  0.00    -0.020 A 
ATOM    110  C   UNL     1       5.051 -14.124   3.732  1.00  0.00     0.087 A 
ATOM    111  C   UNL     1       4.447 -15.306   5.550  1.00  0.00     0.003 A 
ATOM    112  N   UNL     1       5.265 -15.450   3.483  1.00  0.00    -0.361 N 
ATOM    113  C   UNL     1       4.902 -16.197   4.574  1.00  0.00     0.046 A 
ATOM    114  C   UNL     1       4.029 -15.841   6.786  1.00  0.00     0.010 A 
ATOM    115  H   UNL     1       5.628 -15.815   2.644  1.00  0.00     0.166 HD
ATOM    116  C   UNL     1       4.949 -17.584   4.760  1.00  0.00     0.026 A 
ATOM    117  C   UNL     1       4.081 -17.227   6.996  1.00  0.00     0.001 A 
ATOM    118  C   UNL     1       4.530 -18.084   5.994  1.00  0.00     0.002 A 
ENDBRANCH 108 109
ENDBRANCH  82 108
ENDBRANCH  79  82
ENDBRANCH  77  78
BRANCH  77 119
ATOM    119  C   UNL     1       3.471  -7.253   3.394  1.00  0.00     0.191 C 
BRANCH 119 120
ATOM    120  O   UNL     1       2.758  -7.453   2.167  1.00  0.00    -0.394 OA
ATOM    121  H   UNL     1       3.091  -8.250   1.725  1.00  0.00     0.210 HD
ENDBRANCH 119 120
ENDBRANCH  77 119
ENDBRANCH   2  77
TORSDOF 23
