REMARK SMILES O=C(CCC(=O)Nc1ncc([N+](=O)[O-])s1)NCCCNC(=O)c1ccc(-c2c3nc(c(-c4c(F)c(F)c(F)c(F)c4F)c4ccc([nH]4)c(-c4c(F)c(F)c(F)c(F)c4F)c4nc(c(-c5c(F)c(F)c(F)c(F)c5F)c5ccc2[nH]5)C=C4)C=C3)cc1
REMARK SMILES IDX 17 1 16 2 1 3 2 4 3 6 4 7 5 8 6 9 7 10 8 12 9 13 15 14 10 15
REMARK SMILES IDX 11 16 12 17 13 18 14 19 18 20 19 21 20 22 21 23 22 25 23 26
REMARK SMILES IDX 24 27 85 28 25 29 84 30 26 31 27 32 28 33 78 34 29 35 83 36
REMARK SMILES IDX 77 37 79 38 30 39 82 40 76 41 75 42 31 44 63 45 43 46 62 47
REMARK SMILES IDX 44 48 47 49 61 50 80 51 45 52 46 53 60 55 81 56 48 57 32 58
REMARK SMILES IDX 33 59 41 60 34 61 35 62 39 63 42 64 36 65 37 66 40 67 38 68
REMARK SMILES IDX 64 69 65 70 73 71 66 72 67 73 71 74 74 75 68 76 69 77 72 78
REMARK SMILES IDX 70 79 49 80 50 81 58 82 51 83 52 84 56 85 59 86 53 87 54 88
REMARK SMILES IDX 57 89 55 90
REMARK H PARENT 16 5 7 11 20 24 79 43 47 54
REMARK Flexibility Score: inf
ROOT
ATOM      1  C   UNL     1       2.116   1.650   1.826  1.00  0.00     0.117 C 
ENDROOT
BRANCH   1   2
ATOM      2  N   UNL     1       2.958   0.656   1.196  1.00  0.00    -0.356 N 
ATOM      3  O   UNL     1       1.244  -0.721   0.522  1.00  0.00    -0.275 OA
ATOM      4  C   UNL     1       2.432  -0.420   0.512  1.00  0.00     0.220 C 
ATOM      5  H   UNL     1       3.936   0.750   1.258  1.00  0.00     0.163 HD
BRANCH   4   6
ATOM      6  C   UNL     1       3.459  -1.187  -0.294  1.00  0.00     0.110 C 
BRANCH   6   7
ATOM      7  C   UNL     1       3.733  -0.544  -1.652  1.00  0.00     0.110 C 
BRANCH   7   8
ATOM      8  C   UNL     1       4.459   0.782  -1.525  1.00  0.00     0.226 C 
ATOM      9  O   UNL     1       5.653   0.793  -1.202  1.00  0.00    -0.275 OA
ATOM     10  N   UNL     1       3.842   1.985  -1.679  1.00  0.00    -0.302 N 
ATOM     11  H   UNL     1       4.425   2.776  -1.746  1.00  0.00     0.172 HD
BRANCH  10  12
ATOM     12  C   UNL     1       2.499   2.207  -1.750  1.00  0.00     0.195 A 
ATOM     13  N   UNL     1       1.528   1.337  -1.827  1.00  0.00    -0.221 NA
ATOM     14  S   UNL     1       2.038   3.842  -1.549  1.00  0.00    -0.024 S 
ATOM     15  C   UNL     1       0.326   1.964  -1.553  1.00  0.00     0.212 A 
ATOM     16  C   UNL     1       0.431   3.316  -1.333  1.00  0.00     0.345 A 
BRANCH  16  17
ATOM     17  N   UNL     1      -0.608   4.203  -0.921  1.00  0.00     0.076 N 
ATOM     18  O   UNL     1      -0.353   5.412  -0.869  1.00  0.00    -0.257 OA
ATOM     19  O   UNL     1      -1.688   3.681  -0.622  1.00  0.00    -0.257 OA
ENDBRANCH  16  17
ENDBRANCH  10  12
ENDBRANCH   7   8
ENDBRANCH   6   7
ENDBRANCH   4   6
ENDBRANCH   1   2
BRANCH   1  20
ATOM     20  C   UNL     1       2.516   1.977   3.253  1.00  0.00     0.042 C 
BRANCH  20  21
ATOM     21  C   UNL     1       3.961   2.423   3.430  1.00  0.00     0.118 C 
BRANCH  21  22
ATOM     22  N   UNL     1       4.324   3.623   2.688  1.00  0.00    -0.352 N 
ATOM     23  C   UNL     1       5.076   4.705   3.095  1.00  0.00     0.251 C 
ATOM     24  H   UNL     1       3.985   3.668   1.765  1.00  0.00     0.163 HD
ATOM     25  O   UNL     1       5.243   5.654   2.340  1.00  0.00    -0.269 OA
BRANCH  23  26
ATOM     26  C   UNL     1       5.630   4.737   4.468  1.00  0.00     0.039 A 
ATOM     27  C   UNL     1       5.450   5.887   5.240  1.00  0.00     0.014 A 
ATOM     28  C   UNL     1       6.260   3.618   5.014  1.00  0.00     0.014 A 
ATOM     29  C   UNL     1       5.804   5.875   6.593  1.00  0.00     0.010 A 
ATOM     30  C   UNL     1       6.526   3.575   6.379  1.00  0.00     0.010 A 
ATOM     31  C   UNL     1       6.289   4.698   7.186  1.00  0.00    -0.014 A 
BRANCH  31  32
ATOM     32  C   UNL     1       6.532   4.605   8.650  1.00  0.00     0.031 A 
ATOM     33  C   UNL     1       7.909   4.297   9.169  1.00  0.00     0.074 A 
ATOM     34  C   UNL     1       5.497   4.698   9.508  1.00  0.00     0.049 A 
ATOM     35  N   UNL     1       8.298   4.056  10.396  1.00  0.00    -0.248 NA
ATOM     36  C   UNL     1       8.986   4.209   8.171  1.00  0.00     0.031 C 
ATOM     37  C   UNL     1       4.100   4.926   9.132  1.00  0.00     0.029 A 
ATOM     38  N   UNL     1       5.457   4.596  10.877  1.00  0.00    -0.354 N 
ATOM     39  C   UNL     1       9.650   3.756  10.312  1.00  0.00     0.074 A 
ATOM     40  C   UNL     1      10.007   3.800   8.910  1.00  0.00     0.031 C 
ATOM     41  C   UNL     1       3.346   4.974  10.242  1.00  0.00     0.029 A 
ATOM     42  C   UNL     1       4.198   4.744  11.405  1.00  0.00     0.049 A 
ATOM     43  H   UNL     1       6.256   4.433  11.428  1.00  0.00     0.167 HD
ATOM     44  C   UNL     1      10.523   3.490  11.313  1.00  0.00     0.037 A 
ATOM     45  C   UNL     1       3.776   4.697  12.683  1.00  0.00     0.037 A 
ATOM     46  C   UNL     1      10.182   3.499  12.710  1.00  0.00     0.049 A 
ATOM     47  C   UNL     1       4.774   4.451  13.781  1.00  0.00     0.074 A 
ATOM     48  C   UNL     1      11.012   3.319  13.803  1.00  0.00     0.029 A 
ATOM     49  N   UNL     1       8.905   3.709  13.208  1.00  0.00    -0.354 N 
ATOM     50  N   UNL     1       6.063   4.232  13.692  1.00  0.00    -0.248 NA
ATOM     51  C   UNL     1       4.259   4.452  15.157  1.00  0.00     0.031 C 
ATOM     52  C   UNL     1      10.233   3.395  14.962  1.00  0.00     0.029 A 
ATOM     53  C   UNL     1       8.923   3.656  14.592  1.00  0.00     0.049 A 
ATOM     54  H   UNL     1       8.104   3.872  12.659  1.00  0.00     0.167 HD
ATOM     55  C   UNL     1       6.516   4.093  14.996  1.00  0.00     0.074 A 
ATOM     56  C   UNL     1       5.367   4.266  15.860  1.00  0.00     0.031 C 
ATOM     57  C   UNL     1       7.773   3.844  15.437  1.00  0.00     0.037 A 
BRANCH  44  58
ATOM     58  C   UNL     1      11.939   3.181  10.929  1.00  0.00     0.064 A 
ATOM     59  C   UNL     1      12.800   4.175  10.438  1.00  0.00     0.173 A 
ATOM     60  C   UNL     1      12.451   1.883  11.078  1.00  0.00     0.173 A 
ATOM     61  F   UNL     1      12.353   5.428  10.265  1.00  0.00    -0.203 F 
ATOM     62  C   UNL     1      14.111   3.874  10.082  1.00  0.00     0.198 A 
ATOM     63  C   UNL     1      13.772   1.593  10.747  1.00  0.00     0.198 A 
ATOM     64  F   UNL     1      11.671   0.898  11.547  1.00  0.00    -0.203 F 
ATOM     65  F   UNL     1      14.899   4.829   9.568  1.00  0.00    -0.200 F 
ATOM     66  C   UNL     1      14.598   2.586  10.242  1.00  0.00     0.200 A 
ATOM     67  F   UNL     1      14.244   0.349  10.911  1.00  0.00    -0.200 F 
ATOM     68  F   UNL     1      15.862   2.299   9.901  1.00  0.00    -0.200 F 
ENDBRANCH  44  58
BRANCH  45  69
ATOM     69  C   UNL     1       2.344   4.928  13.000  1.00  0.00     0.064 A 
ATOM     70  C   UNL     1       1.931   6.122  13.609  1.00  0.00     0.173 A 
ATOM     71  C   UNL     1       1.364   3.970  12.708  1.00  0.00     0.173 A 
ATOM     72  F   UNL     1       2.837   7.058  13.927  1.00  0.00    -0.203 F 
ATOM     73  C   UNL     1       0.593   6.341  13.929  1.00  0.00     0.198 A 
ATOM     74  C   UNL     1       0.023   4.199  13.008  1.00  0.00     0.198 A 
ATOM     75  F   UNL     1       1.709   2.814  12.122  1.00  0.00    -0.203 F 
ATOM     76  F   UNL     1       0.231   7.473  14.547  1.00  0.00    -0.200 F 
ATOM     77  C   UNL     1      -0.361   5.382  13.624  1.00  0.00     0.200 A 
ATOM     78  F   UNL     1      -0.898   3.275  12.702  1.00  0.00    -0.200 F 
ATOM     79  F   UNL     1      -1.648   5.593  13.931  1.00  0.00    -0.200 F 
ENDBRANCH  45  69
BRANCH  57  80
ATOM     80  C   UNL     1       7.979   3.777  16.920  1.00  0.00     0.064 A 
ATOM     81  C   UNL     1       7.556   2.670  17.670  1.00  0.00     0.173 A 
ATOM     82  C   UNL     1       8.642   4.816  17.591  1.00  0.00     0.173 A 
ATOM     83  F   UNL     1       6.904   1.661  17.074  1.00  0.00    -0.203 F 
ATOM     84  C   UNL     1       7.774   2.614  19.044  1.00  0.00     0.198 A 
ATOM     85  C   UNL     1       8.879   4.745  18.961  1.00  0.00     0.198 A 
ATOM     86  F   UNL     1       9.068   5.894  16.916  1.00  0.00    -0.203 F 
ATOM     87  F   UNL     1       7.329   1.564  19.748  1.00  0.00    -0.200 F 
ATOM     88  C   UNL     1       8.441   3.647  19.686  1.00  0.00     0.200 A 
ATOM     89  F   UNL     1       9.530   5.740  19.579  1.00  0.00    -0.200 F 
ATOM     90  F   UNL     1       8.654   3.588  21.008  1.00  0.00    -0.200 F 
ENDBRANCH  57  80
ENDBRANCH  31  32
ENDBRANCH  23  26
ENDBRANCH  21  22
ENDBRANCH  20  21
ENDBRANCH   1  20
TORSDOF 14
