REMARK SMILES O=C1OC(c2ccc(Cl)cc2)=N/C1=C/Nc1ccc(O)c(C(=O)NCCCNC(=O)c2ccc(-c3c4nc(c(-c5c(F)c(F)c(F)c(F)c5F)c5ccc([nH]5)c(-c5c(F)c(F)c(F)c(F)c5F)c5nc(c(-c6c(F)c(F)c(F)c(F)c6F)c6ccc3[nH]6)C=C5)C=C4)cc2)c1
REMARK SMILES IDX 25 1 24 2 22 3 23 4 21 6 16 7 17 8 94 9 18 10 19 11 15 12
REMARK SMILES IDX 14 14 1 15 2 16 3 17 13 18 4 19 12 20 5 21 6 22 11 23 7 24
REMARK SMILES IDX 10 25 8 26 9 27 20 28 26 30 27 31 28 32 29 33 30 35 31 36
REMARK SMILES IDX 32 37 93 38 33 39 92 40 34 41 35 42 36 43 86 44 37 45 91 46
REMARK SMILES IDX 85 47 87 48 38 49 90 50 84 51 83 52 39 54 71 55 51 56 70 57
REMARK SMILES IDX 52 58 55 59 69 60 88 61 53 62 54 63 68 65 89 66 56 67 40 68
REMARK SMILES IDX 41 69 49 70 42 71 43 72 47 73 50 74 44 75 45 76 48 77 46 78
REMARK SMILES IDX 72 79 73 80 81 81 74 82 75 83 79 84 82 85 76 86 77 87 80 88
REMARK SMILES IDX 78 89 57 90 58 91 66 92 59 93 60 94 64 95 67 96 61 97 62 98
REMARK SMILES IDX 65 99 63 100
REMARK H PARENT 24 5 15 13 20 29 28 34 87 53 55 64
REMARK Flexibility Score: inf
ROOT
ATOM      1  C   UNL     1      -1.968  -9.448  -1.329  1.00  0.00     0.118 C 
ENDROOT
BRANCH   1   2
ATOM      2  N   UNL     1      -2.818  -8.334  -1.687  1.00  0.00    -0.352 N 
ATOM      3  C   UNL     1      -2.871  -7.034  -1.261  1.00  0.00     0.255 C 
ATOM      4  O   UNL     1      -3.797  -6.360  -1.726  1.00  0.00    -0.269 OA
ATOM      5  H   UNL     1      -3.491  -8.554  -2.372  1.00  0.00     0.163 HD
BRANCH   3   6
ATOM      6  C   UNL     1      -1.867  -6.360  -0.381  1.00  0.00     0.083 A 
ATOM      7  C   UNL     1      -0.846  -4.168   0.095  1.00  0.00     0.039 A 
ATOM      8  C   UNL     1       0.008  -4.780   1.011  1.00  0.00     0.030 A 
ATOM      9  C   UNL     1      -1.754  -4.970  -0.605  1.00  0.00     0.043 A 
ATOM     10  C   UNL     1      -0.115  -6.137   1.294  1.00  0.00     0.049 A 
ATOM     11  C   UNL     1      -1.068  -6.915   0.626  1.00  0.00     0.128 A 
BRANCH   7  12
ATOM     12  N   UNL     1      -0.780  -2.799  -0.185  1.00  0.00    -0.360 N 
ATOM     13  H   UNL     1      -1.622  -2.357  -0.441  1.00  0.00     0.166 HD
BRANCH  12  14
ATOM     14  C   UNL     1       0.340  -2.013  -0.139  1.00  0.00     0.119 C 
ATOM     15  O   UNL     1      -1.897   0.013  -0.007  1.00  0.00    -0.244 OA
ATOM     16  C   UNL     1      -0.708   0.252  -0.012  1.00  0.00     0.365 C 
ATOM     17  O   UNL     1      -0.100   1.470   0.083  1.00  0.00    -0.402 OA
ATOM     18  C   UNL     1       0.445  -0.682  -0.109  1.00  0.00     0.168 C 
ATOM     19  C   UNL     1       1.228   1.230  -0.008  1.00  0.00     0.231 C 
ATOM     20  N   UNL     1       1.627   0.007  -0.128  1.00  0.00    -0.204 NA
BRANCH  19  21
ATOM     21  C   UNL     1       2.075   2.415  -0.025  1.00  0.00     0.037 A 
ATOM     22  C   UNL     1       1.978   3.372   0.988  1.00  0.00     0.015 A 
ATOM     23  C   UNL     1       3.013   2.548  -1.053  1.00  0.00     0.015 A 
ATOM     24  C   UNL     1       2.837   4.473   0.970  1.00  0.00     0.021 A 
ATOM     25  C   UNL     1       3.855   3.660  -1.077  1.00  0.00     0.021 A 
ATOM     26  C   UNL     1       3.767   4.614  -0.063  1.00  0.00     0.041 A 
ATOM     27  Cl  UNL     1       4.821   5.974  -0.083  1.00  0.00    -0.084 Cl
ENDBRANCH  19  21
ENDBRANCH  12  14
ENDBRANCH   7  12
BRANCH  11  28
ATOM     28  O   UNL     1      -1.209  -8.199   1.057  1.00  0.00    -0.507 OA
ATOM     29  H   UNL     1      -0.652  -8.530   1.735  1.00  0.00     0.293 HD
ENDBRANCH  11  28
ENDBRANCH   3   6
ENDBRANCH   1   2
BRANCH   1  30
ATOM     30  C   UNL     1      -2.622 -10.282  -0.226  1.00  0.00     0.042 C 
BRANCH  30  31
ATOM     31  C   UNL     1      -3.692 -11.231  -0.748  1.00  0.00     0.118 C 
BRANCH  31  32
ATOM     32  N   UNL     1      -3.111 -12.322  -1.520  1.00  0.00    -0.352 N 
ATOM     33  C   UNL     1      -3.110 -13.671  -1.276  1.00  0.00     0.251 C 
ATOM     34  H   UNL     1      -2.649 -12.047  -2.345  1.00  0.00     0.163 HD
ATOM     35  O   UNL     1      -2.340 -14.401  -1.894  1.00  0.00    -0.269 OA
BRANCH  33  36
ATOM     36  C   UNL     1      -4.021 -14.250  -0.267  1.00  0.00     0.039 A 
ATOM     37  C   UNL     1      -3.550 -15.276   0.556  1.00  0.00     0.014 A 
ATOM     38  C   UNL     1      -5.342 -13.810  -0.152  1.00  0.00     0.014 A 
ATOM     39  C   UNL     1      -4.383 -15.813   1.539  1.00  0.00     0.010 A 
ATOM     40  C   UNL     1      -6.145 -14.290   0.877  1.00  0.00     0.010 A 
ATOM     41  C   UNL     1      -5.673 -15.294   1.734  1.00  0.00    -0.014 A 
BRANCH  41  42
ATOM     42  C   UNL     1      -6.532 -15.766   2.848  1.00  0.00     0.031 A 
ATOM     43  C   UNL     1      -7.835 -16.455   2.563  1.00  0.00     0.074 A 
ATOM     44  C   UNL     1      -6.167 -15.503   4.117  1.00  0.00     0.049 A 
ATOM     45  N   UNL     1      -8.755 -16.866   3.399  1.00  0.00    -0.248 NA
ATOM     46  C   UNL     1      -8.160 -16.692   1.148  1.00  0.00     0.031 C 
ATOM     47  C   UNL     1      -4.942 -14.807   4.514  1.00  0.00     0.029 A 
ATOM     48  N   UNL     1      -6.795 -15.777   5.306  1.00  0.00    -0.354 N 
ATOM     49  C   UNL     1      -9.768 -17.401   2.613  1.00  0.00     0.074 A 
ATOM     50  C   UNL     1      -9.377 -17.208   1.233  1.00  0.00     0.031 C 
ATOM     51  C   UNL     1      -4.895 -14.732   5.853  1.00  0.00     0.029 A 
ATOM     52  C   UNL     1      -6.107 -15.325   6.406  1.00  0.00     0.049 A 
ATOM     53  H   UNL     1      -7.655 -16.252   5.365  1.00  0.00     0.167 HD
ATOM     54  C   UNL     1     -10.909 -18.015   3.010  1.00  0.00     0.037 A 
ATOM     55  C   UNL     1      -6.428 -15.371   7.713  1.00  0.00     0.037 A 
ATOM     56  C   UNL     1     -11.288 -18.200   4.387  1.00  0.00     0.049 A 
ATOM     57  C   UNL     1      -7.725 -16.011   8.125  1.00  0.00     0.074 A 
ATOM     58  C   UNL     1     -12.397 -18.851   4.897  1.00  0.00     0.029 A 
ATOM     59  N   UNL     1     -10.573 -17.717   5.475  1.00  0.00    -0.354 N 
ATOM     60  N   UNL     1      -8.642 -16.578   7.379  1.00  0.00    -0.248 NA
ATOM     61  C   UNL     1      -8.032 -16.017   9.561  1.00  0.00     0.031 C 
ATOM     62  C   UNL     1     -12.387 -18.706   6.289  1.00  0.00     0.029 A 
ATOM     63  C   UNL     1     -11.237 -18.024   6.653  1.00  0.00     0.049 A 
ATOM     64  H   UNL     1      -9.720 -17.229   5.418  1.00  0.00     0.167 HD
ATOM     65  C   UNL     1      -9.620 -17.032   8.254  1.00  0.00     0.074 A 
ATOM     66  C   UNL     1      -9.175 -16.688   9.589  1.00  0.00     0.031 C 
ATOM     67  C   UNL     1     -10.781 -17.674   7.976  1.00  0.00     0.037 A 
BRANCH  54  68
ATOM     68  C   UNL     1     -11.833 -18.519   1.936  1.00  0.00     0.064 A 
ATOM     69  C   UNL     1     -11.473 -19.579   1.088  1.00  0.00     0.173 A 
ATOM     70  C   UNL     1     -13.103 -17.947   1.762  1.00  0.00     0.173 A 
ATOM     71  F   UNL     1     -10.268 -20.158   1.205  1.00  0.00    -0.203 F 
ATOM     72  C   UNL     1     -12.329 -20.017   0.081  1.00  0.00     0.198 A 
ATOM     73  C   UNL     1     -13.972 -18.413   0.778  1.00  0.00     0.198 A 
ATOM     74  F   UNL     1     -13.505 -16.938   2.548  1.00  0.00    -0.203 F 
ATOM     75  F   UNL     1     -11.936 -20.986  -0.756  1.00  0.00    -0.200 F 
ATOM     76  C   UNL     1     -13.580 -19.438  -0.069  1.00  0.00     0.200 A 
ATOM     77  F   UNL     1     -15.187 -17.864   0.645  1.00  0.00    -0.200 F 
ATOM     78  F   UNL     1     -14.404 -19.862  -1.037  1.00  0.00    -0.200 F 
ENDBRANCH  54  68
BRANCH  55  79
ATOM     79  C   UNL     1      -5.493 -14.811   8.723  1.00  0.00     0.064 A 
ATOM     80  C   UNL     1      -4.818 -15.651   9.620  1.00  0.00     0.173 A 
ATOM     81  C   UNL     1      -5.244 -13.433   8.808  1.00  0.00     0.173 A 
ATOM     82  F   UNL     1      -5.036 -16.974   9.590  1.00  0.00    -0.203 F 
ATOM     83  C   UNL     1      -3.943 -15.133  10.573  1.00  0.00     0.198 A 
ATOM     84  C   UNL     1      -4.345 -12.919   9.741  1.00  0.00     0.198 A 
ATOM     85  F   UNL     1      -5.859 -12.585   7.970  1.00  0.00    -0.203 F 
ATOM     86  F   UNL     1      -3.344 -15.955  11.445  1.00  0.00    -0.200 F 
ATOM     87  C   UNL     1      -3.702 -13.769  10.627  1.00  0.00     0.200 A 
ATOM     88  F   UNL     1      -4.100 -11.602   9.777  1.00  0.00    -0.200 F 
ATOM     89  F   UNL     1      -2.852 -13.272  11.537  1.00  0.00    -0.200 F 
ENDBRANCH  55  79
BRANCH  67  90
ATOM     90  C   UNL     1     -11.643 -18.076   9.139  1.00  0.00     0.064 A 
ATOM     91  C   UNL     1     -12.339 -17.128   9.904  1.00  0.00     0.173 A 
ATOM     92  C   UNL     1     -11.811 -19.431   9.463  1.00  0.00     0.173 A 
ATOM     93  F   UNL     1     -12.199 -15.818   9.648  1.00  0.00    -0.203 F 
ATOM     94  C   UNL     1     -13.152 -17.521  10.964  1.00  0.00     0.198 A 
ATOM     95  C   UNL     1     -12.653 -19.822  10.500  1.00  0.00     0.198 A 
ATOM     96  F   UNL     1     -11.173 -20.379   8.761  1.00  0.00    -0.203 F 
ATOM     97  F   UNL     1     -13.768 -16.595  11.712  1.00  0.00    -0.200 F 
ATOM     98  C   UNL     1     -13.317 -18.867  11.254  1.00  0.00     0.200 A 
ATOM     99  F   UNL     1     -12.824 -21.124  10.768  1.00  0.00    -0.200 F 
ATOM    100  F   UNL     1     -14.111 -19.243  12.266  1.00  0.00    -0.200 F 
ENDBRANCH  67  90
ENDBRANCH  41  42
ENDBRANCH  33  36
ENDBRANCH  31  32
ENDBRANCH  30  31
ENDBRANCH   1  30
TORSDOF 14
