REMARK SMILES Cc1ncc(CC(=O)N2CCc3c(c(C(=O)NCCCNC(=O)c4ccc(-c5c6nc(c(-c7c(F)c(F)c(F)c(F)c7F)c7ccc([nH]7)c(-c7c(F)c(F)c(F)c(F)c7F)c7nc(c(-c8c(F)c(F)c(F)c(F)c8F)c8ccc5[nH]8)C=C7)C=C6)cc4)nn3CC3CC3)C2)c(=O)[nH]1
REMARK SMILES IDX 18 1 17 2 15 3 16 4 14 6 9 7 10 8 93 9 11 10 13 11 12 12
REMARK SMILES IDX 88 13 87 14 7 15 8 16 6 17 5 18 1 19 2 20 3 21 96 22 4 23
REMARK SMILES IDX 94 24 95 26 89 27 90 28 91 29 92 30 19 31 20 32 21 33 22 34
REMARK SMILES IDX 23 36 24 37 25 38 86 39 26 40 85 41 27 42 28 43 29 44 79 45
REMARK SMILES IDX 30 46 84 47 78 48 80 49 31 50 83 51 77 52 76 53 32 55 64 56
REMARK SMILES IDX 44 57 63 58 45 59 48 60 62 61 81 62 46 63 47 64 61 66 82 67
REMARK SMILES IDX 49 68 33 69 34 70 42 71 35 72 36 73 40 74 43 75 37 76 38 77
REMARK SMILES IDX 41 78 39 79 65 80 66 81 74 82 67 83 68 84 72 85 75 86 69 87
REMARK SMILES IDX 70 88 73 89 71 90 50 91 51 92 59 93 52 94 53 95 57 96 60 97
REMARK SMILES IDX 54 98 55 99 58 100 56 101
REMARK H PARENT 17 5 96 25 21 35 80 54 48 65
REMARK Flexibility Score: inf
ROOT
ATOM      1  C   UNL     1       1.642   7.234   7.187  1.00  0.00     0.118 C 
ENDROOT
BRANCH   1   2
ATOM      2  N   UNL     1       2.800   6.378   6.942  1.00  0.00    -0.351 N 
ATOM      3  C   UNL     1       2.941   5.266   6.131  1.00  0.00     0.272 C 
ATOM      4  O   UNL     1       4.065   4.772   6.034  1.00  0.00    -0.267 OA
ATOM      5  H   UNL     1       3.613   6.634   7.435  1.00  0.00     0.163 HD
BRANCH   3   6
ATOM      6  C   UNL     1       1.783   4.687   5.428  1.00  0.00     0.155 A 
ATOM      7  N   UNL     1       2.337   2.000   2.795  1.00  0.00    -0.338 N 
ATOM      8  C   UNL     1       1.064   1.322   3.096  1.00  0.00     0.126 C 
ATOM      9  C   UNL     1       2.907   2.780   3.921  1.00  0.00     0.159 C 
ATOM     10  C   UNL     1      -0.067   2.344   3.292  1.00  0.00     0.078 C 
ATOM     11  C   UNL     1       1.788   3.605   4.498  1.00  0.00     0.026 A 
ATOM     12  C   UNL     1       0.452   3.395   4.199  1.00  0.00     0.046 A 
ATOM     13  N   UNL     1      -0.257   4.334   4.869  1.00  0.00    -0.268 N 
ATOM     14  N   UNL     1       0.524   5.122   5.619  1.00  0.00    -0.167 NA
BRANCH   7  15
ATOM     15  C   UNL     1       3.035   1.964   1.600  1.00  0.00     0.227 C 
ATOM     16  O   UNL     1       4.260   2.134   1.590  1.00  0.00    -0.275 OA
BRANCH  15  17
ATOM     17  C   UNL     1       2.284   2.016   0.252  1.00  0.00     0.143 C 
BRANCH  17  18
ATOM     18  C   UNL     1       1.078   1.174   0.023  1.00  0.00     0.045 A 
ATOM     19  C   UNL     1      -2.351  -1.295  -0.099  1.00  0.00     0.087 C 
ATOM     20  C   UNL     1      -1.161  -0.383  -0.125  1.00  0.00     0.105 A 
ATOM     21  N   UNL     1      -1.307   0.900  -0.181  1.00  0.00    -0.243 NA
ATOM     22  N   UNL     1       0.058  -0.997  -0.060  1.00  0.00    -0.311 N 
ATOM     23  C   UNL     1      -0.166   1.654  -0.131  1.00  0.00     0.123 A 
ATOM     24  C   UNL     1       1.229  -0.295  -0.010  1.00  0.00     0.254 A 
ATOM     25  H   UNL     1       0.094  -1.980  -0.049  1.00  0.00     0.171 HD
ATOM     26  O   UNL     1       2.319  -0.847   0.050  1.00  0.00    -0.269 OA
ENDBRANCH  17  18
ENDBRANCH  15  17
ENDBRANCH   7  15
BRANCH  13  27
ATOM     27  C   UNL     1      -1.692   4.579   4.839  1.00  0.00     0.148 C 
BRANCH  27  28
ATOM     28  C   UNL     1      -2.436   4.128   6.068  1.00  0.00     0.011 C 
ATOM     29  C   UNL     1      -1.783   3.612   7.334  1.00  0.00     0.006 C 
ATOM     30  C   UNL     1      -2.391   4.984   7.313  1.00  0.00     0.006 C 
ENDBRANCH  27  28
ENDBRANCH  13  27
ENDBRANCH   3   6
ENDBRANCH   1   2
BRANCH   1  31
ATOM     31  C   UNL     1       0.952   6.950   8.528  1.00  0.00     0.042 C 
BRANCH  31  32
ATOM     32  C   UNL     1       1.661   7.667   9.666  1.00  0.00     0.118 C 
BRANCH  32  33
ATOM     33  N   UNL     1       1.527   9.138   9.598  1.00  0.00    -0.352 N 
ATOM     34  C   UNL     1       1.998  10.128  10.455  1.00  0.00     0.251 C 
ATOM     35  H   UNL     1       1.024   9.470   8.820  1.00  0.00     0.163 HD
ATOM     36  O   UNL     1       1.559  11.262  10.410  1.00  0.00    -0.269 OA
BRANCH  34  37
ATOM     37  C   UNL     1       3.060   9.783  11.419  1.00  0.00     0.039 A 
ATOM     38  C   UNL     1       3.183  10.344  12.696  1.00  0.00     0.014 A 
ATOM     39  C   UNL     1       3.929   8.794  11.019  1.00  0.00     0.014 A 
ATOM     40  C   UNL     1       4.206   9.877  13.525  1.00  0.00     0.010 A 
ATOM     41  C   UNL     1       4.522   8.057  11.983  1.00  0.00     0.010 A 
ATOM     42  C   UNL     1       4.896   8.734  13.122  1.00  0.00    -0.014 A 
BRANCH  42  43
ATOM     43  C   UNL     1       6.003   8.116  13.823  1.00  0.00     0.031 A 
ATOM     44  C   UNL     1       5.597   7.379  15.037  1.00  0.00     0.074 A 
ATOM     45  C   UNL     1       7.189   7.918  13.198  1.00  0.00     0.049 A 
ATOM     46  N   UNL     1       5.845   7.697  16.262  1.00  0.00    -0.248 NA
ATOM     47  C   UNL     1       4.637   6.272  14.889  1.00  0.00     0.031 C 
ATOM     48  C   UNL     1       7.580   8.278  11.826  1.00  0.00     0.029 A 
ATOM     49  N   UNL     1       8.266   7.206  13.632  1.00  0.00    -0.354 N 
ATOM     50  C   UNL     1       5.261   6.694  17.028  1.00  0.00     0.074 A 
ATOM     51  C   UNL     1       4.319   6.040  16.163  1.00  0.00     0.031 C 
ATOM     52  C   UNL     1       8.693   7.595  11.474  1.00  0.00     0.029 A 
ATOM     53  C   UNL     1       9.168   6.855  12.625  1.00  0.00     0.049 A 
ATOM     54  H   UNL     1       8.398   6.960  14.576  1.00  0.00     0.167 HD
ATOM     55  C   UNL     1       5.830   6.292  18.199  1.00  0.00     0.037 A 
ATOM     56  C   UNL     1      10.161   5.938  12.758  1.00  0.00     0.037 A 
ATOM     57  C   UNL     1       6.842   7.240  18.616  1.00  0.00     0.049 A 
ATOM     58  C   UNL     1      10.410   5.793  14.225  1.00  0.00     0.074 A 
ATOM     59  C   UNL     1       6.843   8.600  18.867  1.00  0.00     0.029 A 
ATOM     60  N   UNL     1       8.161   6.904  18.408  1.00  0.00    -0.354 N 
ATOM     61  N   UNL     1      10.874   6.763  14.972  1.00  0.00    -0.248 NA
ATOM     62  C   UNL     1       9.636   4.780  14.934  1.00  0.00     0.031 C 
ATOM     63  C   UNL     1       8.053   9.078  18.278  1.00  0.00     0.029 A 
ATOM     64  C   UNL     1       8.765   7.977  17.802  1.00  0.00     0.049 A 
ATOM     65  H   UNL     1       8.591   6.052  18.649  1.00  0.00     0.167 HD
ATOM     66  C   UNL     1      10.106   6.721  16.129  1.00  0.00     0.074 A 
ATOM     67  C   UNL     1       9.394   5.445  16.068  1.00  0.00     0.031 C 
ATOM     68  C   UNL     1       9.861   7.846  16.868  1.00  0.00     0.037 A 
BRANCH  55  69
ATOM     69  C   UNL     1       5.793   4.878  18.746  1.00  0.00     0.064 A 
ATOM     70  C   UNL     1       6.421   4.633  19.985  1.00  0.00     0.173 A 
ATOM     71  C   UNL     1       5.453   3.722  18.010  1.00  0.00     0.173 A 
ATOM     72  F   UNL     1       6.767   5.648  20.791  1.00  0.00    -0.203 F 
ATOM     73  C   UNL     1       6.804   3.350  20.383  1.00  0.00     0.198 A 
ATOM     74  C   UNL     1       5.791   2.438  18.435  1.00  0.00     0.198 A 
ATOM     75  F   UNL     1       4.875   3.765  16.807  1.00  0.00    -0.203 F 
ATOM     76  F   UNL     1       7.532   3.190  21.496  1.00  0.00    -0.200 F 
ATOM     77  C   UNL     1       6.504   2.254  19.598  1.00  0.00     0.200 A 
ATOM     78  F   UNL     1       5.488   1.389  17.657  1.00  0.00    -0.200 F 
ATOM     79  F   UNL     1       6.934   1.033  19.936  1.00  0.00    -0.200 F 
ENDBRANCH  55  69
BRANCH  56  80
ATOM     80  C   UNL     1      10.596   4.936  11.744  1.00  0.00     0.064 A 
ATOM     81  C   UNL     1      11.769   4.180  11.909  1.00  0.00     0.173 A 
ATOM     82  C   UNL     1       9.737   4.517  10.706  1.00  0.00     0.173 A 
ATOM     83  F   UNL     1      12.621   4.467  12.904  1.00  0.00    -0.203 F 
ATOM     84  C   UNL     1      12.056   3.074  11.094  1.00  0.00     0.198 A 
ATOM     85  C   UNL     1      10.028   3.423   9.889  1.00  0.00     0.198 A 
ATOM     86  F   UNL     1       8.546   5.102  10.516  1.00  0.00    -0.203 F 
ATOM     87  F   UNL     1      13.159   2.345  11.319  1.00  0.00    -0.200 F 
ATOM     88  C   UNL     1      11.182   2.693  10.089  1.00  0.00     0.200 A 
ATOM     89  F   UNL     1       9.150   3.045   8.948  1.00  0.00    -0.200 F 
ATOM     90  F   UNL     1      11.429   1.605   9.347  1.00  0.00    -0.200 F 
ENDBRANCH  56  80
BRANCH  68  91
ATOM     91  C   UNL     1      10.605   9.113  16.537  1.00  0.00     0.064 A 
ATOM     92  C   UNL     1      10.508   9.787  15.306  1.00  0.00     0.173 A 
ATOM     93  C   UNL     1      11.279   9.776  17.572  1.00  0.00     0.173 A 
ATOM     94  F   UNL     1       9.792   9.279  14.298  1.00  0.00    -0.203 F 
ATOM     95  C   UNL     1      11.083  11.042  15.114  1.00  0.00     0.198 A 
ATOM     96  C   UNL     1      11.822  11.045  17.390  1.00  0.00     0.198 A 
ATOM     97  F   UNL     1      11.354   9.215  18.789  1.00  0.00    -0.203 F 
ATOM     98  F   UNL     1      10.969  11.659  13.928  1.00  0.00    -0.200 F 
ATOM     99  C   UNL     1      11.732  11.675  16.159  1.00  0.00     0.200 A 
ATOM    100  F   UNL     1      12.400  11.675  18.422  1.00  0.00    -0.200 F 
ATOM    101  F   UNL     1      12.242  12.903  15.991  1.00  0.00    -0.200 F 
ENDBRANCH  68  91
ENDBRANCH  42  43
ENDBRANCH  34  37
ENDBRANCH  32  33
ENDBRANCH  31  32
ENDBRANCH   1  31
TORSDOF 15
