REMARK SMILES N#C/C(=C\c1ccc(-c2cc(C(=O)NCCCNC(=O)c3ccc(-c4c5nc(c(-c6c(F)c(F)c(F)c(F)c6F)c6ccc([nH]6)c(-c6c(F)c(F)c(F)c(F)c6F)c6nc(c(-c7c(F)c(F)c(F)c(F)c7F)c7ccc4[nH]7)C=C6)C=C5)cc3)ccc2Cl)o1)C(=O)N1CCOCC1
REMARK SMILES IDX 15 1 14 2 12 3 13 4 11 6 9 7 10 8 86 9 85 10 87 11 84 12
REMARK SMILES IDX 8 13 5 14 6 15 88 16 7 17 4 18 3 19 2 20 1 21 89 22 90 23
REMARK SMILES IDX 91 24 92 25 96 26 93 27 95 28 94 29 16 30 17 31 18 32 19 33
REMARK SMILES IDX 20 35 21 36 22 37 83 38 23 39 82 40 24 41 25 42 26 43 76 44
REMARK SMILES IDX 27 45 81 46 75 47 77 48 28 49 80 50 74 51 73 52 29 54 61 55
REMARK SMILES IDX 41 56 60 57 42 58 45 59 59 60 78 61 43 62 44 63 58 65 79 66
REMARK SMILES IDX 46 67 30 68 31 69 39 70 32 71 33 72 37 73 40 74 34 75 35 76
REMARK SMILES IDX 38 77 36 78 62 79 63 80 71 81 64 82 65 83 69 84 72 85 66 86
REMARK SMILES IDX 67 87 70 88 68 89 47 90 48 91 56 92 49 93 50 94 54 95 57 96
REMARK SMILES IDX 51 97 52 98 55 99 53 100
REMARK H PARENT 14 5 18 34 77 53 45 64
REMARK Flexibility Score: inf
ROOT
ATOM      1  C   UNL     1       1.977  -2.602 -10.469  1.00  0.00     0.118 C 
ENDROOT
BRANCH   1   2
ATOM      2  N   UNL     1       2.318  -3.287  -9.233  1.00  0.00    -0.352 N 
ATOM      3  C   UNL     1       2.740  -2.852  -8.002  1.00  0.00     0.251 C 
ATOM      4  O   UNL     1       2.881  -3.705  -7.125  1.00  0.00    -0.269 OA
ATOM      5  H   UNL     1       2.228  -4.265  -9.291  1.00  0.00     0.163 HD
BRANCH   3   6
ATOM      6  C   UNL     1       3.007  -1.424  -7.660  1.00  0.00     0.040 A 
ATOM      7  C   UNL     1       3.160   0.267  -5.880  1.00  0.00     0.037 A 
ATOM      8  C   UNL     1       2.930  -1.056  -6.299  1.00  0.00     0.027 A 
ATOM      9  C   UNL     1       3.467   1.234  -6.851  1.00  0.00     0.052 A 
ATOM     10  C   UNL     1       3.581   0.872  -8.194  1.00  0.00     0.022 A 
ATOM     11  Cl  UNL     1       3.755   2.896  -6.461  1.00  0.00    -0.084 Cl
ATOM     12  C   UNL     1       3.375  -0.451  -8.591  1.00  0.00     0.015 A 
BRANCH   7  13
ATOM     13  C   UNL     1       3.036   0.617  -4.472  1.00  0.00     0.136 A 
ATOM     14  C   UNL     1       3.670   0.525  -2.333  1.00  0.00     0.129 A 
ATOM     15  C   UNL     1       2.672   1.490  -2.459  1.00  0.00     0.051 A 
ATOM     16  O   UNL     1       3.899   0.017  -3.601  1.00  0.00    -0.457 OA
ATOM     17  C   UNL     1       2.236   1.509  -3.800  1.00  0.00     0.051 A 
BRANCH  14  18
ATOM     18  C   UNL     1       4.397   0.085  -1.174  1.00  0.00     0.072 C 
ATOM     19  C   UNL     1       3.850  -0.036   0.063  1.00  0.00     0.121 C 
BRANCH  19  20
ATOM     20  C   UNL     1       2.330  -0.036   0.063  1.00  0.00     0.105 C 
ATOM     21  N   UNL     1       1.069  -0.036   0.063  1.00  0.00    -0.192 NA
ENDBRANCH  19  20
BRANCH  19  22
ATOM     22  C   UNL     1       4.603  -0.641   1.192  1.00  0.00     0.264 C 
ATOM     23  O   UNL     1       4.003  -1.394   1.958  1.00  0.00    -0.268 OA
ATOM     24  N   UNL     1       5.963  -0.404   1.320  1.00  0.00    -0.333 N 
ATOM     25  C   UNL     1       6.774   0.676   0.732  1.00  0.00     0.148 C 
ATOM     26  C   UNL     1       6.768  -1.328   2.126  1.00  0.00     0.148 C 
ATOM     27  C   UNL     1       7.946   0.083  -0.067  1.00  0.00     0.181 C 
ATOM     28  C   UNL     1       7.912  -1.881   1.267  1.00  0.00     0.181 C 
ATOM     29  O   UNL     1       8.723  -0.813   0.744  1.00  0.00    -0.378 OA
ENDBRANCH  19  22
ENDBRANCH  14  18
ENDBRANCH   7  13
ENDBRANCH   3   6
ENDBRANCH   1   2
BRANCH   1  30
ATOM     30  C   UNL     1       3.129  -2.656 -11.474  1.00  0.00     0.042 C 
BRANCH  30  31
ATOM     31  C   UNL     1       3.291  -4.020 -12.146  1.00  0.00     0.118 C 
BRANCH  31  32
ATOM     32  N   UNL     1       2.212  -4.300 -13.083  1.00  0.00    -0.352 N 
ATOM     33  C   UNL     1       2.239  -4.486 -14.443  1.00  0.00     0.251 C 
ATOM     34  H   UNL     1       1.318  -4.366 -12.675  1.00  0.00     0.163 HD
ATOM     35  O   UNL     1       1.187  -4.478 -15.075  1.00  0.00    -0.269 OA
BRANCH  33  36
ATOM     36  C   UNL     1       3.518  -4.689 -15.159  1.00  0.00     0.039 A 
ATOM     37  C   UNL     1       3.695  -4.080 -16.406  1.00  0.00     0.014 A 
ATOM     38  C   UNL     1       4.516  -5.519 -14.643  1.00  0.00     0.014 A 
ATOM     39  C   UNL     1       4.894  -4.252 -17.105  1.00  0.00     0.010 A 
ATOM     40  C   UNL     1       5.735  -5.639 -15.308  1.00  0.00     0.010 A 
ATOM     41  C   UNL     1       5.936  -5.007 -16.545  1.00  0.00    -0.014 A 
BRANCH  41  42
ATOM     42  C   UNL     1       7.249  -5.140 -17.227  1.00  0.00     0.031 A 
ATOM     43  C   UNL     1       7.720  -6.483 -17.708  1.00  0.00     0.074 A 
ATOM     44  C   UNL     1       8.050  -4.064 -17.339  1.00  0.00     0.049 A 
ATOM     45  N   UNL     1       8.878  -6.823 -18.217  1.00  0.00    -0.248 NA
ATOM     46  C   UNL     1       6.771  -7.600 -17.576  1.00  0.00     0.031 C 
ATOM     47  C   UNL     1       7.721  -2.715 -16.877  1.00  0.00     0.029 A 
ATOM     48  N   UNL     1       9.316  -3.938 -17.855  1.00  0.00    -0.354 N 
ATOM     49  C   UNL     1       8.802  -8.189 -18.451  1.00  0.00     0.074 A 
ATOM     50  C   UNL     1       7.503  -8.626 -17.984  1.00  0.00     0.031 C 
ATOM     51  C   UNL     1       8.754  -1.898 -17.134  1.00  0.00     0.029 A 
ATOM     52  C   UNL     1       9.834  -2.671 -17.739  1.00  0.00     0.049 A 
ATOM     53  H   UNL     1       9.807  -4.686 -18.268  1.00  0.00     0.167 HD
ATOM     54  C   UNL     1       9.725  -9.001 -19.021  1.00  0.00     0.037 A 
ATOM     55  C   UNL     1      11.049  -2.192 -18.065  1.00  0.00     0.037 A 
ATOM     56  C   UNL     1      11.008  -8.558 -19.500  1.00  0.00     0.049 A 
ATOM     57  C   UNL     1      12.065  -3.117 -18.677  1.00  0.00     0.074 A 
ATOM     58  C   UNL     1      11.988  -9.290 -20.147  1.00  0.00     0.029 A 
ATOM     59  N   UNL     1      11.490  -7.262 -19.380  1.00  0.00    -0.354 N 
ATOM     60  N   UNL     1      11.960  -4.395 -18.949  1.00  0.00    -0.248 NA
ATOM     61  C   UNL     1      13.368  -2.534 -19.027  1.00  0.00     0.031 C 
ATOM     62  C   UNL     1      13.082  -8.448 -20.377  1.00  0.00     0.029 A 
ATOM     63  C   UNL     1      12.765  -7.180 -19.916  1.00  0.00     0.049 A 
ATOM     64  H   UNL     1      10.999  -6.512 -18.973  1.00  0.00     0.167 HD
ATOM     65  C   UNL     1      13.170  -4.765 -19.518  1.00  0.00     0.074 A 
ATOM     66  C   UNL     1      13.990  -3.572 -19.568  1.00  0.00     0.031 C 
ATOM     67  C   UNL     1      13.568  -5.984 -19.956  1.00  0.00     0.037 A 
BRANCH  54  68
ATOM     68  C   UNL     1       9.378 -10.456 -19.159  1.00  0.00     0.064 A 
ATOM     69  C   UNL     1       8.397 -10.895 -20.062  1.00  0.00     0.173 A 
ATOM     70  C   UNL     1      10.054 -11.426 -18.404  1.00  0.00     0.173 A 
ATOM     71  F   UNL     1       7.715 -10.007 -20.801  1.00  0.00    -0.203 F 
ATOM     72  C   UNL     1       8.083 -12.246 -20.180  1.00  0.00     0.198 A 
ATOM     73  C   UNL     1       9.759 -12.780 -18.547  1.00  0.00     0.198 A 
ATOM     74  F   UNL     1      11.006 -11.063 -17.532  1.00  0.00    -0.203 F 
ATOM     75  F   UNL     1       7.107 -12.635 -21.012  1.00  0.00    -0.200 F 
ATOM     76  C   UNL     1       8.768 -13.188 -19.427  1.00  0.00     0.200 A 
ATOM     77  F   UNL     1      10.431 -13.690 -17.828  1.00  0.00    -0.200 F 
ATOM     78  F   UNL     1       8.468 -14.489 -19.545  1.00  0.00    -0.200 F 
ENDBRANCH  54  68
BRANCH  55  79
ATOM     79  C   UNL     1      11.367  -0.761 -17.820  1.00  0.00     0.064 A 
ATOM     80  C   UNL     1      11.516   0.136 -18.886  1.00  0.00     0.173 A 
ATOM     81  C   UNL     1      11.519  -0.260 -16.518  1.00  0.00     0.173 A 
ATOM     82  F   UNL     1      11.400  -0.300 -20.149  1.00  0.00    -0.203 F 
ATOM     83  C   UNL     1      11.818   1.478 -18.660  1.00  0.00     0.198 A 
ATOM     84  C   UNL     1      11.794   1.087 -16.293  1.00  0.00     0.198 A 
ATOM     85  F   UNL     1      11.381  -1.077 -15.463  1.00  0.00    -0.203 F 
ATOM     86  F   UNL     1      11.993   2.306 -19.699  1.00  0.00    -0.200 F 
ATOM     87  C   UNL     1      11.950   1.953 -17.364  1.00  0.00     0.200 A 
ATOM     88  F   UNL     1      11.905   1.545 -15.039  1.00  0.00    -0.200 F 
ATOM     89  F   UNL     1      12.232   3.245 -17.148  1.00  0.00    -0.200 F 
ENDBRANCH  55  79
BRANCH  67  90
ATOM     90  C   UNL     1      14.945  -6.089 -20.543  1.00  0.00     0.064 A 
ATOM     91  C   UNL     1      16.090  -6.042 -19.736  1.00  0.00     0.173 A 
ATOM     92  C   UNL     1      15.118  -6.290 -21.921  1.00  0.00     0.173 A 
ATOM     93  F   UNL     1      15.977  -5.834 -18.416  1.00  0.00    -0.203 F 
ATOM     94  C   UNL     1      17.361  -6.176 -20.290  1.00  0.00     0.198 A 
ATOM     95  C   UNL     1      16.388  -6.452 -22.467  1.00  0.00     0.198 A 
ATOM     96  F   UNL     1      14.053  -6.347 -22.735  1.00  0.00    -0.203 F 
ATOM     97  F   UNL     1      18.444  -6.090 -19.505  1.00  0.00    -0.200 F 
ATOM     98  C   UNL     1      17.508  -6.390 -21.652  1.00  0.00     0.200 A 
ATOM     99  F   UNL     1      16.527  -6.670 -23.782  1.00  0.00    -0.200 F 
ATOM    100  F   UNL     1      18.731  -6.531 -22.181  1.00  0.00    -0.200 F 
ENDBRANCH  67  90
ENDBRANCH  41  42
ENDBRANCH  33  36
ENDBRANCH  31  32
ENDBRANCH  30  31
ENDBRANCH   1  30
TORSDOF 14
