REMARK SMILES O=C(NCCCNC(=O)c1cccc2cccc([S@](=O)c3ccccc3CO)c12)c1ccc(-c2c3nc(c(-c4c(F)c(F)c(F)c(F)c4F)c4ccc([nH]4)c(-c4c(F)c(F)c(F)c(F)c4F)c4nc(c(-c5c(F)c(F)c(F)c(F)c5F)c5ccc2[nH]5)C=C4)C=C3)cc1
REMARK SMILES IDX 6 1 5 2 4 3 3 4 1 5 2 6 30 8 31 9 92 10 32 11 91 12 33 13
REMARK SMILES IDX 34 14 35 15 85 16 36 17 90 18 84 19 86 20 37 21 89 22 83 23
REMARK SMILES IDX 82 24 38 26 70 27 50 28 69 29 51 30 54 31 68 32 87 33 52 34
REMARK SMILES IDX 53 35 67 37 88 38 55 39 39 40 40 41 48 42 41 43 42 44 46 45
REMARK SMILES IDX 49 46 43 47 44 48 47 49 45 50 71 51 72 52 80 53 73 54 74 55
REMARK SMILES IDX 78 56 81 57 75 58 76 59 79 60 77 61 56 62 57 63 65 64 58 65
REMARK SMILES IDX 59 66 63 67 66 68 60 69 61 70 64 71 62 72 7 73 8 74 9 76
REMARK SMILES IDX 10 77 11 78 29 79 12 80 14 81 18 82 13 83 15 84 17 85 16 86
REMARK SMILES IDX 19 87 20 88 21 89 22 90 26 91 23 92 25 93 24 94 27 95 28 96
REMARK H PARENT 3 7 86 25 54 36 7 75 28 97
REMARK Flexibility Score: inf
ROOT
ATOM      1  C   UNL     1      10.685   7.984  -5.261  1.00  0.00     0.118 C 
ENDROOT
BRANCH   1   2
ATOM      2  C   UNL     1      12.075   7.495  -4.888  1.00  0.00     0.042 C 
BRANCH   2   3
ATOM      3  C   UNL     1      12.538   6.253  -5.633  1.00  0.00     0.118 C 
BRANCH   3   4
ATOM      4  N   UNL     1      12.739   6.468  -7.063  1.00  0.00    -0.352 N 
ATOM      5  O   UNL     1      13.789   6.819  -9.018  1.00  0.00    -0.269 OA
ATOM      6  C   UNL     1      13.876   6.493  -7.839  1.00  0.00     0.251 C 
ATOM      7  H   UNL     1      11.907   6.623  -7.566  1.00  0.00     0.163 HD
BRANCH   6   8
ATOM      8  C   UNL     1      15.208   6.162  -7.277  1.00  0.00     0.039 A 
ATOM      9  C   UNL     1      15.372   5.145  -6.340  1.00  0.00     0.014 A 
ATOM     10  C   UNL     1      16.336   6.853  -7.739  1.00  0.00     0.014 A 
ATOM     11  C   UNL     1      16.606   4.950  -5.730  1.00  0.00     0.010 A 
ATOM     12  C   UNL     1      17.604   6.576  -7.209  1.00  0.00     0.010 A 
ATOM     13  C   UNL     1      17.744   5.646  -6.170  1.00  0.00    -0.014 A 
BRANCH  13  14
ATOM     14  C   UNL     1      19.062   5.312  -5.565  1.00  0.00     0.031 A 
ATOM     15  C   UNL     1      19.847   6.322  -4.776  1.00  0.00     0.074 A 
ATOM     16  C   UNL     1      19.515   4.046  -5.678  1.00  0.00     0.049 A 
ATOM     17  N   UNL     1      20.968   6.160  -4.116  1.00  0.00    -0.248 NA
ATOM     18  C   UNL     1      19.315   7.692  -4.720  1.00  0.00     0.031 C 
ATOM     19  C   UNL     1      18.854   2.984  -6.442  1.00  0.00     0.029 A 
ATOM     20  N   UNL     1      20.607   3.426  -5.129  1.00  0.00    -0.354 N 
ATOM     21  C   UNL     1      21.280   7.402  -3.578  1.00  0.00     0.074 A 
ATOM     22  C   UNL     1      20.246   8.319  -4.011  1.00  0.00     0.031 C 
ATOM     23  C   UNL     1      19.514   1.833  -6.257  1.00  0.00     0.029 A 
ATOM     24  C   UNL     1      20.679   2.085  -5.419  1.00  0.00     0.049 A 
ATOM     25  H   UNL     1      21.276   3.896  -4.580  1.00  0.00     0.167 HD
ATOM     26  C   UNL     1      22.326   7.741  -2.785  1.00  0.00     0.037 A 
ATOM     27  C   UNL     1      21.586   1.159  -5.059  1.00  0.00     0.037 A 
ATOM     28  C   UNL     1      23.345   6.822  -2.344  1.00  0.00     0.049 A 
ATOM     29  C   UNL     1      22.735   1.568  -4.183  1.00  0.00     0.074 A 
ATOM     30  C   UNL     1      24.434   7.069  -1.524  1.00  0.00     0.029 A 
ATOM     31  N   UNL     1      23.401   5.479  -2.685  1.00  0.00    -0.354 N 
ATOM     32  N   UNL     1      22.998   2.740  -3.660  1.00  0.00    -0.248 NA
ATOM     33  C   UNL     1      23.714   0.526  -3.850  1.00  0.00     0.031 C 
ATOM     34  C   UNL     1      25.170   5.885  -1.401  1.00  0.00     0.029 A 
ATOM     35  C   UNL     1      24.515   4.889  -2.106  1.00  0.00     0.049 A 
ATOM     36  H   UNL     1      22.747   5.013  -3.254  1.00  0.00     0.167 HD
ATOM     37  C   UNL     1      24.168   2.577  -2.933  1.00  0.00     0.074 A 
ATOM     38  C   UNL     1      24.543   1.183  -3.052  1.00  0.00     0.031 C 
ATOM     39  C   UNL     1      24.877   3.502  -2.241  1.00  0.00     0.037 A 
BRANCH  26  40
ATOM     40  C   UNL     1      22.433   9.170  -2.336  1.00  0.00     0.064 A 
ATOM     41  C   UNL     1      21.578   9.697  -1.357  1.00  0.00     0.173 A 
ATOM     42  C   UNL     1      23.452   9.998  -2.831  1.00  0.00     0.173 A 
ATOM     43  F   UNL     1      20.581   8.950  -0.857  1.00  0.00    -0.203 F 
ATOM     44  C   UNL     1      21.732  11.004  -0.899  1.00  0.00     0.198 A 
ATOM     45  C   UNL     1      23.618  11.296  -2.354  1.00  0.00     0.198 A 
ATOM     46  F   UNL     1      24.302   9.540  -3.763  1.00  0.00    -0.203 F 
ATOM     47  F   UNL     1      20.886  11.495   0.017  1.00  0.00    -0.200 F 
ATOM     48  C   UNL     1      22.757  11.798  -1.391  1.00  0.00     0.200 A 
ATOM     49  F   UNL     1      24.617  12.057  -2.820  1.00  0.00    -0.200 F 
ATOM     50  F   UNL     1      22.913  13.050  -0.937  1.00  0.00    -0.200 F 
ENDBRANCH  26  40
BRANCH  27  51
ATOM     51  C   UNL     1      21.448  -0.240  -5.540  1.00  0.00     0.064 A 
ATOM     52  C   UNL     1      21.171  -1.289  -4.653  1.00  0.00     0.173 A 
ATOM     53  C   UNL     1      21.598  -0.556  -6.899  1.00  0.00     0.173 A 
ATOM     54  F   UNL     1      21.040  -1.041  -3.341  1.00  0.00    -0.203 F 
ATOM     55  C   UNL     1      21.068  -2.603  -5.104  1.00  0.00     0.198 A 
ATOM     56  C   UNL     1      21.462  -1.865  -7.353  1.00  0.00     0.198 A 
ATOM     57  F   UNL     1      21.860   0.412  -7.789  1.00  0.00    -0.203 F 
ATOM     58  F   UNL     1      20.853  -3.595  -4.229  1.00  0.00    -0.200 F 
ATOM     59  C   UNL     1      21.207  -2.889  -6.454  1.00  0.00     0.200 A 
ATOM     60  F   UNL     1      21.580  -2.133  -8.660  1.00  0.00    -0.200 F 
ATOM     61  F   UNL     1      21.105  -4.153  -6.888  1.00  0.00    -0.200 F 
ENDBRANCH  27  51
BRANCH  39  62
ATOM     62  C   UNL     1      26.121   3.022  -1.555  1.00  0.00     0.064 A 
ATOM     63  C   UNL     1      27.270   2.676  -2.282  1.00  0.00     0.173 A 
ATOM     64  C   UNL     1      26.167   2.910  -0.158  1.00  0.00     0.173 A 
ATOM     65  F   UNL     1      27.268   2.749  -3.622  1.00  0.00    -0.203 F 
ATOM     66  C   UNL     1      28.407   2.200  -1.637  1.00  0.00     0.198 A 
ATOM     67  C   UNL     1      27.317   2.461   0.486  1.00  0.00     0.198 A 
ATOM     68  F   UNL     1      25.097   3.234   0.584  1.00  0.00    -0.203 F 
ATOM     69  F   UNL     1      29.472   1.818  -2.356  1.00  0.00    -0.200 F 
ATOM     70  C   UNL     1      28.432   2.097  -0.255  1.00  0.00     0.200 A 
ATOM     71  F   UNL     1      27.343   2.372   1.823  1.00  0.00    -0.200 F 
ATOM     72  F   UNL     1      29.527   1.634   0.364  1.00  0.00    -0.200 F 
ENDBRANCH  39  62
ENDBRANCH  13  14
ENDBRANCH   6   8
ENDBRANCH   3   4
ENDBRANCH   2   3
ENDBRANCH   1   2
BRANCH   1  73
ATOM     73  N   UNL     1       9.613   7.034  -4.986  1.00  0.00    -0.352 N 
ATOM     74  C   UNL     1       8.488   7.175  -4.196  1.00  0.00     0.251 C 
ATOM     75  H   UNL     1       9.705   6.159  -5.429  1.00  0.00     0.163 HD
ATOM     76  O   UNL     1       7.540   6.403  -4.295  1.00  0.00    -0.269 OA
BRANCH  74  77
ATOM     77  C   UNL     1       8.362   8.363  -3.334  1.00  0.00     0.048 A 
ATOM     78  C   UNL     1       8.164   9.543  -4.087  1.00  0.00     0.014 A 
ATOM     79  C   UNL     1       8.413   8.354  -1.889  1.00  0.00     0.011 A 
ATOM     80  C   UNL     1       8.110  10.773  -3.469  1.00  0.00     0.001 A 
ATOM     81  C   UNL     1       8.337   9.664  -1.309  1.00  0.00    -0.016 A 
ATOM     82  C   UNL     1       8.519   7.266  -0.929  1.00  0.00     0.052 A 
ATOM     83  C   UNL     1       8.207  10.826  -2.090  1.00  0.00     0.009 A 
ATOM     84  C   UNL     1       8.381   9.871   0.076  1.00  0.00     0.009 A 
ATOM     85  C   UNL     1       8.589   7.535   0.463  1.00  0.00     0.019 A 
ATOM     86  C   UNL     1       8.508   8.820   0.963  1.00  0.00     0.002 A 
BRANCH  82  87
ATOM     87  S   UNL     1       8.552   5.478  -1.225  1.00  0.00     0.086 S 
ATOM     88  O   UNL     1       9.217   5.195  -2.529  1.00  0.00    -0.249 OA
BRANCH  87  89
ATOM     89  C   UNL     1       6.757   5.106  -1.312  1.00  0.00     0.049 A 
ATOM     90  C   UNL     1       5.814   5.971  -0.713  1.00  0.00     0.018 A 
ATOM     91  C   UNL     1       6.285   3.856  -1.780  1.00  0.00    -0.006 A 
ATOM     92  C   UNL     1       4.468   5.619  -0.558  1.00  0.00     0.001 A 
ATOM     93  C   UNL     1       4.922   3.513  -1.600  1.00  0.00     0.007 A 
ATOM     94  C   UNL     1       4.023   4.381  -0.989  1.00  0.00     0.000 A 
BRANCH  91  95
ATOM     95  C   UNL     1       7.141   2.802  -2.439  1.00  0.00     0.192 C 
BRANCH  95  96
ATOM     96  O   UNL     1       7.327   1.698  -1.556  1.00  0.00    -0.392 OA
ATOM     97  H   UNL     1       7.768   2.002  -0.747  1.00  0.00     0.211 HD
ENDBRANCH  95  96
ENDBRANCH  91  95
ENDBRANCH  87  89
ENDBRANCH  82  87
ENDBRANCH  74  77
ENDBRANCH   1  73
TORSDOF 14
