REMARK SMILES C[C@H](C[N@H+](C)[C@H]1CC[C@H]([NH3+])CC1)C(=O)NCCCNC(=O)c1ccc(-c2c3nc(c(-c4c(F)c(F)c(F)c(F)c4F)c4ccc([nH]4)c(-c4c(F)c(F)c(F)c(F)c4F)c4nc(c(-c5c(F)c(F)c(F)c(F)c5F)c5ccc2[nH]5)C=C4)C=C3)cc1
REMARK SMILES IDX 16 1 15 2 13 3 14 4 2 6 1 7 3 8 4 9 5 10 6 12 7 13 12 14
REMARK SMILES IDX 8 15 11 16 9 17 10 18 17 22 18 23 19 24 20 25 21 27 22 28
REMARK SMILES IDX 23 29 84 30 24 31 83 32 25 33 26 34 27 35 77 36 28 37 82 38
REMARK SMILES IDX 76 39 78 40 29 41 81 42 75 43 74 44 30 46 62 47 42 48 61 49
REMARK SMILES IDX 43 50 46 51 60 52 79 53 44 54 45 55 59 57 80 58 47 59 31 60
REMARK SMILES IDX 32 61 40 62 33 63 34 64 38 65 41 66 35 67 36 68 39 69 37 70
REMARK SMILES IDX 63 71 64 72 72 73 65 74 66 75 70 76 73 77 67 78 68 79 71 80
REMARK SMILES IDX 69 81 48 82 49 83 57 84 50 85 51 86 55 87 58 88 52 89 53 90
REMARK SMILES IDX 56 91 54 92
REMARK H PARENT 15 5 4 11 10 19 10 20 10 21 19 26 78 45 46 56
REMARK Flexibility Score: inf
ROOT
ATOM      1  C   UNL     1      -1.180   0.140   2.568  1.00  0.00     0.117 C 
ENDROOT
BRANCH   1   2
ATOM      2  N   UNL     1      -1.768  -0.669   1.517  1.00  0.00    -0.356 N 
ATOM      3  C   UNL     1      -1.197  -1.479   0.591  1.00  0.00     0.228 C 
ATOM      4  O   UNL     1      -1.946  -1.991  -0.246  1.00  0.00    -0.275 OA
ATOM      5  H   UNL     1      -2.750  -0.623   1.467  1.00  0.00     0.163 HD
BRANCH   3   6
ATOM      6  C   UNL     1       0.296  -1.750   0.563  1.00  0.00     0.130 C 
ATOM      7  C   UNL     1       0.802  -2.408   1.850  1.00  0.00     0.024 C 
BRANCH   6   8
ATOM      8  C   UNL     1       1.087  -0.498   0.135  1.00  0.00     0.275 C 
BRANCH   8   9
ATOM      9  N   UNL     1       2.475  -0.840  -0.231  1.00  0.00    -0.334 N 
ATOM     10  C   UNL     1       3.398   0.257   0.046  1.00  0.00     0.332 C 
ATOM     11  H   UNL     1       2.780  -1.599   0.380  1.00  0.00     0.348 HD
BRANCH   9  12
ATOM     12  C   UNL     1       2.573  -1.402  -1.594  1.00  0.00     0.184 C 
ATOM     13  C   UNL     1       3.816  -2.304  -1.707  1.00  0.00     0.071 C 
ATOM     14  C   UNL     1       2.531  -0.379  -2.745  1.00  0.00     0.071 C 
ATOM     15  C   UNL     1       3.864  -3.002  -3.066  1.00  0.00     0.071 C 
ATOM     16  C   UNL     1       2.579  -1.085  -4.102  1.00  0.00     0.071 C 
ATOM     17  C   UNL     1       3.813  -1.987  -4.214  1.00  0.00     0.181 C 
BRANCH  17  18
ATOM     18  N   UNL     1       3.805  -2.674  -5.503  1.00  0.00    -0.355 N 
ATOM     19  H   UNL     1       2.972  -3.259  -5.571  1.00  0.00     0.344 HD
ATOM     20  H   UNL     1       4.638  -3.258  -5.582  1.00  0.00     0.344 HD
ATOM     21  H   UNL     1       3.800  -1.986  -6.255  1.00  0.00     0.344 HD
ENDBRANCH  17  18
ENDBRANCH   9  12
ENDBRANCH   8   9
ENDBRANCH   6   8
ENDBRANCH   3   6
ENDBRANCH   1   2
BRANCH   1  22
ATOM     22  C   UNL     1      -1.474   1.618   2.356  1.00  0.00     0.042 C 
BRANCH  22  23
ATOM     23  C   UNL     1      -2.961   1.953   2.394  1.00  0.00     0.118 C 
BRANCH  23  24
ATOM     24  N   UNL     1      -3.583   1.575   3.657  1.00  0.00    -0.352 N 
ATOM     25  C   UNL     1      -4.170   2.356   4.619  1.00  0.00     0.251 C 
ATOM     26  H   UNL     1      -3.583   0.609   3.849  1.00  0.00     0.163 HD
ATOM     27  O   UNL     1      -4.432   1.881   5.722  1.00  0.00    -0.269 OA
BRANCH  25  28
ATOM     28  C   UNL     1      -4.470   3.772   4.336  1.00  0.00     0.039 A 
ATOM     29  C   UNL     1      -4.190   4.732   5.310  1.00  0.00     0.014 A 
ATOM     30  C   UNL     1      -5.027   4.150   3.111  1.00  0.00     0.014 A 
ATOM     31  C   UNL     1      -4.395   6.082   5.025  1.00  0.00     0.010 A 
ATOM     32  C   UNL     1      -5.149   5.498   2.797  1.00  0.00     0.010 A 
ATOM     33  C   UNL     1      -4.830   6.478   3.749  1.00  0.00    -0.014 A 
BRANCH  33  34
ATOM     34  C   UNL     1      -4.933   7.911   3.381  1.00  0.00     0.031 A 
ATOM     35  C   UNL     1      -6.262   8.504   3.011  1.00  0.00     0.074 A 
ATOM     36  C   UNL     1      -3.812   8.654   3.306  1.00  0.00     0.049 A 
ATOM     37  N   UNL     1      -6.540   9.710   2.583  1.00  0.00    -0.248 NA
ATOM     38  C   UNL     1      -7.433   7.618   3.110  1.00  0.00     0.031 C 
ATOM     39  C   UNL     1      -2.459   8.174   3.595  1.00  0.00     0.029 A 
ATOM     40  N   UNL     1      -3.629   9.966   2.950  1.00  0.00    -0.354 N 
ATOM     41  C   UNL     1      -7.909   9.723   2.353  1.00  0.00     0.074 A 
ATOM     42  C   UNL     1      -8.398   8.391   2.634  1.00  0.00     0.031 C 
ATOM     43  C   UNL     1      -1.590   9.182   3.428  1.00  0.00     0.029 A 
ATOM     44  C   UNL     1      -2.314  10.364   2.973  1.00  0.00     0.049 A 
ATOM     45  H   UNL     1      -4.369  10.566   2.703  1.00  0.00     0.167 HD
ATOM     46  C   UNL     1      -8.688  10.760   1.964  1.00  0.00     0.037 A 
ATOM     47  C   UNL     1      -1.755  11.544   2.648  1.00  0.00     0.037 A 
ATOM     48  C   UNL     1      -8.194  12.086   1.698  1.00  0.00     0.049 A 
ATOM     49  C   UNL     1      -2.641  12.670   2.189  1.00  0.00     0.074 A 
ATOM     50  C   UNL     1      -8.909  13.220   1.358  1.00  0.00     0.029 A 
ATOM     51  N   UNL     1      -6.856  12.452   1.733  1.00  0.00    -0.354 N 
ATOM     52  N   UNL     1      -3.944  12.694   2.048  1.00  0.00    -0.248 NA
ATOM     53  C   UNL     1      -1.978  13.935   1.846  1.00  0.00     0.031 C 
ATOM     54  C   UNL     1      -8.000  14.258   1.128  1.00  0.00     0.029 A 
ATOM     55  C   UNL     1      -6.722  13.788   1.386  1.00  0.00     0.049 A 
ATOM     56  H   UNL     1      -6.112  11.853   1.970  1.00  0.00     0.167 HD
ATOM     57  C   UNL     1      -4.260  13.977   1.624  1.00  0.00     0.074 A 
ATOM     58  C   UNL     1      -3.012  14.710   1.554  1.00  0.00     0.031 C 
ATOM     59  C   UNL     1      -5.472  14.502   1.318  1.00  0.00     0.037 A 
BRANCH  46  60
ATOM     60  C   UNL     1     -10.159  10.502   1.798  1.00  0.00     0.064 A 
ATOM     61  C   UNL     1     -10.990  10.235   2.897  1.00  0.00     0.173 A 
ATOM     62  C   UNL     1     -10.753  10.561   0.528  1.00  0.00     0.173 A 
ATOM     63  F   UNL     1     -10.472  10.156   4.133  1.00  0.00    -0.203 F 
ATOM     64  C   UNL     1     -12.354  10.008   2.728  1.00  0.00     0.198 A 
ATOM     65  C   UNL     1     -12.123  10.367   0.367  1.00  0.00     0.198 A 
ATOM     66  F   UNL     1     -10.008  10.817  -0.557  1.00  0.00    -0.203 F 
ATOM     67  F   UNL     1     -13.117   9.705   3.787  1.00  0.00    -0.200 F 
ATOM     68  C   UNL     1     -12.920  10.083   1.465  1.00  0.00     0.200 A 
ATOM     69  F   UNL     1     -12.671  10.455  -0.853  1.00  0.00    -0.200 F 
ATOM     70  F   UNL     1     -14.234   9.874   1.305  1.00  0.00    -0.200 F 
ENDBRANCH  46  60
BRANCH  47  71
ATOM     71  C   UNL     1      -0.282  11.724   2.751  1.00  0.00     0.064 A 
ATOM     72  C   UNL     1       0.273  12.587   3.707  1.00  0.00     0.173 A 
ATOM     73  C   UNL     1       0.599  11.045   1.897  1.00  0.00     0.173 A 
ATOM     74  F   UNL     1      -0.529  13.273   4.534  1.00  0.00    -0.203 F 
ATOM     75  C   UNL     1       1.650  12.782   3.788  1.00  0.00     0.198 A 
ATOM     76  C   UNL     1       1.978  11.215   2.001  1.00  0.00     0.198 A 
ATOM     77  F   UNL     1       0.121  10.202   0.969  1.00  0.00    -0.203 F 
ATOM     78  F   UNL     1       2.150  13.651   4.676  1.00  0.00    -0.200 F 
ATOM     79  C   UNL     1       2.502  12.091   2.939  1.00  0.00     0.200 A 
ATOM     80  F   UNL     1       2.798  10.532   1.190  1.00  0.00    -0.200 F 
ATOM     81  F   UNL     1       3.826  12.275   3.020  1.00  0.00    -0.200 F 
ENDBRANCH  47  71
BRANCH  59  82
ATOM     82  C   UNL     1      -5.510  15.944   0.901  1.00  0.00     0.064 A 
ATOM     83  C   UNL     1      -4.994  16.369  -0.333  1.00  0.00     0.173 A 
ATOM     84  C   UNL     1      -6.102  16.909   1.730  1.00  0.00     0.173 A 
ATOM     85  F   UNL     1      -4.403  15.489  -1.156  1.00  0.00    -0.203 F 
ATOM     86  C   UNL     1      -5.042  17.709  -0.707  1.00  0.00     0.198 A 
ATOM     87  C   UNL     1      -6.181  18.242   1.338  1.00  0.00     0.198 A 
ATOM     88  F   UNL     1      -6.617  16.556   2.918  1.00  0.00    -0.203 F 
ATOM     89  F   UNL     1      -4.493  18.099  -1.865  1.00  0.00    -0.200 F 
ATOM     90  C   UNL     1      -5.643  18.642   0.124  1.00  0.00     0.200 A 
ATOM     91  F   UNL     1      -6.776  19.140   2.135  1.00  0.00    -0.200 F 
ATOM     92  F   UNL     1      -5.696  19.931  -0.241  1.00  0.00    -0.200 F 
ENDBRANCH  59  82
ENDBRANCH  33  34
ENDBRANCH  25  28
ENDBRANCH  23  24
ENDBRANCH  22  23
ENDBRANCH   1  22
TORSDOF 14
