REMARK SMILES O=C(Cn1c(=O)c2c3c(sc2n(Cc2ccc(Cl)cc2Cl)c1=O)CCCC3)NCCCNC(=O)c1ccc(-c2c3nc(c(-c4c(F)c(F)c(F)c(F)c4F)c4ccc([nH]4)c(-c4c(F)c(F)c(F)c(F)c4F)c4nc(c(-c5c(F)c(F)c(F)c(F)c5F)c5ccc2[nH]5)C=C4)C=C3)cc1
REMARK SMILES IDX 29 1 28 2 1 3 2 4 3 6 4 7 5 8 22 9 6 10 7 11 12 12 23 13
REMARK SMILES IDX 8 14 11 15 9 16 27 17 10 18 24 19 26 20 25 21 13 22 14 23
REMARK SMILES IDX 15 24 20 25 16 26 19 27 21 28 17 29 18 30 30 31 31 32 32 33
REMARK SMILES IDX 33 34 34 36 35 37 36 38 97 39 37 40 96 41 38 42 39 43 40 44
REMARK SMILES IDX 90 45 41 46 95 47 89 48 91 49 42 50 94 51 88 52 87 53 43 55
REMARK SMILES IDX 75 56 55 57 74 58 56 59 59 60 73 61 92 62 57 63 58 64 72 66
REMARK SMILES IDX 93 67 60 68 44 69 45 70 53 71 46 72 47 73 51 74 54 75 48 76
REMARK SMILES IDX 49 77 52 78 50 79 76 80 77 81 85 82 78 83 79 84 83 85 86 86
REMARK SMILES IDX 80 87 81 88 84 89 82 90 61 91 62 92 70 93 63 94 64 95 68 96
REMARK SMILES IDX 71 97 65 98 66 99 69 100 67 101
REMARK H PARENT 28 5 32 35 91 54 59 65
REMARK Flexibility Score: inf
ROOT
ATOM      1  C   UNL     1       2.970   0.950  -2.584  1.00  0.00     0.117 C 
ENDROOT
BRANCH   1   2
ATOM      2  N   UNL     1       3.487   0.582  -1.275  1.00  0.00    -0.354 N 
ATOM      3  O   UNL     1       1.431   0.313  -0.287  1.00  0.00    -0.273 OA
ATOM      4  C   UNL     1       2.655   0.221  -0.227  1.00  0.00     0.240 C 
ATOM      5  H   UNL     1       4.461   0.590  -1.129  1.00  0.00     0.163 HD
BRANCH   4   6
ATOM      6  C   UNL     1       3.368  -0.254   1.046  1.00  0.00     0.230 C 
BRANCH   6   7
ATOM      7  N   UNL     1       4.069  -1.517   0.809  1.00  0.00    -0.250 N 
ATOM      8  C   UNL     1       3.355  -2.688   1.072  1.00  0.00     0.265 A 
ATOM      9  C   UNL     1       5.397  -1.448   0.361  1.00  0.00     0.332 A 
ATOM     10  O   UNL     1       2.229  -2.708   1.580  1.00  0.00    -0.268 OA
ATOM     11  C   UNL     1       4.041  -3.904   0.710  1.00  0.00     0.079 A 
ATOM     12  N   UNL     1       6.068  -2.647   0.102  1.00  0.00    -0.280 N 
ATOM     13  O   UNL     1       5.934  -0.351   0.172  1.00  0.00    -0.247 OA
ATOM     14  C   UNL     1       3.621  -5.282   0.814  1.00  0.00    -0.019 A 
ATOM     15  C   UNL     1       5.321  -3.812   0.221  1.00  0.00     0.113 A 
ATOM     16  C   UNL     1       4.613  -6.133   0.366  1.00  0.00     0.011 A 
ATOM     17  C   UNL     1       2.337  -5.823   1.379  1.00  0.00     0.037 C 
ATOM     18  S   UNL     1       5.919  -5.299  -0.297  1.00  0.00    -0.122 S 
ATOM     19  C   UNL     1       4.584  -7.627   0.391  1.00  0.00     0.047 C 
ATOM     20  C   UNL     1       2.159  -7.320   1.052  1.00  0.00     0.005 C 
ATOM     21  C   UNL     1       3.448  -8.118   1.294  1.00  0.00     0.006 C 
BRANCH  12  22
ATOM     22  C   UNL     1       7.502  -2.604  -0.292  1.00  0.00     0.165 C 
BRANCH  22  23
ATOM     23  C   UNL     1       8.446  -3.098   0.799  1.00  0.00    -0.009 A 
ATOM     24  C   UNL     1       8.686  -2.269   1.911  1.00  0.00     0.008 A 
ATOM     25  C   UNL     1       9.085  -4.354   0.777  1.00  0.00     0.047 A 
ATOM     26  C   UNL     1       9.452  -2.716   2.994  1.00  0.00     0.021 A 
ATOM     27  C   UNL     1       9.766  -4.839   1.899  1.00  0.00     0.041 A 
ATOM     28  Cl  UNL     1       9.196  -5.327  -0.651  1.00  0.00    -0.084 Cl
ATOM     29  C   UNL     1       9.944  -4.018   3.004  1.00  0.00     0.042 A 
ATOM     30  Cl  UNL     1      10.813  -4.601   4.369  1.00  0.00    -0.084 Cl
ENDBRANCH  22  23
ENDBRANCH  12  22
ENDBRANCH   6   7
ENDBRANCH   4   6
ENDBRANCH   1   2
BRANCH   1  31
ATOM     31  C   UNL     1       3.270   2.399  -3.000  1.00  0.00     0.042 C 
BRANCH  31  32
ATOM     32  C   UNL     1       4.705   2.676  -3.496  1.00  0.00     0.118 C 
BRANCH  32  33
ATOM     33  N   UNL     1       4.987   1.977  -4.743  1.00  0.00    -0.352 N 
ATOM     34  C   UNL     1       5.631   2.298  -5.908  1.00  0.00     0.251 C 
ATOM     35  H   UNL     1       4.630   1.060  -4.750  1.00  0.00     0.163 HD
ATOM     36  O   UNL     1       5.504   1.499  -6.840  1.00  0.00    -0.269 OA
BRANCH  34  37
ATOM     37  C   UNL     1       6.464   3.508  -6.147  1.00  0.00     0.039 A 
ATOM     38  C   UNL     1       6.502   4.000  -7.467  1.00  0.00     0.014 A 
ATOM     39  C   UNL     1       7.328   4.067  -5.209  1.00  0.00     0.014 A 
ATOM     40  C   UNL     1       7.349   5.053  -7.843  1.00  0.00     0.010 A 
ATOM     41  C   UNL     1       8.184   5.123  -5.590  1.00  0.00     0.010 A 
ATOM     42  C   UNL     1       8.189   5.648  -6.903  1.00  0.00    -0.014 A 
BRANCH  42  43
ATOM     43  C   UNL     1       8.866   6.931  -7.258  1.00  0.00     0.031 A 
ATOM     44  C   UNL     1       8.676   7.993  -6.240  1.00  0.00     0.074 A 
ATOM     45  C   UNL     1       9.965   7.110  -8.032  1.00  0.00     0.049 A 
ATOM     46  N   UNL     1       9.462   8.024  -5.210  1.00  0.00    -0.248 NA
ATOM     47  C   UNL     1       7.528   8.883  -6.132  1.00  0.00     0.031 C 
ATOM     48  C   UNL     1      10.935   6.064  -8.361  1.00  0.00     0.029 A 
ATOM     49  N   UNL     1      10.563   8.277  -8.494  1.00  0.00    -0.354 N 
ATOM     50  C   UNL     1       8.887   8.844  -4.268  1.00  0.00     0.074 A 
ATOM     51  C   UNL     1       7.708   9.396  -4.900  1.00  0.00     0.031 C 
ATOM     52  C   UNL     1      12.059   6.646  -8.835  1.00  0.00     0.029 A 
ATOM     53  C   UNL     1      11.848   8.087  -8.996  1.00  0.00     0.049 A 
ATOM     54  H   UNL     1      10.120   9.156  -8.469  1.00  0.00     0.167 HD
ATOM     55  C   UNL     1       9.451   8.980  -3.039  1.00  0.00     0.037 A 
ATOM     56  C   UNL     1      12.867   8.991  -9.017  1.00  0.00     0.037 A 
ATOM     57  C   UNL     1      10.688   8.268  -2.779  1.00  0.00     0.049 A 
ATOM     58  C   UNL     1      13.231   9.163  -7.571  1.00  0.00     0.074 A 
ATOM     59  C   UNL     1      11.337   7.645  -1.731  1.00  0.00     0.029 A 
ATOM     60  N   UNL     1      11.532   8.120  -3.842  1.00  0.00    -0.354 N 
ATOM     61  N   UNL     1      14.003   8.373  -6.871  1.00  0.00    -0.248 NA
ATOM     62  C   UNL     1      12.524  10.191  -6.788  1.00  0.00     0.031 C 
ATOM     63  C   UNL     1      12.657   7.295  -2.186  1.00  0.00     0.029 A 
ATOM     64  C   UNL     1      12.796   7.754  -3.484  1.00  0.00     0.049 A 
ATOM     65  H   UNL     1      11.255   8.263  -4.776  1.00  0.00     0.167 HD
ATOM     66  C   UNL     1      13.677   8.655  -5.552  1.00  0.00     0.074 A 
ATOM     67  C   UNL     1      12.901   9.877  -5.555  1.00  0.00     0.031 C 
ATOM     68  C   UNL     1      13.771   7.746  -4.543  1.00  0.00     0.037 A 
BRANCH  55  69
ATOM     69  C   UNL     1       9.006   9.999  -2.071  1.00  0.00     0.064 A 
ATOM     70  C   UNL     1       9.755  11.184  -1.986  1.00  0.00     0.173 A 
ATOM     71  C   UNL     1       7.997   9.783  -1.132  1.00  0.00     0.173 A 
ATOM     72  F   UNL     1      10.727  11.429  -2.880  1.00  0.00    -0.203 F 
ATOM     73  C   UNL     1       9.531  12.106  -0.972  1.00  0.00     0.198 A 
ATOM     74  C   UNL     1       7.769  10.714  -0.118  1.00  0.00     0.198 A 
ATOM     75  F   UNL     1       7.263   8.662  -1.172  1.00  0.00    -0.203 F 
ATOM     76  F   UNL     1      10.284  13.211  -0.896  1.00  0.00    -0.200 F 
ATOM     77  C   UNL     1       8.542  11.866  -0.032  1.00  0.00     0.200 A 
ATOM     78  F   UNL     1       6.813  10.488   0.795  1.00  0.00    -0.200 F 
ATOM     79  F   UNL     1       8.340  12.742   0.962  1.00  0.00    -0.200 F 
ENDBRANCH  55  69
BRANCH  56  80
ATOM     80  C   UNL     1      12.843  10.146  -9.976  1.00  0.00     0.064 A 
ATOM     81  C   UNL     1      12.526   9.916 -11.331  1.00  0.00     0.173 A 
ATOM     82  C   UNL     1      13.212  11.466  -9.660  1.00  0.00     0.173 A 
ATOM     83  F   UNL     1      12.294   8.669 -11.767  1.00  0.00    -0.203 F 
ATOM     84  C   UNL     1      12.472  10.954 -12.270  1.00  0.00     0.198 A 
ATOM     85  C   UNL     1      13.120  12.510 -10.586  1.00  0.00     0.198 A 
ATOM     86  F   UNL     1      13.688  11.785  -8.450  1.00  0.00    -0.203 F 
ATOM     87  F   UNL     1      12.162  10.686 -13.546  1.00  0.00    -0.200 F 
ATOM     88  C   UNL     1      12.736  12.256 -11.888  1.00  0.00     0.200 A 
ATOM     89  F   UNL     1      13.404  13.763 -10.204  1.00  0.00    -0.200 F 
ATOM     90  F   UNL     1      12.642  13.258 -12.772  1.00  0.00    -0.200 F 
ENDBRANCH  56  80
BRANCH  68  91
ATOM     91  C   UNL     1      14.752   6.657  -4.717  1.00  0.00     0.064 A 
ATOM     92  C   UNL     1      16.116   6.969  -4.814  1.00  0.00     0.173 A 
ATOM     93  C   UNL     1      14.373   5.311  -4.754  1.00  0.00     0.173 A 
ATOM     94  F   UNL     1      16.526   8.246  -4.755  1.00  0.00    -0.203 F 
ATOM     95  C   UNL     1      17.070   5.968  -4.939  1.00  0.00     0.198 A 
ATOM     96  C   UNL     1      15.334   4.310  -4.869  1.00  0.00     0.198 A 
ATOM     97  F   UNL     1      13.080   4.961  -4.678  1.00  0.00    -0.203 F 
ATOM     98  F   UNL     1      18.369   6.289  -5.019  1.00  0.00    -0.200 F 
ATOM     99  C   UNL     1      16.679   4.638  -4.959  1.00  0.00     0.200 A 
ATOM    100  F   UNL     1      14.959   3.022  -4.877  1.00  0.00    -0.200 F 
ATOM    101  F   UNL     1      17.602   3.671  -5.051  1.00  0.00    -0.200 F 
ENDBRANCH  68  91
ENDBRANCH  42  43
ENDBRANCH  34  37
ENDBRANCH  32  33
ENDBRANCH  31  32
ENDBRANCH   1  31
TORSDOF 13
