REMARK SMILES C[C@H]1[C@@H](C(=O)NCCCNC(=O)c2ccc(-c3c4nc(c(-c5c(F)c(F)c(F)c(F)c5F)c5ccc([nH]5)c(-c5c(F)c(F)c(F)c(F)c5F)c5nc(c(-c6c(F)c(F)c(F)c(F)c6F)c6ccc3[nH]6)C=C5)C=C4)cc2)CC[N@@H+]1CC(F)(F)F
REMARK SMILES IDX 8 1 7 2 6 3 4 4 5 5 3 7 1 8 2 9 78 10 76 11 77 12 79 14
REMARK SMILES IDX 80 15 81 16 82 17 83 18 9 19 10 20 11 21 12 23 13 24 14 25
REMARK SMILES IDX 75 26 15 27 74 28 16 29 17 30 18 31 68 32 19 33 73 34 67 35
REMARK SMILES IDX 69 36 20 37 72 38 66 39 65 40 21 42 53 43 33 44 52 45 34 46
REMARK SMILES IDX 37 47 51 48 70 49 35 50 36 51 50 53 71 54 38 55 22 56 23 57
REMARK SMILES IDX 31 58 24 59 25 60 29 61 32 62 26 63 27 64 30 65 28 66 54 67
REMARK SMILES IDX 55 68 63 69 56 70 57 71 61 72 64 73 58 74 59 75 62 76 60 77
REMARK SMILES IDX 39 78 40 79 48 80 41 81 42 82 46 83 49 84 43 85 44 86 47 87
REMARK SMILES IDX 45 88
REMARK H PARENT 6 6 78 13 10 22 69 41 37 52
REMARK Flexibility Score: inf
ROOT
ATOM      1  C   UNL     1       3.851   0.778  -1.600  1.00  0.00     0.042 C 
ENDROOT
BRANCH   1   2
ATOM      2  C   UNL     1       2.899   1.815  -0.998  1.00  0.00     0.117 C 
BRANCH   2   3
ATOM      3  N   UNL     1       1.645   1.817  -1.729  1.00  0.00    -0.356 N 
ATOM      4  C   UNL     1       0.430   1.287  -1.421  1.00  0.00     0.229 C 
ATOM      5  O   UNL     1      -0.372   1.187  -2.352  1.00  0.00    -0.275 OA
ATOM      6  H   UNL     1       1.680   2.283  -2.596  1.00  0.00     0.163 HD
BRANCH   4   7
ATOM      7  C   UNL     1       0.060   0.959   0.025  1.00  0.00     0.142 C 
ATOM      8  C   UNL     1       1.588  -1.186  -0.019  1.00  0.00     0.076 C 
ATOM      9  C   UNL     1       0.456  -0.405   0.623  1.00  0.00     0.193 C 
ATOM     10  N   UNL     1      -0.741  -1.274   0.604  1.00  0.00    -0.325 N 
ATOM     11  C   UNL     1      -1.468   0.939   0.166  1.00  0.00     0.081 C 
ATOM     12  C   UNL     1      -1.820  -0.522  -0.041  1.00  0.00     0.263 C 
ATOM     13  H   UNL     1      -0.553  -2.119   0.064  1.00  0.00     0.348 HD
BRANCH  10  14
ATOM     14  C   UNL     1      -1.096  -1.804   1.947  1.00  0.00     0.379 C 
BRANCH  14  15
ATOM     15  C   UNL     1      -1.659  -0.885   3.052  1.00  0.00     0.438 C 
ATOM     16  F   UNL     1      -2.886  -0.415   2.737  1.00  0.00    -0.165 F 
ATOM     17  F   UNL     1      -1.775  -1.565   4.217  1.00  0.00    -0.165 F 
ATOM     18  F   UNL     1      -0.857   0.177   3.287  1.00  0.00    -0.165 F 
ENDBRANCH  14  15
ENDBRANCH  10  14
ENDBRANCH   4   7
ENDBRANCH   2   3
ENDBRANCH   1   2
BRANCH   1  19
ATOM     19  C   UNL     1       4.360   1.139  -2.991  1.00  0.00     0.118 C 
BRANCH  19  20
ATOM     20  N   UNL     1       5.621   1.854  -2.939  1.00  0.00    -0.352 N 
ATOM     21  C   UNL     1       6.888   1.439  -3.263  1.00  0.00     0.251 C 
ATOM     22  H   UNL     1       5.558   2.783  -2.621  1.00  0.00     0.163 HD
ATOM     23  O   UNL     1       7.845   2.135  -2.919  1.00  0.00    -0.269 OA
BRANCH  21  24
ATOM     24  C   UNL     1       7.140   0.175  -4.000  1.00  0.00     0.039 A 
ATOM     25  C   UNL     1       8.293  -0.555  -3.690  1.00  0.00     0.014 A 
ATOM     26  C   UNL     1       6.319  -0.261  -5.045  1.00  0.00     0.014 A 
ATOM     27  C   UNL     1       8.604  -1.720  -4.398  1.00  0.00     0.010 A 
ATOM     28  C   UNL     1       6.581  -1.471  -5.692  1.00  0.00     0.010 A 
ATOM     29  C   UNL     1       7.742  -2.200  -5.396  1.00  0.00    -0.014 A 
BRANCH  29  30
ATOM     30  C   UNL     1       8.073  -3.429  -6.167  1.00  0.00     0.031 A 
ATOM     31  C   UNL     1       8.335  -3.350  -7.649  1.00  0.00     0.074 A 
ATOM     32  C   UNL     1       8.112  -4.624  -5.547  1.00  0.00     0.049 A 
ATOM     33  N   UNL     1       8.608  -4.311  -8.497  1.00  0.00    -0.248 NA
ATOM     34  C   UNL     1       8.252  -2.017  -8.266  1.00  0.00     0.031 C 
ATOM     35  C   UNL     1       7.829  -4.851  -4.130  1.00  0.00     0.029 A 
ATOM     36  N   UNL     1       8.402  -5.876  -6.033  1.00  0.00    -0.354 N 
ATOM     37  C   UNL     1       8.710  -3.703  -9.742  1.00  0.00     0.074 A 
ATOM     38  C   UNL     1       8.418  -2.299  -9.549  1.00  0.00     0.031 C 
ATOM     39  C   UNL     1       7.982  -6.156  -3.855  1.00  0.00     0.029 A 
ATOM     40  C   UNL     1       8.348  -6.862  -5.079  1.00  0.00     0.049 A 
ATOM     41  H   UNL     1       8.628  -6.049  -6.975  1.00  0.00     0.167 HD
ATOM     42  C   UNL     1       9.042  -4.255 -10.933  1.00  0.00     0.037 A 
ATOM     43  C   UNL     1       8.569  -8.187  -5.180  1.00  0.00     0.037 A 
ATOM     44  C   UNL     1       9.370  -5.644 -11.123  1.00  0.00     0.049 A 
ATOM     45  C   UNL     1       8.970  -8.772  -6.506  1.00  0.00     0.074 A 
ATOM     46  C   UNL     1       9.774  -6.286 -12.281  1.00  0.00     0.029 A 
ATOM     47  N   UNL     1       9.335  -6.605 -10.124  1.00  0.00    -0.354 N 
ATOM     48  N   UNL     1       9.120  -8.175  -7.662  1.00  0.00    -0.248 NA
ATOM     49  C   UNL     1       9.242 -10.216  -6.537  1.00  0.00     0.031 C 
ATOM     50  C   UNL     1       9.954  -7.643 -11.989  1.00  0.00     0.029 A 
ATOM     51  C   UNL     1       9.700  -7.838 -10.642  1.00  0.00     0.049 A 
ATOM     52  H   UNL     1       9.088  -6.436  -9.186  1.00  0.00     0.167 HD
ATOM     53  C   UNL     1       9.520  -9.161  -8.553  1.00  0.00     0.074 A 
ATOM     54  C   UNL     1       9.610 -10.394  -7.799  1.00  0.00     0.031 C 
ATOM     55  C   UNL     1       9.786  -9.056  -9.878  1.00  0.00     0.037 A 
BRANCH  42  56
ATOM     56  C   UNL     1       9.078  -3.348 -12.129  1.00  0.00     0.064 A 
ATOM     57  C   UNL     1      10.084  -2.382 -12.287  1.00  0.00     0.173 A 
ATOM     58  C   UNL     1       8.115  -3.463 -13.143  1.00  0.00     0.173 A 
ATOM     59  F   UNL     1      11.021  -2.224 -11.340  1.00  0.00    -0.203 F 
ATOM     60  C   UNL     1      10.105  -1.544 -13.398  1.00  0.00     0.198 A 
ATOM     61  C   UNL     1       8.156  -2.642 -14.267  1.00  0.00     0.198 A 
ATOM     62  F   UNL     1       7.136  -4.375 -13.045  1.00  0.00    -0.203 F 
ATOM     63  F   UNL     1      11.046  -0.595 -13.502  1.00  0.00    -0.200 F 
ATOM     64  C   UNL     1       9.146  -1.678 -14.390  1.00  0.00     0.200 A 
ATOM     65  F   UNL     1       7.235  -2.781 -15.231  1.00  0.00    -0.200 F 
ATOM     66  F   UNL     1       9.170  -0.873 -15.461  1.00  0.00    -0.200 F 
ENDBRANCH  42  56
BRANCH  43  67
ATOM     67  C   UNL     1       8.450  -9.047  -3.975  1.00  0.00     0.064 A 
ATOM     68  C   UNL     1       9.588  -9.591  -3.364  1.00  0.00     0.173 A 
ATOM     69  C   UNL     1       7.201  -9.335  -3.407  1.00  0.00     0.173 A 
ATOM     70  F   UNL     1      10.802  -9.361  -3.884  1.00  0.00    -0.203 F 
ATOM     71  C   UNL     1       9.479 -10.405  -2.238  1.00  0.00     0.198 A 
ATOM     72  C   UNL     1       7.096 -10.128  -2.266  1.00  0.00     0.198 A 
ATOM     73  F   UNL     1       6.083  -8.834  -3.953  1.00  0.00    -0.203 F 
ATOM     74  F   UNL     1      10.580 -10.944  -1.695  1.00  0.00    -0.200 F 
ATOM     75  C   UNL     1       8.234 -10.667  -1.686  1.00  0.00     0.200 A 
ATOM     76  F   UNL     1       5.892 -10.370  -1.729  1.00  0.00    -0.200 F 
ATOM     77  F   UNL     1       8.132 -11.444  -0.600  1.00  0.00    -0.200 F 
ENDBRANCH  43  67
BRANCH  55  78
ATOM     78  C   UNL     1      10.217 -10.303 -10.591  1.00  0.00     0.064 A 
ATOM     79  C   UNL     1       9.309 -11.331 -10.884  1.00  0.00     0.173 A 
ATOM     80  C   UNL     1      11.546 -10.459 -11.011  1.00  0.00     0.173 A 
ATOM     81  F   UNL     1       8.030 -11.234 -10.489  1.00  0.00    -0.203 F 
ATOM     82  C   UNL     1       9.722 -12.482 -11.549  1.00  0.00     0.198 A 
ATOM     83  C   UNL     1      11.950 -11.600 -11.699  1.00  0.00     0.198 A 
ATOM     84  F   UNL     1      12.452  -9.502 -10.760  1.00  0.00    -0.203 F 
ATOM     85  F   UNL     1       8.848 -13.471 -11.778  1.00  0.00    -0.200 F 
ATOM     86  C   UNL     1      11.040 -12.613 -11.960  1.00  0.00     0.200 A 
ATOM     87  F   UNL     1      13.222 -11.722 -12.104  1.00  0.00    -0.200 F 
ATOM     88  F   UNL     1      11.435 -13.721 -12.602  1.00  0.00    -0.200 F 
ENDBRANCH  55  78
ENDBRANCH  29  30
ENDBRANCH  21  24
ENDBRANCH  19  20
ENDBRANCH   1  19
TORSDOF 12
