REMARK SMILES O=C(COc1cccc(NC(=O)c2ccc3c(c2)C(=O)N(c2ccccc2-c2ccccc2)C3=O)c1)NCCCNC(=O)c1ccc(-c2c3nc(c(-c4c(F)c(F)c(F)c(F)c4F)c4ccc([nH]4)c(-c4c(F)c(F)c(F)c(F)c4F)c4nc(c(-c5c(F)c(F)c(F)c(F)c5F)c5ccc2[nH]5)C=C4)C=C3)cc1
REMARK SMILES IDX 1 1 2 2 37 3 3 5 4 6 5 7 6 8 36 9 7 10 9 11 8 12 10 13 11 14
REMARK SMILES IDX 12 16 13 17 14 18 18 19 15 20 17 21 16 22 19 23 34 24 20 25
REMARK SMILES IDX 21 26 35 27 22 28 23 29 27 30 24 31 26 32 25 33 28 34 29 35
REMARK SMILES IDX 33 36 30 37 32 38 31 39 38 40 39 41 40 42 41 43 42 44 43 46
REMARK SMILES IDX 44 47 45 48 106 49 46 50 105 51 47 52 48 53 49 54 99 55
REMARK SMILES IDX 50 56 104 57 98 58 100 59 51 60 103 61 97 62 96 63 52 65
REMARK SMILES IDX 84 66 64 67 83 68 65 69 68 70 82 71 101 72 66 73 67 74 81 76
REMARK SMILES IDX 102 77 69 78 53 79 54 80 62 81 55 82 56 83 60 84 63 85 57 86
REMARK SMILES IDX 58 87 61 88 59 89 85 90 86 91 94 92 87 93 88 94 92 95 95 96
REMARK SMILES IDX 89 97 90 98 93 99 91 100 70 101 71 102 79 103 72 104 73 105
REMARK SMILES IDX 77 106 80 107 74 108 75 109 78 110 76 111
REMARK H PARENT 37 4 10 15 41 45 100 64 68 75
REMARK Flexibility Score: inf
ROOT
ATOM      1  O   UNL     1       0.866  -0.605  -0.791  1.00  0.00    -0.271 OA
ATOM      2  C   UNL     1       1.954  -0.253  -0.345  1.00  0.00     0.257 C 
ATOM      3  N   UNL     1       2.705  -1.020   0.521  1.00  0.00    -0.353 N 
ATOM      4  H   UNL     1       3.647  -0.782   0.676  1.00  0.00     0.163 HD
ENDROOT
BRANCH   2   5
ATOM      5  C   UNL     1       2.567   1.113  -0.666  1.00  0.00     0.329 C 
BRANCH   5   6
ATOM      6  O   UNL     1       3.591   1.572   0.207  1.00  0.00    -0.484 OA
BRANCH   6   7
ATOM      7  C   UNL     1       3.209   2.105   1.410  1.00  0.00     0.122 A 
ATOM      8  C   UNL     1       4.009   3.152   1.856  1.00  0.00     0.046 A 
ATOM      9  C   UNL     1       2.214   1.585   2.252  1.00  0.00     0.072 A 
ATOM     10  C   UNL     1       3.832   3.660   3.135  1.00  0.00     0.006 A 
ATOM     11  C   UNL     1       2.053   2.054   3.565  1.00  0.00     0.045 A 
ATOM     12  C   UNL     1       2.880   3.093   3.987  1.00  0.00     0.026 A 
BRANCH  11  13
ATOM     13  N   UNL     1       1.148   1.348   4.402  1.00  0.00    -0.322 N 
ATOM     14  C   UNL     1       0.618   1.626   5.651  1.00  0.00     0.255 C 
ATOM     15  H   UNL     1       0.837   0.496   4.020  1.00  0.00     0.170 HD
ATOM     16  O   UNL     1       0.073   0.761   6.328  1.00  0.00    -0.269 OA
BRANCH  14  17
ATOM     17  C   UNL     1       0.559   3.025   6.099  1.00  0.00     0.041 A 
ATOM     18  C   UNL     1       1.485   3.521   7.045  1.00  0.00     0.015 A 
ATOM     19  C   UNL     1      -0.246   3.870   5.340  1.00  0.00     0.028 A 
ATOM     20  C   UNL     1       1.773   4.896   7.072  1.00  0.00     0.015 A 
ATOM     21  C   UNL     1       0.078   5.204   5.391  1.00  0.00     0.054 A 
ATOM     22  C   UNL     1       1.099   5.700   6.163  1.00  0.00     0.053 A 
ATOM     23  C   UNL     1      -0.292   6.214   4.429  1.00  0.00     0.266 C 
ATOM     24  C   UNL     1       1.423   7.022   5.614  1.00  0.00     0.266 C 
ATOM     25  O   UNL     1      -1.332   6.090   3.809  1.00  0.00    -0.268 OA
ATOM     26  N   UNL     1       0.719   7.151   4.431  1.00  0.00    -0.242 N 
ATOM     27  O   UNL     1       2.144   7.775   6.242  1.00  0.00    -0.268 OA
BRANCH  26  28
ATOM     28  C   UNL     1       0.967   8.035   3.317  1.00  0.00     0.060 A 
ATOM     29  C   UNL     1      -0.004   8.096   2.284  1.00  0.00     0.027 A 
ATOM     30  C   UNL     1       2.170   8.756   3.086  1.00  0.00     0.006 A 
ATOM     31  C   UNL     1       0.168   8.815   1.099  1.00  0.00     0.002 A 
ATOM     32  C   UNL     1       2.304   9.513   1.888  1.00  0.00     0.011 A 
ATOM     33  C   UNL     1       1.323   9.539   0.903  1.00  0.00     0.001 A 
BRANCH  30  34
ATOM     34  C   UNL     1       3.389   8.712   3.906  1.00  0.00    -0.016 A 
ATOM     35  C   UNL     1       3.717   9.774   4.763  1.00  0.00     0.009 A 
ATOM     36  C   UNL     1       4.309   7.660   3.760  1.00  0.00     0.009 A 
ATOM     37  C   UNL     1       4.906   9.757   5.496  1.00  0.00     0.001 A 
ATOM     38  C   UNL     1       5.500   7.645   4.489  1.00  0.00     0.001 A 
ATOM     39  C   UNL     1       5.793   8.690   5.364  1.00  0.00     0.000 A 
ENDBRANCH  30  34
ENDBRANCH  26  28
ENDBRANCH  14  17
ENDBRANCH  11  13
ENDBRANCH   6   7
ENDBRANCH   5   6
ENDBRANCH   2   5
BRANCH   3  40
ATOM     40  C   UNL     1       2.150  -2.165   1.210  1.00  0.00     0.117 C 
BRANCH  40  41
ATOM     41  C   UNL     1       2.505  -3.487   0.554  1.00  0.00     0.042 C 
BRANCH  41  42
ATOM     42  C   UNL     1       4.000  -3.784   0.541  1.00  0.00     0.118 C 
BRANCH  42  43
ATOM     43  N   UNL     1       4.566  -3.947   1.876  1.00  0.00    -0.352 N 
ATOM     44  C   UNL     1       5.170  -5.031   2.464  1.00  0.00     0.251 C 
ATOM     45  H   UNL     1       4.504  -3.149   2.449  1.00  0.00     0.163 HD
ATOM     46  O   UNL     1       5.452  -4.997   3.658  1.00  0.00    -0.269 OA
BRANCH  44  47
ATOM     47  C   UNL     1       5.458  -6.252   1.680  1.00  0.00     0.039 A 
ATOM     48  C   UNL     1       5.170  -7.497   2.247  1.00  0.00     0.014 A 
ATOM     49  C   UNL     1       6.013  -6.180   0.401  1.00  0.00     0.014 A 
ATOM     50  C   UNL     1       5.349  -8.661   1.497  1.00  0.00     0.010 A 
ATOM     51  C   UNL     1       6.122  -7.333  -0.373  1.00  0.00     0.010 A 
ATOM     52  C   UNL     1       5.778  -8.583   0.162  1.00  0.00    -0.014 A 
BRANCH  52  53
ATOM     53  C   UNL     1       5.834  -9.789  -0.704  1.00  0.00     0.031 A 
ATOM     54  C   UNL     1       7.144 -10.266  -1.261  1.00  0.00     0.074 A 
ATOM     55  C   UNL     1       4.688 -10.401  -1.058  1.00  0.00     0.049 A 
ATOM     56  N   UNL     1       7.378 -11.229  -2.117  1.00  0.00    -0.248 NA
ATOM     57  C   UNL     1       8.351  -9.552  -0.817  1.00  0.00     0.031 C 
ATOM     58  C   UNL     1       3.348 -10.008  -0.620  1.00  0.00     0.029 A 
ATOM     59  N   UNL     1       4.464 -11.474  -1.885  1.00  0.00    -0.354 N 
ATOM     60  C   UNL     1       8.751 -11.227  -2.324  1.00  0.00     0.074 A 
ATOM     61  C   UNL     1       9.294 -10.139  -1.539  1.00  0.00     0.031 C 
ATOM     62  C   UNL     1       2.444 -10.834  -1.169  1.00  0.00     0.029 A 
ATOM     63  C   UNL     1       3.135 -11.787  -2.032  1.00  0.00     0.049 A 
ATOM     64  H   UNL     1       5.187 -11.972  -2.330  1.00  0.00     0.167 HD
ATOM     65  C   UNL     1       9.492 -12.067  -3.085  1.00  0.00     0.037 A 
ATOM     66  C   UNL     1       2.537 -12.726  -2.791  1.00  0.00     0.037 A 
ATOM     67  C   UNL     1       8.951 -13.163  -3.848  1.00  0.00     0.049 A 
ATOM     68  C   UNL     1       3.381 -13.633  -3.642  1.00  0.00     0.074 A 
ATOM     69  C   UNL     1       9.629 -14.110  -4.596  1.00  0.00     0.029 A 
ATOM     70  N   UNL     1       7.600 -13.454  -3.965  1.00  0.00    -0.354 N 
ATOM     71  N   UNL     1       4.684 -13.662  -3.779  1.00  0.00    -0.248 NA
ATOM     72  C   UNL     1       2.671 -14.637  -4.446  1.00  0.00     0.031 C 
ATOM     73  C   UNL     1       8.686 -14.946  -5.203  1.00  0.00     0.029 A 
ATOM     74  C   UNL     1       7.423 -14.550  -4.796  1.00  0.00     0.049 A 
ATOM     75  H   UNL     1       6.875 -12.956  -3.524  1.00  0.00     0.167 HD
ATOM     76  C   UNL     1       4.951 -14.697  -4.664  1.00  0.00     0.074 A 
ATOM     77  C   UNL     1       3.676 -15.284  -5.019  1.00  0.00     0.031 C 
ATOM     78  C   UNL     1       6.147 -15.122  -5.141  1.00  0.00     0.037 A 
BRANCH  65  79
ATOM     79  C   UNL     1      10.974 -11.837  -3.132  1.00  0.00     0.064 A 
ATOM     80  C   UNL     1      11.794 -12.105  -2.026  1.00  0.00     0.173 A 
ATOM     81  C   UNL     1      11.588 -11.384  -4.309  1.00  0.00     0.173 A 
ATOM     82  F   UNL     1      11.255 -12.530  -0.873  1.00  0.00    -0.203 F 
ATOM     83  C   UNL     1      13.171 -11.903  -2.088  1.00  0.00     0.198 A 
ATOM     84  C   UNL     1      12.967 -11.210  -4.377  1.00  0.00     0.198 A 
ATOM     85  F   UNL     1      10.850 -11.118  -5.398  1.00  0.00    -0.203 F 
ATOM     86  F   UNL     1      13.928 -12.123  -1.005  1.00  0.00    -0.200 F 
ATOM     87  C   UNL     1      13.757 -11.463  -3.265  1.00  0.00     0.200 A 
ATOM     88  F   UNL     1      13.534 -10.796  -5.519  1.00  0.00    -0.200 F 
ATOM     89  F   UNL     1      15.082 -11.276  -3.326  1.00  0.00    -0.200 F 
ENDBRANCH  65  79
BRANCH  66  90
ATOM     90  C   UNL     1       1.057 -12.861  -2.773  1.00  0.00     0.064 A 
ATOM     91  C   UNL     1       0.445 -13.976  -2.183  1.00  0.00     0.173 A 
ATOM     92  C   UNL     1       0.227 -11.886  -3.345  1.00  0.00     0.173 A 
ATOM     93  F   UNL     1       1.199 -14.945  -1.643  1.00  0.00    -0.203 F 
ATOM     94  C   UNL     1      -0.940 -14.120  -2.183  1.00  0.00     0.198 A 
ATOM     95  C   UNL     1      -1.160 -12.018  -3.320  1.00  0.00     0.198 A 
ATOM     96  F   UNL     1       0.764 -10.800  -3.920  1.00  0.00    -0.203 F 
ATOM     97  F   UNL     1      -1.497 -15.217  -1.652  1.00  0.00    -0.200 F 
ATOM     98  C   UNL     1      -1.742 -13.138  -2.746  1.00  0.00     0.200 A 
ATOM     99  F   UNL     1      -1.931 -11.062  -3.854  1.00  0.00    -0.200 F 
ATOM    100  F   UNL     1      -3.075 -13.276  -2.743  1.00  0.00    -0.200 F 
ENDBRANCH  66  90
BRANCH  78 101
ATOM    101  C   UNL     1       6.133 -16.290  -6.083  1.00  0.00     0.064 A 
ATOM    102  C   UNL     1       5.672 -16.164  -7.402  1.00  0.00     0.173 A 
ATOM    103  C   UNL     1       6.620 -17.541  -5.673  1.00  0.00     0.173 A 
ATOM    104  F   UNL     1       5.181 -14.994  -7.836  1.00  0.00    -0.203 F 
ATOM    105  C   UNL     1       5.678 -17.254  -8.269  1.00  0.00     0.198 A 
ATOM    106  C   UNL     1       6.651 -18.620  -6.551  1.00  0.00     0.198 A 
ATOM    107  F   UNL     1       7.077 -17.712  -4.424  1.00  0.00    -0.203 F 
ATOM    108  F   UNL     1       5.190 -17.122  -9.510  1.00  0.00    -0.200 F 
ATOM    109  C   UNL     1       6.174 -18.478  -7.846  1.00  0.00     0.200 A 
ATOM    110  F   UNL     1       7.141 -19.799  -6.145  1.00  0.00    -0.200 F 
ATOM    111  F   UNL     1       6.184 -19.524  -8.684  1.00  0.00    -0.200 F 
ENDBRANCH  78 101
ENDBRANCH  52  53
ENDBRANCH  44  47
ENDBRANCH  42  43
ENDBRANCH  41  42
ENDBRANCH  40  41
ENDBRANCH   3  40
TORSDOF 16
