REMARK SMILES CC1(C)CCN(c2ncccc2C(=O)NCCCNC(=O)c2ccc(-c3c4nc(c(-c5c(F)c(F)c(F)c(F)c5F)c5ccc([nH]5)c(-c5c(F)c(F)c(F)c(F)c5F)c5nc(c(-c6c(F)c(F)c(F)c(F)c6F)c6ccc3[nH]6)C=C5)C=C4)cc2)C1
REMARK SMILES IDX 17 1 16 2 15 3 13 4 14 5 12 7 7 8 8 9 9 10 11 11 10 12 6 13
REMARK SMILES IDX 1 14 2 15 3 16 4 17 85 18 5 19 18 20 19 21 20 22 21 24 22 25
REMARK SMILES IDX 23 26 84 27 24 28 83 29 25 30 26 31 27 32 77 33 28 34 82 35
REMARK SMILES IDX 76 36 78 37 29 38 81 39 75 40 74 41 30 43 62 44 42 45 61 46
REMARK SMILES IDX 43 47 46 48 60 49 79 50 44 51 45 52 59 54 80 55 47 56 31 57
REMARK SMILES IDX 32 58 40 59 33 60 34 61 38 62 41 63 35 64 36 65 39 66 37 67
REMARK SMILES IDX 63 68 64 69 72 70 65 71 66 72 70 73 73 74 67 75 68 76 71 77
REMARK SMILES IDX 69 78 48 79 49 80 57 81 50 82 51 83 55 84 58 85 52 86 53 87
REMARK SMILES IDX 56 88 54 89
REMARK H PARENT 15 6 19 23 78 42 46 53
REMARK Flexibility Score: inf
ROOT
ATOM      1  C   UNL     1       4.160   5.780   2.610  1.00  0.00     0.042 C 
ENDROOT
BRANCH   1   2
ATOM      2  C   UNL     1       4.583   4.312   2.684  1.00  0.00     0.118 C 
BRANCH   2   3
ATOM      3  N   UNL     1       3.419   3.453   2.758  1.00  0.00    -0.352 N 
ATOM      4  C   UNL     1       2.668   2.724   1.871  1.00  0.00     0.255 C 
ATOM      5  O   UNL     1       1.675   2.221   2.395  1.00  0.00    -0.269 OA
ATOM      6  H   UNL     1       3.080   3.373   3.679  1.00  0.00     0.163 HD
BRANCH   4   7
ATOM      7  C   UNL     1       3.020   2.513   0.425  1.00  0.00     0.082 A 
ATOM      8  C   UNL     1       2.560   1.377  -0.280  1.00  0.00     0.141 A 
ATOM      9  N   UNL     1       3.040   1.071  -1.519  1.00  0.00    -0.238 NA
ATOM     10  C   UNL     1       3.905   1.912  -2.116  1.00  0.00     0.113 A 
ATOM     11  C   UNL     1       3.854   3.400  -0.271  1.00  0.00     0.019 A 
ATOM     12  C   UNL     1       4.315   3.096  -1.549  1.00  0.00     0.021 A 
BRANCH   8  13
ATOM     13  N   UNL     1       1.548   0.556   0.171  1.00  0.00    -0.355 N 
ATOM     14  C   UNL     1      -1.079  -0.187  -1.630  1.00  0.00     0.013 C 
ATOM     15  C   UNL     1      -0.727  -0.118  -0.136  1.00  0.00    -0.016 C 
ATOM     16  C   UNL     1      -2.018  -0.060   0.685  1.00  0.00     0.013 C 
ATOM     17  C   UNL     1       0.155  -1.304   0.286  1.00  0.00     0.030 C 
ATOM     18  C   UNL     1       0.183   1.097   0.157  1.00  0.00     0.124 C 
ATOM     19  C   UNL     1       1.558  -0.866  -0.128  1.00  0.00     0.119 C 
ENDBRANCH   8  13
ENDBRANCH   4   7
ENDBRANCH   2   3
ENDBRANCH   1   2
BRANCH   1  20
ATOM     20  C   UNL     1       3.407   6.264   3.853  1.00  0.00     0.118 C 
BRANCH  20  21
ATOM     21  N   UNL     1       4.239   6.237   5.047  1.00  0.00    -0.352 N 
ATOM     22  C   UNL     1       4.653   7.258   5.863  1.00  0.00     0.251 C 
ATOM     23  H   UNL     1       4.556   5.342   5.310  1.00  0.00     0.163 HD
ATOM     24  O   UNL     1       5.543   7.058   6.683  1.00  0.00    -0.269 OA
BRANCH  22  25
ATOM     25  C   UNL     1       4.039   8.599   5.764  1.00  0.00     0.039 A 
ATOM     26  C   UNL     1       4.864   9.724   5.857  1.00  0.00     0.014 A 
ATOM     27  C   UNL     1       2.655   8.754   5.643  1.00  0.00     0.014 A 
ATOM     28  C   UNL     1       4.308  11.002   5.775  1.00  0.00     0.010 A 
ATOM     29  C   UNL     1       2.109  10.027   5.498  1.00  0.00     0.010 A 
ATOM     30  C   UNL     1       2.929  11.164   5.567  1.00  0.00    -0.014 A 
BRANCH  30  31
ATOM     31  C   UNL     1       2.327  12.512   5.419  1.00  0.00     0.031 A 
ATOM     32  C   UNL     1       1.354  13.024   6.443  1.00  0.00     0.074 A 
ATOM     33  C   UNL     1       2.604  13.245   4.324  1.00  0.00     0.049 A 
ATOM     34  N   UNL     1       0.660  14.135   6.445  1.00  0.00    -0.248 NA
ATOM     35  C   UNL     1       1.106  12.160   7.608  1.00  0.00     0.031 C 
ATOM     36  C   UNL     1       3.498  12.837   3.239  1.00  0.00     0.029 A 
ATOM     37  N   UNL     1       2.151  14.480   3.935  1.00  0.00    -0.354 N 
ATOM     38  C   UNL     1      -0.117  14.093   7.595  1.00  0.00     0.074 A 
ATOM     39  C   UNL     1       0.156  12.829   8.244  1.00  0.00     0.031 C 
ATOM     40  C   UNL     1       3.540  13.810   2.315  1.00  0.00     0.029 A 
ATOM     41  C   UNL     1       2.651  14.893   2.724  1.00  0.00     0.049 A 
ATOM     42  H   UNL     1       1.528  15.020   4.472  1.00  0.00     0.167 HD
ATOM     43  C   UNL     1      -0.967  15.034   8.075  1.00  0.00     0.037 A 
ATOM     44  C   UNL     1       2.412  16.014   2.019  1.00  0.00     0.037 A 
ATOM     45  C   UNL     1      -1.212  16.302   7.440  1.00  0.00     0.049 A 
ATOM     46  C   UNL     1       1.471  17.046   2.577  1.00  0.00     0.074 A 
ATOM     47  C   UNL     1      -2.005  17.349   7.878  1.00  0.00     0.029 A 
ATOM     48  N   UNL     1      -0.666  16.696   6.227  1.00  0.00    -0.354 N 
ATOM     49  N   UNL     1       0.790  17.024   3.697  1.00  0.00    -0.248 NA
ATOM     50  C   UNL     1       1.270  18.262   1.777  1.00  0.00     0.031 C 
ATOM     51  C   UNL     1      -1.970  18.359   6.912  1.00  0.00     0.029 A 
ATOM     52  C   UNL     1      -1.119  17.962   5.893  1.00  0.00     0.049 A 
ATOM     53  H   UNL     1      -0.048  16.156   5.684  1.00  0.00     0.167 HD
ATOM     54  C   UNL     1       0.102  18.228   3.749  1.00  0.00     0.074 A 
ATOM     55  C   UNL     1       0.459  18.965   2.554  1.00  0.00     0.031 C 
ATOM     56  C   UNL     1      -0.748  18.683   4.702  1.00  0.00     0.037 A 
BRANCH  43  57
ATOM     57  C   UNL     1      -1.693  14.725   9.352  1.00  0.00     0.064 A 
ATOM     58  C   UNL     1      -1.025  14.677  10.585  1.00  0.00     0.173 A 
ATOM     59  C   UNL     1      -3.079  14.508   9.348  1.00  0.00     0.173 A 
ATOM     60  F   UNL     1       0.302  14.867  10.642  1.00  0.00    -0.203 F 
ATOM     61  C   UNL     1      -1.713  14.393  11.762  1.00  0.00     0.198 A 
ATOM     62  C   UNL     1      -3.768  14.254  10.532  1.00  0.00     0.198 A 
ATOM     63  F   UNL     1      -3.768  14.550   8.198  1.00  0.00    -0.203 F 
ATOM     64  F   UNL     1      -1.045  14.303  12.921  1.00  0.00    -0.200 F 
ATOM     65  C   UNL     1      -3.084  14.188  11.736  1.00  0.00     0.200 A 
ATOM     66  F   UNL     1      -5.096  14.069  10.506  1.00  0.00    -0.200 F 
ATOM     67  F   UNL     1      -3.745  13.920  12.870  1.00  0.00    -0.200 F 
ENDBRANCH  43  57
BRANCH  44  68
ATOM     68  C   UNL     1       3.098  16.230   0.719  1.00  0.00     0.064 A 
ATOM     69  C   UNL     1       4.103  17.198   0.591  1.00  0.00     0.173 A 
ATOM     70  C   UNL     1       2.772  15.471  -0.414  1.00  0.00     0.173 A 
ATOM     71  F   UNL     1       4.435  17.961   1.643  1.00  0.00    -0.203 F 
ATOM     72  C   UNL     1       4.746  17.411  -0.626  1.00  0.00     0.198 A 
ATOM     73  C   UNL     1       3.434  15.667  -1.624  1.00  0.00     0.198 A 
ATOM     74  F   UNL     1       1.822  14.528  -0.342  1.00  0.00    -0.203 F 
ATOM     75  F   UNL     1       5.677  18.369  -0.731  1.00  0.00    -0.200 F 
ATOM     76  C   UNL     1       4.416  16.641  -1.731  1.00  0.00     0.200 A 
ATOM     77  F   UNL     1       3.123  14.911  -2.686  1.00  0.00    -0.200 F 
ATOM     78  F   UNL     1       5.040  16.841  -2.900  1.00  0.00    -0.200 F 
ENDBRANCH  44  68
BRANCH  56  79
ATOM     79  C   UNL     1      -1.325  20.054   4.508  1.00  0.00     0.064 A 
ATOM     80  C   UNL     1      -2.314  20.306   3.546  1.00  0.00     0.173 A 
ATOM     81  C   UNL     1      -0.912  21.120   5.322  1.00  0.00     0.173 A 
ATOM     82  F   UNL     1      -2.730  19.323   2.733  1.00  0.00    -0.203 F 
ATOM     83  C   UNL     1      -2.852  21.581   3.390  1.00  0.00     0.198 A 
ATOM     84  C   UNL     1      -1.471  22.386   5.182  1.00  0.00     0.198 A 
ATOM     85  F   UNL     1       0.028  20.929   6.260  1.00  0.00    -0.203 F 
ATOM     86  F   UNL     1      -3.763  21.809   2.435  1.00  0.00    -0.200 F 
ATOM     87  C   UNL     1      -2.435  22.617   4.213  1.00  0.00     0.200 A 
ATOM     88  F   UNL     1      -1.076  23.384   5.985  1.00  0.00    -0.200 F 
ATOM     89  F   UNL     1      -2.959  23.842   4.066  1.00  0.00    -0.200 F 
ENDBRANCH  56  79
ENDBRANCH  30  31
ENDBRANCH  22  25
ENDBRANCH  20  21
ENDBRANCH   1  20
TORSDOF 11
