REMARK SMILES C/C=C/c1cncc(-c2ccc([C@@H](C)C(=O)NCCCNC(=O)c3ccc(-c4c5nc(c(-c6c(F)c(F)c(F)c(F)c6F)c6ccc([nH]6)c(-c6c(F)c(F)c(F)c(F)c6F)c6nc(c(-c7c(F)c(F)c(F)c(F)c7F)c7ccc4[nH]7)C=C6)C=C5)cc3)cc2)c1
REMARK SMILES IDX 18 1 17 2 15 3 16 4 13 6 14 7 12 8 9 9 10 10 88 11 11 12
REMARK SMILES IDX 87 13 8 14 4 15 5 16 89 17 6 18 7 19 3 20 1 21 2 22 19 23
REMARK SMILES IDX 20 24 21 25 22 26 23 28 24 29 25 30 86 31 26 32 85 33 27 34
REMARK SMILES IDX 28 35 29 36 79 37 30 38 84 39 78 40 80 41 31 42 83 43 77 44
REMARK SMILES IDX 76 45 32 47 64 48 44 49 63 50 45 51 48 52 62 53 81 54 46 55
REMARK SMILES IDX 47 56 61 58 82 59 49 60 33 61 34 62 42 63 35 64 36 65 40 66
REMARK SMILES IDX 43 67 37 68 38 69 41 70 39 71 65 72 66 73 74 74 67 75 68 76
REMARK SMILES IDX 72 77 75 78 69 79 70 80 73 81 71 82 50 83 51 84 59 85 52 86
REMARK SMILES IDX 53 87 57 88 60 89 54 90 55 91 58 92 56 93
REMARK H PARENT 17 5 21 27 80 46 48 57
REMARK Flexibility Score: inf
ROOT
ATOM      1  C   UNL     1       1.278   3.316 -10.686  1.00  0.00     0.117 C 
ENDROOT
BRANCH   1   2
ATOM      2  N   UNL     1       2.657   3.047 -10.330  1.00  0.00    -0.356 N 
ATOM      3  C   UNL     1       3.331   1.884 -10.113  1.00  0.00     0.227 C 
ATOM      4  O   UNL     1       4.507   1.997  -9.745  1.00  0.00    -0.274 OA
ATOM      5  H   UNL     1       3.209   3.855 -10.226  1.00  0.00     0.163 HD
BRANCH   3   6
ATOM      6  C   UNL     1       2.716   0.488 -10.293  1.00  0.00     0.105 C 
ATOM      7  C   UNL     1       2.179   0.205 -11.696  1.00  0.00     0.023 C 
BRANCH   6   8
ATOM      8  C   UNL     1       1.820   0.078  -9.135  1.00  0.00    -0.036 A 
ATOM      9  C   UNL     1       0.245  -0.562  -6.834  1.00  0.00    -0.017 A 
ATOM     10  C   UNL     1      -0.324   0.012  -7.983  1.00  0.00     0.009 A 
ATOM     11  C   UNL     1       1.619  -0.844  -6.882  1.00  0.00     0.009 A 
ATOM     12  C   UNL     1       0.442   0.302  -9.121  1.00  0.00     0.005 A 
ATOM     13  C   UNL     1       2.394  -0.515  -8.002  1.00  0.00     0.005 A 
BRANCH   9  14
ATOM     14  C   UNL     1      -0.567  -0.837  -5.629  1.00  0.00     0.001 A 
ATOM     15  C   UNL     1      -0.847  -0.951  -3.201  1.00  0.00    -0.007 A 
ATOM     16  C   UNL     1      -2.163  -1.337  -3.427  1.00  0.00     0.119 A 
ATOM     17  C   UNL     1      -0.051  -0.705  -4.327  1.00  0.00     0.020 A 
ATOM     18  N   UNL     1      -2.715  -1.480  -4.652  1.00  0.00    -0.263 NA
ATOM     19  C   UNL     1      -1.905  -1.234  -5.710  1.00  0.00     0.119 A 
BRANCH  15  20
ATOM     20  C   UNL     1      -0.332  -0.883  -1.828  1.00  0.00     0.005 C 
ATOM     21  C   UNL     1       1.002   0.127   0.028  1.00  0.00     0.035 C 
ATOM     22  C   UNL     1       0.498   0.070  -1.379  1.00  0.00    -0.030 C 
ENDBRANCH  15  20
ENDBRANCH   9  14
ENDBRANCH   6   8
ENDBRANCH   3   6
ENDBRANCH   1   2
BRANCH   1  23
ATOM     23  C   UNL     1       0.421   3.674  -9.474  1.00  0.00     0.042 C 
BRANCH  23  24
ATOM     24  C   UNL     1       0.584   5.112  -8.998  1.00  0.00     0.118 C 
BRANCH  24  25
ATOM     25  N   UNL     1      -0.003   6.072  -9.922  1.00  0.00    -0.352 N 
ATOM     26  C   UNL     1      -1.033   6.965  -9.764  1.00  0.00     0.251 C 
ATOM     27  H   UNL     1       0.411   6.082 -10.815  1.00  0.00     0.163 HD
ATOM     28  O   UNL     1      -1.480   7.534 -10.758  1.00  0.00    -0.269 OA
BRANCH  26  29
ATOM     29  C   UNL     1      -1.623   7.257  -8.435  1.00  0.00     0.039 A 
ATOM     30  C   UNL     1      -2.994   7.535  -8.364  1.00  0.00     0.014 A 
ATOM     31  C   UNL     1      -0.846   7.344  -7.277  1.00  0.00     0.014 A 
ATOM     32  C   UNL     1      -3.587   7.853  -7.138  1.00  0.00     0.010 A 
ATOM     33  C   UNL     1      -1.450   7.587  -6.042  1.00  0.00     0.010 A 
ATOM     34  C   UNL     1      -2.823   7.859  -5.961  1.00  0.00    -0.014 A 
BRANCH  34  35
ATOM     35  C   UNL     1      -3.443   8.174  -4.648  1.00  0.00     0.031 A 
ATOM     36  C   UNL     1      -3.041   9.413  -3.894  1.00  0.00     0.074 A 
ATOM     37  C   UNL     1      -4.335   7.321  -4.109  1.00  0.00     0.049 A 
ATOM     38  N   UNL     1      -3.432   9.830  -2.715  1.00  0.00    -0.248 NA
ATOM     39  C   UNL     1      -2.050  10.287  -4.540  1.00  0.00     0.031 C 
ATOM     40  C   UNL     1      -4.773   6.063  -4.713  1.00  0.00     0.029 A 
ATOM     41  N   UNL     1      -5.029   7.381  -2.925  1.00  0.00    -0.354 N 
ATOM     42  C   UNL     1      -2.720  10.998  -2.471  1.00  0.00     0.074 A 
ATOM     43  C   UNL     1      -1.842  11.201  -3.603  1.00  0.00     0.031 C 
ATOM     44  C   UNL     1      -5.678   5.481  -3.910  1.00  0.00     0.029 A 
ATOM     45  C   UNL     1      -5.863   6.309  -2.722  1.00  0.00     0.049 A 
ATOM     46  H   UNL     1      -4.937   8.122  -2.284  1.00  0.00     0.167 HD
ATOM     47  C   UNL     1      -2.805  11.836  -1.411  1.00  0.00     0.037 A 
ATOM     48  C   UNL     1      -6.684   6.027  -1.693  1.00  0.00     0.037 A 
ATOM     49  C   UNL     1      -3.705  11.655  -0.301  1.00  0.00     0.049 A 
ATOM     50  C   UNL     1      -6.783   6.990  -0.542  1.00  0.00     0.074 A 
ATOM     51  C   UNL     1      -3.907  12.480   0.792  1.00  0.00     0.029 A 
ATOM     52  N   UNL     1      -4.559  10.573  -0.148  1.00  0.00    -0.354 N 
ATOM     53  N   UNL     1      -6.147   8.119  -0.350  1.00  0.00    -0.248 NA
ATOM     54  C   UNL     1      -7.723   6.641   0.532  1.00  0.00     0.031 C 
ATOM     55  C   UNL     1      -4.861  11.882   1.623  1.00  0.00     0.029 A 
ATOM     56  C   UNL     1      -5.281  10.704   1.028  1.00  0.00     0.049 A 
ATOM     57  H   UNL     1      -4.640   9.824  -0.781  1.00  0.00     0.167 HD
ATOM     58  C   UNL     1      -6.623   8.627   0.850  1.00  0.00     0.074 A 
ATOM     59  C   UNL     1      -7.615   7.690   1.336  1.00  0.00     0.031 C 
ATOM     60  C   UNL     1      -6.269   9.766   1.493  1.00  0.00     0.037 A 
BRANCH  47  61
ATOM     61  C   UNL     1      -1.903  13.036  -1.402  1.00  0.00     0.064 A 
ATOM     62  C   UNL     1      -2.112  14.117  -2.272  1.00  0.00     0.173 A 
ATOM     63  C   UNL     1      -0.838  13.121  -0.494  1.00  0.00     0.173 A 
ATOM     64  F   UNL     1      -3.110  14.080  -3.168  1.00  0.00    -0.203 F 
ATOM     65  C   UNL     1      -1.271  15.226  -2.251  1.00  0.00     0.198 A 
ATOM     66  C   UNL     1      -0.015  14.244  -0.457  1.00  0.00     0.198 A 
ATOM     67  F   UNL     1      -0.598  12.117   0.364  1.00  0.00    -0.203 F 
ATOM     68  F   UNL     1      -1.461  16.226  -3.123  1.00  0.00    -0.200 F 
ATOM     69  C   UNL     1      -0.227  15.292  -1.340  1.00  0.00     0.200 A 
ATOM     70  F   UNL     1       0.987  14.310   0.431  1.00  0.00    -0.200 F 
ATOM     71  F   UNL     1       0.579  16.362  -1.319  1.00  0.00    -0.200 F 
ENDBRANCH  47  61
BRANCH  48  72
ATOM     72  C   UNL     1      -7.510   4.794  -1.725  1.00  0.00     0.064 A 
ATOM     73  C   UNL     1      -8.895   4.865  -1.931  1.00  0.00     0.173 A 
ATOM     74  C   UNL     1      -6.938   3.526  -1.552  1.00  0.00     0.173 A 
ATOM     75  F   UNL     1      -9.489   6.058  -2.077  1.00  0.00    -0.203 F 
ATOM     76  C   UNL     1      -9.679   3.714  -1.946  1.00  0.00     0.198 A 
ATOM     77  C   UNL     1      -7.720   2.374  -1.591  1.00  0.00     0.198 A 
ATOM     78  F   UNL     1      -5.617   3.408  -1.353  1.00  0.00    -0.203 F 
ATOM     79  F   UNL     1     -11.006   3.812  -2.104  1.00  0.00    -0.200 F 
ATOM     80  C   UNL     1      -9.090   2.469  -1.782  1.00  0.00     0.200 A 
ATOM     81  F   UNL     1      -7.147   1.172  -1.440  1.00  0.00    -0.200 F 
ATOM     82  F   UNL     1      -9.845   1.362  -1.799  1.00  0.00    -0.200 F 
ENDBRANCH  48  72
BRANCH  60  83
ATOM     83  C   UNL     1      -6.980  10.075   2.777  1.00  0.00     0.064 A 
ATOM     84  C   UNL     1      -6.707   9.366   3.955  1.00  0.00     0.173 A 
ATOM     85  C   UNL     1      -7.924  11.111   2.834  1.00  0.00     0.173 A 
ATOM     86  F   UNL     1      -5.824   8.356   3.946  1.00  0.00    -0.203 F 
ATOM     87  C   UNL     1      -7.374   9.666   5.140  1.00  0.00     0.198 A 
ATOM     88  C   UNL     1      -8.570  11.425   4.027  1.00  0.00     0.198 A 
ATOM     89  F   UNL     1      -8.216  11.822   1.735  1.00  0.00    -0.203 F 
ATOM     90  F   UNL     1      -7.131   8.945   6.244  1.00  0.00    -0.200 F 
ATOM     91  C   UNL     1      -8.300  10.698   5.176  1.00  0.00     0.200 A 
ATOM     92  F   UNL     1      -9.457  12.429   4.063  1.00  0.00    -0.200 F 
ATOM     93  F   UNL     1      -8.938  10.987   6.319  1.00  0.00    -0.200 F 
ENDBRANCH  60  83
ENDBRANCH  34  35
ENDBRANCH  26  29
ENDBRANCH  24  25
ENDBRANCH  23  24
ENDBRANCH   1  23
TORSDOF 13
