REMARK SMILES C[C@H]1CCC[C@]1(C(=O)NCCCNC(=O)c1ccc(-c2c3nc(c(-c4c(F)c(F)c(F)c(F)c4F)c4ccc([nH]4)c(-c4c(F)c(F)c(F)c(F)c4F)c4nc(c(-c5c(F)c(F)c(F)c(F)c5F)c5ccc2[nH]5)C=C4)C=C3)cc1)c1ccc2c(c1)OCO2
REMARK SMILES IDX 11 1 10 2 9 3 7 4 8 5 6 7 1 8 2 9 3 10 4 11 5 12 79 13 80 14
REMARK SMILES IDX 84 15 81 16 83 17 82 18 85 19 87 20 86 21 12 22 13 23 14 24
REMARK SMILES IDX 15 26 16 27 17 28 78 29 18 30 77 31 19 32 20 33 21 34 71 35
REMARK SMILES IDX 22 36 76 37 70 38 72 39 23 40 75 41 69 42 68 43 24 45 56 46
REMARK SMILES IDX 36 47 55 48 37 49 40 50 54 51 73 52 38 53 39 54 53 56 74 57
REMARK SMILES IDX 41 58 25 59 26 60 34 61 27 62 28 63 32 64 35 65 29 66 30 67
REMARK SMILES IDX 33 68 31 69 57 70 58 71 66 72 59 73 60 74 64 75 67 76 61 77
REMARK SMILES IDX 62 78 65 79 63 80 42 81 43 82 51 83 44 84 45 85 49 86 52 87
REMARK SMILES IDX 46 88 47 89 50 90 48 91
REMARK H PARENT 9 6 13 25 72 44 40 55
REMARK Flexibility Score: inf
ROOT
ATOM      1  C   UNL     1      -1.345  -2.008   3.106  1.00  0.00     0.042 C 
ENDROOT
BRANCH   1   2
ATOM      2  C   UNL     1      -2.010  -0.878   2.336  1.00  0.00     0.117 C 
BRANCH   2   3
ATOM      3  N   UNL     1      -1.434   0.425   2.621  1.00  0.00    -0.355 N 
ATOM      4  C   UNL     1      -0.812   1.387   1.878  1.00  0.00     0.230 C 
ATOM      5  O   UNL     1      -0.686   2.451   2.494  1.00  0.00    -0.274 OA
ATOM      6  H   UNL     1      -1.510   0.673   3.571  1.00  0.00     0.163 HD
BRANCH   4   7
ATOM      7  C   UNL     1      -0.277   1.177   0.415  1.00  0.00     0.077 C 
ATOM      8  C   UNL     1       1.772  -0.025   1.553  1.00  0.00     0.009 C 
ATOM      9  C   UNL     1       0.883   0.123   0.322  1.00  0.00     0.006 C 
ATOM     10  C   UNL     1       0.257  -1.172  -0.174  1.00  0.00     0.005 C 
ATOM     11  C   UNL     1      -0.900  -0.719  -1.057  1.00  0.00     0.002 C 
ATOM     12  C   UNL     1      -1.423   0.594  -0.464  1.00  0.00     0.022 C 
BRANCH   7  13
ATOM     13  C   UNL     1       0.344   2.448  -0.270  1.00  0.00    -0.028 A 
ATOM     14  C   UNL     1       1.026   3.458   0.456  1.00  0.00     0.009 A 
ATOM     15  C   UNL     1       0.469   2.473  -1.681  1.00  0.00     0.055 A 
ATOM     16  C   UNL     1       1.810   4.434  -0.181  1.00  0.00     0.051 A 
ATOM     17  C   UNL     1       1.289   3.406  -2.275  1.00  0.00     0.166 A 
ATOM     18  C   UNL     1       1.950   4.356  -1.545  1.00  0.00     0.165 A 
ATOM     19  O   UNL     1       1.611   3.439  -3.596  1.00  0.00    -0.454 OA
ATOM     20  O   UNL     1       2.775   5.114  -2.318  1.00  0.00    -0.454 OA
ATOM     21  C   UNL     1       2.694   4.391  -3.565  1.00  0.00     0.468 C 
ENDBRANCH   7  13
ENDBRANCH   4   7
ENDBRANCH   2   3
ENDBRANCH   1   2
BRANCH   1  22
ATOM     22  C   UNL     1      -1.690  -2.013   4.584  1.00  0.00     0.118 C 
BRANCH  22  23
ATOM     23  N   UNL     1      -3.094  -2.328   4.812  1.00  0.00    -0.352 N 
ATOM     24  C   UNL     1      -3.678  -3.453   5.328  1.00  0.00     0.251 C 
ATOM     25  H   UNL     1      -3.724  -1.616   4.554  1.00  0.00     0.163 HD
ATOM     26  O   UNL     1      -4.891  -3.628   5.178  1.00  0.00    -0.269 OA
BRANCH  24  27
ATOM     27  C   UNL     1      -2.880  -4.461   6.056  1.00  0.00     0.039 A 
ATOM     28  C   UNL     1      -3.224  -5.811   5.940  1.00  0.00     0.014 A 
ATOM     29  C   UNL     1      -1.826  -4.082   6.891  1.00  0.00     0.014 A 
ATOM     30  C   UNL     1      -2.481  -6.776   6.622  1.00  0.00     0.010 A 
ATOM     31  C   UNL     1      -1.021  -5.049   7.482  1.00  0.00     0.010 A 
ATOM     32  C   UNL     1      -1.355  -6.404   7.374  1.00  0.00    -0.014 A 
BRANCH  32  33
ATOM     33  C   UNL     1      -0.533  -7.423   8.070  1.00  0.00     0.031 A 
ATOM     34  C   UNL     1      -0.428  -7.422   9.569  1.00  0.00     0.074 A 
ATOM     35  C   UNL     1       0.151  -8.325   7.341  1.00  0.00     0.049 A 
ATOM     36  N   UNL     1       0.223  -8.243  10.354  1.00  0.00    -0.248 NA
ATOM     37  C   UNL     1      -1.115  -6.334  10.282  1.00  0.00     0.031 C 
ATOM     38  C   UNL     1       0.184  -8.377   5.879  1.00  0.00     0.029 A 
ATOM     39  N   UNL     1       0.943  -9.374   7.731  1.00  0.00    -0.354 N 
ATOM     40  C   UNL     1       0.035  -7.762  11.644  1.00  0.00     0.074 A 
ATOM     41  C   UNL     1      -0.732  -6.542  11.532  1.00  0.00     0.031 C 
ATOM     42  C   UNL     1       0.913  -9.436   5.494  1.00  0.00     0.029 A 
ATOM     43  C   UNL     1       1.420 -10.118   6.681  1.00  0.00     0.049 A 
ATOM     44  H   UNL     1       1.149  -9.574   8.672  1.00  0.00     0.167 HD
ATOM     45  C   UNL     1       0.437  -8.307  12.817  1.00  0.00     0.037 A 
ATOM     46  C   UNL     1       2.167 -11.237   6.679  1.00  0.00     0.037 A 
ATOM     47  C   UNL     1       1.177  -9.537  12.920  1.00  0.00     0.049 A 
ATOM     48  C   UNL     1       2.580 -11.838   7.993  1.00  0.00     0.074 A 
ATOM     49  C   UNL     1       1.571 -10.219  14.057  1.00  0.00     0.029 A 
ATOM     50  N   UNL     1       1.640 -10.268  11.834  1.00  0.00    -0.354 N 
ATOM     51  N   UNL     1       2.321 -11.426   9.210  1.00  0.00    -0.248 NA
ATOM     52  C   UNL     1       3.381 -13.067   7.930  1.00  0.00     0.031 C 
ATOM     53  C   UNL     1       2.313 -11.338  13.660  1.00  0.00     0.029 A 
ATOM     54  C   UNL     1       2.339 -11.381  12.275  1.00  0.00     0.049 A 
ATOM     55  H   UNL     1       1.494 -10.031  10.890  1.00  0.00     0.167 HD
ATOM     56  C   UNL     1       2.911 -12.351  10.060  1.00  0.00     0.074 A 
ATOM     57  C   UNL     1       3.519 -13.360   9.215  1.00  0.00     0.031 C 
ATOM     58  C   UNL     1       2.951 -12.364  11.416  1.00  0.00     0.037 A 
BRANCH  45  59
ATOM     59  C   UNL     1       0.080  -7.568  14.076  1.00  0.00     0.064 A 
ATOM     60  C   UNL     1      -1.250  -7.454  14.514  1.00  0.00     0.173 A 
ATOM     61  C   UNL     1       1.077  -6.962  14.855  1.00  0.00     0.173 A 
ATOM     62  F   UNL     1      -2.245  -8.002  13.800  1.00  0.00    -0.203 F 
ATOM     63  C   UNL     1      -1.571  -6.723  15.655  1.00  0.00     0.198 A 
ATOM     64  C   UNL     1       0.755  -6.261  16.015  1.00  0.00     0.198 A 
ATOM     65  F   UNL     1       2.365  -7.043  14.489  1.00  0.00    -0.203 F 
ATOM     66  F   UNL     1      -2.854  -6.572  16.012  1.00  0.00    -0.200 F 
ATOM     67  C   UNL     1      -0.569  -6.132  16.407  1.00  0.00     0.200 A 
ATOM     68  F   UNL     1       1.727  -5.699  16.748  1.00  0.00    -0.200 F 
ATOM     69  F   UNL     1      -0.879  -5.426  17.504  1.00  0.00    -0.200 F 
ENDBRANCH  45  59
BRANCH  46  70
ATOM     70  C   UNL     1       2.509 -11.890   5.391  1.00  0.00     0.064 A 
ATOM     71  C   UNL     1       1.901 -13.098   5.021  1.00  0.00     0.173 A 
ATOM     72  C   UNL     1       3.415 -11.312   4.491  1.00  0.00     0.173 A 
ATOM     73  F   UNL     1       1.039 -13.697   5.856  1.00  0.00    -0.203 F 
ATOM     74  C   UNL     1       2.196 -13.709   3.804  1.00  0.00     0.198 A 
ATOM     75  C   UNL     1       3.690 -11.911   3.264  1.00  0.00     0.198 A 
ATOM     76  F   UNL     1       4.015 -10.152   4.795  1.00  0.00    -0.203 F 
ATOM     77  F   UNL     1       1.624 -14.879   3.488  1.00  0.00    -0.200 F 
ATOM     78  C   UNL     1       3.084 -13.111   2.923  1.00  0.00     0.200 A 
ATOM     79  F   UNL     1       4.536 -11.322   2.408  1.00  0.00    -0.200 F 
ATOM     80  F   UNL     1       3.357 -13.692   1.747  1.00  0.00    -0.200 F 
ENDBRANCH  46  70
BRANCH  58  81
ATOM     81  C   UNL     1       3.671 -13.512  12.060  1.00  0.00     0.064 A 
ATOM     82  C   UNL     1       5.068 -13.629  11.997  1.00  0.00     0.173 A 
ATOM     83  C   UNL     1       2.959 -14.503  12.752  1.00  0.00     0.173 A 
ATOM     84  F   UNL     1       5.793 -12.716  11.333  1.00  0.00    -0.203 F 
ATOM     85  C   UNL     1       5.721 -14.716  12.571  1.00  0.00     0.198 A 
ATOM     86  C   UNL     1       3.618 -15.571  13.352  1.00  0.00     0.198 A 
ATOM     87  F   UNL     1       1.622 -14.434  12.847  1.00  0.00    -0.203 F 
ATOM     88  F   UNL     1       7.050 -14.839  12.446  1.00  0.00    -0.200 F 
ATOM     89  C   UNL     1       4.997 -15.683  13.252  1.00  0.00     0.200 A 
ATOM     90  F   UNL     1       2.919 -16.499  14.020  1.00  0.00    -0.200 F 
ATOM     91  F   UNL     1       5.627 -16.730  13.802  1.00  0.00    -0.200 F 
ENDBRANCH  58  81
ENDBRANCH  32  33
ENDBRANCH  24  27
ENDBRANCH  22  23
ENDBRANCH   1  22
TORSDOF 11
