REMARK SMILES CCN(CC)C(=O)N[C@@H](C)c1cccc(/C=C/C(=O)NCCCNC(=O)c2ccc(-c3c4nc(c(-c5c(F)c(F)c(F)c(F)c5F)c5ccc([nH]5)c(-c5c(F)c(F)c(F)c(F)c5F)c5nc(c(-c6c(F)c(F)c(F)c(F)c6F)c6ccc3[nH]6)C=C5)C=C4)cc2)c1
REMARK SMILES IDX 21 1 20 2 18 3 19 4 17 6 16 7 15 8 11 9 12 10 90 11 13 12
REMARK SMILES IDX 14 13 9 14 10 15 8 16 3 17 6 18 7 19 2 21 1 22 4 23 5 24
REMARK SMILES IDX 22 25 23 26 24 27 25 28 26 30 27 31 28 32 89 33 29 34 88 35
REMARK SMILES IDX 30 36 31 37 32 38 82 39 33 40 87 41 81 42 83 43 34 44 86 45
REMARK SMILES IDX 80 46 79 47 35 49 67 50 47 51 66 52 48 53 51 54 65 55 84 56
REMARK SMILES IDX 49 57 50 58 64 60 85 61 52 62 36 63 37 64 45 65 38 66 39 67
REMARK SMILES IDX 43 68 46 69 40 70 41 71 44 72 42 73 68 74 69 75 77 76 70 77
REMARK SMILES IDX 71 78 75 79 78 80 72 81 73 82 76 83 74 84 53 85 54 86 62 87
REMARK SMILES IDX 55 88 56 89 60 90 63 91 57 92 58 93 61 94 59 95
REMARK H PARENT 20 5 8 20 24 29 83 48 51 59
REMARK Flexibility Score: inf
ROOT
ATOM      1  C   UNL     1      -1.564   9.882   3.438  1.00  0.00     0.118 C 
ENDROOT
BRANCH   1   2
ATOM      2  N   UNL     1      -0.970  11.063   2.833  1.00  0.00    -0.352 N 
ATOM      3  C   UNL     1       0.015  11.183   1.901  1.00  0.00     0.244 C 
ATOM      4  O   UNL     1       0.275  12.287   1.430  1.00  0.00    -0.270 OA
ATOM      5  H   UNL     1      -1.342  11.918   3.150  1.00  0.00     0.163 HD
BRANCH   3   6
ATOM      6  C   UNL     1       0.719   9.986   1.391  1.00  0.00     0.072 C 
ATOM      7  C   UNL     1       1.255   9.061   2.197  1.00  0.00     0.014 C 
BRANCH   7   8
ATOM      8  C   UNL     1       1.943   7.848   1.742  1.00  0.00    -0.025 A 
ATOM      9  C   UNL     1       2.436   5.479   2.170  1.00  0.00    -0.025 A 
ATOM     10  C   UNL     1       3.304   5.488   1.069  1.00  0.00     0.006 A 
ATOM     11  C   UNL     1       1.756   6.672   2.482  1.00  0.00     0.014 A 
ATOM     12  C   UNL     1       3.494   6.654   0.321  1.00  0.00     0.001 A 
ATOM     13  C   UNL     1       2.824   7.831   0.660  1.00  0.00     0.008 A 
BRANCH   9  14
ATOM     14  C   UNL     1       2.214   4.264   3.060  1.00  0.00     0.111 C 
ATOM     15  C   UNL     1       2.820   4.491   4.449  1.00  0.00     0.036 C 
BRANCH  14  16
ATOM     16  N   UNL     1       2.762   3.034   2.506  1.00  0.00    -0.331 N 
ATOM     17  N   UNL     1       1.004   1.506   1.950  1.00  0.00    -0.325 N 
ATOM     18  C   UNL     1       2.323   1.850   2.058  1.00  0.00     0.317 C 
ATOM     19  O   UNL     1       3.223   1.064   1.739  1.00  0.00    -0.249 OA
ATOM     20  H   UNL     1       3.743   3.089   2.442  1.00  0.00     0.165 HD
BRANCH  17  21
ATOM     21  C   UNL     1       0.719   0.158   1.444  1.00  0.00     0.118 C 
ATOM     22  C   UNL     1       0.863   0.075  -0.070  1.00  0.00     0.027 C 
ENDBRANCH  17  21
BRANCH  17  23
ATOM     23  C   UNL     1      -0.170   2.313   2.263  1.00  0.00     0.118 C 
ATOM     24  C   UNL     1      -0.514   2.247   3.746  1.00  0.00     0.027 C 
ENDBRANCH  17  23
ENDBRANCH  14  16
ENDBRANCH   9  14
ENDBRANCH   7   8
ENDBRANCH   3   6
ENDBRANCH   1   2
BRANCH   1  25
ATOM     25  C   UNL     1      -1.194   9.754   4.915  1.00  0.00     0.042 C 
BRANCH  25  26
ATOM     26  C   UNL     1      -1.877  10.783   5.814  1.00  0.00     0.118 C 
BRANCH  26  27
ATOM     27  N   UNL     1      -3.313  10.568   5.904  1.00  0.00    -0.352 N 
ATOM     28  C   UNL     1      -4.118  10.377   6.999  1.00  0.00     0.251 C 
ATOM     29  H   UNL     1      -3.784  10.558   5.040  1.00  0.00     0.163 HD
ATOM     30  O   UNL     1      -5.276  10.005   6.835  1.00  0.00    -0.269 OA
BRANCH  28  31
ATOM     31  C   UNL     1      -3.612  10.603   8.372  1.00  0.00     0.039 A 
ATOM     32  C   UNL     1      -4.037   9.741   9.389  1.00  0.00     0.014 A 
ATOM     33  C   UNL     1      -2.784  11.685   8.681  1.00  0.00     0.014 A 
ATOM     34  C   UNL     1      -3.598   9.937  10.701  1.00  0.00     0.010 A 
ATOM     35  C   UNL     1      -2.291  11.839   9.976  1.00  0.00     0.010 A 
ATOM     36  C   UNL     1      -2.701  10.973  11.001  1.00  0.00    -0.014 A 
BRANCH  36  37
ATOM     37  C   UNL     1      -2.192  11.169  12.383  1.00  0.00     0.031 A 
ATOM     38  C   UNL     1      -2.535  12.416  13.150  1.00  0.00     0.074 A 
ATOM     39  C   UNL     1      -1.374  10.247  12.926  1.00  0.00     0.049 A 
ATOM     40  N   UNL     1      -2.138  12.794  14.340  1.00  0.00    -0.248 NA
ATOM     41  C   UNL     1      -3.421  13.381  12.481  1.00  0.00     0.031 C 
ATOM     42  C   UNL     1      -0.931   9.018  12.266  1.00  0.00     0.029 A 
ATOM     43  N   UNL     1      -0.760  10.204  14.153  1.00  0.00    -0.354 N 
ATOM     44  C   UNL     1      -2.709  14.042  14.552  1.00  0.00     0.074 A 
ATOM     45  C   UNL     1      -3.441  14.380  13.351  1.00  0.00     0.031 C 
ATOM     46  C   UNL     1      -0.133   8.334  13.101  1.00  0.00     0.029 A 
ATOM     47  C   UNL     1       0.020   9.090  14.340  1.00  0.00     0.049 A 
ATOM     48  H   UNL     1      -0.870  10.906  14.835  1.00  0.00     0.167 HD
ATOM     49  C   UNL     1      -2.647  14.824  15.657  1.00  0.00     0.037 A 
ATOM     50  C   UNL     1       0.779   8.723  15.390  1.00  0.00     0.037 A 
ATOM     51  C   UNL     1      -1.941  14.470  16.861  1.00  0.00     0.049 A 
ATOM     52  C   UNL     1       0.822   9.604  16.608  1.00  0.00     0.074 A 
ATOM     53  C   UNL     1      -1.869  15.165  18.056  1.00  0.00     0.029 A 
ATOM     54  N   UNL     1      -1.183  13.319  17.022  1.00  0.00    -0.354 N 
ATOM     55  N   UNL     1       0.223  10.750  16.823  1.00  0.00    -0.248 NA
ATOM     56  C   UNL     1       1.641   9.135  17.735  1.00  0.00     0.031 C 
ATOM     57  C   UNL     1      -1.032  14.456  18.925  1.00  0.00     0.029 A 
ATOM     58  C   UNL     1      -0.624  13.294  18.290  1.00  0.00     0.049 A 
ATOM     59  H   UNL     1      -1.061  12.623  16.337  1.00  0.00     0.167 HD
ATOM     60  C   UNL     1       0.567  11.125  18.114  1.00  0.00     0.074 A 
ATOM     61  C   UNL     1       1.415  10.076  18.641  1.00  0.00     0.031 C 
ATOM     62  C   UNL     1       0.212  12.238  18.802  1.00  0.00     0.037 A 
BRANCH  49  63
ATOM     63  C   UNL     1      -3.365  16.143  15.617  1.00  0.00     0.064 A 
ATOM     64  C   UNL     1      -4.766  16.219  15.614  1.00  0.00     0.173 A 
ATOM     65  C   UNL     1      -2.644  17.347  15.619  1.00  0.00     0.173 A 
ATOM     66  F   UNL     1      -5.503  15.098  15.601  1.00  0.00    -0.203 F 
ATOM     67  C   UNL     1      -5.418  17.449  15.584  1.00  0.00     0.198 A 
ATOM     68  C   UNL     1      -3.299  18.576  15.620  1.00  0.00     0.198 A 
ATOM     69  F   UNL     1      -1.302  17.332  15.628  1.00  0.00    -0.203 F 
ATOM     70  F   UNL     1      -6.756  17.495  15.531  1.00  0.00    -0.200 F 
ATOM     71  C   UNL     1      -4.685  18.626  15.594  1.00  0.00     0.200 A 
ATOM     72  F   UNL     1      -2.589  19.712  15.643  1.00  0.00    -0.200 F 
ATOM     73  F   UNL     1      -5.314  19.809  15.572  1.00  0.00    -0.200 F 
ENDBRANCH  49  63
BRANCH  50  74
ATOM     74  C   UNL     1       1.536   7.445  15.346  1.00  0.00     0.064 A 
ATOM     75  C   UNL     1       1.164   6.360  16.151  1.00  0.00     0.173 A 
ATOM     76  C   UNL     1       2.644   7.281  14.501  1.00  0.00     0.173 A 
ATOM     77  F   UNL     1       0.123   6.475  16.989  1.00  0.00    -0.203 F 
ATOM     78  C   UNL     1       1.882   5.166  16.128  1.00  0.00     0.198 A 
ATOM     79  C   UNL     1       3.344   6.077  14.458  1.00  0.00     0.198 A 
ATOM     80  F   UNL     1       3.037   8.287  13.705  1.00  0.00    -0.203 F 
ATOM     81  F   UNL     1       1.531   4.160  16.941  1.00  0.00    -0.200 F 
ATOM     82  C   UNL     1       2.968   5.024  15.278  1.00  0.00     0.200 A 
ATOM     83  F   UNL     1       4.383   5.938  13.623  1.00  0.00    -0.200 F 
ATOM     84  F   UNL     1       3.655   3.874  15.252  1.00  0.00    -0.200 F 
ENDBRANCH  50  74
BRANCH  62  85
ATOM     85  C   UNL     1       0.712  12.362  20.212  1.00  0.00     0.064 A 
ATOM     86  C   UNL     1       2.060  12.625  20.496  1.00  0.00     0.173 A 
ATOM     87  C   UNL     1      -0.177  12.248  21.291  1.00  0.00     0.173 A 
ATOM     88  F   UNL     1       2.952  12.727  19.500  1.00  0.00    -0.203 F 
ATOM     89  C   UNL     1       2.504  12.741  21.811  1.00  0.00     0.198 A 
ATOM     90  C   UNL     1       0.265  12.394  22.603  1.00  0.00     0.198 A 
ATOM     91  F   UNL     1      -1.478  12.003  21.073  1.00  0.00    -0.203 F 
ATOM     92  F   UNL     1       3.806  12.941  22.060  1.00  0.00    -0.200 F 
ATOM     93  C   UNL     1       1.606  12.632  22.862  1.00  0.00     0.200 A 
ATOM     94  F   UNL     1      -0.607  12.303  23.616  1.00  0.00    -0.200 F 
ATOM     95  F   UNL     1       2.035  12.749  24.126  1.00  0.00    -0.200 F 
ENDBRANCH  62  85
ENDBRANCH  36  37
ENDBRANCH  28  31
ENDBRANCH  26  27
ENDBRANCH  25  26
ENDBRANCH   1  25
TORSDOF 15
