REMARK SMILES CCc1ccc(-c2cc(Cl)cc3c2O[C@H](C(F)(F)F)C(C(=O)NCCCNC(=O)c2ccc(-c4c5nc(c(-c6c(F)c(F)c(F)c(F)c6F)c6ccc([nH]6)c(-c6c(F)c(F)c(F)c(F)c6F)c6nc(c(-c7c(F)c(F)c(F)c(F)c7F)c7ccc4[nH]7)C=C6)C=C5)cc2)=C3)cc1
REMARK SMILES IDX 25 1 24 2 23 3 21 4 22 5 20 7 7 8 8 9 13 10 9 11 12 12 14 13
REMARK SMILES IDX 10 14 11 15 93 16 15 17 6 18 3 19 4 20 95 21 5 22 94 23 2 24
REMARK SMILES IDX 1 25 16 26 17 27 18 28 19 29 26 30 27 31 28 32 29 34 30 35
REMARK SMILES IDX 31 36 92 37 32 38 91 39 33 40 34 41 35 42 85 43 36 44 90 45
REMARK SMILES IDX 84 46 86 47 37 48 89 49 83 50 82 51 38 53 70 54 50 55 69 56
REMARK SMILES IDX 51 57 54 58 68 59 87 60 52 61 53 62 67 64 88 65 55 66 39 67
REMARK SMILES IDX 40 68 48 69 41 70 42 71 46 72 49 73 43 74 44 75 47 76 45 77
REMARK SMILES IDX 71 78 72 79 80 80 73 81 74 82 78 83 81 84 75 85 76 86 79 87
REMARK SMILES IDX 77 88 56 89 57 90 65 91 58 92 59 93 63 94 66 95 60 96 61 97
REMARK SMILES IDX 64 98 62 99
REMARK H PARENT 23 6 27 33 86 52 54 63
REMARK Flexibility Score: inf
ROOT
ATOM      1  C   UNL     1      -0.776 -11.726   8.700  1.00  0.00     0.042 C 
ENDROOT
BRANCH   1   2
ATOM      2  C   UNL     1       0.265 -10.605   8.700  1.00  0.00     0.118 C 
BRANCH   2   3
ATOM      3  N   UNL     1       0.931 -10.548   7.414  1.00  0.00    -0.352 N 
ATOM      4  C   UNL     1       0.866  -9.532   6.517  1.00  0.00     0.251 C 
ATOM      5  O   UNL     1       0.774  -9.779   5.320  1.00  0.00    -0.270 OA
ATOM      6  H   UNL     1       1.485 -11.323   7.167  1.00  0.00     0.163 HD
BRANCH   4   7
ATOM      7  C   UNL     1       1.057  -8.152   7.049  1.00  0.00     0.067 C 
ATOM      8  C   UNL     1       1.401  -6.136   3.535  1.00  0.00     0.026 A 
ATOM      9  C   UNL     1       2.334  -6.828   2.718  1.00  0.00     0.033 A 
ATOM     10  C   UNL     1       1.364  -6.502   4.890  1.00  0.00     0.135 A 
ATOM     11  C   UNL     1       3.259  -7.734   3.234  1.00  0.00     0.042 A 
ATOM     12  C   UNL     1       2.384  -7.339   5.412  1.00  0.00     0.019 A 
ATOM     13  O   UNL     1       0.344  -6.115   5.746  1.00  0.00    -0.475 OA
ATOM     14  Cl  UNL     1       4.323  -8.566   2.172  1.00  0.00    -0.084 Cl
ATOM     15  C   UNL     1       3.330  -7.950   4.595  1.00  0.00     0.032 A 
ATOM     16  C   UNL     1       2.312  -7.705   6.844  1.00  0.00     0.025 C 
ATOM     17  C   UNL     1      -0.060  -7.175   6.709  1.00  0.00     0.314 C 
BRANCH   8  18
ATOM     18  C   UNL     1       0.708  -5.003   2.873  1.00  0.00    -0.015 A 
ATOM     19  C   UNL     1       0.394  -2.814   1.067  1.00  0.00    -0.048 A 
ATOM     20  C   UNL     1      -0.031  -4.104   0.720  1.00  0.00     0.004 A 
ATOM     21  C   UNL     1       0.841  -2.607   2.377  1.00  0.00     0.004 A 
ATOM     22  C   UNL     1       0.107  -5.176   1.612  1.00  0.00     0.009 A 
ATOM     23  C   UNL     1       0.989  -3.685   3.270  1.00  0.00     0.009 A 
BRANCH  19  24
ATOM     24  C   UNL     1       0.389  -1.751  -0.013  1.00  0.00     0.032 C 
ATOM     25  C   UNL     1       1.008  -0.398   0.319  1.00  0.00     0.009 C 
ENDBRANCH  19  24
ENDBRANCH   8  18
BRANCH  17  26
ATOM     26  C   UNL     1      -0.599  -6.577   8.028  1.00  0.00     0.429 C 
ATOM     27  F   UNL     1      -0.336  -5.257   8.154  1.00  0.00    -0.167 F 
ATOM     28  F   UNL     1      -1.940  -6.741   8.127  1.00  0.00    -0.167 F 
ATOM     29  F   UNL     1      -0.067  -7.179   9.126  1.00  0.00    -0.167 F 
ENDBRANCH  17  26
ENDBRANCH   4   7
ENDBRANCH   2   3
ENDBRANCH   1   2
BRANCH   1  30
ATOM     30  C   UNL     1      -0.206 -13.123   8.465  1.00  0.00     0.118 C 
BRANCH  30  31
ATOM     31  N   UNL     1       0.733 -13.540   9.495  1.00  0.00    -0.352 N 
ATOM     32  C   UNL     1       0.761 -14.710  10.215  1.00  0.00     0.251 C 
ATOM     33  H   UNL     1       1.447 -12.896   9.704  1.00  0.00     0.163 HD
ATOM     34  O   UNL     1       1.543 -14.844  11.151  1.00  0.00    -0.269 OA
BRANCH  32  35
ATOM     35  C   UNL     1      -0.180 -15.796   9.876  1.00  0.00     0.039 A 
ATOM     36  C   UNL     1      -0.907 -16.406  10.901  1.00  0.00     0.014 A 
ATOM     37  C   UNL     1      -0.363 -16.192   8.549  1.00  0.00     0.014 A 
ATOM     38  C   UNL     1      -1.872 -17.365  10.586  1.00  0.00     0.010 A 
ATOM     39  C   UNL     1      -1.381 -17.085   8.231  1.00  0.00     0.010 A 
ATOM     40  C   UNL     1      -2.145 -17.683   9.246  1.00  0.00    -0.014 A 
BRANCH  40  41
ATOM     41  C   UNL     1      -3.213 -18.649   8.879  1.00  0.00     0.031 A 
ATOM     42  C   UNL     1      -2.857 -19.918   8.153  1.00  0.00     0.074 A 
ATOM     43  C   UNL     1      -4.503 -18.354   9.133  1.00  0.00     0.049 A 
ATOM     44  N   UNL     1      -3.644 -20.836   7.652  1.00  0.00    -0.248 NA
ATOM     45  C   UNL     1      -1.424 -20.173   7.935  1.00  0.00     0.031 C 
ATOM     46  C   UNL     1      -4.980 -17.140   9.795  1.00  0.00     0.029 A 
ATOM     47  N   UNL     1      -5.652 -19.051   8.852  1.00  0.00    -0.354 N 
ATOM     48  C   UNL     1      -2.805 -21.763   7.048  1.00  0.00     0.074 A 
ATOM     49  C   UNL     1      -1.453 -21.267   7.191  1.00  0.00     0.031 C 
ATOM     50  C   UNL     1      -6.319 -17.188   9.892  1.00  0.00     0.029 A 
ATOM     51  C   UNL     1      -6.799 -18.413   9.260  1.00  0.00     0.049 A 
ATOM     52  H   UNL     1      -5.655 -19.926   8.400  1.00  0.00     0.167 HD
ATOM     53  C   UNL     1      -3.128 -22.936   6.455  1.00  0.00     0.037 A 
ATOM     54  C   UNL     1      -8.090 -18.772   9.128  1.00  0.00     0.037 A 
ATOM     55  C   UNL     1      -4.471 -23.439   6.338  1.00  0.00     0.049 A 
ATOM     56  C   UNL     1      -8.423 -20.072   8.444  1.00  0.00     0.074 A 
ATOM     57  C   UNL     1      -4.901 -24.635   5.790  1.00  0.00     0.029 A 
ATOM     58  N   UNL     1      -5.604 -22.772   6.781  1.00  0.00    -0.354 N 
ATOM     59  N   UNL     1      -7.617 -20.966   7.926  1.00  0.00    -0.248 NA
ATOM     60  C   UNL     1      -9.848 -20.413   8.330  1.00  0.00     0.031 C 
ATOM     61  C   UNL     1      -6.297 -24.672   5.863  1.00  0.00     0.029 A 
ATOM     62  C   UNL     1      -6.733 -23.525   6.506  1.00  0.00     0.049 A 
ATOM     63  H   UNL     1      -5.604 -21.893   7.225  1.00  0.00     0.167 HD
ATOM     64  C   UNL     1      -8.431 -21.992   7.464  1.00  0.00     0.074 A 
ATOM     65  C   UNL     1      -9.794 -21.613   7.770  1.00  0.00     0.031 C 
ATOM     66  C   UNL     1      -8.081 -23.144   6.842  1.00  0.00     0.037 A 
BRANCH  53  67
ATOM     67  C   UNL     1      -2.006 -23.763   5.895  1.00  0.00     0.064 A 
ATOM     68  C   UNL     1      -1.072 -24.396   6.731  1.00  0.00     0.173 A 
ATOM     69  C   UNL     1      -1.881 -23.955   4.511  1.00  0.00     0.173 A 
ATOM     70  F   UNL     1      -1.139 -24.235   8.061  1.00  0.00    -0.203 F 
ATOM     71  C   UNL     1      -0.038 -25.162   6.200  1.00  0.00     0.198 A 
ATOM     72  C   UNL     1      -0.865 -24.750   3.986  1.00  0.00     0.198 A 
ATOM     73  F   UNL     1      -2.749 -23.379   3.666  1.00  0.00    -0.203 F 
ATOM     74  F   UNL     1       0.873 -25.711   7.016  1.00  0.00    -0.200 F 
ATOM     75  C   UNL     1       0.061 -25.345   4.830  1.00  0.00     0.200 A 
ATOM     76  F   UNL     1      -0.779 -24.937   2.661  1.00  0.00    -0.200 F 
ATOM     77  F   UNL     1       1.052 -26.090   4.321  1.00  0.00    -0.200 F 
ENDBRANCH  53  67
BRANCH  54  78
ATOM     78  C   UNL     1      -9.169 -17.906   9.675  1.00  0.00     0.064 A 
ATOM     79  C   UNL     1      -9.948 -18.330  10.761  1.00  0.00     0.173 A 
ATOM     80  C   UNL     1      -9.463 -16.655   9.112  1.00  0.00     0.173 A 
ATOM     81  F   UNL     1      -9.720 -19.527  11.321  1.00  0.00    -0.203 F 
ATOM     82  C   UNL     1     -10.997 -17.550  11.245  1.00  0.00     0.198 A 
ATOM     83  C   UNL     1     -10.492 -15.863   9.617  1.00  0.00     0.198 A 
ATOM     84  F   UNL     1      -8.746 -16.200   8.074  1.00  0.00    -0.203 F 
ATOM     85  F   UNL     1     -11.760 -18.006  12.247  1.00  0.00    -0.200 F 
ATOM     86  C   UNL     1     -11.266 -16.316  10.675  1.00  0.00     0.200 A 
ATOM     87  F   UNL     1     -10.740 -14.663   9.073  1.00  0.00    -0.200 F 
ATOM     88  F   UNL     1     -12.275 -15.567  11.139  1.00  0.00    -0.200 F 
ENDBRANCH  54  78
BRANCH  66  89
ATOM     89  C   UNL     1      -9.180 -24.110   6.504  1.00  0.00     0.064 A 
ATOM     90  C   UNL     1     -10.101 -23.854   5.478  1.00  0.00     0.173 A 
ATOM     91  C   UNL     1      -9.280 -25.332   7.187  1.00  0.00     0.173 A 
ATOM     92  F   UNL     1     -10.058 -22.694   4.806  1.00  0.00    -0.203 F 
ATOM     93  C   UNL     1     -11.097 -24.775   5.165  1.00  0.00     0.198 A 
ATOM     94  C   UNL     1     -10.256 -26.264   6.850  1.00  0.00     0.198 A 
ATOM     95  F   UNL     1      -8.418 -25.628   8.172  1.00  0.00    -0.203 F 
ATOM     96  F   UNL     1     -11.996 -24.490   4.213  1.00  0.00    -0.200 F 
ATOM     97  C   UNL     1     -11.168 -25.983   5.845  1.00  0.00     0.200 A 
ATOM     98  F   UNL     1     -10.312 -27.436   7.497  1.00  0.00    -0.200 F 
ATOM     99  F   UNL     1     -12.120 -26.873   5.534  1.00  0.00    -0.200 F 
ENDBRANCH  66  89
ENDBRANCH  40  41
ENDBRANCH  32  35
ENDBRANCH  30  31
ENDBRANCH   1  30
TORSDOF 13
