REMARK SMILES C[N@H+](C1CCC(C)(C)CC1)[C@@H]1CCCCC[C@@H]1C(=O)NCCCNC(=O)c1ccc(-c2c3nc(c(-c4c(F)c(F)c(F)c(F)c4F)c4ccc([nH]4)c(-c4c(F)c(F)c(F)c(F)c4F)c4nc(c(-c5c(F)c(F)c(F)c(F)c5F)c5ccc2[nH]5)C=C4)C=C3)cc1
REMARK SMILES IDX 21 1 20 2 18 3 19 4 17 6 11 7 2 8 1 9 3 11 4 12 10 13 5 14
REMARK SMILES IDX 9 15 6 16 7 17 8 18 12 19 13 20 14 21 16 23 15 24 22 26
REMARK SMILES IDX 23 27 24 28 25 29 26 31 27 32 28 33 89 34 29 35 88 36 30 37
REMARK SMILES IDX 31 38 32 39 82 40 33 41 87 42 81 43 83 44 34 45 86 46 80 47
REMARK SMILES IDX 79 48 35 50 67 51 47 52 66 53 48 54 51 55 65 56 84 57 49 58
REMARK SMILES IDX 50 59 64 61 85 62 52 63 36 64 37 65 45 66 38 67 39 68 43 69
REMARK SMILES IDX 46 70 40 71 41 72 44 73 42 74 68 75 69 76 77 77 70 78 71 79
REMARK SMILES IDX 75 80 78 81 72 82 73 83 76 84 74 85 53 86 54 87 62 88 55 89
REMARK SMILES IDX 56 90 60 91 63 92 57 93 58 94 61 95 59 96
REMARK H PARENT 20 5 2 10 24 30 83 49 51 60
REMARK Flexibility Score: 90.00
ROOT
ATOM      1  C   UNL     1       1.068   1.253   0.972  1.00  0.00     0.117 C 
ENDROOT
BRANCH   1   2
ATOM      2  N   UNL     1       2.095   1.375  -0.037  1.00  0.00    -0.356 N 
ATOM      3  C   UNL     1       1.678   1.532  -1.339  1.00  0.00     0.229 C 
ATOM      4  O   UNL     1       1.236   2.625  -1.700  1.00  0.00    -0.275 OA
ATOM      5  H   UNL     1       3.051   1.347   0.197  1.00  0.00     0.163 HD
BRANCH   3   6
ATOM      6  C   UNL     1       2.080   0.461  -2.355  1.00  0.00     0.136 C 
BRANCH   6   7
ATOM      7  C   UNL     1       1.411  -0.961  -2.277  1.00  0.00     0.196 C 
BRANCH   7   8
ATOM      8  N   UNL     1       0.475  -1.119  -1.120  1.00  0.00    -0.332 N 
ATOM      9  C   UNL     1       1.041  -1.978  -0.064  1.00  0.00     0.333 C 
ATOM     10  H   UNL     1       0.399  -0.157  -0.790  1.00  0.00     0.348 HD
BRANCH   8  11
ATOM     11  C   UNL     1      -0.949  -1.477  -1.401  1.00  0.00     0.184 C 
ATOM     12  C   UNL     1      -1.917  -1.076  -0.248  1.00  0.00     0.065 C 
ATOM     13  C   UNL     1      -1.612  -0.899  -2.668  1.00  0.00     0.065 C 
ATOM     14  C   UNL     1      -2.265   0.420  -0.134  1.00  0.00     0.012 C 
ATOM     15  C   UNL     1      -1.696   0.623  -2.642  1.00  0.00     0.012 C 
ATOM     16  C   UNL     1      -2.505   1.190  -1.455  1.00  0.00    -0.035 C 
ATOM     17  C   UNL     1      -2.110   2.672  -1.259  1.00  0.00     0.011 C 
ATOM     18  C   UNL     1      -4.008   1.169  -1.790  1.00  0.00     0.011 C 
ENDBRANCH   8  11
ENDBRANCH   7   8
BRANCH   7  19
ATOM     19  C   UNL     1       2.388  -2.156  -2.498  1.00  0.00     0.066 C 
BRANCH  19  20
ATOM     20  C   UNL     1       3.089  -2.198  -3.862  1.00  0.00     0.006 C 
BRANCH  20  21
ATOM     21  C   UNL     1       4.369  -1.379  -3.945  1.00  0.00     0.000 CG0
ATOM     22  G   UNL     1       4.144   0.117  -3.833  1.00  0.00     0.000 G0
ENDBRANCH  20  21
ENDBRANCH  19  20
ENDBRANCH   7  19
ENDBRANCH   6   7
BRANCH   6  23
ATOM     23  C   UNL     1       3.612   0.534  -2.467  1.00  0.00     0.020 C 
BRANCH  23  24
ATOM     24  C   UNL     1       4.144   0.117  -3.833  1.00  0.00     0.001 CG0
ATOM     25  G   UNL     1       4.369  -1.379  -3.945  1.00  0.00     0.000 G0
ENDBRANCH  23  24
ENDBRANCH   6  23
ENDBRANCH   3   6
ENDBRANCH   1   2
BRANCH   1  26
ATOM     26  C   UNL     1       1.606   0.871   2.333  1.00  0.00     0.042 C 
BRANCH  26  27
ATOM     27  C   UNL     1       0.529   0.983   3.401  1.00  0.00     0.118 C 
BRANCH  27  28
ATOM     28  N   UNL     1      -0.516  -0.035   3.368  1.00  0.00    -0.352 N 
ATOM     29  C   UNL     1      -1.327  -0.424   4.424  1.00  0.00     0.251 C 
ATOM     30  H   UNL     1      -0.660  -0.493   2.508  1.00  0.00     0.163 HD
ATOM     31  O   UNL     1      -2.151  -1.313   4.315  1.00  0.00    -0.269 OA
BRANCH  29  32
ATOM     32  C   UNL     1      -1.100   0.243   5.726  1.00  0.00     0.039 A 
ATOM     33  C   UNL     1      -0.692  -0.524   6.819  1.00  0.00     0.014 A 
ATOM     34  C   UNL     1      -1.082   1.637   5.782  1.00  0.00     0.014 A 
ATOM     35  C   UNL     1      -0.139   0.116   7.930  1.00  0.00     0.010 A 
ATOM     36  C   UNL     1      -0.426   2.259   6.833  1.00  0.00     0.010 A 
ATOM     37  C   UNL     1       0.065   1.506   7.912  1.00  0.00    -0.014 A 
BRANCH  37  38
ATOM     38  C   UNL     1       0.791   2.207   9.002  1.00  0.00     0.031 A 
ATOM     39  C   UNL     1       0.095   3.303   9.760  1.00  0.00     0.074 A 
ATOM     40  C   UNL     1       2.092   1.936   9.233  1.00  0.00     0.049 A 
ATOM     41  N   UNL     1       0.578   4.141  10.641  1.00  0.00    -0.248 NA
ATOM     42  C   UNL     1      -1.326   3.521   9.442  1.00  0.00     0.031 C 
ATOM     43  C   UNL     1       2.899   0.951   8.508  1.00  0.00     0.029 A 
ATOM     44  N   UNL     1       2.972   2.475  10.139  1.00  0.00    -0.354 N 
ATOM     45  C   UNL     1      -0.467   5.003  10.947  1.00  0.00     0.074 A 
ATOM     46  C   UNL     1      -1.585   4.634  10.109  1.00  0.00     0.031 C 
ATOM     47  C   UNL     1       4.141   0.932   9.021  1.00  0.00     0.029 A 
ATOM     48  C   UNL     1       4.231   1.926  10.085  1.00  0.00     0.049 A 
ATOM     49  H   UNL     1       2.724   3.190  10.769  1.00  0.00     0.167 HD
ATOM     50  C   UNL     1      -0.503   5.990  11.872  1.00  0.00     0.037 A 
ATOM     51  C   UNL     1       5.329   2.195  10.817  1.00  0.00     0.037 A 
ATOM     52  C   UNL     1       0.592   6.303  12.748  1.00  0.00     0.049 A 
ATOM     53  C   UNL     1       5.242   3.252  11.887  1.00  0.00     0.074 A 
ATOM     54  C   UNL     1       0.645   7.234  13.768  1.00  0.00     0.029 A 
ATOM     55  N   UNL     1       1.827   5.671  12.713  1.00  0.00    -0.354 N 
ATOM     56  N   UNL     1       4.229   4.019  12.212  1.00  0.00    -0.248 NA
ATOM     57  C   UNL     1       6.446   3.475  12.700  1.00  0.00     0.031 C 
ATOM     58  C   UNL     1       1.920   7.179  14.341  1.00  0.00     0.029 A 
ATOM     59  C   UNL     1       2.648   6.189  13.699  1.00  0.00     0.049 A 
ATOM     60  H   UNL     1       2.080   4.959  12.082  1.00  0.00     0.167 HD
ATOM     61  C   UNL     1       4.660   4.790  13.281  1.00  0.00     0.074 A 
ATOM     62  C   UNL     1       6.023   4.389  13.562  1.00  0.00     0.031 C 
ATOM     63  C   UNL     1       3.993   5.749  13.969  1.00  0.00     0.037 A 
BRANCH  50  64
ATOM     64  C   UNL     1      -1.777   6.773  11.997  1.00  0.00     0.064 A 
ATOM     65  C   UNL     1      -2.950   6.188  12.501  1.00  0.00     0.173 A 
ATOM     66  C   UNL     1      -1.829   8.122  11.617  1.00  0.00     0.173 A 
ATOM     67  F   UNL     1      -2.958   4.896  12.863  1.00  0.00    -0.203 F 
ATOM     68  C   UNL     1      -4.136   6.912  12.582  1.00  0.00     0.198 A 
ATOM     69  C   UNL     1      -3.010   8.853  11.731  1.00  0.00     0.198 A 
ATOM     70  F   UNL     1      -0.737   8.732  11.133  1.00  0.00    -0.203 F 
ATOM     71  F   UNL     1      -5.257   6.313  13.006  1.00  0.00    -0.200 F 
ATOM     72  C   UNL     1      -4.164   8.245  12.203  1.00  0.00     0.200 A 
ATOM     73  F   UNL     1      -3.033  10.145  11.374  1.00  0.00    -0.200 F 
ATOM     74  F   UNL     1      -5.306   8.942  12.283  1.00  0.00    -0.200 F 
ENDBRANCH  50  64
BRANCH  51  75
ATOM     75  C   UNL     1       6.585   1.427  10.605  1.00  0.00     0.064 A 
ATOM     76  C   UNL     1       7.041   0.519  11.573  1.00  0.00     0.173 A 
ATOM     77  C   UNL     1       7.364   1.591   9.451  1.00  0.00     0.173 A 
ATOM     78  F   UNL     1       6.342   0.339  12.703  1.00  0.00    -0.203 F 
ATOM     79  C   UNL     1       8.239  -0.174  11.407  1.00  0.00     0.198 A 
ATOM     80  C   UNL     1       8.549   0.878   9.273  1.00  0.00     0.198 A 
ATOM     81  F   UNL     1       6.971   2.441   8.491  1.00  0.00    -0.203 F 
ATOM     82  F   UNL     1       8.674  -0.996  12.371  1.00  0.00    -0.200 F 
ATOM     83  C   UNL     1       8.990   0.003  10.255  1.00  0.00     0.200 A 
ATOM     84  F   UNL     1       9.266   1.041   8.153  1.00  0.00    -0.200 F 
ATOM     85  F   UNL     1      10.143  -0.661  10.096  1.00  0.00    -0.200 F 
ENDBRANCH  51  75
BRANCH  63  86
ATOM     86  C   UNL     1       4.709   6.395  15.115  1.00  0.00     0.064 A 
ATOM     87  C   UNL     1       5.736   7.326  14.907  1.00  0.00     0.173 A 
ATOM     88  C   UNL     1       4.322   6.120  16.435  1.00  0.00     0.173 A 
ATOM     89  F   UNL     1       6.149   7.609  13.662  1.00  0.00    -0.203 F 
ATOM     90  C   UNL     1       6.364   7.946  15.983  1.00  0.00     0.198 A 
ATOM     91  C   UNL     1       4.934   6.762  17.507  1.00  0.00     0.198 A 
ATOM     92  F   UNL     1       3.339   5.241  16.683  1.00  0.00    -0.203 F 
ATOM     93  F   UNL     1       7.370   8.804  15.764  1.00  0.00    -0.200 F 
ATOM     94  C   UNL     1       5.958   7.670  17.280  1.00  0.00     0.200 A 
ATOM     95  F   UNL     1       4.532   6.504  18.759  1.00  0.00    -0.200 F 
ATOM     96  F   UNL     1       6.557   8.276  18.314  1.00  0.00    -0.200 F 
ENDBRANCH  63  86
ENDBRANCH  37  38
ENDBRANCH  29  32
ENDBRANCH  27  28
ENDBRANCH  26  27
ENDBRANCH   1  26
TORSDOF 12
