REMARK SMILES Cc1cc(C)n([C@@H](C(=O)NCCCNC(=O)c2ccc(-c3c4nc(c(-c5c(F)c(F)c(F)c(F)c5F)c5ccc([nH]5)c(-c5c(F)c(F)c(F)c(F)c5F)c5nc(c(-c6c(F)c(F)c(F)c(F)c6F)c6ccc3[nH]6)C=C5)C=C4)cc2)C(C)C)n1
REMARK SMILES IDX 12 1 11 2 10 3 8 4 9 5 7 7 6 8 1 9 2 10 3 11 83 12 4 13 5 14
REMARK SMILES IDX 80 15 81 16 82 17 13 18 14 19 15 20 16 22 17 23 18 24 79 25
REMARK SMILES IDX 19 26 78 27 20 28 21 29 22 30 72 31 23 32 77 33 71 34 73 35
REMARK SMILES IDX 24 36 76 37 70 38 69 39 25 41 57 42 37 43 56 44 38 45 41 46
REMARK SMILES IDX 55 47 74 48 39 49 40 50 54 52 75 53 42 54 26 55 27 56 35 57
REMARK SMILES IDX 28 58 29 59 33 60 36 61 30 62 31 63 34 64 32 65 58 66 59 67
REMARK SMILES IDX 67 68 60 69 61 70 65 71 68 72 62 73 63 74 66 75 64 76 43 77
REMARK SMILES IDX 44 78 52 79 45 80 46 81 50 82 53 83 47 84 48 85 51 86 49 87
REMARK H PARENT 10 6 14 21 73 40 41 51
REMARK Flexibility Score: inf
ROOT
ATOM      1  C   UNL     1       0.802   2.885  -3.076  1.00  0.00     0.042 C 
ENDROOT
BRANCH   1   2
ATOM      2  C   UNL     1       1.511   4.184  -2.677  1.00  0.00     0.117 C 
BRANCH   2   3
ATOM      3  N   UNL     1       0.591   5.233  -2.246  1.00  0.00    -0.354 N 
ATOM      4  C   UNL     1       0.239   5.617  -0.977  1.00  0.00     0.245 C 
ATOM      5  O   UNL     1      -0.612   6.503  -0.871  1.00  0.00    -0.273 OA
ATOM      6  H   UNL     1       0.160   5.739  -2.973  1.00  0.00     0.163 HD
BRANCH   4   7
ATOM      7  C   UNL     1       0.901   4.955   0.235  1.00  0.00     0.199 C 
BRANCH   7   8
ATOM      8  N   UNL     1       0.376   3.596   0.390  1.00  0.00    -0.257 N 
ATOM      9  C   UNL     1       1.101   0.129   0.153  1.00  0.00     0.069 C 
ATOM     10  C   UNL     1       0.499   1.470   0.341  1.00  0.00     0.060 A 
ATOM     11  C   UNL     1      -0.852   1.785   0.580  1.00  0.00     0.048 A 
ATOM     12  N   UNL     1       1.250   2.570   0.249  1.00  0.00    -0.177 NA
ATOM     13  C   UNL     1      -0.915   3.163   0.606  1.00  0.00     0.037 A 
ATOM     14  C   UNL     1      -2.097   4.040   0.799  1.00  0.00     0.066 C 
ENDBRANCH   7   8
BRANCH   7  15
ATOM     15  C   UNL     1       0.833   5.785   1.548  1.00  0.00     0.017 C 
ATOM     16  C   UNL     1       1.589   5.078   2.684  1.00  0.00     0.010 C 
ATOM     17  C   UNL     1       1.436   7.188   1.379  1.00  0.00     0.010 C 
ENDBRANCH   7  15
ENDBRANCH   4   7
ENDBRANCH   2   3
ENDBRANCH   1   2
BRANCH   1  18
ATOM     18  C   UNL     1       0.035   3.005  -4.378  1.00  0.00     0.118 C 
BRANCH  18  19
ATOM     19  N   UNL     1       0.891   3.177  -5.557  1.00  0.00    -0.352 N 
ATOM     20  C   UNL     1       0.509   3.301  -6.885  1.00  0.00     0.251 C 
ATOM     21  H   UNL     1       1.860   3.208  -5.383  1.00  0.00     0.163 HD
ATOM     22  O   UNL     1       1.298   3.110  -7.795  1.00  0.00    -0.269 OA
BRANCH  20  23
ATOM     23  C   UNL     1      -0.887   3.679  -7.172  1.00  0.00     0.039 A 
ATOM     24  C   UNL     1      -1.622   3.120  -8.221  1.00  0.00     0.014 A 
ATOM     25  C   UNL     1      -1.473   4.587  -6.302  1.00  0.00     0.014 A 
ATOM     26  C   UNL     1      -2.974   3.439  -8.326  1.00  0.00     0.010 A 
ATOM     27  C   UNL     1      -2.830   4.678  -6.245  1.00  0.00     0.010 A 
ATOM     28  C   UNL     1      -3.571   4.211  -7.316  1.00  0.00    -0.014 A 
BRANCH  28  29
ATOM     29  C   UNL     1      -4.996   4.501  -7.288  1.00  0.00     0.031 A 
ATOM     30  C   UNL     1      -5.845   3.285  -7.266  1.00  0.00     0.074 A 
ATOM     31  C   UNL     1      -5.468   5.746  -7.042  1.00  0.00     0.049 A 
ATOM     32  N   UNL     1      -6.600   2.836  -8.211  1.00  0.00    -0.248 NA
ATOM     33  C   UNL     1      -5.717   2.364  -6.123  1.00  0.00     0.031 C 
ATOM     34  C   UNL     1      -4.698   6.951  -6.686  1.00  0.00     0.029 A 
ATOM     35  N   UNL     1      -6.754   6.186  -6.950  1.00  0.00    -0.354 N 
ATOM     36  C   UNL     1      -7.230   1.709  -7.686  1.00  0.00     0.074 A 
ATOM     37  C   UNL     1      -6.489   1.346  -6.510  1.00  0.00     0.031 C 
ATOM     38  C   UNL     1      -5.524   7.896  -6.187  1.00  0.00     0.029 A 
ATOM     39  C   UNL     1      -6.888   7.449  -6.378  1.00  0.00     0.049 A 
ATOM     40  H   UNL     1      -7.523   5.656  -7.261  1.00  0.00     0.167 HD
ATOM     41  C   UNL     1      -8.490   1.385  -8.090  1.00  0.00     0.037 A 
ATOM     42  C   UNL     1      -8.050   8.081  -6.084  1.00  0.00     0.037 A 
ATOM     43  C   UNL     1      -8.853   2.160  -9.250  1.00  0.00     0.049 A 
ATOM     44  C   UNL     1      -9.103   7.449  -6.909  1.00  0.00     0.074 A 
ATOM     45  C   UNL     1      -8.561   2.147 -10.595  1.00  0.00     0.029 A 
ATOM     46  N   UNL     1      -9.327   3.408  -8.941  1.00  0.00    -0.354 N 
ATOM     47  N   UNL     1      -9.130   7.518  -8.212  1.00  0.00    -0.248 NA
ATOM     48  C   UNL     1      -9.934   6.407  -6.318  1.00  0.00     0.031 C 
ATOM     49  C   UNL     1      -8.717   3.493 -11.046  1.00  0.00     0.029 A 
ATOM     50  C   UNL     1      -9.152   4.279  -9.980  1.00  0.00     0.049 A 
ATOM     51  H   UNL     1      -9.741   3.647  -8.081  1.00  0.00     0.167 HD
ATOM     52  C   UNL     1      -9.630   6.293  -8.608  1.00  0.00     0.074 A 
ATOM     53  C   UNL     1     -10.262   5.729  -7.421  1.00  0.00     0.031 C 
ATOM     54  C   UNL     1      -9.198   5.707  -9.760  1.00  0.00     0.037 A 
BRANCH  41  55
ATOM     55  C   UNL     1      -9.574   0.795  -7.208  1.00  0.00     0.064 A 
ATOM     56  C   UNL     1     -10.813   0.455  -7.795  1.00  0.00     0.173 A 
ATOM     57  C   UNL     1      -9.573   0.855  -5.798  1.00  0.00     0.173 A 
ATOM     58  F   UNL     1     -10.941   0.383  -9.128  1.00  0.00    -0.203 F 
ATOM     59  C   UNL     1     -11.970   0.268  -7.032  1.00  0.00     0.198 A 
ATOM     60  C   UNL     1     -10.719   0.618  -5.038  1.00  0.00     0.198 A 
ATOM     61  F   UNL     1      -8.507   1.254  -5.098  1.00  0.00    -0.203 F 
ATOM     62  F   UNL     1     -13.146   0.067  -7.641  1.00  0.00    -0.200 F 
ATOM     63  C   UNL     1     -11.923   0.356  -5.654  1.00  0.00     0.200 A 
ATOM     64  F   UNL     1     -10.656   0.731  -3.703  1.00  0.00    -0.200 F 
ATOM     65  F   UNL     1     -13.039   0.236  -4.922  1.00  0.00    -0.200 F 
ENDBRANCH  41  55
BRANCH  42  66
ATOM     66  C   UNL     1      -8.365   8.992  -4.961  1.00  0.00     0.064 A 
ATOM     67  C   UNL     1      -9.477   9.849  -5.009  1.00  0.00     0.173 A 
ATOM     68  C   UNL     1      -7.766   8.810  -3.700  1.00  0.00     0.173 A 
ATOM     69  F   UNL     1     -10.124  10.046  -6.167  1.00  0.00    -0.203 F 
ATOM     70  C   UNL     1      -9.988  10.453  -3.855  1.00  0.00     0.198 A 
ATOM     71  C   UNL     1      -8.277   9.413  -2.549  1.00  0.00     0.198 A 
ATOM     72  F   UNL     1      -6.739   7.960  -3.549  1.00  0.00    -0.203 F 
ATOM     73  F   UNL     1     -11.093  11.208  -3.928  1.00  0.00    -0.200 F 
ATOM     74  C   UNL     1      -9.398  10.220  -2.624  1.00  0.00     0.200 A 
ATOM     75  F   UNL     1      -7.723   9.147  -1.357  1.00  0.00    -0.200 F 
ATOM     76  F   UNL     1      -9.933  10.735  -1.508  1.00  0.00    -0.200 F 
ENDBRANCH  42  66
BRANCH  54  77
ATOM     77  C   UNL     1      -8.589   6.590 -10.803  1.00  0.00     0.064 A 
ATOM     78  C   UNL     1      -7.339   7.217 -10.691  1.00  0.00     0.173 A 
ATOM     79  C   UNL     1      -9.270   6.710 -12.021  1.00  0.00     0.173 A 
ATOM     80  F   UNL     1      -6.601   7.092  -9.582  1.00  0.00    -0.203 F 
ATOM     81  C   UNL     1      -6.805   7.948 -11.753  1.00  0.00     0.198 A 
ATOM     82  C   UNL     1      -8.722   7.410 -13.088  1.00  0.00     0.198 A 
ATOM     83  F   UNL     1     -10.453   6.098 -12.189  1.00  0.00    -0.203 F 
ATOM     84  F   UNL     1      -5.610   8.544 -11.626  1.00  0.00    -0.200 F 
ATOM     85  C   UNL     1      -7.493   8.035 -12.953  1.00  0.00     0.200 A 
ATOM     86  F   UNL     1      -9.374   7.455 -14.258  1.00  0.00    -0.200 F 
ATOM     87  F   UNL     1      -6.962   8.700 -13.988  1.00  0.00    -0.200 F 
ENDBRANCH  54  77
ENDBRANCH  28  29
ENDBRANCH  20  23
ENDBRANCH  18  19
ENDBRANCH   1  18
TORSDOF 12
