REMARK SMILES O=C(NCCCNC(=O)c1ccc(N2C(=O)/C(=C\c3ccc4c(c3)OCO4)[NH+]=C2c2ccccc2)cc1)c1ccc(-c2c3nc(c(-c4c(F)c(F)c(F)c(F)c4F)c4ccc([nH]4)c(-c4c(F)c(F)c(F)c(F)c4F)c4nc(c(-c5c(F)c(F)c(F)c(F)c5F)c5ccc2[nH]5)C=C4)C=C3)cc1
REMARK SMILES IDX 5 1 4 2 3 3 1 4 2 5 38 7 39 8 100 9 40 10 99 11 41 12 42 13
REMARK SMILES IDX 43 14 93 15 44 16 98 17 92 18 94 19 45 20 97 21 91 22 90 23
REMARK SMILES IDX 46 25 78 26 58 27 77 28 59 29 62 30 76 31 95 32 60 33 61 34
REMARK SMILES IDX 75 36 96 37 63 38 47 39 48 40 56 41 49 42 50 43 54 44 57 45
REMARK SMILES IDX 51 46 52 47 55 48 53 49 79 50 80 51 88 52 81 53 82 54 86 55
REMARK SMILES IDX 89 56 83 57 84 58 87 59 85 60 64 61 65 62 73 63 66 64 67 65
REMARK SMILES IDX 71 66 74 67 68 68 69 69 72 70 70 71 6 72 7 73 8 74 9 76
REMARK SMILES IDX 10 77 11 78 37 79 12 80 36 81 13 82 14 83 15 84 29 85 16 86
REMARK SMILES IDX 17 87 28 88 18 89 30 91 31 92 35 93 32 94 34 95 33 96 19 97
REMARK SMILES IDX 20 98 24 99 21 100 23 101 22 102 25 103 27 104 26 105
REMARK H PARENT 3 6 94 24 62 35 7 75 28 90
REMARK Flexibility Score: inf
ROOT
ATOM      1  C   UNL     1       4.870   2.239  -1.264  1.00  0.00     0.042 C 
ENDROOT
BRANCH   1   2
ATOM      2  C   UNL     1       4.491   1.448  -0.023  1.00  0.00     0.118 C 
BRANCH   2   3
ATOM      3  N   UNL     1       3.055   1.219   0.086  1.00  0.00    -0.352 N 
ATOM      4  O   UNL     1       1.105   0.101  -0.059  1.00  0.00    -0.269 OA
ATOM      5  C   UNL     1       2.330   0.055  -0.003  1.00  0.00     0.251 C 
ATOM      6  H   UNL     1       2.519   2.028   0.249  1.00  0.00     0.163 HD
BRANCH   5   7
ATOM      7  C   UNL     1       3.020  -1.251  -0.053  1.00  0.00     0.039 A 
ATOM      8  C   UNL     1       4.124  -1.504   0.760  1.00  0.00     0.014 A 
ATOM      9  C   UNL     1       2.544  -2.246  -0.913  1.00  0.00     0.014 A 
ATOM     10  C   UNL     1       4.857  -2.670   0.587  1.00  0.00     0.010 A 
ATOM     11  C   UNL     1       3.215  -3.469  -0.999  1.00  0.00     0.010 A 
ATOM     12  C   UNL     1       4.397  -3.679  -0.272  1.00  0.00    -0.014 A 
BRANCH  12  13
ATOM     13  C   UNL     1       5.128  -4.971  -0.324  1.00  0.00     0.031 A 
ATOM     14  C   UNL     1       5.769  -5.458  -1.592  1.00  0.00     0.074 A 
ATOM     15  C   UNL     1       5.230  -5.694   0.809  1.00  0.00     0.049 A 
ATOM     16  N   UNL     1       6.448  -6.558  -1.802  1.00  0.00    -0.248 NA
ATOM     17  C   UNL     1       5.627  -4.607  -2.784  1.00  0.00     0.031 C 
ATOM     18  C   UNL     1       4.640  -5.324   2.098  1.00  0.00     0.029 A 
ATOM     19  N   UNL     1       5.873  -6.877   1.068  1.00  0.00    -0.354 N 
ATOM     20  C   UNL     1       6.799  -6.541  -3.146  1.00  0.00     0.074 A 
ATOM     21  C   UNL     1       6.233  -5.335  -3.712  1.00  0.00     0.031 C 
ATOM     22  C   UNL     1       4.986  -6.232   3.019  1.00  0.00     0.029 A 
ATOM     23  C   UNL     1       5.753  -7.290   2.373  1.00  0.00     0.049 A 
ATOM     24  H   UNL     1       6.372  -7.381   0.386  1.00  0.00     0.167 HD
ATOM     25  C   UNL     1       7.533  -7.448  -3.836  1.00  0.00     0.037 A 
ATOM     26  C   UNL     1       6.185  -8.410   2.978  1.00  0.00     0.037 A 
ATOM     27  C   UNL     1       8.096  -8.644  -3.259  1.00  0.00     0.049 A 
ATOM     28  C   UNL     1       6.954  -9.418   2.173  1.00  0.00     0.074 A 
ATOM     29  C   UNL     1       8.882  -9.607  -3.867  1.00  0.00     0.029 A 
ATOM     30  N   UNL     1       7.923  -9.046  -1.942  1.00  0.00    -0.354 N 
ATOM     31  N   UNL     1       7.315  -9.369   0.914  1.00  0.00    -0.248 NA
ATOM     32  C   UNL     1       7.375 -10.638   2.873  1.00  0.00     0.031 C 
ATOM     33  C   UNL     1       9.130 -10.622  -2.938  1.00  0.00     0.029 A 
ATOM     34  C   UNL     1       8.562 -10.258  -1.729  1.00  0.00     0.049 A 
ATOM     35  H   UNL     1       7.421  -8.544  -1.259  1.00  0.00     0.167 HD
ATOM     36  C   UNL     1       8.028 -10.536   0.678  1.00  0.00     0.074 A 
ATOM     37  C   UNL     1       8.066 -11.261   1.931  1.00  0.00     0.031 C 
ATOM     38  C   UNL     1       8.598 -10.967  -0.474  1.00  0.00     0.037 A 
BRANCH  25  39
ATOM     39  C   UNL     1       7.758  -7.202  -5.302  1.00  0.00     0.064 A 
ATOM     40  C   UNL     1       8.586  -6.166  -5.761  1.00  0.00     0.173 A 
ATOM     41  C   UNL     1       7.187  -8.055  -6.260  1.00  0.00     0.173 A 
ATOM     42  F   UNL     1       9.150  -5.316  -4.891  1.00  0.00    -0.203 F 
ATOM     43  C   UNL     1       8.814  -5.981  -7.123  1.00  0.00     0.198 A 
ATOM     44  C   UNL     1       7.443  -7.886  -7.619  1.00  0.00     0.198 A 
ATOM     45  F   UNL     1       6.393  -9.066  -5.877  1.00  0.00    -0.203 F 
ATOM     46  F   UNL     1       9.574  -4.958  -7.540  1.00  0.00    -0.200 F 
ATOM     47  C   UNL     1       8.251  -6.845  -8.050  1.00  0.00     0.200 A 
ATOM     48  F   UNL     1       6.911  -8.733  -8.510  1.00  0.00    -0.200 F 
ATOM     49  F   UNL     1       8.483  -6.673  -9.358  1.00  0.00    -0.200 F 
ENDBRANCH  25  39
BRANCH  26  50
ATOM     50  C   UNL     1       5.881  -8.642   4.415  1.00  0.00     0.064 A 
ATOM     51  C   UNL     1       6.902  -8.681   5.374  1.00  0.00     0.173 A 
ATOM     52  C   UNL     1       4.563  -8.835   4.857  1.00  0.00     0.173 A 
ATOM     53  F   UNL     1       8.179  -8.517   4.999  1.00  0.00    -0.203 F 
ATOM     54  C   UNL     1       6.620  -8.932   6.715  1.00  0.00     0.198 A 
ATOM     55  C   UNL     1       4.279  -9.048   6.203  1.00  0.00     0.198 A 
ATOM     56  F   UNL     1       3.548  -8.799   3.982  1.00  0.00    -0.203 F 
ATOM     57  F   UNL     1       7.620  -9.020   7.602  1.00  0.00    -0.200 F 
ATOM     58  C   UNL     1       5.308  -9.109   7.129  1.00  0.00     0.200 A 
ATOM     59  F   UNL     1       3.008  -9.197   6.602  1.00  0.00    -0.200 F 
ATOM     60  F   UNL     1       5.037  -9.347   8.420  1.00  0.00    -0.200 F 
ENDBRANCH  26  50
BRANCH  38  61
ATOM     61  C   UNL     1       9.355 -12.264  -0.420  1.00  0.00     0.064 A 
ATOM     62  C   UNL     1       8.704 -13.495  -0.253  1.00  0.00     0.173 A 
ATOM     63  C   UNL     1      10.751 -12.273  -0.565  1.00  0.00     0.173 A 
ATOM     64  F   UNL     1       7.373 -13.540  -0.092  1.00  0.00    -0.203 F 
ATOM     65  C   UNL     1       9.427 -14.685  -0.201  1.00  0.00     0.198 A 
ATOM     66  C   UNL     1      11.466 -13.467  -0.550  1.00  0.00     0.198 A 
ATOM     67  F   UNL     1      11.422 -11.124  -0.733  1.00  0.00    -0.203 F 
ATOM     68  F   UNL     1       8.790 -15.843   0.018  1.00  0.00    -0.200 F 
ATOM     69  C   UNL     1      10.805 -14.671  -0.358  1.00  0.00     0.200 A 
ATOM     70  F   UNL     1      12.795 -13.453  -0.719  1.00  0.00    -0.200 F 
ATOM     71  F   UNL     1      11.497 -15.817  -0.316  1.00  0.00    -0.200 F 
ENDBRANCH  38  61
ENDBRANCH  12  13
ENDBRANCH   5   7
ENDBRANCH   2   3
ENDBRANCH   1   2
BRANCH   1  72
ATOM     72  C   UNL     1       4.337   3.664  -1.264  1.00  0.00     0.118 C 
BRANCH  72  73
ATOM     73  N   UNL     1       4.896   4.459  -0.177  1.00  0.00    -0.352 N 
ATOM     74  C   UNL     1       5.780   5.507  -0.235  1.00  0.00     0.251 C 
ATOM     75  H   UNL     1       4.596   4.208   0.726  1.00  0.00     0.163 HD
ATOM     76  O   UNL     1       6.312   5.934   0.783  1.00  0.00    -0.269 OA
BRANCH  74  77
ATOM     77  C   UNL     1       6.106   6.095  -1.547  1.00  0.00     0.040 A 
ATOM     78  C   UNL     1       7.438   6.162  -1.952  1.00  0.00     0.018 A 
ATOM     79  C   UNL     1       5.086   6.546  -2.387  1.00  0.00     0.018 A 
ATOM     80  C   UNL     1       7.739   6.562  -3.257  1.00  0.00     0.053 A 
ATOM     81  C   UNL     1       5.393   6.957  -3.682  1.00  0.00     0.053 A 
ATOM     82  C   UNL     1       6.715   6.916  -4.148  1.00  0.00     0.136 A 
BRANCH  82  83
ATOM     83  N   UNL     1       6.982   7.200  -5.504  1.00  0.00    -0.154 N 
ATOM     84  C   UNL     1       6.372   8.212  -6.201  1.00  0.00     0.385 C 
ATOM     85  C   UNL     1       7.815   6.548  -6.377  1.00  0.00     0.295 C 
ATOM     86  O   UNL     1       5.507   8.991  -5.840  1.00  0.00    -0.236 OA
ATOM     87  C   UNL     1       7.030   8.128  -7.549  1.00  0.00     0.216 C 
ATOM     88  N   UNL     1       7.873   7.040  -7.582  1.00  0.00    -0.233 N 
ATOM     89  C   UNL     1       6.907   9.007  -8.554  1.00  0.00     0.068 C 
ATOM     90  H   UNL     1       8.401   6.709  -8.344  1.00  0.00     0.312 HD
BRANCH  85  91
ATOM     91  C   UNL     1       8.533   5.312  -6.031  1.00  0.00     0.065 A 
ATOM     92  C   UNL     1       9.913   5.253  -6.241  1.00  0.00     0.017 A 
ATOM     93  C   UNL     1       7.830   4.186  -5.589  1.00  0.00     0.017 A 
ATOM     94  C   UNL     1      10.597   4.066  -5.983  1.00  0.00     0.001 A 
ATOM     95  C   UNL     1       8.519   3.000  -5.338  1.00  0.00     0.001 A 
ATOM     96  C   UNL     1       9.900   2.942  -5.534  1.00  0.00     0.000 A 
ENDBRANCH  85  91
BRANCH  89  97
ATOM     97  C   UNL     1       6.249  10.297  -8.354  1.00  0.00    -0.017 A 
ATOM     98  C   UNL     1       4.906  10.514  -8.723  1.00  0.00     0.012 A 
ATOM     99  C   UNL     1       6.946  11.254  -7.601  1.00  0.00     0.059 A 
ATOM    100  C   UNL     1       4.229  11.655  -8.275  1.00  0.00     0.051 A 
ATOM    101  C   UNL     1       6.237  12.331  -7.131  1.00  0.00     0.166 A 
ATOM    102  C   UNL     1       4.911  12.519  -7.445  1.00  0.00     0.165 A 
ATOM    103  O   UNL     1       6.703  13.258  -6.252  1.00  0.00    -0.454 OA
ATOM    104  O   UNL     1       4.385  13.592  -6.791  1.00  0.00    -0.454 OA
ATOM    105  C   UNL     1       5.459  13.873  -5.867  1.00  0.00     0.468 C 
ENDBRANCH  89  97
ENDBRANCH  82  83
ENDBRANCH  74  77
ENDBRANCH  72  73
ENDBRANCH   1  72
TORSDOF 13
