REMARK SMILES O=C(NCCCNC(=O)[C@H]1Cc2[nH]cnc2CN1C(=O)NCc1nc[nH]n1)c1ccc(-c2c3nc(c(-c4c(F)c(F)c(F)c(F)c4F)c4ccc([nH]4)c(-c4c(F)c(F)c(F)c(F)c4F)c4nc(c(-c5c(F)c(F)c(F)c(F)c5F)c5ccc2[nH]5)C=C4)C=C3)cc1
REMARK SMILES IDX 5 1 4 2 3 3 1 4 2 5 28 7 29 8 90 9 30 10 89 11 31 12 32 13
REMARK SMILES IDX 33 14 83 15 34 16 88 17 82 18 84 19 35 20 87 21 81 22 80 23
REMARK SMILES IDX 36 25 68 26 48 27 67 28 49 29 52 30 66 31 85 32 50 33 51 34
REMARK SMILES IDX 65 36 86 37 53 38 37 39 38 40 46 41 39 42 40 43 44 44 47 45
REMARK SMILES IDX 41 46 42 47 45 48 43 49 69 50 70 51 78 52 71 53 72 54 76 55
REMARK SMILES IDX 79 56 73 57 74 58 77 59 75 60 54 61 55 62 63 63 56 64 57 65
REMARK SMILES IDX 61 66 64 67 58 68 59 69 62 70 60 71 6 72 7 73 8 74 9 76
REMARK SMILES IDX 10 77 11 78 18 79 12 80 17 81 13 82 16 83 14 84 15 86 19 87
REMARK SMILES IDX 20 88 21 89 22 91 23 92 24 93 27 94 25 95 26 96
REMARK H PARENT 3 6 84 24 52 35 7 75 13 85 21 90 26 97
REMARK Flexibility Score: inf
ROOT
ATOM      1  C   UNL     1       3.962   1.306   2.627  1.00  0.00     0.042 C 
ENDROOT
BRANCH   1   2
ATOM      2  C   UNL     1       4.222   0.369   1.454  1.00  0.00     0.118 C 
BRANCH   2   3
ATOM      3  N   UNL     1       3.061  -0.276   0.869  1.00  0.00    -0.352 N 
ATOM      4  O   UNL     1       1.291  -0.710  -0.424  1.00  0.00    -0.269 OA
ATOM      5  C   UNL     1       2.159   0.104  -0.086  1.00  0.00     0.251 C 
ATOM      6  H   UNL     1       2.887  -1.173   1.235  1.00  0.00     0.163 HD
BRANCH   5   7
ATOM      7  C   UNL     1       2.126   1.465  -0.672  1.00  0.00     0.039 A 
ATOM      8  C   UNL     1       3.262   2.223  -0.952  1.00  0.00     0.014 A 
ATOM      9  C   UNL     1       0.863   1.986  -1.002  1.00  0.00     0.014 A 
ATOM     10  C   UNL     1       3.133   3.528  -1.412  1.00  0.00     0.010 A 
ATOM     11  C   UNL     1       0.730   3.276  -1.510  1.00  0.00     0.010 A 
ATOM     12  C   UNL     1       1.866   4.062  -1.679  1.00  0.00    -0.014 A 
BRANCH  12  13
ATOM     13  C   UNL     1       1.815   5.359  -2.354  1.00  0.00     0.031 A 
ATOM     14  C   UNL     1       2.495   5.362  -3.682  1.00  0.00     0.074 A 
ATOM     15  C   UNL     1       1.152   6.450  -1.921  1.00  0.00     0.049 A 
ATOM     16  N   UNL     1       3.560   6.011  -4.020  1.00  0.00    -0.248 NA
ATOM     17  C   UNL     1       2.008   4.433  -4.714  1.00  0.00     0.031 C 
ATOM     18  C   UNL     1       0.212   6.554  -0.807  1.00  0.00     0.029 A 
ATOM     19  N   UNL     1       1.130   7.708  -2.458  1.00  0.00    -0.354 N 
ATOM     20  C   UNL     1       3.792   5.705  -5.359  1.00  0.00     0.074 A 
ATOM     21  C   UNL     1       2.893   4.631  -5.692  1.00  0.00     0.031 C 
ATOM     22  C   UNL     1      -0.446   7.736  -0.884  1.00  0.00     0.029 A 
ATOM     23  C   UNL     1       0.121   8.528  -1.965  1.00  0.00     0.049 A 
ATOM     24  H   UNL     1       1.776   8.008  -3.138  1.00  0.00     0.167 HD
ATOM     25  C   UNL     1       4.561   6.513  -6.140  1.00  0.00     0.037 A 
ATOM     26  C   UNL     1      -0.246   9.747  -2.439  1.00  0.00     0.037 A 
ATOM     27  C   UNL     1       5.378   7.386  -5.337  1.00  0.00     0.049 A 
ATOM     28  C   UNL     1       0.886  10.284  -3.229  1.00  0.00     0.074 A 
ATOM     29  C   UNL     1       6.383   7.207  -4.407  1.00  0.00     0.029 A 
ATOM     30  N   UNL     1       4.958   8.682  -5.187  1.00  0.00    -0.354 N 
ATOM     31  N   UNL     1       2.011  10.686  -2.713  1.00  0.00    -0.248 NA
ATOM     32  C   UNL     1       0.917   9.999  -4.654  1.00  0.00     0.031 C 
ATOM     33  C   UNL     1       6.182   8.238  -3.442  1.00  0.00     0.029 A 
ATOM     34  C   UNL     1       5.110   9.021  -3.871  1.00  0.00     0.049 A 
ATOM     35  H   UNL     1       4.609   9.265  -5.900  1.00  0.00     0.167 HD
ATOM     36  C   UNL     1       2.973  10.258  -3.612  1.00  0.00     0.074 A 
ATOM     37  C   UNL     1       2.239   9.949  -4.836  1.00  0.00     0.031 C 
ATOM     38  C   UNL     1       4.224   9.927  -3.182  1.00  0.00     0.037 A 
BRANCH  25  39
ATOM     39  C   UNL     1       4.288   6.806  -7.598  1.00  0.00     0.064 A 
ATOM     40  C   UNL     1       5.201   7.609  -8.315  1.00  0.00     0.173 A 
ATOM     41  C   UNL     1       3.030   6.624  -8.210  1.00  0.00     0.173 A 
ATOM     42  F   UNL     1       6.423   7.863  -7.823  1.00  0.00    -0.203 F 
ATOM     43  C   UNL     1       4.842   8.259  -9.499  1.00  0.00     0.198 A 
ATOM     44  C   UNL     1       2.695   7.232  -9.419  1.00  0.00     0.198 A 
ATOM     45  F   UNL     1       2.037   5.954  -7.616  1.00  0.00    -0.203 F 
ATOM     46  F   UNL     1       5.693   9.124 -10.067  1.00  0.00    -0.200 F 
ATOM     47  C   UNL     1       3.586   8.078 -10.044  1.00  0.00     0.200 A 
ATOM     48  F   UNL     1       1.464   7.060  -9.921  1.00  0.00    -0.200 F 
ATOM     49  F   UNL     1       3.213   8.754 -11.139  1.00  0.00    -0.200 F 
ENDBRANCH  25  39
BRANCH  26  50
ATOM     50  C   UNL     1      -1.588  10.379  -2.499  1.00  0.00     0.064 A 
ATOM     51  C   UNL     1      -1.733  11.753  -2.765  1.00  0.00     0.173 A 
ATOM     52  C   UNL     1      -2.752   9.597  -2.610  1.00  0.00     0.173 A 
ATOM     53  F   UNL     1      -0.667  12.566  -2.726  1.00  0.00    -0.203 F 
ATOM     54  C   UNL     1      -2.959  12.302  -3.156  1.00  0.00     0.198 A 
ATOM     55  C   UNL     1      -3.977  10.147  -2.995  1.00  0.00     0.198 A 
ATOM     56  F   UNL     1      -2.702   8.267  -2.450  1.00  0.00    -0.203 F 
ATOM     57  F   UNL     1      -3.041  13.603  -3.472  1.00  0.00    -0.200 F 
ATOM     58  C   UNL     1      -4.077  11.495  -3.284  1.00  0.00     0.200 A 
ATOM     59  F   UNL     1      -5.042   9.349  -3.153  1.00  0.00    -0.200 F 
ATOM     60  F   UNL     1      -5.235  12.005  -3.726  1.00  0.00    -0.200 F 
ENDBRANCH  26  50
BRANCH  38  61
ATOM     61  C   UNL     1       4.628  10.360  -1.801  1.00  0.00     0.064 A 
ATOM     62  C   UNL     1       3.982   9.965  -0.617  1.00  0.00     0.173 A 
ATOM     63  C   UNL     1       5.795  11.127  -1.675  1.00  0.00     0.173 A 
ATOM     64  F   UNL     1       2.918   9.150  -0.645  1.00  0.00    -0.203 F 
ATOM     65  C   UNL     1       4.455  10.369   0.631  1.00  0.00     0.198 A 
ATOM     66  C   UNL     1       6.289  11.492  -0.427  1.00  0.00     0.198 A 
ATOM     67  F   UNL     1       6.481  11.493  -2.769  1.00  0.00    -0.203 F 
ATOM     68  F   UNL     1       3.807  10.004   1.747  1.00  0.00    -0.200 F 
ATOM     69  C   UNL     1       5.612  11.126   0.724  1.00  0.00     0.200 A 
ATOM     70  F   UNL     1       7.434  12.182  -0.342  1.00  0.00    -0.200 F 
ATOM     71  F   UNL     1       6.088  11.485   1.925  1.00  0.00    -0.200 F 
ENDBRANCH  38  61
ENDBRANCH  12  13
ENDBRANCH   5   7
ENDBRANCH   2   3
ENDBRANCH   1   2
BRANCH   1  72
ATOM     72  C   UNL     1       3.481   0.777   3.997  1.00  0.00     0.117 C 
BRANCH  72  73
ATOM     73  N   UNL     1       4.004  -0.465   4.561  1.00  0.00    -0.354 N 
ATOM     74  C   UNL     1       4.926  -0.771   5.534  1.00  0.00     0.243 C 
ATOM     75  H   UNL     1       3.604  -1.266   4.152  1.00  0.00     0.163 HD
ATOM     76  O   UNL     1       4.879  -1.884   6.067  1.00  0.00    -0.273 OA
BRANCH  74  77
ATOM     77  C   UNL     1       5.913   0.275   6.027  1.00  0.00     0.182 C 
ATOM     78  C   UNL     1       7.174  -0.116   6.872  1.00  0.00     0.091 C 
ATOM     79  N   UNL     1       6.355   1.212   4.989  1.00  0.00    -0.306 N 
ATOM     80  C   UNL     1       7.790   1.194   7.297  1.00  0.00     0.042 A 
ATOM     81  C   UNL     1       6.558   2.575   5.547  1.00  0.00     0.180 C 
ATOM     82  N   UNL     1       8.721   1.465   8.256  1.00  0.00    -0.348 N 
ATOM     83  C   UNL     1       7.498   2.417   6.713  1.00  0.00     0.081 A 
ATOM     84  C   UNL     1       8.846   2.832   8.306  1.00  0.00     0.197 A 
ATOM     85  H   UNL     1       9.208   0.809   8.805  1.00  0.00     0.167 HD
ATOM     86  N   UNL     1       8.117   3.432   7.388  1.00  0.00    -0.240 NA
BRANCH  79  87
ATOM     87  C   UNL     1       6.925   0.895   3.789  1.00  0.00     0.318 C 
ATOM     88  O   UNL     1       7.385   1.782   3.061  1.00  0.00    -0.249 OA
ATOM     89  N   UNL     1       6.912  -0.337   3.230  1.00  0.00    -0.331 N 
ATOM     90  H   UNL     1       6.820  -0.274   2.252  1.00  0.00     0.165 HD
BRANCH  89  91
ATOM     91  C   UNL     1       6.995  -1.746   3.656  1.00  0.00     0.197 C 
BRANCH  91  92
ATOM     92  C   UNL     1       5.888  -2.706   3.236  1.00  0.00     0.169 A 
ATOM     93  N   UNL     1       6.043  -4.064   3.436  1.00  0.00    -0.218 NA
ATOM     94  N   UNL     1       4.665  -2.388   2.772  1.00  0.00    -0.157 NA
ATOM     95  C   UNL     1       4.863  -4.565   3.155  1.00  0.00     0.216 A 
ATOM     96  N   UNL     1       4.032  -3.570   2.767  1.00  0.00    -0.266 N 
ATOM     97  H   UNL     1       3.089  -3.698   2.514  1.00  0.00     0.191 HD
ENDBRANCH  91  92
ENDBRANCH  89  91
ENDBRANCH  79  87
ENDBRANCH  74  77
ENDBRANCH  72  73
ENDBRANCH   1  72
TORSDOF 13
