REMARK SMILES CN(CC(C)(C)C)C(=O)N1CCO[C@@H](CC(=O)NCCCNC(=O)c2ccc(-c3c4nc(c(-c5c(F)c(F)c(F)c(F)c5F)c5ccc([nH]5)c(-c5c(F)c(F)c(F)c(F)c5F)c5nc(c(-c6c(F)c(F)c(F)c(F)c6F)c6ccc3[nH]6)C=C5)C=C4)cc2)C1
REMARK SMILES IDX 16 1 17 2 18 3 15 5 14 6 10 7 11 8 88 9 12 10 13 11 8 12
REMARK SMILES IDX 9 13 2 14 1 15 3 16 4 17 5 18 6 19 7 20 19 21 20 22 21 23
REMARK SMILES IDX 22 24 23 25 24 27 25 28 26 29 87 30 27 31 86 32 28 33 29 34
REMARK SMILES IDX 30 35 80 36 31 37 85 38 79 39 81 40 32 41 84 42 78 43 77 44
REMARK SMILES IDX 33 46 65 47 45 48 64 49 46 50 49 51 63 52 82 53 47 54 48 55
REMARK SMILES IDX 62 57 83 58 50 59 34 60 35 61 43 62 36 63 37 64 41 65 44 66
REMARK SMILES IDX 38 67 39 68 42 69 40 70 66 71 67 72 75 73 68 74 69 75 73 76
REMARK SMILES IDX 76 77 70 78 71 79 74 80 72 81 51 82 52 83 60 84 53 85 54 86
REMARK SMILES IDX 58 87 61 88 55 89 56 90 59 91 57 92
REMARK H PARENT 18 4 22 26 81 45 49 56
REMARK Flexibility Score: inf
ROOT
ATOM      1  C   UNL     1       3.655   2.921  -5.916  1.00  0.00     0.222 C 
ATOM      2  O   UNL     1       4.337   1.938  -6.212  1.00  0.00    -0.275 OA
ATOM      3  N   UNL     1       4.172   3.823  -5.029  1.00  0.00    -0.356 N 
ATOM      4  H   UNL     1       5.115   3.666  -4.796  1.00  0.00     0.163 HD
ENDROOT
BRANCH   1   5
ATOM      5  C   UNL     1       2.279   3.114  -6.516  1.00  0.00     0.133 C 
BRANCH   5   6
ATOM      6  C   UNL     1       1.154   2.287  -5.869  1.00  0.00     0.147 C 
ATOM      7  N   UNL     1       0.090   2.075  -3.566  1.00  0.00    -0.320 N 
ATOM      8  C   UNL     1      -0.946   2.967  -4.061  1.00  0.00     0.150 C 
ATOM      9  C   UNL     1       1.308   2.240  -4.337  1.00  0.00     0.154 C 
ATOM     10  C   UNL     1      -1.211   2.613  -5.517  1.00  0.00     0.182 C 
ATOM     11  O   UNL     1      -0.063   2.943  -6.304  1.00  0.00    -0.374 OA
BRANCH   7  12
ATOM     12  C   UNL     1       0.288   2.023  -2.194  1.00  0.00     0.319 C 
ATOM     13  O   UNL     1       0.767   2.977  -1.581  1.00  0.00    -0.248 OA
BRANCH  12  14
ATOM     14  N   UNL     1       0.028   0.799  -1.598  1.00  0.00    -0.327 N 
ATOM     15  C   UNL     1       0.572   0.597  -0.264  1.00  0.00     0.148 C 
BRANCH  14  16
ATOM     16  C   UNL     1      -0.697  -0.309  -2.226  1.00  0.00     0.127 C 
BRANCH  16  17
ATOM     17  C   UNL     1      -2.215  -0.397  -1.876  1.00  0.00    -0.020 C 
ATOM     18  C   UNL     1      -2.980   0.855  -2.318  1.00  0.00     0.012 C 
ATOM     19  C   UNL     1      -2.808  -1.600  -2.635  1.00  0.00     0.012 C 
ATOM     20  C   UNL     1      -2.460  -0.597  -0.372  1.00  0.00     0.012 C 
ENDBRANCH  16  17
ENDBRANCH  14  16
ENDBRANCH  12  14
ENDBRANCH   7  12
ENDBRANCH   5   6
ENDBRANCH   1   5
BRANCH   3  21
ATOM     21  C   UNL     1       3.571   4.980  -4.365  1.00  0.00     0.117 C 
BRANCH  21  22
ATOM     22  C   UNL     1       3.363   4.732  -2.868  1.00  0.00     0.042 C 
BRANCH  22  23
ATOM     23  C   UNL     1       4.630   4.747  -2.030  1.00  0.00     0.118 C 
BRANCH  23  24
ATOM     24  N   UNL     1       4.963   6.075  -1.552  1.00  0.00    -0.352 N 
ATOM     25  C   UNL     1       4.949   6.590  -0.281  1.00  0.00     0.251 C 
ATOM     26  H   UNL     1       5.244   6.708  -2.252  1.00  0.00     0.163 HD
ATOM     27  O   UNL     1       5.077   7.811  -0.140  1.00  0.00    -0.269 OA
BRANCH  25  28
ATOM     28  C   UNL     1       4.782   5.739   0.927  1.00  0.00     0.039 A 
ATOM     29  C   UNL     1       4.114   6.282   2.031  1.00  0.00     0.014 A 
ATOM     30  C   UNL     1       5.339   4.462   1.035  1.00  0.00     0.014 A 
ATOM     31  C   UNL     1       3.985   5.547   3.215  1.00  0.00     0.010 A 
ATOM     32  C   UNL     1       5.133   3.693   2.183  1.00  0.00     0.010 A 
ATOM     33  C   UNL     1       4.480   4.237   3.298  1.00  0.00    -0.014 A 
BRANCH  33  34
ATOM     34  C   UNL     1       4.370   3.455   4.560  1.00  0.00     0.031 A 
ATOM     35  C   UNL     1       5.610   3.051   5.315  1.00  0.00     0.074 A 
ATOM     36  C   UNL     1       3.160   3.083   5.022  1.00  0.00     0.049 A 
ATOM     37  N   UNL     1       5.721   2.353   6.419  1.00  0.00    -0.248 NA
ATOM     38  C   UNL     1       6.900   3.466   4.740  1.00  0.00     0.031 C 
ATOM     39  C   UNL     1       1.883   3.367   4.368  1.00  0.00     0.029 A 
ATOM     40  N   UNL     1       2.808   2.385   6.151  1.00  0.00    -0.354 N 
ATOM     41  C   UNL     1       7.085   2.232   6.656  1.00  0.00     0.074 A 
ATOM     42  C   UNL     1       7.764   2.882   5.558  1.00  0.00     0.031 C 
ATOM     43  C   UNL     1       0.885   2.875   5.121  1.00  0.00     0.029 A 
ATOM     44  C   UNL     1       1.453   2.215   6.294  1.00  0.00     0.049 A 
ATOM     45  H   UNL     1       3.466   2.039   6.798  1.00  0.00     0.167 HD
ATOM     46  C   UNL     1       7.716   1.653   7.706  1.00  0.00     0.037 A 
ATOM     47  C   UNL     1       0.747   1.598   7.262  1.00  0.00     0.037 A 
ATOM     48  C   UNL     1       7.045   1.040   8.822  1.00  0.00     0.049 A 
ATOM     49  C   UNL     1       1.471   0.979   8.427  1.00  0.00     0.074 A 
ATOM     50  C   UNL     1       7.598   0.488   9.965  1.00  0.00     0.029 A 
ATOM     51  N   UNL     1       5.671   0.902   8.936  1.00  0.00    -0.354 N 
ATOM     52  N   UNL     1       2.757   0.927   8.670  1.00  0.00    -0.248 NA
ATOM     53  C   UNL     1       0.640   0.336   9.456  1.00  0.00     0.031 C 
ATOM     54  C   UNL     1       6.559  -0.018  10.754  1.00  0.00     0.029 A 
ATOM     55  C   UNL     1       5.357   0.256  10.122  1.00  0.00     0.049 A 
ATOM     56  H   UNL     1       5.014   1.216   8.274  1.00  0.00     0.167 HD
ATOM     57  C   UNL     1       2.890   0.269   9.885  1.00  0.00     0.074 A 
ATOM     58  C   UNL     1       1.552  -0.044  10.340  1.00  0.00     0.031 C 
ATOM     59  C   UNL     1       4.021  -0.049  10.562  1.00  0.00     0.037 A 
BRANCH  46  60
ATOM     60  C   UNL     1       9.218   1.662   7.703  1.00  0.00     0.064 A 
ATOM     61  C   UNL     1       9.946   2.843   7.914  1.00  0.00     0.173 A 
ATOM     62  C   UNL     1       9.937   0.471   7.524  1.00  0.00     0.173 A 
ATOM     63  F   UNL     1       9.306   4.010   8.080  1.00  0.00    -0.203 F 
ATOM     64  C   UNL     1      11.338   2.835   7.917  1.00  0.00     0.198 A 
ATOM     65  C   UNL     1      11.329   0.463   7.556  1.00  0.00     0.198 A 
ATOM     66  F   UNL     1       9.290  -0.687   7.326  1.00  0.00    -0.203 F 
ATOM     67  F   UNL     1      12.012   3.983   8.074  1.00  0.00    -0.200 F 
ATOM     68  C   UNL     1      12.028   1.645   7.745  1.00  0.00     0.200 A 
ATOM     69  F   UNL     1      11.995  -0.690   7.401  1.00  0.00    -0.200 F 
ATOM     70  F   UNL     1      13.368   1.639   7.754  1.00  0.00    -0.200 F 
ENDBRANCH  46  60
BRANCH  47  71
ATOM     71  C   UNL     1      -0.736   1.562   7.186  1.00  0.00     0.064 A 
ATOM     72  C   UNL     1      -1.519   2.319   8.069  1.00  0.00     0.173 A 
ATOM     73  C   UNL     1      -1.399   0.772   6.237  1.00  0.00     0.173 A 
ATOM     74  F   UNL     1      -0.929   3.071   9.009  1.00  0.00    -0.203 F 
ATOM     75  C   UNL     1      -2.910   2.273   8.016  1.00  0.00     0.198 A 
ATOM     76  C   UNL     1      -2.790   0.746   6.168  1.00  0.00     0.198 A 
ATOM     77  F   UNL     1      -0.694   0.030   5.369  1.00  0.00    -0.203 F 
ATOM     78  F   UNL     1      -3.636   2.972   8.899  1.00  0.00    -0.200 F 
ATOM     79  C   UNL     1      -3.545   1.491   7.062  1.00  0.00     0.200 A 
ATOM     80  F   UNL     1      -3.399  -0.002   5.238  1.00  0.00    -0.200 F 
ATOM     81  F   UNL     1      -4.883   1.449   7.010  1.00  0.00    -0.200 F 
ENDBRANCH  47  71
BRANCH  59  82
ATOM     82  C   UNL     1       3.859  -0.756  11.876  1.00  0.00     0.064 A 
ATOM     83  C   UNL     1       3.473  -2.102  11.940  1.00  0.00     0.173 A 
ATOM     84  C   UNL     1       4.126  -0.089  13.081  1.00  0.00     0.173 A 
ATOM     85  F   UNL     1       3.192  -2.778  10.816  1.00  0.00    -0.203 F 
ATOM     86  C   UNL     1       3.336  -2.749  13.165  1.00  0.00     0.198 A 
ATOM     87  C   UNL     1       4.014  -0.746  14.303  1.00  0.00     0.198 A 
ATOM     88  F   UNL     1       4.504   1.198  13.072  1.00  0.00    -0.203 F 
ATOM     89  F   UNL     1       2.922  -4.023  13.206  1.00  0.00    -0.200 F 
ATOM     90  C   UNL     1       3.612  -2.073  14.345  1.00  0.00     0.200 A 
ATOM     91  F   UNL     1       4.291  -0.095  15.441  1.00  0.00    -0.200 F 
ATOM     92  F   UNL     1       3.483  -2.698  15.523  1.00  0.00    -0.200 F 
ENDBRANCH  59  82
ENDBRANCH  33  34
ENDBRANCH  25  28
ENDBRANCH  23  24
ENDBRANCH  22  23
ENDBRANCH  21  22
ENDBRANCH   3  21
TORSDOF 15
