REMARK SMILES CCCCOCc1cc(C(=O)NCCCNC(=O)c2ccc(-c3c4nc(c(-c5c(F)c(F)c(F)c(F)c5F)c5ccc([nH]5)c(-c5c(F)c(F)c(F)c(F)c5F)c5nc(c(-c6c(F)c(F)c(F)c(F)c6F)c6ccc3[nH]6)C=C5)C=C4)cc2)[nH]n1
REMARK SMILES IDX 10 1 11 2 12 3 9 5 7 6 8 7 83 8 82 9 6 11 5 12 4 13 3 14
REMARK SMILES IDX 2 15 1 16 13 17 14 18 15 19 16 20 17 21 18 23 19 24 20 25
REMARK SMILES IDX 81 26 21 27 80 28 22 29 23 30 24 31 74 32 25 33 79 34 73 35
REMARK SMILES IDX 75 36 26 37 78 38 72 39 71 40 27 42 59 43 39 44 58 45 40 46
REMARK SMILES IDX 43 47 57 48 76 49 41 50 42 51 56 53 77 54 44 55 28 56 29 57
REMARK SMILES IDX 37 58 30 59 31 60 35 61 38 62 32 63 33 64 36 65 34 66 60 67
REMARK SMILES IDX 61 68 69 69 62 70 63 71 67 72 70 73 64 74 65 75 68 76 66 77
REMARK SMILES IDX 45 78 46 79 54 80 47 81 48 82 52 83 55 84 49 85 50 86 53 87
REMARK SMILES IDX 51 88
REMARK H PARENT 12 4 82 10 16 22 75 41 43 52
REMARK Flexibility Score: inf
ROOT
ATOM      1  C   UNL     1       1.076  -2.920  -3.124  1.00  0.00     0.269 C 
ATOM      2  O   UNL     1       1.071  -4.146  -3.009  1.00  0.00    -0.268 OA
ATOM      3  N   UNL     1       2.162  -2.341  -3.734  1.00  0.00    -0.351 N 
ATOM      4  H   UNL     1       2.788  -2.977  -4.150  1.00  0.00     0.163 HD
ENDROOT
BRANCH   1   5
ATOM      5  C   UNL     1       0.038  -2.103  -2.564  1.00  0.00     0.123 A 
ATOM      6  C   UNL     1      -1.238  -0.477  -1.758  1.00  0.00     0.089 A 
ATOM      7  C   UNL     1      -0.530  -0.893  -2.911  1.00  0.00     0.061 A 
ATOM      8  N   UNL     1      -1.354  -1.484  -0.879  1.00  0.00    -0.178 NA
ATOM      9  N   UNL     1      -0.650  -2.483  -1.442  1.00  0.00    -0.273 N 
ATOM     10  H   UNL     1      -0.631  -3.399  -1.081  1.00  0.00     0.190 HD
BRANCH   6  11
ATOM     11  C   UNL     1      -1.749   0.894  -1.431  1.00  0.00     0.218 C 
BRANCH  11  12
ATOM     12  O   UNL     1      -1.006   1.991  -1.989  1.00  0.00    -0.375 OA
BRANCH  12  13
ATOM     13  C   UNL     1       0.397   2.053  -1.746  1.00  0.00     0.160 C 
BRANCH  13  14
ATOM     14  C   UNL     1       0.837   2.512  -0.357  1.00  0.00     0.028 C 
BRANCH  14  15
ATOM     15  C   UNL     1       0.788   1.474   0.768  1.00  0.00    -0.001 C 
ATOM     16  C   UNL     1       1.611   0.219   0.513  1.00  0.00     0.004 C 
ENDBRANCH  14  15
ENDBRANCH  13  14
ENDBRANCH  12  13
ENDBRANCH  11  12
ENDBRANCH   6  11
ENDBRANCH   1   5
BRANCH   3  17
ATOM     17  C   UNL     1       2.539  -0.943  -3.866  1.00  0.00     0.118 C 
BRANCH  17  18
ATOM     18  C   UNL     1       3.825  -0.589  -3.127  1.00  0.00     0.042 C 
BRANCH  18  19
ATOM     19  C   UNL     1       5.089  -1.169  -3.748  1.00  0.00     0.118 C 
BRANCH  19  20
ATOM     20  N   UNL     1       5.327  -0.688  -5.103  1.00  0.00    -0.352 N 
ATOM     21  C   UNL     1       6.362   0.038  -5.637  1.00  0.00     0.251 C 
ATOM     22  H   UNL     1       4.622  -0.926  -5.748  1.00  0.00     0.163 HD
ATOM     23  O   UNL     1       6.257   0.477  -6.780  1.00  0.00    -0.269 OA
BRANCH  21  24
ATOM     24  C   UNL     1       7.590   0.317  -4.859  1.00  0.00     0.039 A 
ATOM     25  C   UNL     1       8.209   1.563  -5.008  1.00  0.00     0.014 A 
ATOM     26  C   UNL     1       8.164  -0.643  -4.023  1.00  0.00     0.014 A 
ATOM     27  C   UNL     1       9.356   1.867  -4.270  1.00  0.00     0.010 A 
ATOM     28  C   UNL     1       9.255  -0.309  -3.224  1.00  0.00     0.010 A 
ATOM     29  C   UNL     1       9.866   0.948  -3.340  1.00  0.00    -0.014 A 
BRANCH  29  30
ATOM     30  C   UNL     1      11.040   1.274  -2.490  1.00  0.00     0.031 A 
ATOM     31  C   UNL     1      12.308   0.472  -2.610  1.00  0.00     0.074 A 
ATOM     32  C   UNL     1      10.947   2.252  -1.568  1.00  0.00     0.049 A 
ATOM     33  N   UNL     1      13.403   0.540  -1.896  1.00  0.00    -0.248 NA
ATOM     34  C   UNL     1      12.339  -0.561  -3.658  1.00  0.00     0.031 C 
ATOM     35  C   UNL     1       9.764   3.081  -1.328  1.00  0.00     0.029 A 
ATOM     36  N   UNL     1      11.862   2.710  -0.652  1.00  0.00    -0.354 N 
ATOM     37  C   UNL     1      14.245  -0.443  -2.400  1.00  0.00     0.074 A 
ATOM     38  C   UNL     1      13.514  -1.134  -3.440  1.00  0.00     0.031 C 
ATOM     39  C   UNL     1      10.033   3.960  -0.350  1.00  0.00     0.029 A 
ATOM     40  C   UNL     1      11.389   3.731   0.136  1.00  0.00     0.049 A 
ATOM     41  H   UNL     1      12.771   2.341  -0.568  1.00  0.00     0.167 HD
ATOM     42  C   UNL     1      15.522  -0.727  -2.048  1.00  0.00     0.037 A 
ATOM     43  C   UNL     1      11.982   4.400   1.144  1.00  0.00     0.037 A 
ATOM     44  C   UNL     1      16.257  -0.026  -1.028  1.00  0.00     0.049 A 
ATOM     45  C   UNL     1      13.392   4.044   1.533  1.00  0.00     0.074 A 
ATOM     46  C   UNL     1      17.564  -0.222  -0.616  1.00  0.00     0.029 A 
ATOM     47  N   UNL     1      15.748   1.012  -0.261  1.00  0.00    -0.354 N 
ATOM     48  N   UNL     1      14.192   3.143   1.017  1.00  0.00    -0.248 NA
ATOM     49  C   UNL     1      13.983   4.804   2.643  1.00  0.00     0.031 C 
ATOM     50  C   UNL     1      17.834   0.674   0.424  1.00  0.00     0.029 A 
ATOM     51  C   UNL     1      16.712   1.459   0.628  1.00  0.00     0.049 A 
ATOM     52  H   UNL     1      14.836   1.376  -0.338  1.00  0.00     0.167 HD
ATOM     53  C   UNL     1      15.389   3.253   1.712  1.00  0.00     0.074 A 
ATOM     54  C   UNL     1      15.215   4.318   2.678  1.00  0.00     0.031 C 
ATOM     55  C   UNL     1      16.530   2.536   1.566  1.00  0.00     0.037 A 
BRANCH  42  56
ATOM     56  C   UNL     1      16.216  -1.835  -2.787  1.00  0.00     0.064 A 
ATOM     57  C   UNL     1      16.595  -1.692  -4.131  1.00  0.00     0.173 A 
ATOM     58  C   UNL     1      16.546  -3.034  -2.137  1.00  0.00     0.173 A 
ATOM     59  F   UNL     1      16.292  -0.570  -4.801  1.00  0.00    -0.203 F 
ATOM     60  C   UNL     1      17.255  -2.717  -4.803  1.00  0.00     0.198 A 
ATOM     61  C   UNL     1      17.233  -4.045  -2.804  1.00  0.00     0.198 A 
ATOM     62  F   UNL     1      16.212  -3.220  -0.851  1.00  0.00    -0.203 F 
ATOM     63  F   UNL     1      17.564  -2.574  -6.099  1.00  0.00    -0.200 F 
ATOM     64  C   UNL     1      17.580  -3.888  -4.138  1.00  0.00     0.200 A 
ATOM     65  F   UNL     1      17.559  -5.172  -2.156  1.00  0.00    -0.200 F 
ATOM     66  F   UNL     1      18.224  -4.870  -4.784  1.00  0.00    -0.200 F 
ENDBRANCH  42  56
BRANCH  43  67
ATOM     67  C   UNL     1      11.259   5.493   1.848  1.00  0.00     0.064 A 
ATOM     68  C   UNL     1      11.678   6.825   1.724  1.00  0.00     0.173 A 
ATOM     69  C   UNL     1      10.162   5.229   2.681  1.00  0.00     0.173 A 
ATOM     70  F   UNL     1      12.736   7.125   0.956  1.00  0.00    -0.203 F 
ATOM     71  C   UNL     1      11.048   7.847   2.431  1.00  0.00     0.198 A 
ATOM     72  C   UNL     1       9.514   6.256   3.363  1.00  0.00     0.198 A 
ATOM     73  F   UNL     1       9.718   3.973   2.830  1.00  0.00    -0.203 F 
ATOM     74  F   UNL     1      11.508   9.103   2.339  1.00  0.00    -0.200 F 
ATOM     75  C   UNL     1       9.964   7.563   3.247  1.00  0.00     0.200 A 
ATOM     76  F   UNL     1       8.458   5.979   4.140  1.00  0.00    -0.200 F 
ATOM     77  F   UNL     1       9.362   8.545   3.930  1.00  0.00    -0.200 F 
ENDBRANCH  43  67
BRANCH  55  78
ATOM     78  C   UNL     1      17.696   2.916   2.431  1.00  0.00     0.064 A 
ATOM     79  C   UNL     1      17.715   2.643   3.806  1.00  0.00     0.173 A 
ATOM     80  C   UNL     1      18.824   3.532   1.866  1.00  0.00     0.173 A 
ATOM     81  F   UNL     1      16.655   2.069   4.395  1.00  0.00    -0.203 F 
ATOM     82  C   UNL     1      18.810   2.998   4.590  1.00  0.00     0.198 A 
ATOM     83  C   UNL     1      19.928   3.858   2.648  1.00  0.00     0.198 A 
ATOM     84  F   UNL     1      18.858   3.808   0.554  1.00  0.00    -0.203 F 
ATOM     85  F   UNL     1      18.785   2.774   5.911  1.00  0.00    -0.200 F 
ATOM     86  C   UNL     1      19.917   3.599   4.010  1.00  0.00     0.200 A 
ATOM     87  F   UNL     1      21.003   4.426   2.083  1.00  0.00    -0.200 F 
ATOM     88  F   UNL     1      20.971   3.935   4.765  1.00  0.00    -0.200 F 
ENDBRANCH  55  78
ENDBRANCH  29  30
ENDBRANCH  21  24
ENDBRANCH  19  20
ENDBRANCH  18  19
ENDBRANCH  17  18
ENDBRANCH   3  17
TORSDOF 15
