REMARK SMILES CC(=O)N1CC[NH+]([C@@H](C(=O)NCCCNC(=O)c2ccc(-c3c4nc(c(-c5c(F)c(F)c(F)c(F)c5F)c5ccc([nH]5)c(-c5c(F)c(F)c(F)c(F)c5F)c5nc(c(-c6c(F)c(F)c(F)c(F)c6F)c6ccc3[nH]6)C=C5)C=C4)cc2)c2c[nH]c3ccc(Cl)cc23)CC1
REMARK SMILES IDX 13 1 12 2 11 3 9 4 10 5 8 7 7 8 1 9 2 10 3 11 4 12 5 13
REMARK SMILES IDX 92 14 6 15 91 16 81 18 82 19 90 20 83 21 84 22 89 23 85 25
REMARK SMILES IDX 87 26 86 27 88 28 14 29 15 30 16 31 17 33 18 34 19 35 80 36
REMARK SMILES IDX 20 37 79 38 21 39 22 40 23 41 73 42 24 43 78 44 72 45 74 46
REMARK SMILES IDX 25 47 77 48 71 49 70 50 26 52 58 53 38 54 57 55 39 56 42 57
REMARK SMILES IDX 56 58 75 59 40 60 41 61 55 63 76 64 43 65 27 66 28 67 36 68
REMARK SMILES IDX 29 69 30 70 34 71 37 72 31 73 32 74 35 75 33 76 59 77 60 78
REMARK SMILES IDX 68 79 61 80 62 81 66 82 69 83 63 84 64 85 67 86 65 87 44 88
REMARK SMILES IDX 45 89 53 90 46 91 47 92 51 93 54 94 48 95 49 96 52 97 50 98
REMARK H PARENT 11 6 7 17 83 24 15 32 74 51 42 62
REMARK Flexibility Score: inf
ROOT
ATOM      1  C   UNL     1       4.425  -1.104  -2.790  1.00  0.00     0.042 C 
ENDROOT
BRANCH   1   2
ATOM      2  C   UNL     1       3.773  -1.688  -4.069  1.00  0.00     0.118 C 
BRANCH   2   3
ATOM      3  N   UNL     1       2.504  -2.372  -3.875  1.00  0.00    -0.351 N 
ATOM      4  C   UNL     1       1.211  -2.182  -4.288  1.00  0.00     0.283 C 
ATOM      5  O   UNL     1       0.471  -3.108  -3.946  1.00  0.00    -0.268 OA
ATOM      6  H   UNL     1       2.597  -3.170  -3.306  1.00  0.00     0.163 HD
BRANCH   4   7
ATOM      7  C   UNL     1       0.734  -0.944  -5.101  1.00  0.00     0.307 C 
BRANCH   7   8
ATOM      8  N   UNL     1       0.459   0.315  -4.314  1.00  0.00    -0.318 N 
ATOM      9  C   UNL     1       0.700   0.003   0.900  1.00  0.00     0.114 C 
ATOM     10  C   UNL     1      -0.335  -0.385  -0.117  1.00  0.00     0.219 C 
ATOM     11  O   UNL     1      -1.399  -0.887   0.239  1.00  0.00    -0.275 OA
ATOM     12  N   UNL     1      -0.031  -0.111  -1.441  1.00  0.00    -0.332 N 
ATOM     13  C   UNL     1      -1.048  -0.419  -2.440  1.00  0.00     0.181 C 
ATOM     14  C   UNL     1       1.332   0.086  -1.938  1.00  0.00     0.181 C 
ATOM     15  C   UNL     1      -0.863   0.462  -3.669  1.00  0.00     0.285 C 
ATOM     16  C   UNL     1       1.455   0.736  -3.338  1.00  0.00     0.285 C 
ATOM     17  H   UNL     1       0.498   0.932  -5.125  1.00  0.00     0.349 HD
ENDBRANCH   7   8
BRANCH   7  18
ATOM     18  C   UNL     1      -0.503  -1.130  -6.017  1.00  0.00     0.044 A 
ATOM     19  C   UNL     1      -0.722  -0.324  -7.132  1.00  0.00     0.094 A 
ATOM     20  C   UNL     1      -1.787  -1.759  -5.746  1.00  0.00     0.011 A 
ATOM     21  N   UNL     1      -2.076  -0.150  -7.261  1.00  0.00    -0.361 N 
ATOM     22  C   UNL     1      -2.742  -0.924  -6.342  1.00  0.00     0.046 A 
ATOM     23  C   UNL     1      -2.274  -2.775  -4.892  1.00  0.00     0.031 A 
ATOM     24  H   UNL     1      -2.508   0.444  -7.917  1.00  0.00     0.166 HD
ATOM     25  C   UNL     1      -4.087  -0.897  -5.945  1.00  0.00     0.028 A 
ATOM     26  C   UNL     1      -3.631  -2.816  -4.554  1.00  0.00     0.041 A 
ATOM     27  C   UNL     1      -4.512  -1.848  -5.016  1.00  0.00     0.022 A 
ATOM     28  Cl  UNL     1      -4.208  -4.057  -3.506  1.00  0.00    -0.084 Cl
ENDBRANCH   7  18
ENDBRANCH   4   7
ENDBRANCH   2   3
ENDBRANCH   1   2
BRANCH   1  29
ATOM     29  C   UNL     1       4.191  -1.831  -1.451  1.00  0.00     0.118 C 
BRANCH  29  30
ATOM     30  N   UNL     1       5.415  -2.357  -0.880  1.00  0.00    -0.352 N 
ATOM     31  C   UNL     1       5.927  -2.298   0.393  1.00  0.00     0.251 C 
ATOM     32  H   UNL     1       5.982  -2.844  -1.521  1.00  0.00     0.163 HD
ATOM     33  O   UNL     1       7.070  -2.716   0.571  1.00  0.00    -0.269 OA
BRANCH  31  34
ATOM     34  C   UNL     1       5.184  -1.750   1.564  1.00  0.00     0.039 A 
ATOM     35  C   UNL     1       5.930  -1.066   2.535  1.00  0.00     0.014 A 
ATOM     36  C   UNL     1       3.834  -2.007   1.818  1.00  0.00     0.014 A 
ATOM     37  C   UNL     1       5.340  -0.641   3.734  1.00  0.00     0.010 A 
ATOM     38  C   UNL     1       3.233  -1.549   3.009  1.00  0.00     0.010 A 
ATOM     39  C   UNL     1       3.981  -0.875   3.989  1.00  0.00    -0.014 A 
BRANCH  39  40
ATOM     40  C   UNL     1       3.380  -0.434   5.286  1.00  0.00     0.031 A 
ATOM     41  C   UNL     1       2.955  -1.435   6.331  1.00  0.00     0.074 A 
ATOM     42  C   UNL     1       3.235   0.879   5.555  1.00  0.00     0.049 A 
ATOM     43  N   UNL     1       2.485  -1.227   7.539  1.00  0.00    -0.248 NA
ATOM     44  C   UNL     1       3.066  -2.855   5.971  1.00  0.00     0.031 C 
ATOM     45  C   UNL     1       3.570   1.968   4.639  1.00  0.00     0.029 A 
ATOM     46  N   UNL     1       2.771   1.522   6.680  1.00  0.00    -0.354 N 
ATOM     47  C   UNL     1       2.245  -2.484   8.081  1.00  0.00     0.074 A 
ATOM     48  C   UNL     1       2.579  -3.448   7.053  1.00  0.00     0.031 C 
ATOM     49  C   UNL     1       3.316   3.142   5.240  1.00  0.00     0.029 A 
ATOM     50  C   UNL     1       2.783   2.892   6.579  1.00  0.00     0.049 A 
ATOM     51  H   UNL     1       2.459   1.044   7.482  1.00  0.00     0.167 HD
ATOM     52  C   UNL     1       1.808  -2.812   9.323  1.00  0.00     0.037 A 
ATOM     53  C   UNL     1       2.413   3.844   7.458  1.00  0.00     0.037 A 
ATOM     54  C   UNL     1       1.477  -1.867  10.360  1.00  0.00     0.049 A 
ATOM     55  C   UNL     1       1.928   3.458   8.830  1.00  0.00     0.074 A 
ATOM     56  C   UNL     1       1.071  -2.119  11.661  1.00  0.00     0.029 A 
ATOM     57  N   UNL     1       1.503  -0.489  10.215  1.00  0.00    -0.354 N 
ATOM     58  N   UNL     1       1.779   2.265   9.350  1.00  0.00    -0.248 NA
ATOM     59  C   UNL     1       1.573   4.556   9.742  1.00  0.00     0.031 C 
ATOM     60  C   UNL     1       0.812  -0.895  12.289  1.00  0.00     0.029 A 
ATOM     61  C   UNL     1       1.101   0.121  11.395  1.00  0.00     0.049 A 
ATOM     62  H   UNL     1       1.768  -0.013   9.395  1.00  0.00     0.167 HD
ATOM     63  C   UNL     1       1.335   2.468  10.650  1.00  0.00     0.074 A 
ATOM     64  C   UNL     1       1.257   3.899  10.849  1.00  0.00     0.031 C 
ATOM     65  C   UNL     1       1.019   1.546  11.593  1.00  0.00     0.037 A 
BRANCH  52  66
ATOM     66  C   UNL     1       1.662  -4.273   9.639  1.00  0.00     0.064 A 
ATOM     67  C   UNL     1       2.783  -5.099   9.819  1.00  0.00     0.173 A 
ATOM     68  C   UNL     1       0.392  -4.845   9.810  1.00  0.00     0.173 A 
ATOM     69  F   UNL     1       4.019  -4.602   9.664  1.00  0.00    -0.203 F 
ATOM     70  C   UNL     1       2.636  -6.449  10.128  1.00  0.00     0.198 A 
ATOM     71  C   UNL     1       0.250  -6.189  10.146  1.00  0.00     0.198 A 
ATOM     72  F   UNL     1      -0.712  -4.097   9.664  1.00  0.00    -0.203 F 
ATOM     73  F   UNL     1       3.720  -7.227  10.253  1.00  0.00    -0.200 F 
ATOM     74  C   UNL     1       1.371  -6.991  10.297  1.00  0.00     0.200 A 
ATOM     75  F   UNL     1      -0.972  -6.709  10.325  1.00  0.00    -0.200 F 
ATOM     76  F   UNL     1       1.232  -8.289  10.600  1.00  0.00    -0.200 F 
ENDBRANCH  52  66
BRANCH  53  77
ATOM     77  C   UNL     1       2.510   5.276   7.072  1.00  0.00     0.064 A 
ATOM     78  C   UNL     1       3.480   6.115   7.637  1.00  0.00     0.173 A 
ATOM     79  C   UNL     1       1.630   5.832   6.133  1.00  0.00     0.173 A 
ATOM     80  F   UNL     1       4.327   5.633   8.559  1.00  0.00    -0.203 F 
ATOM     81  C   UNL     1       3.559   7.461   7.285  1.00  0.00     0.198 A 
ATOM     82  C   UNL     1       1.727   7.172   5.763  1.00  0.00     0.198 A 
ATOM     83  F   UNL     1       0.685   5.070   5.564  1.00  0.00    -0.203 F 
ATOM     84  F   UNL     1       4.471   8.251   7.868  1.00  0.00    -0.200 F 
ATOM     85  C   UNL     1       2.687   7.986   6.343  1.00  0.00     0.200 A 
ATOM     86  F   UNL     1       0.891   7.673   4.843  1.00  0.00    -0.200 F 
ATOM     87  F   UNL     1       2.769   9.279   6.000  1.00  0.00    -0.200 F 
ENDBRANCH  53  77
BRANCH  65  88
ATOM     88  C   UNL     1       0.578   2.054  12.936  1.00  0.00     0.064 A 
ATOM     89  C   UNL     1      -0.675   2.658  13.119  1.00  0.00     0.173 A 
ATOM     90  C   UNL     1       1.411   1.920  14.058  1.00  0.00     0.173 A 
ATOM     91  F   UNL     1      -1.503   2.825  12.076  1.00  0.00    -0.203 F 
ATOM     92  C   UNL     1      -1.067   3.133  14.369  1.00  0.00     0.198 A 
ATOM     93  C   UNL     1       1.005   2.373  15.311  1.00  0.00     0.198 A 
ATOM     94  F   UNL     1       2.618   1.347  13.940  1.00  0.00    -0.203 F 
ATOM     95  F   UNL     1      -2.248   3.751  14.509  1.00  0.00    -0.200 F 
ATOM     96  C   UNL     1      -0.229   2.987  15.464  1.00  0.00     0.200 A 
ATOM     97  F   UNL     1       1.812   2.223  16.370  1.00  0.00    -0.200 F 
ATOM     98  F   UNL     1      -0.607   3.446  16.665  1.00  0.00    -0.200 F 
ENDBRANCH  65  88
ENDBRANCH  39  40
ENDBRANCH  31  34
ENDBRANCH  29  30
ENDBRANCH   1  29
TORSDOF 12
