REMARK SMILES CC(C)(C)OC(=O)N1CC(Cc2ccc(C(=O)NCCCNC(=O)c3ccc(-c4c5nc(c(-c6c(F)c(F)c(F)c(F)c6F)c6ccc([nH]6)c(-c6c(F)c(F)c(F)c(F)c6F)c6nc(c(-c7c(F)c(F)c(F)c(F)c7F)c7ccc4[nH]7)C=C6)C=C5)cc3)cc2)C1
REMARK SMILES IDX 19 1 18 2 16 3 17 4 15 6 12 7 13 8 89 9 14 10 88 11 11 12
REMARK SMILES IDX 10 13 6 14 7 15 8 16 9 17 90 18 5 19 2 20 1 21 3 22 4 23
REMARK SMILES IDX 20 24 21 25 22 26 23 27 24 29 25 30 26 31 87 32 27 33 86 34
REMARK SMILES IDX 28 35 29 36 30 37 80 38 31 39 85 40 79 41 81 42 32 43 84 44
REMARK SMILES IDX 78 45 77 46 33 48 65 49 45 50 64 51 46 52 49 53 63 54 82 55
REMARK SMILES IDX 47 56 48 57 62 59 83 60 50 61 34 62 35 63 43 64 36 65 37 66
REMARK SMILES IDX 41 67 44 68 38 69 39 70 42 71 40 72 66 73 67 74 75 75 68 76
REMARK SMILES IDX 69 77 73 78 76 79 70 80 71 81 74 82 72 83 51 84 52 85 60 86
REMARK SMILES IDX 53 87 54 88 58 89 61 90 55 91 56 92 59 93 57 94
REMARK H PARENT 18 5 22 28 81 47 49 58
REMARK Flexibility Score: inf
ROOT
ATOM      1  C   UNL     1       7.805  -5.622   7.407  1.00  0.00     0.118 C 
ENDROOT
BRANCH   1   2
ATOM      2  N   UNL     1       8.233  -6.833   6.726  1.00  0.00    -0.352 N 
ATOM      3  C   UNL     1       7.604  -7.606   5.782  1.00  0.00     0.251 C 
ATOM      4  O   UNL     1       8.240  -8.509   5.242  1.00  0.00    -0.269 OA
ATOM      5  H   UNL     1       9.127  -7.153   6.987  1.00  0.00     0.163 HD
BRANCH   3   6
ATOM      6  C   UNL     1       6.201  -7.360   5.368  1.00  0.00     0.039 A 
ATOM      7  C   UNL     1       3.564  -6.956   4.469  1.00  0.00    -0.048 A 
ATOM      8  C   UNL     1       4.577  -7.278   3.560  1.00  0.00     0.004 A 
ATOM      9  C   UNL     1       3.877  -6.871   5.834  1.00  0.00     0.004 A 
ATOM     10  C   UNL     1       5.886  -7.485   4.009  1.00  0.00     0.014 A 
ATOM     11  C   UNL     1       5.182  -7.086   6.282  1.00  0.00     0.014 A 
BRANCH   7  12
ATOM     12  C   UNL     1       2.149  -6.710   4.008  1.00  0.00     0.042 C 
BRANCH  12  13
ATOM     13  C   UNL     1       1.845  -5.219   4.028  1.00  0.00     0.033 C 
ATOM     14  C   UNL     1       0.277  -2.573   2.753  1.00  0.00     0.410 C 
ATOM     15  O   UNL     1      -0.749  -2.185   3.295  1.00  0.00    -0.224 OA
ATOM     16  N   UNL     1       0.824  -3.792   2.997  1.00  0.00    -0.307 N 
ATOM     17  C   UNL     1       0.355  -4.873   3.832  1.00  0.00     0.128 C 
ATOM     18  C   UNL     1       2.120  -4.384   2.748  1.00  0.00     0.128 C 
BRANCH  14  19
ATOM     19  O   UNL     1       0.998  -1.875   1.840  1.00  0.00    -0.444 OA
BRANCH  19  20
ATOM     20  C   UNL     1       0.603  -0.532   1.448  1.00  0.00     0.106 C 
ATOM     21  C   UNL     1       1.400  -0.242   0.167  1.00  0.00     0.056 C 
ATOM     22  C   UNL     1       1.024   0.457   2.539  1.00  0.00     0.056 C 
ATOM     23  C   UNL     1      -0.890  -0.399   1.115  1.00  0.00     0.056 C 
ENDBRANCH  19  20
ENDBRANCH  14  19
ENDBRANCH  12  13
ENDBRANCH   7  12
ENDBRANCH   3   6
ENDBRANCH   1   2
BRANCH   1  24
ATOM     24  C   UNL     1       7.499  -5.875   8.883  1.00  0.00     0.042 C 
BRANCH  24  25
ATOM     25  C   UNL     1       8.733  -6.167   9.736  1.00  0.00     0.118 C 
BRANCH  25  26
ATOM     26  N   UNL     1       9.547  -4.983   9.956  1.00  0.00    -0.352 N 
ATOM     27  C   UNL     1      10.018  -4.437  11.124  1.00  0.00     0.251 C 
ATOM     28  H   UNL     1       9.800  -4.495   9.139  1.00  0.00     0.163 HD
ATOM     29  O   UNL     1      10.539  -3.325  11.099  1.00  0.00    -0.269 OA
BRANCH  27  30
ATOM     30  C   UNL     1       9.900  -5.154  12.416  1.00  0.00     0.039 A 
ATOM     31  C   UNL     1       9.594  -4.411  13.562  1.00  0.00     0.014 A 
ATOM     32  C   UNL     1      10.163  -6.523  12.529  1.00  0.00     0.014 A 
ATOM     33  C   UNL     1       9.513  -5.040  14.807  1.00  0.00     0.010 A 
ATOM     34  C   UNL     1      10.034  -7.161  13.765  1.00  0.00     0.010 A 
ATOM     35  C   UNL     1       9.717  -6.424  14.917  1.00  0.00    -0.014 A 
BRANCH  35  36
ATOM     36  C   UNL     1       9.621  -7.105  16.233  1.00  0.00     0.031 A 
ATOM     37  C   UNL     1      10.851  -7.666  16.889  1.00  0.00     0.074 A 
ATOM     38  C   UNL     1       8.419  -7.255  16.820  1.00  0.00     0.049 A 
ATOM     39  N   UNL     1      10.959  -8.334  18.012  1.00  0.00    -0.248 NA
ATOM     40  C   UNL     1      12.125  -7.469  16.183  1.00  0.00     0.031 C 
ATOM     41  C   UNL     1       7.146  -6.788  16.270  1.00  0.00     0.029 A 
ATOM     42  N   UNL     1       8.072  -7.851  18.006  1.00  0.00    -0.354 N 
ATOM     43  C   UNL     1      12.305  -8.651  18.135  1.00  0.00     0.074 A 
ATOM     44  C   UNL     1      12.971  -8.131  16.959  1.00  0.00     0.031 C 
ATOM     45  C   UNL     1       6.158  -7.103  17.123  1.00  0.00     0.029 A 
ATOM     46  C   UNL     1       6.724  -7.814  18.266  1.00  0.00     0.049 A 
ATOM     47  H   UNL     1       8.726  -8.266  18.613  1.00  0.00     0.167 HD
ATOM     48  C   UNL     1      12.931  -9.303  19.144  1.00  0.00     0.037 A 
ATOM     49  C   UNL     1       6.024  -8.301  19.308  1.00  0.00     0.037 A 
ATOM     50  C   UNL     1      12.279  -9.789  20.331  1.00  0.00     0.049 A 
ATOM     51  C   UNL     1       6.746  -9.000  20.425  1.00  0.00     0.074 A 
ATOM     52  C   UNL     1      12.842 -10.404  21.436  1.00  0.00     0.029 A 
ATOM     53  N   UNL     1      10.915  -9.712  20.568  1.00  0.00    -0.354 N 
ATOM     54  N   UNL     1       8.026  -9.247  20.555  1.00  0.00    -0.248 NA
ATOM     55  C   UNL     1       5.924  -9.484  21.544  1.00  0.00     0.031 C 
ATOM     56  C   UNL     1      11.814 -10.724  22.331  1.00  0.00     0.029 A 
ATOM     57  C   UNL     1      10.616 -10.281  21.796  1.00  0.00     0.049 A 
ATOM     58  H   UNL     1      10.257  -9.312  19.955  1.00  0.00     0.167 HD
ATOM     59  C   UNL     1       8.167  -9.896  21.773  1.00  0.00     0.074 A 
ATOM     60  C   UNL     1       6.844  -9.995  22.352  1.00  0.00     0.031 C 
ATOM     61  C   UNL     1       9.294 -10.369  22.358  1.00  0.00     0.037 A 
BRANCH  48  62
ATOM     62  C   UNL     1      14.407  -9.526  19.009  1.00  0.00     0.064 A 
ATOM     63  C   UNL     1      15.325  -8.479  19.178  1.00  0.00     0.173 A 
ATOM     64  C   UNL     1      14.912 -10.808  18.746  1.00  0.00     0.173 A 
ATOM     65  F   UNL     1      14.889  -7.233  19.420  1.00  0.00    -0.203 F 
ATOM     66  C   UNL     1      16.694  -8.703  19.064  1.00  0.00     0.198 A 
ATOM     67  C   UNL     1      16.283 -11.033  18.655  1.00  0.00     0.198 A 
ATOM     68  F   UNL     1      14.075 -11.844  18.581  1.00  0.00    -0.203 F 
ATOM     69  F   UNL     1      17.551  -7.680  19.191  1.00  0.00    -0.200 F 
ATOM     70  C   UNL     1      17.172  -9.979  18.809  1.00  0.00     0.200 A 
ATOM     71  F   UNL     1      16.744 -12.268  18.416  1.00  0.00    -0.200 F 
ATOM     72  F   UNL     1      18.491 -10.194  18.704  1.00  0.00    -0.200 F 
ENDBRANCH  48  62
BRANCH  49  73
ATOM     73  C   UNL     1       4.553  -8.117  19.355  1.00  0.00     0.064 A 
ATOM     74  C   UNL     1       3.975  -7.189  20.232  1.00  0.00     0.173 A 
ATOM     75  C   UNL     1       3.700  -8.854  18.523  1.00  0.00     0.173 A 
ATOM     76  F   UNL     1       4.753  -6.478  21.061  1.00  0.00    -0.203 F 
ATOM     77  C   UNL     1       2.594  -7.014  20.283  1.00  0.00     0.198 A 
ATOM     78  C   UNL     1       2.320  -8.664  18.561  1.00  0.00     0.198 A 
ATOM     79  F   UNL     1       4.208  -9.751  17.665  1.00  0.00    -0.203 F 
ATOM     80  F   UNL     1       2.063  -6.144  21.153  1.00  0.00    -0.200 F 
ATOM     81  C   UNL     1       1.768  -7.747  19.444  1.00  0.00     0.200 A 
ATOM     82  F   UNL     1       1.526  -9.367  17.742  1.00  0.00    -0.200 F 
ATOM     83  F   UNL     1       0.440  -7.575  19.491  1.00  0.00    -0.200 F 
ENDBRANCH  49  73
BRANCH  61  84
ATOM     84  C   UNL     1       9.146 -11.020  23.700  1.00  0.00     0.064 A 
ATOM     85  C   UNL     1       8.624 -12.315  23.829  1.00  0.00     0.173 A 
ATOM     86  C   UNL     1       9.559 -10.354  24.863  1.00  0.00     0.173 A 
ATOM     87  F   UNL     1       8.200 -12.982  22.745  1.00  0.00    -0.203 F 
ATOM     88  C   UNL     1       8.504 -12.914  25.080  1.00  0.00     0.198 A 
ATOM     89  C   UNL     1       9.457 -10.965  26.110  1.00  0.00     0.198 A 
ATOM     90  F   UNL     1      10.067  -9.115  24.789  1.00  0.00    -0.203 F 
ATOM     91  F   UNL     1       7.969 -14.138  25.185  1.00  0.00    -0.200 F 
ATOM     92  C   UNL     1       8.926 -12.242  26.218  1.00  0.00     0.200 A 
ATOM     93  F   UNL     1       9.870 -10.317  27.208  1.00  0.00    -0.200 F 
ATOM     94  F   UNL     1       8.812 -12.822  27.420  1.00  0.00    -0.200 F 
ENDBRANCH  61  84
ENDBRANCH  35  36
ENDBRANCH  27  30
ENDBRANCH  25  26
ENDBRANCH  24  25
ENDBRANCH   1  24
TORSDOF 14
