REMARK SMILES COc1ccc(/C=C(\Sc2nc(C)n[nH]2)C(=O)NCCCNC(=O)c2ccc(-c3c4nc(c(-c5c(F)c(F)c(F)c(F)c5F)c5ccc([nH]5)c(-c5c(F)c(F)c(F)c(F)c5F)c5nc(c(-c6c(F)c(F)c(F)c(F)c6F)c6ccc3[nH]6)C=C5)C=C4)cc2)c(OC)c1
REMARK SMILES IDX 20 1 19 2 18 3 16 4 17 5 8 7 7 8 6 9 3 10 4 11 91 12 5 13
REMARK SMILES IDX 88 14 2 15 1 16 89 17 90 18 9 19 10 20 11 21 15 22 12 23
REMARK SMILES IDX 14 24 13 26 21 27 22 28 23 29 24 31 25 32 26 33 87 34 27 35
REMARK SMILES IDX 86 36 28 37 29 38 30 39 80 40 31 41 85 42 79 43 81 44 32 45
REMARK SMILES IDX 84 46 78 47 77 48 33 50 65 51 45 52 64 53 46 54 49 55 63 56
REMARK SMILES IDX 82 57 47 58 48 59 62 61 83 62 50 63 34 64 35 65 43 66 36 67
REMARK SMILES IDX 37 68 41 69 44 70 38 71 39 72 42 73 40 74 66 75 67 76 75 77
REMARK SMILES IDX 68 78 69 79 73 80 76 81 70 82 71 83 74 84 72 85 51 86 52 87
REMARK SMILES IDX 60 88 53 89 54 90 58 91 61 92 55 93 56 94 59 95 57 96
REMARK H PARENT 18 6 15 25 22 30 81 49 49 60
REMARK Flexibility Score: inf
ROOT
ATOM      1  C   UNL     1      -1.680  -4.917   8.728  1.00  0.00     0.042 C 
ENDROOT
BRANCH   1   2
ATOM      2  C   UNL     1      -0.435  -4.056   9.012  1.00  0.00     0.118 C 
BRANCH   2   3
ATOM      3  N   UNL     1       0.797  -4.658   8.506  1.00  0.00    -0.352 N 
ATOM      4  C   UNL     1       1.513  -4.493   7.347  1.00  0.00     0.258 C 
ATOM      5  O   UNL     1       2.581  -5.107   7.275  1.00  0.00    -0.269 OA
ATOM      6  H   UNL     1       1.194  -5.316   9.122  1.00  0.00     0.163 HD
BRANCH   4   7
ATOM      7  C   UNL     1       1.065  -3.569   6.220  1.00  0.00     0.081 C 
ATOM      8  C   UNL     1       2.092  -2.927   5.614  1.00  0.00     0.033 C 
BRANCH   8   9
ATOM      9  C   UNL     1       2.094  -1.911   4.545  1.00  0.00     0.018 A 
ATOM     10  C   UNL     1       1.733  -0.081   2.441  1.00  0.00     0.122 A 
ATOM     11  C   UNL     1       1.193   0.177   3.698  1.00  0.00     0.047 A 
ATOM     12  C   UNL     1       2.597  -1.160   2.285  1.00  0.00     0.093 A 
ATOM     13  C   UNL     1       1.382  -0.725   4.746  1.00  0.00     0.016 A 
ATOM     14  C   UNL     1       2.834  -2.035   3.357  1.00  0.00     0.129 A 
BRANCH  10  15
ATOM     15  O   UNL     1       1.371   0.796   1.456  1.00  0.00    -0.497 OA
ATOM     16  C   UNL     1       1.515   0.327   0.120  1.00  0.00     0.278 C 
ENDBRANCH  10  15
BRANCH  14  17
ATOM     17  O   UNL     1       3.793  -3.018   3.266  1.00  0.00    -0.496 OA
ATOM     18  C   UNL     1       5.011  -2.548   2.671  1.00  0.00     0.278 C 
ENDBRANCH  14  17
ENDBRANCH   8   9
BRANCH   7  19
ATOM     19  S   UNL     1      -0.636  -3.604   5.911  1.00  0.00    -0.045 SA
BRANCH  19  20
ATOM     20  C   UNL     1      -1.006  -2.608   4.590  1.00  0.00     0.188 A 
ATOM     21  N   UNL     1      -0.870  -2.869   3.317  1.00  0.00    -0.206 NA
ATOM     22  N   UNL     1      -1.754  -1.482   4.755  1.00  0.00    -0.254 N 
ATOM     23  C   UNL     1      -1.502  -1.806   2.727  1.00  0.00     0.148 A 
ATOM     24  N   UNL     1      -2.081  -0.940   3.571  1.00  0.00    -0.158 NA
ATOM     25  H   UNL     1      -2.019  -1.113   5.629  1.00  0.00     0.192 HD
ATOM     26  C   UNL     1      -1.522  -1.640   1.265  1.00  0.00     0.092 C 
ENDBRANCH  19  20
ENDBRANCH   7  19
ENDBRANCH   4   7
ENDBRANCH   2   3
ENDBRANCH   1   2
BRANCH   1  27
ATOM     27  C   UNL     1      -1.889  -5.992   9.775  1.00  0.00     0.118 C 
BRANCH  27  28
ATOM     28  N   UNL     1      -2.359  -5.457  11.057  1.00  0.00    -0.352 N 
ATOM     29  C   UNL     1      -2.689  -6.152  12.211  1.00  0.00     0.251 C 
ATOM     30  H   UNL     1      -2.453  -4.479  11.104  1.00  0.00     0.163 HD
ATOM     31  O   UNL     1      -3.374  -5.642  13.081  1.00  0.00    -0.269 OA
BRANCH  29  32
ATOM     32  C   UNL     1      -2.184  -7.528  12.364  1.00  0.00     0.039 A 
ATOM     33  C   UNL     1      -2.936  -8.544  12.960  1.00  0.00     0.014 A 
ATOM     34  C   UNL     1      -0.924  -7.791  11.845  1.00  0.00     0.014 A 
ATOM     35  C   UNL     1      -2.420  -9.838  12.961  1.00  0.00     0.010 A 
ATOM     36  C   UNL     1      -0.550  -9.078  11.610  1.00  0.00     0.010 A 
ATOM     37  C   UNL     1      -1.227 -10.091  12.268  1.00  0.00    -0.014 A 
BRANCH  37  38
ATOM     38  C   UNL     1      -0.666 -11.423  12.125  1.00  0.00     0.031 A 
ATOM     39  C   UNL     1      -1.572 -12.393  11.467  1.00  0.00     0.074 A 
ATOM     40  C   UNL     1       0.649 -11.658  12.335  1.00  0.00     0.049 A 
ATOM     41  N   UNL     1      -2.100 -13.445  11.995  1.00  0.00    -0.248 NA
ATOM     42  C   UNL     1      -2.080 -12.084  10.120  1.00  0.00     0.031 C 
ATOM     43  C   UNL     1       1.708 -10.702  12.693  1.00  0.00     0.029 A 
ATOM     44  N   UNL     1       1.348 -12.808  12.156  1.00  0.00    -0.354 N 
ATOM     45  C   UNL     1      -2.845 -14.048  10.986  1.00  0.00     0.074 A 
ATOM     46  C   UNL     1      -2.958 -13.072   9.934  1.00  0.00     0.031 C 
ATOM     47  C   UNL     1       2.920 -11.257  12.470  1.00  0.00     0.029 A 
ATOM     48  C   UNL     1       2.731 -12.649  12.116  1.00  0.00     0.049 A 
ATOM     49  H   UNL     1       0.912 -13.686  12.061  1.00  0.00     0.167 HD
ATOM     50  C   UNL     1      -3.078 -15.389  11.008  1.00  0.00     0.037 A 
ATOM     51  C   UNL     1       3.638 -13.601  11.777  1.00  0.00     0.037 A 
ATOM     52  C   UNL     1      -2.790 -15.935  12.314  1.00  0.00     0.049 A 
ATOM     53  C   UNL     1       2.957 -14.915  11.932  1.00  0.00     0.074 A 
ATOM     54  C   UNL     1      -3.277 -15.698  13.585  1.00  0.00     0.029 A 
ATOM     55  N   UNL     1      -1.583 -16.570  12.490  1.00  0.00    -0.354 N 
ATOM     56  N   UNL     1       2.590 -15.397  13.089  1.00  0.00    -0.248 NA
ATOM     57  C   UNL     1       2.234 -15.435  10.780  1.00  0.00     0.031 C 
ATOM     58  C   UNL     1      -2.130 -15.740  14.431  1.00  0.00     0.029 A 
ATOM     59  C   UNL     1      -1.029 -16.091  13.650  1.00  0.00     0.049 A 
ATOM     60  H   UNL     1      -1.188 -17.246  11.893  1.00  0.00     0.167 HD
ATOM     61  C   UNL     1       1.326 -15.925  12.864  1.00  0.00     0.074 A 
ATOM     62  C   UNL     1       1.189 -15.982  11.409  1.00  0.00     0.031 C 
ATOM     63  C   UNL     1       0.395 -15.971  13.862  1.00  0.00     0.037 A 
BRANCH  50  64
ATOM     64  C   UNL     1      -3.180 -16.269   9.785  1.00  0.00     0.064 A 
ATOM     65  C   UNL     1      -3.516 -17.628   9.957  1.00  0.00     0.173 A 
ATOM     66  C   UNL     1      -2.671 -15.927   8.514  1.00  0.00     0.173 A 
ATOM     67  F   UNL     1      -4.009 -18.068  11.125  1.00  0.00    -0.203 F 
ATOM     68  C   UNL     1      -3.260 -18.583   8.971  1.00  0.00     0.198 A 
ATOM     69  C   UNL     1      -2.467 -16.875   7.513  1.00  0.00     0.198 A 
ATOM     70  F   UNL     1      -2.241 -14.695   8.220  1.00  0.00    -0.203 F 
ATOM     71  F   UNL     1      -3.465 -19.880   9.233  1.00  0.00    -0.200 F 
ATOM     72  C   UNL     1      -2.725 -18.207   7.753  1.00  0.00     0.200 A 
ATOM     73  F   UNL     1      -1.935 -16.491   6.344  1.00  0.00    -0.200 F 
ATOM     74  F   UNL     1      -2.413 -19.127   6.832  1.00  0.00    -0.200 F 
ENDBRANCH  50  64
BRANCH  51  75
ATOM     75  C   UNL     1       4.923 -13.439  11.052  1.00  0.00     0.064 A 
ATOM     76  C   UNL     1       5.871 -14.475  11.008  1.00  0.00     0.173 A 
ATOM     77  C   UNL     1       5.131 -12.369  10.158  1.00  0.00     0.173 A 
ATOM     78  F   UNL     1       5.729 -15.552  11.794  1.00  0.00    -0.203 F 
ATOM     79  C   UNL     1       6.944 -14.454  10.108  1.00  0.00     0.198 A 
ATOM     80  C   UNL     1       6.204 -12.348   9.264  1.00  0.00     0.198 A 
ATOM     81  F   UNL     1       4.245 -11.367  10.065  1.00  0.00    -0.203 F 
ATOM     82  F   UNL     1       7.793 -15.491  10.055  1.00  0.00    -0.200 F 
ATOM     83  C   UNL     1       7.102 -13.396   9.229  1.00  0.00     0.200 A 
ATOM     84  F   UNL     1       6.324 -11.334   8.394  1.00  0.00    -0.200 F 
ATOM     85  F   UNL     1       8.091 -13.406   8.324  1.00  0.00    -0.200 F 
ENDBRANCH  51  75
BRANCH  63  86
ATOM     86  C   UNL     1       0.842 -15.649  15.263  1.00  0.00     0.064 A 
ATOM     87  C   UNL     1       1.344 -14.399  15.665  1.00  0.00     0.173 A 
ATOM     88  C   UNL     1       0.601 -16.594  16.268  1.00  0.00     0.173 A 
ATOM     89  F   UNL     1       1.504 -13.404  14.786  1.00  0.00    -0.203 F 
ATOM     90  C   UNL     1       1.631 -14.125  17.002  1.00  0.00     0.198 A 
ATOM     91  C   UNL     1       0.853 -16.306  17.607  1.00  0.00     0.198 A 
ATOM     92  F   UNL     1       0.067 -17.784  15.956  1.00  0.00    -0.203 F 
ATOM     93  F   UNL     1       2.117 -12.925  17.354  1.00  0.00    -0.200 F 
ATOM     94  C   UNL     1       1.377 -15.078  17.973  1.00  0.00     0.200 A 
ATOM     95  F   UNL     1       0.555 -17.213  18.548  1.00  0.00    -0.200 F 
ATOM     96  F   UNL     1       1.612 -14.802  19.264  1.00  0.00    -0.200 F 
ENDBRANCH  63  86
ENDBRANCH  37  38
ENDBRANCH  29  32
ENDBRANCH  27  28
ENDBRANCH   1  27
TORSDOF 15
