REMARK SMILES O=C(NCCCNC(=O)[C@H]1C[C@@H]1C(=O)Nc1ccc(Cl)c(Br)c1)c1ccc(-c2c3nc(c(-c4c(F)c(F)c(F)c(F)c4F)c4ccc([nH]4)c(-c4c(F)c(F)c(F)c(F)c4F)c4nc(c(-c5c(F)c(F)c(F)c(F)c5F)c5ccc2[nH]5)C=C4)C=C3)cc1
REMARK SMILES IDX 5 1 4 2 3 3 1 4 2 5 24 7 25 8 86 9 26 10 85 11 27 12 28 13
REMARK SMILES IDX 29 14 79 15 30 16 84 17 78 18 80 19 31 20 83 21 77 22 76 23
REMARK SMILES IDX 32 25 64 26 44 27 63 28 45 29 48 30 62 31 81 32 46 33 47 34
REMARK SMILES IDX 61 36 82 37 49 38 33 39 34 40 42 41 35 42 36 43 40 44 43 45
REMARK SMILES IDX 37 46 38 47 41 48 39 49 65 50 66 51 74 52 67 53 68 54 72 55
REMARK SMILES IDX 75 56 69 57 70 58 73 59 71 60 50 61 51 62 59 63 52 64 53 65
REMARK SMILES IDX 57 66 60 67 54 68 55 69 58 70 56 71 6 72 7 73 8 74 9 76
REMARK SMILES IDX 10 77 11 78 12 79 13 80 14 81 15 82 16 84 17 85 23 86 18 87
REMARK SMILES IDX 21 88 19 89 22 90 20 91
REMARK H PARENT 3 6 80 24 48 35 7 75 15 83
REMARK Flexibility Score: inf
ROOT
ATOM      1  C   UNL     1       7.951   8.497  -3.951  1.00  0.00     0.042 C 
ENDROOT
BRANCH   1   2
ATOM      2  C   UNL     1       9.403   8.697  -3.533  1.00  0.00     0.118 C 
BRANCH   2   3
ATOM      3  N   UNL     1      10.315   8.769  -4.664  1.00  0.00    -0.352 N 
ATOM      4  O   UNL     1      11.671   9.674  -6.202  1.00  0.00    -0.269 OA
ATOM      5  C   UNL     1      11.105   9.794  -5.118  1.00  0.00     0.251 C 
ATOM      6  H   UNL     1      10.374   7.942  -5.194  1.00  0.00     0.163 HD
BRANCH   5   7
ATOM      7  C   UNL     1      11.282  11.043  -4.341  1.00  0.00     0.039 A 
ATOM      8  C   UNL     1      11.379  12.251  -5.042  1.00  0.00     0.014 A 
ATOM      9  C   UNL     1      11.430  11.038  -2.952  1.00  0.00     0.014 A 
ATOM     10  C   UNL     1      11.581  13.448  -4.351  1.00  0.00     0.010 A 
ATOM     11  C   UNL     1      11.554  12.241  -2.256  1.00  0.00     0.010 A 
ATOM     12  C   UNL     1      11.651  13.455  -2.950  1.00  0.00    -0.014 A 
BRANCH  12  13
ATOM     13  C   UNL     1      11.889  14.716  -2.202  1.00  0.00     0.031 A 
ATOM     14  C   UNL     1      13.173  14.906  -1.442  1.00  0.00     0.074 A 
ATOM     15  C   UNL     1      10.946  15.677  -2.182  1.00  0.00     0.049 A 
ATOM     16  N   UNL     1      13.541  15.903  -0.676  1.00  0.00    -0.248 NA
ATOM     17  C   UNL     1      14.166  13.824  -1.534  1.00  0.00     0.031 C 
ATOM     18  C   UNL     1       9.648  15.605  -2.852  1.00  0.00     0.029 A 
ATOM     19  N   UNL     1      10.938  16.908  -1.573  1.00  0.00    -0.354 N 
ATOM     20  C   UNL     1      14.786  15.552  -0.172  1.00  0.00     0.074 A 
ATOM     21  C   UNL     1      15.103  14.241  -0.695  1.00  0.00     0.031 C 
ATOM     22  C   UNL     1       8.984  16.755  -2.648  1.00  0.00     0.029 A 
ATOM     23  C   UNL     1       9.797  17.633  -1.811  1.00  0.00     0.049 A 
ATOM     24  H   UNL     1      11.681  17.239  -1.018  1.00  0.00     0.167 HD
ATOM     25  C   UNL     1      15.602  16.266   0.637  1.00  0.00     0.037 A 
ATOM     26  C   UNL     1       9.450  18.869  -1.405  1.00  0.00     0.037 A 
ATOM     27  C   UNL     1      15.322  17.595   1.108  1.00  0.00     0.049 A 
ATOM     28  C   UNL     1      10.397  19.663  -0.549  1.00  0.00     0.074 A 
ATOM     29  C   UNL     1      16.110  18.415   1.896  1.00  0.00     0.029 A 
ATOM     30  N   UNL     1      14.169  18.305   0.814  1.00  0.00    -0.354 N 
ATOM     31  N   UNL     1      11.579  19.325  -0.096  1.00  0.00    -0.248 NA
ATOM     32  C   UNL     1       9.964  21.010  -0.150  1.00  0.00     0.031 C 
ATOM     33  C   UNL     1      15.429  19.621   2.088  1.00  0.00     0.029 A 
ATOM     34  C   UNL     1      14.227  19.557   1.401  1.00  0.00     0.049 A 
ATOM     35  H   UNL     1      13.421  17.971   0.268  1.00  0.00     0.167 HD
ATOM     36  C   UNL     1      12.038  20.419   0.622  1.00  0.00     0.074 A 
ATOM     37  C   UNL     1      11.012  21.438   0.541  1.00  0.00     0.031 C 
ATOM     38  C   UNL     1      13.207  20.564   1.290  1.00  0.00     0.037 A 
BRANCH  25  39
ATOM     39  C   UNL     1      16.892  15.632   1.056  1.00  0.00     0.064 A 
ATOM     40  C   UNL     1      17.981  15.547   0.178  1.00  0.00     0.173 A 
ATOM     41  C   UNL     1      17.058  15.156   2.365  1.00  0.00     0.173 A 
ATOM     42  F   UNL     1      17.862  15.977  -1.087  1.00  0.00    -0.203 F 
ATOM     43  C   UNL     1      19.189  14.995   0.592  1.00  0.00     0.198 A 
ATOM     44  C   UNL     1      18.275  14.623   2.781  1.00  0.00     0.198 A 
ATOM     45  F   UNL     1      16.045  15.220   3.242  1.00  0.00    -0.203 F 
ATOM     46  F   UNL     1      20.210  14.897  -0.272  1.00  0.00    -0.200 F 
ATOM     47  C   UNL     1      19.338  14.540   1.894  1.00  0.00     0.200 A 
ATOM     48  F   UNL     1      18.420  14.191   4.041  1.00  0.00    -0.200 F 
ATOM     49  F   UNL     1      20.506  14.018   2.293  1.00  0.00    -0.200 F 
ENDBRANCH  25  39
BRANCH  26  50
ATOM     50  C   UNL     1       8.162  19.452  -1.849  1.00  0.00     0.064 A 
ATOM     51  C   UNL     1       8.132  20.432  -2.851  1.00  0.00     0.173 A 
ATOM     52  C   UNL     1       6.942  19.038  -1.299  1.00  0.00     0.173 A 
ATOM     53  F   UNL     1       9.279  20.871  -3.391  1.00  0.00    -0.203 F 
ATOM     54  C   UNL     1       6.928  20.982  -3.282  1.00  0.00     0.198 A 
ATOM     55  C   UNL     1       5.736  19.577  -1.742  1.00  0.00     0.198 A 
ATOM     56  F   UNL     1       6.922  18.101  -0.340  1.00  0.00    -0.203 F 
ATOM     57  F   UNL     1       6.928  21.936  -4.223  1.00  0.00    -0.200 F 
ATOM     58  C   UNL     1       5.730  20.551  -2.731  1.00  0.00     0.200 A 
ATOM     59  F   UNL     1       4.580  19.153  -1.214  1.00  0.00    -0.200 F 
ATOM     60  F   UNL     1       4.571  21.077  -3.148  1.00  0.00    -0.200 F 
ENDBRANCH  26  50
BRANCH  38  61
ATOM     61  C   UNL     1      13.463  21.876   1.963  1.00  0.00     0.064 A 
ATOM     62  C   UNL     1      12.898  22.174   3.210  1.00  0.00     0.173 A 
ATOM     63  C   UNL     1      14.348  22.803   1.395  1.00  0.00     0.173 A 
ATOM     64  F   UNL     1      12.039  21.318   3.783  1.00  0.00    -0.203 F 
ATOM     65  C   UNL     1      13.211  23.360   3.866  1.00  0.00     0.198 A 
ATOM     66  C   UNL     1      14.669  23.982   2.061  1.00  0.00     0.198 A 
ATOM     67  F   UNL     1      14.914  22.555   0.204  1.00  0.00    -0.203 F 
ATOM     68  F   UNL     1      12.652  23.635   5.053  1.00  0.00    -0.200 F 
ATOM     69  C   UNL     1      14.101  24.259   3.296  1.00  0.00     0.200 A 
ATOM     70  F   UNL     1      15.534  24.846   1.512  1.00  0.00    -0.200 F 
ATOM     71  F   UNL     1      14.412  25.394   3.937  1.00  0.00    -0.200 F 
ENDBRANCH  38  61
ENDBRANCH  12  13
ENDBRANCH   5   7
ENDBRANCH   2   3
ENDBRANCH   1   2
BRANCH   1  72
ATOM     72  C   UNL     1       7.679   7.195  -4.692  1.00  0.00     0.117 C 
BRANCH  72  73
ATOM     73  N   UNL     1       8.053   6.033  -3.910  1.00  0.00    -0.356 N 
ATOM     74  C   UNL     1       7.273   5.051  -3.374  1.00  0.00     0.223 C 
ATOM     75  H   UNL     1       9.018   5.939  -3.739  1.00  0.00     0.163 HD
ATOM     76  O   UNL     1       7.779   4.185  -2.668  1.00  0.00    -0.275 OA
BRANCH  74  77
ATOM     77  C   UNL     1       5.825   4.997  -3.689  1.00  0.00     0.091 C 
ATOM     78  C   UNL     1       5.309   5.041  -5.104  1.00  0.00     0.028 C 
ATOM     79  C   UNL     1       5.357   3.722  -4.376  1.00  0.00     0.092 C 
BRANCH  79  80
ATOM     80  C   UNL     1       4.064   3.062  -4.090  1.00  0.00     0.228 C 
ATOM     81  O   UNL     1       3.539   3.177  -2.987  1.00  0.00    -0.274 OA
ATOM     82  N   UNL     1       3.396   2.471  -5.141  1.00  0.00    -0.326 N 
ATOM     83  H   UNL     1       2.456   2.237  -4.964  1.00  0.00     0.169 HD
BRANCH  82  84
ATOM     84  C   UNL     1       3.864   2.155  -6.429  1.00  0.00     0.042 A 
ATOM     85  C   UNL     1       5.170   1.728  -6.683  1.00  0.00     0.028 A 
ATOM     86  C   UNL     1       2.963   2.243  -7.493  1.00  0.00     0.043 A 
ATOM     87  C   UNL     1       5.597   1.477  -7.989  1.00  0.00     0.024 A 
ATOM     88  C   UNL     1       3.390   2.003  -8.807  1.00  0.00     0.038 A 
ATOM     89  C   UNL     1       4.715   1.631  -9.058  1.00  0.00     0.055 A 
ATOM     90  Br  UNL     1       2.114   2.228 -10.196  1.00  0.00    -0.049 Br
ATOM     91  Cl  UNL     1       5.326   1.336 -10.645  1.00  0.00    -0.083 Cl
ENDBRANCH  82  84
ENDBRANCH  79  80
ENDBRANCH  74  77
ENDBRANCH  72  73
ENDBRANCH   1  72
TORSDOF 12
