REMARK SMILES CCc1nn(-c2ccncn2)c(Cl)c1C(=O)NCCCNC(=O)c1ccc(-c2c3nc(c(-c4c(F)c(F)c(F)c(F)c4F)c4ccc([nH]4)c(-c4c(F)c(F)c(F)c(F)c4F)c4nc(c(-c5c(F)c(F)c(F)c(F)c5F)c5ccc2[nH]5)C=C4)C=C3)cc1
REMARK SMILES IDX 19 1 18 2 17 3 15 4 16 5 14 7 3 8 4 9 5 10 12 11 13 12 2 13
REMARK SMILES IDX 1 14 6 15 7 16 11 17 8 18 10 19 9 20 20 21 21 22 22 23 23 25
REMARK SMILES IDX 24 26 25 27 86 28 26 29 85 30 27 31 28 32 29 33 79 34 30 35
REMARK SMILES IDX 84 36 78 37 80 38 31 39 83 40 77 41 76 42 32 44 64 45 44 46
REMARK SMILES IDX 63 47 45 48 48 49 62 50 81 51 46 52 47 53 61 55 82 56 49 57
REMARK SMILES IDX 33 58 34 59 42 60 35 61 36 62 40 63 43 64 37 65 38 66 41 67
REMARK SMILES IDX 39 68 65 69 66 70 74 71 67 72 68 73 72 74 75 75 69 76 70 77
REMARK SMILES IDX 73 78 71 79 50 80 51 81 59 82 52 83 53 84 57 85 60 86 54 87
REMARK SMILES IDX 55 88 58 89 56 90
REMARK H PARENT 17 6 21 24 80 43 48 54
REMARK Flexibility Score: inf
ROOT
ATOM      1  C   UNL     1       0.422  -1.614  -2.641  1.00  0.00     0.042 C 
ENDROOT
BRANCH   1   2
ATOM      2  C   UNL     1      -0.707  -2.373  -1.932  1.00  0.00     0.118 C 
BRANCH   2   3
ATOM      3  N   UNL     1      -0.356  -3.750  -1.683  1.00  0.00    -0.352 N 
ATOM      4  C   UNL     1       0.280  -4.429  -0.683  1.00  0.00     0.256 C 
ATOM      5  O   UNL     1       0.354  -5.641  -0.915  1.00  0.00    -0.269 OA
ATOM      6  H   UNL     1      -0.645  -4.345  -2.412  1.00  0.00     0.163 HD
BRANCH   4   7
ATOM      7  C   UNL     1       0.834  -3.862   0.552  1.00  0.00     0.100 A 
ATOM      8  C   UNL     1       1.134  -2.556   1.085  1.00  0.00     0.077 A 
ATOM      9  N   UNL     1       1.606  -2.608   2.339  1.00  0.00    -0.169 NA
ATOM     10  N   UNL     1       1.761  -3.925   2.610  1.00  0.00    -0.203 N 
ATOM     11  C   UNL     1       1.231  -4.687   1.598  1.00  0.00     0.147 A 
ATOM     12  Cl  UNL     1       0.989  -6.376   1.834  1.00  0.00    -0.061 Cl
BRANCH   8  13
ATOM     13  C   UNL     1       0.989  -1.202   0.471  1.00  0.00     0.056 C 
ATOM     14  C   UNL     1       1.686  -0.018   1.118  1.00  0.00     0.011 C 
ENDBRANCH   8  13
BRANCH  10  15
ATOM     15  C   UNL     1       2.397  -4.345   3.818  1.00  0.00     0.158 A 
ATOM     16  C   UNL     1       3.256  -5.429   3.791  1.00  0.00     0.069 A 
ATOM     17  N   UNL     1       2.110  -3.668   4.955  1.00  0.00    -0.217 NA
ATOM     18  C   UNL     1       3.754  -5.833   5.007  1.00  0.00     0.117 A 
ATOM     19  C   UNL     1       2.632  -4.170   6.081  1.00  0.00     0.224 A 
ATOM     20  N   UNL     1       3.443  -5.235   6.169  1.00  0.00    -0.245 NA
ENDBRANCH  10  15
ENDBRANCH   4   7
ENDBRANCH   2   3
ENDBRANCH   1   2
BRANCH   1  21
ATOM     21  C   UNL     1       0.244  -1.554  -4.140  1.00  0.00     0.118 C 
BRANCH  21  22
ATOM     22  N   UNL     1      -0.889  -0.699  -4.511  1.00  0.00    -0.352 N 
ATOM     23  C   UNL     1      -1.510  -0.557  -5.741  1.00  0.00     0.251 C 
ATOM     24  H   UNL     1      -1.260  -0.148  -3.784  1.00  0.00     0.163 HD
ATOM     25  O   UNL     1      -2.185   0.419  -6.002  1.00  0.00    -0.269 OA
BRANCH  23  26
ATOM     26  C   UNL     1      -1.323  -1.636  -6.723  1.00  0.00     0.039 A 
ATOM     27  C   UNL     1      -1.088  -1.382  -8.073  1.00  0.00     0.014 A 
ATOM     28  C   UNL     1      -1.271  -2.926  -6.214  1.00  0.00     0.014 A 
ATOM     29  C   UNL     1      -0.720  -2.452  -8.881  1.00  0.00     0.010 A 
ATOM     30  C   UNL     1      -0.615  -3.884  -6.925  1.00  0.00     0.010 A 
ATOM     31  C   UNL     1      -0.455  -3.699  -8.283  1.00  0.00    -0.014 A 
BRANCH  31  32
ATOM     32  C   UNL     1       0.097  -4.816  -9.030  1.00  0.00     0.031 A 
ATOM     33  C   UNL     1       1.330  -4.454  -9.758  1.00  0.00     0.074 A 
ATOM     34  C   UNL     1      -0.349  -6.088  -8.921  1.00  0.00     0.049 A 
ATOM     35  N   UNL     1       1.412  -4.116 -10.999  1.00  0.00    -0.248 NA
ATOM     36  C   UNL     1       2.568  -4.221  -8.997  1.00  0.00     0.031 C 
ATOM     37  C   UNL     1      -1.319  -6.637  -7.960  1.00  0.00     0.029 A 
ATOM     38  N   UNL     1       0.026  -7.196  -9.624  1.00  0.00    -0.354 N 
ATOM     39  C   UNL     1       2.767  -3.931 -11.241  1.00  0.00     0.074 A 
ATOM     40  C   UNL     1       3.376  -3.748  -9.952  1.00  0.00     0.031 C 
ATOM     41  C   UNL     1      -1.288  -7.988  -7.991  1.00  0.00     0.029 A 
ATOM     42  C   UNL     1      -0.459  -8.396  -9.107  1.00  0.00     0.049 A 
ATOM     43  H   UNL     1       0.591  -7.151 -10.428  1.00  0.00     0.167 HD
ATOM     44  C   UNL     1       3.284  -4.327 -12.438  1.00  0.00     0.037 A 
ATOM     45  C   UNL     1      -0.221  -9.639  -9.593  1.00  0.00     0.037 A 
ATOM     46  C   UNL     1       2.210  -4.639 -13.354  1.00  0.00     0.049 A 
ATOM     47  C   UNL     1       0.161  -9.482 -11.014  1.00  0.00     0.074 A 
ATOM     48  C   UNL     1       1.308  -3.942 -14.126  1.00  0.00     0.029 A 
ATOM     49  N   UNL     1       1.705  -5.901 -13.179  1.00  0.00    -0.354 N 
ATOM     50  N   UNL     1      -0.665  -9.056 -11.930  1.00  0.00    -0.248 NA
ATOM     51  C   UNL     1       1.575  -9.430 -11.367  1.00  0.00     0.031 C 
ATOM     52  C   UNL     1       0.184  -4.805 -14.312  1.00  0.00     0.029 A 
ATOM     53  C   UNL     1       0.448  -6.029 -13.703  1.00  0.00     0.049 A 
ATOM     54  H   UNL     1       2.189  -6.630 -12.728  1.00  0.00     0.167 HD
ATOM     55  C   UNL     1       0.126  -8.298 -12.768  1.00  0.00     0.074 A 
ATOM     56  C   UNL     1       1.497  -8.704 -12.486  1.00  0.00     0.031 C 
ATOM     57  C   UNL     1      -0.367  -7.170 -13.356  1.00  0.00     0.037 A 
BRANCH  44  58
ATOM     58  C   UNL     1       4.651  -4.949 -12.643  1.00  0.00     0.064 A 
ATOM     59  C   UNL     1       5.055  -5.257 -13.961  1.00  0.00     0.173 A 
ATOM     60  C   UNL     1       5.427  -5.540 -11.624  1.00  0.00     0.173 A 
ATOM     61  F   UNL     1       4.386  -4.763 -15.014  1.00  0.00    -0.203 F 
ATOM     62  C   UNL     1       6.099  -6.147 -14.229  1.00  0.00     0.198 A 
ATOM     63  C   UNL     1       6.498  -6.390 -11.896  1.00  0.00     0.198 A 
ATOM     64  F   UNL     1       5.126  -5.418 -10.328  1.00  0.00    -0.203 F 
ATOM     65  F   UNL     1       6.366  -6.499 -15.494  1.00  0.00    -0.200 F 
ATOM     66  C   UNL     1       6.816  -6.719 -13.196  1.00  0.00     0.200 A 
ATOM     67  F   UNL     1       7.165  -6.953 -10.877  1.00  0.00    -0.200 F 
ATOM     68  F   UNL     1       7.777  -7.617 -13.445  1.00  0.00    -0.200 F 
ENDBRANCH  44  58
BRANCH  45  69
ATOM     69  C   UNL     1      -0.062 -10.925  -8.879  1.00  0.00     0.064 A 
ATOM     70  C   UNL     1      -0.208 -12.153  -9.545  1.00  0.00     0.173 A 
ATOM     71  C   UNL     1       0.557 -10.963  -7.616  1.00  0.00     0.173 A 
ATOM     72  F   UNL     1      -0.755 -12.195 -10.768  1.00  0.00    -0.203 F 
ATOM     73  C   UNL     1       0.282 -13.345  -9.000  1.00  0.00     0.198 A 
ATOM     74  C   UNL     1       1.049 -12.152  -7.075  1.00  0.00     0.198 A 
ATOM     75  F   UNL     1       0.793  -9.829  -6.940  1.00  0.00    -0.203 F 
ATOM     76  F   UNL     1       0.191 -14.487  -9.697  1.00  0.00    -0.200 F 
ATOM     77  C   UNL     1       0.926 -13.340  -7.774  1.00  0.00     0.200 A 
ATOM     78  F   UNL     1       1.709 -12.130  -5.908  1.00  0.00    -0.200 F 
ATOM     79  F   UNL     1       1.468 -14.466  -7.289  1.00  0.00    -0.200 F 
ENDBRANCH  45  69
BRANCH  57  80
ATOM     80  C   UNL     1      -1.849  -7.074 -13.531  1.00  0.00     0.064 A 
ATOM     81  C   UNL     1      -2.777  -6.942 -12.485  1.00  0.00     0.173 A 
ATOM     82  C   UNL     1      -2.342  -7.053 -14.842  1.00  0.00     0.173 A 
ATOM     83  F   UNL     1      -2.375  -6.887 -11.209  1.00  0.00    -0.203 F 
ATOM     84  C   UNL     1      -4.142  -6.828 -12.748  1.00  0.00     0.198 A 
ATOM     85  C   UNL     1      -3.699  -6.906 -15.102  1.00  0.00     0.198 A 
ATOM     86  F   UNL     1      -1.493  -7.144 -15.878  1.00  0.00    -0.203 F 
ATOM     87  F   UNL     1      -5.016  -6.719 -11.736  1.00  0.00    -0.200 F 
ATOM     88  C   UNL     1      -4.600  -6.804 -14.056  1.00  0.00     0.200 A 
ATOM     89  F   UNL     1      -4.129  -6.846 -16.370  1.00  0.00    -0.200 F 
ATOM     90  F   UNL     1      -5.909  -6.664 -14.311  1.00  0.00    -0.200 F 
ENDBRANCH  57  80
ENDBRANCH  31  32
ENDBRANCH  23  26
ENDBRANCH  21  22
ENDBRANCH   1  21
TORSDOF 12
