REMARK SMILES Cn1cncc1COc1c(F)cc(C(=O)NCCCNC(=O)c2ccc(-c3c4nc(c(-c5c(F)c(F)c(F)c(F)c5F)c5ccc([nH]5)c(-c5c(F)c(F)c(F)c(F)c5F)c5nc(c(-c6c(F)c(F)c(F)c(F)c6F)c6ccc3[nH]6)C=C5)C=C4)cc2)cc1F
REMARK SMILES IDX 17 1 16 2 14 3 15 4 13 6 9 7 10 8 87 9 11 10 12 11 86 12
REMARK SMILES IDX 88 13 8 14 7 15 6 16 1 17 2 18 3 19 4 20 5 21 18 22 19 23
REMARK SMILES IDX 20 24 21 25 22 27 23 28 24 29 85 30 25 31 84 32 26 33 27 34
REMARK SMILES IDX 28 35 78 36 29 37 83 38 77 39 79 40 30 41 82 42 76 43 75 44
REMARK SMILES IDX 31 46 63 47 43 48 62 49 44 50 47 51 61 52 80 53 45 54 46 55
REMARK SMILES IDX 60 57 81 58 48 59 32 60 33 61 41 62 34 63 35 64 39 65 42 66
REMARK SMILES IDX 36 67 37 68 40 69 38 70 64 71 65 72 73 73 66 74 67 75 71 76
REMARK SMILES IDX 74 77 68 78 69 79 72 80 70 81 49 82 50 83 58 84 51 85 52 86
REMARK SMILES IDX 56 87 59 88 53 89 54 90 57 91 55 92
REMARK H PARENT 16 5 20 26 79 45 47 56
REMARK Flexibility Score: inf
ROOT
ATOM      1  C   UNL     1       1.046   1.119   6.006  1.00  0.00     0.118 C 
ENDROOT
BRANCH   1   2
ATOM      2  N   UNL     1       0.963  -0.105   6.786  1.00  0.00    -0.352 N 
ATOM      3  C   UNL     1       0.824  -1.419   6.406  1.00  0.00     0.251 C 
ATOM      4  O   UNL     1       0.972  -2.292   7.258  1.00  0.00    -0.269 OA
ATOM      5  H   UNL     1       1.015   0.031   7.760  1.00  0.00     0.163 HD
BRANCH   3   6
ATOM      6  C   UNL     1       0.522  -1.828   5.009  1.00  0.00     0.045 A 
ATOM      7  C   UNL     1      -0.064  -2.712   2.397  1.00  0.00     0.191 A 
ATOM      8  C   UNL     1      -0.569  -1.511   2.878  1.00  0.00     0.168 A 
ATOM      9  C   UNL     1       0.680  -3.507   3.263  1.00  0.00     0.168 A 
ATOM     10  F   UNL     1      -1.379  -0.751   2.133  1.00  0.00    -0.203 F 
ATOM     11  C   UNL     1      -0.279  -1.068   4.161  1.00  0.00     0.057 A 
ATOM     12  C   UNL     1       0.974  -3.078   4.560  1.00  0.00     0.057 A 
ATOM     13  F   UNL     1       1.121  -4.708   2.862  1.00  0.00    -0.203 F 
BRANCH   7  14
ATOM     14  O   UNL     1      -0.392  -3.154   1.144  1.00  0.00    -0.481 OA
BRANCH  14  15
ATOM     15  C   UNL     1       0.498  -2.652   0.132  1.00  0.00     0.285 C 
BRANCH  15  16
ATOM     16  C   UNL     1       0.014  -1.323  -0.333  1.00  0.00     0.075 A 
ATOM     17  C   UNL     1       2.177  -0.038  -0.112  1.00  0.00     0.151 C 
ATOM     18  N   UNL     1       0.769  -0.176  -0.393  1.00  0.00    -0.335 N 
ATOM     19  C   UNL     1      -0.051   0.847  -0.777  1.00  0.00     0.199 A 
ATOM     20  N   UNL     1      -1.268   0.422  -1.025  1.00  0.00    -0.245 NA
ATOM     21  C   UNL     1      -1.239  -0.921  -0.757  1.00  0.00     0.138 A 
ENDBRANCH  15  16
ENDBRANCH  14  15
ENDBRANCH   7  14
ENDBRANCH   3   6
ENDBRANCH   1   2
BRANCH   1  22
ATOM     22  C   UNL     1      -0.261   1.913   6.021  1.00  0.00     0.042 C 
BRANCH  22  23
ATOM     23  C   UNL     1      -0.501   2.710   7.297  1.00  0.00     0.118 C 
BRANCH  23  24
ATOM     24  N   UNL     1       0.400   3.844   7.417  1.00  0.00    -0.352 N 
ATOM     25  C   UNL     1       0.131   5.185   7.539  1.00  0.00     0.251 C 
ATOM     26  H   UNL     1       1.358   3.614   7.410  1.00  0.00     0.163 HD
ATOM     27  O   UNL     1       1.049   5.991   7.419  1.00  0.00    -0.269 OA
BRANCH  25  28
ATOM     28  C   UNL     1      -1.243   5.675   7.802  1.00  0.00     0.039 A 
ATOM     29  C   UNL     1      -1.653   6.866   7.193  1.00  0.00     0.014 A 
ATOM     30  C   UNL     1      -2.105   5.017   8.683  1.00  0.00     0.014 A 
ATOM     31  C   UNL     1      -2.936   7.368   7.428  1.00  0.00     0.010 A 
ATOM     32  C   UNL     1      -3.409   5.478   8.861  1.00  0.00     0.010 A 
ATOM     33  C   UNL     1      -3.836   6.662   8.242  1.00  0.00    -0.014 A 
BRANCH  33  34
ATOM     34  C   UNL     1      -5.222   7.150   8.460  1.00  0.00     0.031 A 
ATOM     35  C   UNL     1      -5.671   7.572   9.832  1.00  0.00     0.074 A 
ATOM     36  C   UNL     1      -6.092   7.163   7.431  1.00  0.00     0.049 A 
ATOM     37  N   UNL     1      -6.859   7.951  10.234  1.00  0.00    -0.248 NA
ATOM     38  C   UNL     1      -4.659   7.545  10.899  1.00  0.00     0.031 C 
ATOM     39  C   UNL     1      -5.784   6.746   6.063  1.00  0.00     0.029 A 
ATOM     40  N   UNL     1      -7.413   7.532   7.377  1.00  0.00    -0.354 N 
ATOM     41  C   UNL     1      -6.738   8.193  11.596  1.00  0.00     0.074 A 
ATOM     42  C   UNL     1      -5.376   7.875  11.964  1.00  0.00     0.031 C 
ATOM     43  C   UNL     1      -6.876   6.905   5.299  1.00  0.00     0.029 A 
ATOM     44  C   UNL     1      -7.971   7.396   6.129  1.00  0.00     0.049 A 
ATOM     45  H   UNL     1      -7.912   7.863   8.158  1.00  0.00     0.167 HD
ATOM     46  C   UNL     1      -7.675   8.660  12.455  1.00  0.00     0.037 A 
ATOM     47  C   UNL     1      -9.227   7.634   5.704  1.00  0.00     0.037 A 
ATOM     48  C   UNL     1      -9.020   9.006  12.077  1.00  0.00     0.049 A 
ATOM     49  C   UNL     1     -10.250   8.145   6.681  1.00  0.00     0.074 A 
ATOM     50  C   UNL     1     -10.027   9.534  12.867  1.00  0.00     0.029 A 
ATOM     51  N   UNL     1      -9.544   8.863  10.801  1.00  0.00    -0.354 N 
ATOM     52  N   UNL     1     -10.111   8.413   7.957  1.00  0.00    -0.248 NA
ATOM     53  C   UNL     1     -11.603   8.390   6.161  1.00  0.00     0.031 C 
ATOM     54  C   UNL     1     -11.173   9.673  12.079  1.00  0.00     0.029 A 
ATOM     55  C   UNL     1     -10.866   9.278  10.786  1.00  0.00     0.049 A 
ATOM     56  H   UNL     1      -9.051   8.519  10.022  1.00  0.00     0.167 HD
ATOM     57  C   UNL     1     -11.346   8.880   8.386  1.00  0.00     0.074 A 
ATOM     58  C   UNL     1     -12.220   8.872   7.232  1.00  0.00     0.031 C 
ATOM     59  C   UNL     1     -11.720   9.277   9.626  1.00  0.00     0.037 A 
BRANCH  46  60
ATOM     60  C   UNL     1      -7.282   8.846  13.892  1.00  0.00     0.064 A 
ATOM     61  C   UNL     1      -7.835   8.034  14.894  1.00  0.00     0.173 A 
ATOM     62  C   UNL     1      -6.423   9.883  14.286  1.00  0.00     0.173 A 
ATOM     63  F   UNL     1      -8.667   7.033  14.571  1.00  0.00    -0.203 F 
ATOM     64  C   UNL     1      -7.552   8.262  16.238  1.00  0.00     0.198 A 
ATOM     65  C   UNL     1      -6.122  10.091  15.630  1.00  0.00     0.198 A 
ATOM     66  F   UNL     1      -5.862  10.681  13.366  1.00  0.00    -0.203 F 
ATOM     67  F   UNL     1      -8.118   7.495  17.180  1.00  0.00    -0.200 F 
ATOM     68  C   UNL     1      -6.694   9.288  16.604  1.00  0.00     0.200 A 
ATOM     69  F   UNL     1      -5.275  11.069  15.980  1.00  0.00    -0.200 F 
ATOM     70  F   UNL     1      -6.418   9.503  17.898  1.00  0.00    -0.200 F 
ENDBRANCH  46  60
BRANCH  47  71
ATOM     71  C   UNL     1      -9.574   7.420   4.274  1.00  0.00     0.064 A 
ATOM     72  C   UNL     1      -9.631   6.134   3.719  1.00  0.00     0.173 A 
ATOM     73  C   UNL     1      -9.834   8.508   3.429  1.00  0.00     0.173 A 
ATOM     74  F   UNL     1      -9.387   5.060   4.484  1.00  0.00    -0.203 F 
ATOM     75  C   UNL     1      -9.920   5.945   2.369  1.00  0.00     0.198 A 
ATOM     76  C   UNL     1     -10.149   8.317   2.086  1.00  0.00     0.198 A 
ATOM     77  F   UNL     1      -9.811   9.756   3.920  1.00  0.00    -0.203 F 
ATOM     78  F   UNL     1      -9.938   4.707   1.856  1.00  0.00    -0.200 F 
ATOM     79  C   UNL     1     -10.183   7.036   1.554  1.00  0.00     0.200 A 
ATOM     80  F   UNL     1     -10.427   9.373   1.309  1.00  0.00    -0.200 F 
ATOM     81  F   UNL     1     -10.476   6.854   0.260  1.00  0.00    -0.200 F 
ENDBRANCH  47  71
BRANCH  59  82
ATOM     82  C   UNL     1     -13.126   9.765   9.806  1.00  0.00     0.064 A 
ATOM     83  C   UNL     1     -13.379  11.123  10.059  1.00  0.00     0.173 A 
ATOM     84  C   UNL     1     -14.214   8.880   9.815  1.00  0.00     0.173 A 
ATOM     85  F   UNL     1     -12.370  12.007  10.070  1.00  0.00    -0.203 F 
ATOM     86  C   UNL     1     -14.668  11.573  10.329  1.00  0.00     0.198 A 
ATOM     87  C   UNL     1     -15.505   9.339  10.058  1.00  0.00     0.198 A 
ATOM     88  F   UNL     1     -14.024   7.576   9.567  1.00  0.00    -0.203 F 
ATOM     89  F   UNL     1     -14.880  12.867  10.604  1.00  0.00    -0.200 F 
ATOM     90  C   UNL     1     -15.730  10.681  10.326  1.00  0.00     0.200 A 
ATOM     91  F   UNL     1     -16.535   8.481  10.033  1.00  0.00    -0.200 F 
ATOM     92  F   UNL     1     -16.971  11.117  10.580  1.00  0.00    -0.200 F 
ENDBRANCH  59  82
ENDBRANCH  33  34
ENDBRANCH  25  28
ENDBRANCH  23  24
ENDBRANCH  22  23
ENDBRANCH   1  22
TORSDOF 13
