REMARK SMILES C[C@H]1[C@H](C(=O)NCCCNC(=O)c2ccc(-c3c4nc(c(-c5c(F)c(F)c(F)c(F)c5F)c5ccc([nH]5)c(-c5c(F)c(F)c(F)c(F)c5F)c5nc(c(-c6c(F)c(F)c(F)c(F)c6F)c6ccc3[nH]6)C=C5)C=C4)cc2)CC[N@@H+]1Cc1cnn(-c2ccccc2)c1
REMARK SMILES IDX 7 1 6 2 4 3 5 4 3 6 1 7 2 8 78 9 76 10 77 11 79 13 80 14
REMARK SMILES IDX 81 15 90 16 82 17 83 18 84 19 85 20 89 21 86 22 88 23 87 24
REMARK SMILES IDX 8 25 9 26 10 27 11 28 12 30 13 31 14 32 75 33 15 34 74 35
REMARK SMILES IDX 16 36 17 37 18 38 68 39 19 40 73 41 67 42 69 43 20 44 72 45
REMARK SMILES IDX 66 46 65 47 21 49 53 50 33 51 52 52 34 53 37 54 51 55 70 56
REMARK SMILES IDX 35 57 36 58 50 60 71 61 38 62 22 63 23 64 31 65 24 66 25 67
REMARK SMILES IDX 29 68 32 69 26 70 27 71 30 72 28 73 54 74 55 75 63 76 56 77
REMARK SMILES IDX 57 78 61 79 64 80 58 81 59 82 62 83 60 84 39 85 40 86 48 87
REMARK SMILES IDX 41 88 42 89 46 90 49 91 43 92 44 93 47 94 45 95
REMARK H PARENT 6 5 78 12 10 29 69 48 37 59
REMARK Flexibility Score: inf
ROOT
ATOM      1  C   UNL     1       0.520   1.220   3.186  1.00  0.00     0.117 C 
ENDROOT
BRANCH   1   2
ATOM      2  N   UNL     1       1.147   2.086   2.223  1.00  0.00    -0.356 N 
ATOM      3  C   UNL     1       0.840   2.277   0.916  1.00  0.00     0.229 C 
ATOM      4  O   UNL     1       1.027   3.417   0.476  1.00  0.00    -0.275 OA
ATOM      5  H   UNL     1       1.906   2.615   2.560  1.00  0.00     0.163 HD
BRANCH   3   6
ATOM      6  C   UNL     1       0.328   1.190  -0.018  1.00  0.00     0.142 C 
ATOM      7  C   UNL     1       1.563  -0.901  -0.582  1.00  0.00     0.076 C 
ATOM      8  C   UNL     1       0.489  -0.296   0.345  1.00  0.00     0.193 C 
ATOM      9  N   UNL     1      -0.813  -0.937   0.063  1.00  0.00    -0.328 N 
ATOM     10  C   UNL     1      -1.130   1.347  -0.424  1.00  0.00     0.081 C 
ATOM     11  C   UNL     1      -1.514  -0.059  -0.866  1.00  0.00     0.263 C 
ATOM     12  H   UNL     1      -0.629  -1.844  -0.366  1.00  0.00     0.348 HD
BRANCH   9  13
ATOM     13  C   UNL     1      -1.598  -1.508   1.177  1.00  0.00     0.302 C 
BRANCH  13  14
ATOM     14  C   UNL     1      -2.503  -0.594   1.970  1.00  0.00     0.045 A 
ATOM     15  C   UNL     1      -3.500   0.316   1.547  1.00  0.00     0.145 A 
ATOM     16  C   UNL     1      -2.675  -0.552   3.347  1.00  0.00     0.124 A 
ATOM     17  N   UNL     1      -3.960   1.098   2.524  1.00  0.00    -0.176 NA
ATOM     18  N   UNL     1      -3.437   0.567   3.644  1.00  0.00    -0.240 N 
BRANCH  18  19
ATOM     19  C   UNL     1      -3.356   1.331   4.831  1.00  0.00     0.065 A 
ATOM     20  C   UNL     1      -4.017   0.916   5.986  1.00  0.00     0.028 A 
ATOM     21  C   UNL     1      -2.514   2.452   4.858  1.00  0.00     0.028 A 
ATOM     22  C   UNL     1      -3.792   1.600   7.186  1.00  0.00     0.002 A 
ATOM     23  C   UNL     1      -2.255   3.095   6.070  1.00  0.00     0.002 A 
ATOM     24  C   UNL     1      -2.890   2.666   7.235  1.00  0.00     0.000 A 
ENDBRANCH  18  19
ENDBRANCH  13  14
ENDBRANCH   9  13
ENDBRANCH   3   6
ENDBRANCH   1   2
BRANCH   1  25
ATOM     25  C   UNL     1       1.491   0.345   3.978  1.00  0.00     0.042 C 
BRANCH  25  26
ATOM     26  C   UNL     1       1.127   0.334   5.463  1.00  0.00     0.118 C 
BRANCH  26  27
ATOM     27  N   UNL     1      -0.248  -0.083   5.693  1.00  0.00    -0.352 N 
ATOM     28  C   UNL     1      -0.917  -0.555   6.789  1.00  0.00     0.251 C 
ATOM     29  H   UNL     1      -0.815  -0.010   4.891  1.00  0.00     0.163 HD
ATOM     30  O   UNL     1      -2.023  -1.074   6.634  1.00  0.00    -0.269 OA
BRANCH  28  31
ATOM     31  C   UNL     1      -0.308  -0.566   8.127  1.00  0.00     0.039 A 
ATOM     32  C   UNL     1      -0.776  -1.518   9.041  1.00  0.00     0.014 A 
ATOM     33  C   UNL     1       0.788   0.229   8.442  1.00  0.00     0.014 A 
ATOM     34  C   UNL     1      -0.009  -1.829  10.153  1.00  0.00     0.010 A 
ATOM     35  C   UNL     1       1.623  -0.168   9.463  1.00  0.00     0.010 A 
ATOM     36  C   UNL     1       1.255  -1.244  10.278  1.00  0.00    -0.014 A 
BRANCH  36  37
ATOM     37  C   UNL     1       2.280  -1.844  11.145  1.00  0.00     0.031 A 
ATOM     38  C   UNL     1       2.878  -1.038  12.248  1.00  0.00     0.074 A 
ATOM     39  C   UNL     1       2.747  -3.061  10.803  1.00  0.00     0.049 A 
ATOM     40  N   UNL     1       3.855  -1.348  13.054  1.00  0.00    -0.248 NA
ATOM     41  C   UNL     1       2.345   0.322  12.433  1.00  0.00     0.031 C 
ATOM     42  C   UNL     1       2.294  -3.850   9.649  1.00  0.00     0.029 A 
ATOM     43  N   UNL     1       3.709  -3.846  11.374  1.00  0.00    -0.354 N 
ATOM     44  C   UNL     1       4.061  -0.220  13.833  1.00  0.00     0.074 A 
ATOM     45  C   UNL     1       3.167   0.808  13.350  1.00  0.00     0.031 C 
ATOM     46  C   UNL     1       2.944  -5.022   9.628  1.00  0.00     0.029 A 
ATOM     47  C   UNL     1       3.881  -5.053  10.740  1.00  0.00     0.049 A 
ATOM     48  H   UNL     1       4.230  -3.573  12.164  1.00  0.00     0.167 HD
ATOM     49  C   UNL     1       4.902  -0.080  14.882  1.00  0.00     0.037 A 
ATOM     50  C   UNL     1       4.704  -6.072  11.043  1.00  0.00     0.037 A 
ATOM     51  C   UNL     1       5.766  -1.135  15.336  1.00  0.00     0.049 A 
ATOM     52  C   UNL     1       5.572  -5.920  12.258  1.00  0.00     0.074 A 
ATOM     53  C   UNL     1       6.637  -1.147  16.407  1.00  0.00     0.029 A 
ATOM     54  N   UNL     1       5.857  -2.383  14.727  1.00  0.00    -0.354 N 
ATOM     55  N   UNL     1       5.702  -4.881  13.051  1.00  0.00    -0.248 NA
ATOM     56  C   UNL     1       6.391  -7.075  12.635  1.00  0.00     0.031 C 
ATOM     57  C   UNL     1       7.274  -2.394  16.432  1.00  0.00     0.029 A 
ATOM     58  C   UNL     1       6.772  -3.174  15.399  1.00  0.00     0.049 A 
ATOM     59  H   UNL     1       5.345  -2.663  13.934  1.00  0.00     0.167 HD
ATOM     60  C   UNL     1       6.605  -5.259  14.030  1.00  0.00     0.074 A 
ATOM     61  C   UNL     1       6.969  -6.635  13.744  1.00  0.00     0.031 C 
ATOM     62  C   UNL     1       7.099  -4.539  15.068  1.00  0.00     0.037 A 
BRANCH  49  63
ATOM     63  C   UNL     1       4.894   1.244  15.588  1.00  0.00     0.064 A 
ATOM     64  C   UNL     1       3.770   1.680  16.311  1.00  0.00     0.173 A 
ATOM     65  C   UNL     1       5.995   2.108  15.509  1.00  0.00     0.173 A 
ATOM     66  F   UNL     1       2.680   0.902  16.397  1.00  0.00    -0.203 F 
ATOM     67  C   UNL     1       3.733   2.946  16.888  1.00  0.00     0.198 A 
ATOM     68  C   UNL     1       5.966   3.362  16.115  1.00  0.00     0.198 A 
ATOM     69  F   UNL     1       7.091   1.746  14.827  1.00  0.00    -0.203 F 
ATOM     70  F   UNL     1       2.620   3.366  17.506  1.00  0.00    -0.200 F 
ATOM     71  C   UNL     1       4.832   3.785  16.792  1.00  0.00     0.200 A 
ATOM     72  F   UNL     1       7.030   4.172  16.026  1.00  0.00    -0.200 F 
ATOM     73  F   UNL     1       4.791   5.008  17.338  1.00  0.00    -0.200 F 
ENDBRANCH  49  63
BRANCH  50  74
ATOM     74  C   UNL     1       4.680  -7.318  10.234  1.00  0.00     0.064 A 
ATOM     75  C   UNL     1       4.136  -8.501  10.756  1.00  0.00     0.173 A 
ATOM     76  C   UNL     1       5.156  -7.349   8.915  1.00  0.00     0.173 A 
ATOM     77  F   UNL     1       3.671  -8.525  12.013  1.00  0.00    -0.203 F 
ATOM     78  C   UNL     1       4.091  -9.671   9.999  1.00  0.00     0.198 A 
ATOM     79  C   UNL     1       5.086  -8.513   8.150  1.00  0.00     0.198 A 
ATOM     80  F   UNL     1       5.667  -6.241   8.359  1.00  0.00    -0.203 F 
ATOM     81  F   UNL     1       3.598 -10.795  10.536  1.00  0.00    -0.200 F 
ATOM     82  C   UNL     1       4.561  -9.675   8.695  1.00  0.00     0.200 A 
ATOM     83  F   UNL     1       5.523  -8.507   6.883  1.00  0.00    -0.200 F 
ATOM     84  F   UNL     1       4.509 -10.797   7.964  1.00  0.00    -0.200 F 
ENDBRANCH  50  74
BRANCH  62  85
ATOM     85  C   UNL     1       8.073  -5.243  15.960  1.00  0.00     0.064 A 
ATOM     86  C   UNL     1       9.384  -5.508  15.540  1.00  0.00     0.173 A 
ATOM     87  C   UNL     1       7.698  -5.627  17.254  1.00  0.00     0.173 A 
ATOM     88  F   UNL     1       9.778  -5.173  14.302  1.00  0.00    -0.203 F 
ATOM     89  C   UNL     1      10.281  -6.158  16.381  1.00  0.00     0.198 A 
ATOM     90  C   UNL     1       8.606  -6.251  18.102  1.00  0.00     0.198 A 
ATOM     91  F   UNL     1       6.454  -5.389  17.697  1.00  0.00    -0.203 F 
ATOM     92  F   UNL     1      11.515  -6.446  15.945  1.00  0.00    -0.200 F 
ATOM     93  C   UNL     1       9.893  -6.522  17.662  1.00  0.00     0.200 A 
ATOM     94  F   UNL     1       8.235  -6.593  19.343  1.00  0.00    -0.200 F 
ATOM     95  F   UNL     1      10.761  -7.144  18.473  1.00  0.00    -0.200 F 
ENDBRANCH  62  85
ENDBRANCH  36  37
ENDBRANCH  28  31
ENDBRANCH  26  27
ENDBRANCH  25  26
ENDBRANCH   1  25
TORSDOF 13
