REMARK SMILES Cc1nc([C@]2(C)CCCO2)nc(C)c1C(=O)NCCCNC(=O)c1ccc(-c2c3nc(c(-c4c(F)c(F)c(F)c(F)c4F)c4ccc([nH]4)c(-c4c(F)c(F)c(F)c(F)c4F)c4nc(c(-c5c(F)c(F)c(F)c(F)c5F)c5ccc2[nH]5)C=C4)C=C3)cc1
REMARK SMILES IDX 19 1 18 2 17 3 15 4 16 5 14 7 1 8 2 9 3 10 4 11 12 12 11 13
REMARK SMILES IDX 13 14 5 15 7 16 10 17 6 18 8 19 9 20 20 21 21 22 22 23 23 25
REMARK SMILES IDX 24 26 25 27 86 28 26 29 85 30 27 31 28 32 29 33 79 34 30 35
REMARK SMILES IDX 84 36 78 37 80 38 31 39 83 40 77 41 76 42 32 44 64 45 44 46
REMARK SMILES IDX 63 47 45 48 48 49 62 50 81 51 46 52 47 53 61 55 82 56 49 57
REMARK SMILES IDX 33 58 34 59 42 60 35 61 36 62 40 63 43 64 37 65 38 66 41 67
REMARK SMILES IDX 39 68 65 69 66 70 74 71 67 72 68 73 72 74 75 75 69 76 70 77
REMARK SMILES IDX 73 78 71 79 50 80 51 81 59 82 52 83 53 84 57 85 60 86 54 87
REMARK SMILES IDX 55 88 58 89 56 90
REMARK H PARENT 17 6 21 24 80 43 48 54
REMARK Flexibility Score: inf
ROOT
ATOM      1  C   UNL     1      -5.868  -6.316   2.910  1.00  0.00     0.042 C 
ENDROOT
BRANCH   1   2
ATOM      2  C   UNL     1      -6.226  -5.207   1.918  1.00  0.00     0.118 C 
BRANCH   2   3
ATOM      3  N   UNL     1      -5.939  -3.920   2.506  1.00  0.00    -0.352 N 
ATOM      4  C   UNL     1      -4.876  -3.062   2.531  1.00  0.00     0.254 C 
ATOM      5  O   UNL     1      -5.029  -2.147   3.347  1.00  0.00    -0.269 OA
ATOM      6  H   UNL     1      -6.703  -3.573   3.020  1.00  0.00     0.163 HD
BRANCH   4   7
ATOM      7  C   UNL     1      -3.635  -3.086   1.689  1.00  0.00     0.082 A 
ATOM      8  C   UNL     1      -3.180  -5.630   1.419  1.00  0.00     0.068 C 
ATOM      9  C   UNL     1      -2.924  -4.180   1.204  1.00  0.00     0.054 A 
ATOM     10  N   UNL     1      -1.766  -4.051   0.511  1.00  0.00    -0.234 NA
ATOM     11  C   UNL     1      -1.203  -2.849   0.366  1.00  0.00     0.160 A 
ATOM     12  C   UNL     1      -2.998  -1.852   1.429  1.00  0.00     0.054 A 
ATOM     13  N   UNL     1      -1.804  -1.732   0.780  1.00  0.00    -0.234 NA
ATOM     14  C   UNL     1      -3.528  -0.517   1.884  1.00  0.00     0.068 C 
BRANCH  11  15
ATOM     15  C   UNL     1       0.226  -2.817  -0.192  1.00  0.00     0.125 C 
ATOM     16  C   UNL     1       0.314  -3.432  -1.589  1.00  0.00     0.046 C 
ATOM     17  O   UNL     1       1.086  -3.667   0.616  1.00  0.00    -0.367 OA
ATOM     18  C   UNL     1       0.821  -1.409  -0.155  1.00  0.00     0.051 C 
ATOM     19  C   UNL     1       0.447  -4.917  -1.323  1.00  0.00     0.032 C 
ATOM     20  C   UNL     1       1.078  -4.989   0.055  1.00  0.00     0.161 C 
ENDBRANCH  11  15
ENDBRANCH   4   7
ENDBRANCH   2   3
ENDBRANCH   1   2
BRANCH   1  21
ATOM     21  C   UNL     1      -7.012  -6.697   3.836  1.00  0.00     0.118 C 
BRANCH  21  22
ATOM     22  N   UNL     1      -8.037  -7.447   3.129  1.00  0.00    -0.352 N 
ATOM     23  C   UNL     1      -8.471  -8.729   3.334  1.00  0.00     0.251 C 
ATOM     24  H   UNL     1      -8.484  -6.964   2.397  1.00  0.00     0.163 HD
ATOM     25  O   UNL     1      -9.149  -9.288   2.467  1.00  0.00    -0.269 OA
BRANCH  23  26
ATOM     26  C   UNL     1      -8.129  -9.451   4.577  1.00  0.00     0.039 A 
ATOM     27  C   UNL     1      -7.845 -10.818   4.513  1.00  0.00     0.014 A 
ATOM     28  C   UNL     1      -8.123  -8.792   5.810  1.00  0.00     0.014 A 
ATOM     29  C   UNL     1      -7.511 -11.512   5.677  1.00  0.00     0.010 A 
ATOM     30  C   UNL     1      -7.702  -9.462   6.952  1.00  0.00     0.010 A 
ATOM     31  C   UNL     1      -7.410 -10.832   6.901  1.00  0.00    -0.014 A 
BRANCH  31  32
ATOM     32  C   UNL     1      -7.028 -11.536   8.150  1.00  0.00     0.031 A 
ATOM     33  C   UNL     1      -7.997 -11.596   9.298  1.00  0.00     0.074 A 
ATOM     34  C   UNL     1      -5.789 -12.048   8.273  1.00  0.00     0.049 A 
ATOM     35  N   UNL     1      -7.823 -12.067  10.507  1.00  0.00    -0.248 NA
ATOM     36  C   UNL     1      -9.331 -11.017   9.068  1.00  0.00     0.031 C 
ATOM     37  C   UNL     1      -4.750 -12.004   7.244  1.00  0.00     0.029 A 
ATOM     38  N   UNL     1      -5.188 -12.693   9.325  1.00  0.00    -0.354 N 
ATOM     39  C   UNL     1      -9.011 -11.819  11.182  1.00  0.00     0.074 A 
ATOM     40  C   UNL     1      -9.878 -11.107  10.271  1.00  0.00     0.031 C 
ATOM     41  C   UNL     1      -3.646 -12.613   7.707  1.00  0.00     0.029 A 
ATOM     42  C   UNL     1      -3.886 -13.052   9.077  1.00  0.00     0.049 A 
ATOM     43  H   UNL     1      -5.647 -12.881  10.175  1.00  0.00     0.167 HD
ATOM     44  C   UNL     1      -9.355 -12.177  12.442  1.00  0.00     0.037 A 
ATOM     45  C   UNL     1      -2.985 -13.656   9.874  1.00  0.00     0.037 A 
ATOM     46  C   UNL     1      -8.496 -12.917  13.328  1.00  0.00     0.049 A 
ATOM     47  C   UNL     1      -3.394 -14.049  11.268  1.00  0.00     0.074 A 
ATOM     48  C   UNL     1      -8.768 -13.390  14.599  1.00  0.00     0.029 A 
ATOM     49  N   UNL     1      -7.193 -13.291  13.031  1.00  0.00    -0.354 N 
ATOM     50  N   UNL     1      -4.543 -13.871  11.874  1.00  0.00    -0.248 NA
ATOM     51  C   UNL     1      -2.384 -14.732  12.087  1.00  0.00     0.031 C 
ATOM     52  C   UNL     1      -7.614 -14.008  15.090  1.00  0.00     0.029 A 
ATOM     53  C   UNL     1      -6.641 -13.970  14.104  1.00  0.00     0.049 A 
ATOM     54  H   UNL     1      -6.730 -13.101  12.183  1.00  0.00     0.167 HD
ATOM     55  C   UNL     1      -4.405 -14.444  13.131  1.00  0.00     0.074 A 
ATOM     56  C   UNL     1      -3.064 -14.988  13.195  1.00  0.00     0.031 C 
ATOM     57  C   UNL     1      -5.306 -14.513  14.141  1.00  0.00     0.037 A 
BRANCH  44  58
ATOM     58  C   UNL     1     -10.717 -11.779  12.934  1.00  0.00     0.064 A 
ATOM     59  C   UNL     1     -11.887 -12.350  12.410  1.00  0.00     0.173 A 
ATOM     60  C   UNL     1     -10.855 -10.838  13.966  1.00  0.00     0.173 A 
ATOM     61  F   UNL     1     -11.814 -13.245  11.413  1.00  0.00    -0.203 F 
ATOM     62  C   UNL     1     -13.143 -11.972  12.878  1.00  0.00     0.198 A 
ATOM     63  C   UNL     1     -12.111 -10.487  14.454  1.00  0.00     0.198 A 
ATOM     64  F   UNL     1      -9.770 -10.263  14.507  1.00  0.00    -0.203 F 
ATOM     65  F   UNL     1     -14.247 -12.492  12.324  1.00  0.00    -0.200 F 
ATOM     66  C   UNL     1     -13.254 -11.047  13.905  1.00  0.00     0.200 A 
ATOM     67  F   UNL     1     -12.215  -9.603  15.457  1.00  0.00    -0.200 F 
ATOM     68  F   UNL     1     -14.462 -10.690  14.360  1.00  0.00    -0.200 F 
ENDBRANCH  44  58
BRANCH  45  69
ATOM     69  C   UNL     1      -1.619 -13.945   9.365  1.00  0.00     0.064 A 
ATOM     70  C   UNL     1      -1.204 -15.263   9.125  1.00  0.00     0.173 A 
ATOM     71  C   UNL     1      -0.703 -12.916   9.102  1.00  0.00     0.173 A 
ATOM     72  F   UNL     1      -2.037 -16.283   9.377  1.00  0.00    -0.203 F 
ATOM     73  C   UNL     1       0.081 -15.541   8.664  1.00  0.00     0.198 A 
ATOM     74  C   UNL     1       0.572 -13.194   8.612  1.00  0.00     0.198 A 
ATOM     75  F   UNL     1      -1.052 -11.637   9.306  1.00  0.00    -0.203 F 
ATOM     76  F   UNL     1       0.466 -16.812   8.487  1.00  0.00    -0.200 F 
ATOM     77  C   UNL     1       0.966 -14.506   8.402  1.00  0.00     0.200 A 
ATOM     78  F   UNL     1       1.418 -12.190   8.343  1.00  0.00    -0.200 F 
ATOM     79  F   UNL     1       2.200 -14.774   7.952  1.00  0.00    -0.200 F 
ENDBRANCH  45  69
BRANCH  57  80
ATOM     80  C   UNL     1      -4.888 -15.233  15.389  1.00  0.00     0.064 A 
ATOM     81  C   UNL     1      -3.954 -14.684  16.279  1.00  0.00     0.173 A 
ATOM     82  C   UNL     1      -5.470 -16.466  15.722  1.00  0.00     0.173 A 
ATOM     83  F   UNL     1      -3.359 -13.515  15.997  1.00  0.00    -0.203 F 
ATOM     84  C   UNL     1      -3.603 -15.353  17.448  1.00  0.00     0.198 A 
ATOM     85  C   UNL     1      -5.140 -17.116  16.907  1.00  0.00     0.198 A 
ATOM     86  F   UNL     1      -6.373 -17.030  14.907  1.00  0.00    -0.203 F 
ATOM     87  F   UNL     1      -2.676 -14.831  18.263  1.00  0.00    -0.200 F 
ATOM     88  C   UNL     1      -4.202 -16.563  17.766  1.00  0.00     0.200 A 
ATOM     89  F   UNL     1      -5.731 -18.277  17.220  1.00  0.00    -0.200 F 
ATOM     90  F   UNL     1      -3.871 -17.199  18.898  1.00  0.00    -0.200 F 
ENDBRANCH  57  80
ENDBRANCH  31  32
ENDBRANCH  23  26
ENDBRANCH  21  22
ENDBRANCH   1  21
TORSDOF 11
