REMARK SMILES CC[C@@H](CNC(=O)NCc1c(C)noc1C)C(=O)NCCCNC(=O)c1ccc(-c2c3nc(c(-c4c(F)c(F)c(F)c(F)c4F)c4ccc([nH]4)c(-c4c(F)c(F)c(F)c(F)c4F)c4nc(c(-c5c(F)c(F)c(F)c(F)c5F)c5ccc2[nH]5)C=C4)C=C3)cc1
REMARK SMILES IDX 20 1 19 2 17 3 18 4 3 6 2 7 1 8 4 9 5 10 6 11 7 13 8 14 9 16
REMARK SMILES IDX 10 17 11 18 15 19 12 20 13 21 14 22 16 23 21 24 22 25 23 26
REMARK SMILES IDX 24 27 25 29 26 30 27 31 88 32 28 33 87 34 29 35 30 36 31 37
REMARK SMILES IDX 81 38 32 39 86 40 80 41 82 42 33 43 85 44 79 45 78 46 34 48
REMARK SMILES IDX 66 49 46 50 65 51 47 52 50 53 64 54 83 55 48 56 49 57 63 59
REMARK SMILES IDX 84 60 51 61 35 62 36 63 44 64 37 65 38 66 42 67 45 68 39 69
REMARK SMILES IDX 40 70 43 71 41 72 67 73 68 74 76 75 69 76 70 77 74 78 77 79
REMARK SMILES IDX 71 80 72 81 75 82 73 83 52 84 53 85 61 86 54 87 55 88 59 89
REMARK SMILES IDX 62 90 56 91 57 92 60 93 58 94
REMARK H PARENT 19 5 5 12 8 15 23 28 82 47 50 58
REMARK Flexibility Score: inf
ROOT
ATOM      1  C   UNL     1      -1.999   0.057  -3.075  1.00  0.00     0.117 C 
ENDROOT
BRANCH   1   2
ATOM      2  N   UNL     1      -0.809   0.328  -3.863  1.00  0.00    -0.356 N 
ATOM      3  C   UNL     1       0.495   0.040  -3.607  1.00  0.00     0.224 C 
ATOM      4  O   UNL     1       1.292   0.138  -4.545  1.00  0.00    -0.275 OA
ATOM      5  H   UNL     1      -0.973   0.793  -4.715  1.00  0.00     0.163 HD
BRANCH   3   6
ATOM      6  C   UNL     1       0.988  -0.393  -2.230  1.00  0.00     0.097 C 
BRANCH   6   7
ATOM      7  C   UNL     1       0.588   0.595  -1.118  1.00  0.00     0.012 C 
ATOM      8  C   UNL     1       1.178   0.272   0.246  1.00  0.00     0.005 C 
ENDBRANCH   6   7
BRANCH   6   9
ATOM      9  C   UNL     1       0.832  -1.901  -1.961  1.00  0.00     0.131 C 
BRANCH   9  10
ATOM     10  N   UNL     1      -0.494  -2.470  -2.059  1.00  0.00    -0.337 N 
ATOM     11  C   UNL     1      -1.215  -2.975  -3.069  1.00  0.00     0.315 C 
ATOM     12  H   UNL     1      -0.970  -2.492  -1.198  1.00  0.00     0.165 HD
ATOM     13  O   UNL     1      -2.420  -3.156  -2.877  1.00  0.00    -0.249 OA
ATOM     14  N   UNL     1      -0.734  -3.244  -4.284  1.00  0.00    -0.334 N 
ATOM     15  H   UNL     1      -1.428  -3.260  -4.982  1.00  0.00     0.165 HD
BRANCH  14  16
ATOM     16  C   UNL     1       0.593  -3.516  -4.791  1.00  0.00     0.159 C 
BRANCH  16  17
ATOM     17  C   UNL     1       1.030  -4.856  -4.319  1.00  0.00     0.037 A 
ATOM     18  C   UNL     1       0.336  -6.099  -4.433  1.00  0.00     0.086 A 
ATOM     19  C   UNL     1       2.198  -5.206  -3.671  1.00  0.00     0.138 A 
ATOM     20  C   UNL     1      -0.996  -6.366  -5.028  1.00  0.00     0.071 C 
ATOM     21  N   UNL     1       1.036  -7.104  -3.896  1.00  0.00    -0.085 NA
ATOM     22  O   UNL     1       2.197  -6.540  -3.417  1.00  0.00    -0.361 OA
ATOM     23  C   UNL     1       3.390  -4.471  -3.208  1.00  0.00     0.091 C 
ENDBRANCH  16  17
ENDBRANCH  14  16
ENDBRANCH   9  10
ENDBRANCH   6   9
ENDBRANCH   3   6
ENDBRANCH   1   2
BRANCH   1  24
ATOM     24  C   UNL     1      -2.844   1.288  -2.813  1.00  0.00     0.042 C 
BRANCH  24  25
ATOM     25  C   UNL     1      -3.558   1.795  -4.056  1.00  0.00     0.118 C 
BRANCH  25  26
ATOM     26  N   UNL     1      -4.484   0.818  -4.621  1.00  0.00    -0.352 N 
ATOM     27  C   UNL     1      -5.852   0.828  -4.735  1.00  0.00     0.251 C 
ATOM     28  H   UNL     1      -4.052   0.011  -4.984  1.00  0.00     0.163 HD
ATOM     29  O   UNL     1      -6.440  -0.184  -5.097  1.00  0.00    -0.269 OA
BRANCH  27  30
ATOM     30  C   UNL     1      -6.623   2.042  -4.400  1.00  0.00     0.039 A 
ATOM     31  C   UNL     1      -7.841   1.903  -3.731  1.00  0.00     0.014 A 
ATOM     32  C   UNL     1      -6.160   3.311  -4.747  1.00  0.00     0.014 A 
ATOM     33  C   UNL     1      -8.549   3.040  -3.341  1.00  0.00     0.010 A 
ATOM     34  C   UNL     1      -6.803   4.441  -4.258  1.00  0.00     0.010 A 
ATOM     35  C   UNL     1      -8.008   4.319  -3.555  1.00  0.00    -0.014 A 
BRANCH  35  36
ATOM     36  C   UNL     1      -8.691   5.535  -3.046  1.00  0.00     0.031 A 
ATOM     37  C   UNL     1      -9.149   6.604  -4.000  1.00  0.00     0.074 A 
ATOM     38  C   UNL     1      -8.848   5.697  -1.717  1.00  0.00     0.049 A 
ATOM     39  N   UNL     1      -9.722   7.753  -3.741  1.00  0.00    -0.248 NA
ATOM     40  C   UNL     1      -8.905   6.369  -5.433  1.00  0.00     0.031 C 
ATOM     41  C   UNL     1      -8.386   4.760  -0.691  1.00  0.00     0.029 A 
ATOM     42  N   UNL     1      -9.434   6.708  -1.000  1.00  0.00    -0.354 N 
ATOM     43  C   UNL     1      -9.902   8.371  -4.971  1.00  0.00     0.074 A 
ATOM     44  C   UNL     1      -9.313   7.508  -5.970  1.00  0.00     0.031 C 
ATOM     45  C   UNL     1      -8.736   5.223   0.519  1.00  0.00     0.029 A 
ATOM     46  C   UNL     1      -9.406   6.508   0.359  1.00  0.00     0.049 A 
ATOM     47  H   UNL     1      -9.837   7.503  -1.419  1.00  0.00     0.167 HD
ATOM     48  C   UNL     1     -10.531   9.539  -5.246  1.00  0.00     0.037 A 
ATOM     49  C   UNL     1      -9.864   7.280   1.363  1.00  0.00     0.037 A 
ATOM     50  C   UNL     1     -11.130  10.385  -4.248  1.00  0.00     0.049 A 
ATOM     51  C   UNL     1     -10.551   8.576   1.028  1.00  0.00     0.074 A 
ATOM     52  C   UNL     1     -11.832  11.565  -4.426  1.00  0.00     0.029 A 
ATOM     53  N   UNL     1     -11.097  10.142  -2.883  1.00  0.00    -0.354 N 
ATOM     54  N   UNL     1     -10.780   9.114  -0.146  1.00  0.00    -0.248 NA
ATOM     55  C   UNL     1     -11.053   9.369   2.158  1.00  0.00     0.031 C 
ATOM     56  C   UNL     1     -12.177  12.062  -3.165  1.00  0.00     0.029 A 
ATOM     57  C   UNL     1     -11.746  11.162  -2.205  1.00  0.00     0.049 A 
ATOM     58  H   UNL     1     -10.675   9.360  -2.458  1.00  0.00     0.167 HD
ATOM     59  C   UNL     1     -11.472  10.291   0.102  1.00  0.00     0.074 A 
ATOM     60  C   UNL     1     -11.651  10.373   1.537  1.00  0.00     0.031 C 
ATOM     61  C   UNL     1     -11.915  11.226  -0.776  1.00  0.00     0.037 A 
BRANCH  48  62
ATOM     62  C   UNL     1     -10.619   9.962  -6.684  1.00  0.00     0.064 A 
ATOM     63  C   UNL     1     -11.418   9.268  -7.606  1.00  0.00     0.173 A 
ATOM     64  C   UNL     1      -9.940  11.104  -7.136  1.00  0.00     0.173 A 
ATOM     65  F   UNL     1     -12.078   8.162  -7.231  1.00  0.00    -0.203 F 
ATOM     66  C   UNL     1     -11.516   9.688  -8.931  1.00  0.00     0.198 A 
ATOM     67  C   UNL     1     -10.066  11.540  -8.453  1.00  0.00     0.198 A 
ATOM     68  F   UNL     1      -9.164  11.807  -6.297  1.00  0.00    -0.203 F 
ATOM     69  F   UNL     1     -12.249   8.982  -9.803  1.00  0.00    -0.200 F 
ATOM     70  C   UNL     1     -10.848  10.828  -9.350  1.00  0.00     0.200 A 
ATOM     71  F   UNL     1      -9.432  12.650  -8.853  1.00  0.00    -0.200 F 
ATOM     72  F   UNL     1     -10.955  11.240 -10.621  1.00  0.00    -0.200 F 
ENDBRANCH  48  62
BRANCH  49  73
ATOM     73  C   UNL     1      -9.698   6.847   2.777  1.00  0.00     0.064 A 
ATOM     74  C   UNL     1     -10.809   6.521   3.569  1.00  0.00     0.173 A 
ATOM     75  C   UNL     1      -8.431   6.774   3.373  1.00  0.00     0.173 A 
ATOM     76  F   UNL     1     -12.044   6.591   3.052  1.00  0.00    -0.203 F 
ATOM     77  C   UNL     1     -10.660   6.175   4.911  1.00  0.00     0.198 A 
ATOM     78  C   UNL     1      -8.281   6.393   4.705  1.00  0.00     0.198 A 
ATOM     79  F   UNL     1      -7.334   7.067   2.659  1.00  0.00    -0.203 F 
ATOM     80  F   UNL     1     -11.743   5.932   5.661  1.00  0.00    -0.200 F 
ATOM     81  C   UNL     1      -9.396   6.107   5.476  1.00  0.00     0.200 A 
ATOM     82  F   UNL     1      -7.056   6.311   5.241  1.00  0.00    -0.200 F 
ATOM     83  F   UNL     1      -9.254   5.777   6.767  1.00  0.00    -0.200 F 
ENDBRANCH  49  73
BRANCH  61  84
ATOM     84  C   UNL     1     -12.660  12.399  -0.207  1.00  0.00     0.064 A 
ATOM     85  C   UNL     1     -12.017  13.376   0.569  1.00  0.00     0.173 A 
ATOM     86  C   UNL     1     -14.032  12.557  -0.455  1.00  0.00     0.173 A 
ATOM     87  F   UNL     1     -10.709  13.264   0.847  1.00  0.00    -0.203 F 
ATOM     88  C   UNL     1     -12.729  14.444   1.109  1.00  0.00     0.198 A 
ATOM     89  C   UNL     1     -14.732  13.647   0.055  1.00  0.00     0.198 A 
ATOM     90  F   UNL     1     -14.694  11.658  -1.199  1.00  0.00    -0.203 F 
ATOM     91  F   UNL     1     -12.106  15.327   1.901  1.00  0.00    -0.200 F 
ATOM     92  C   UNL     1     -14.083  14.582   0.846  1.00  0.00     0.200 A 
ATOM     93  F   UNL     1     -16.037  13.789  -0.215  1.00  0.00    -0.200 F 
ATOM     94  F   UNL     1     -14.765  15.612   1.364  1.00  0.00    -0.200 F 
ENDBRANCH  61  84
ENDBRANCH  35  36
ENDBRANCH  27  30
ENDBRANCH  25  26
ENDBRANCH  24  25
ENDBRANCH   1  24
TORSDOF 15
