REMARK SMILES C[N@H+]1CCO[C@@H](CNc2cccc(F)c2C(=O)NCCCNC(=O)c2ccc(-c3c4nc(c(-c5c(F)c(F)c(F)c(F)c5F)c5ccc([nH]5)c(-c5c(F)c(F)c(F)c(F)c5F)c5nc(c(-c6c(F)c(F)c(F)c(F)c6F)c6ccc3[nH]6)C=C5)C=C4)cc2)C1
REMARK SMILES IDX 19 1 18 2 16 3 17 4 15 6 9 7 10 8 11 9 13 10 12 11 14 12
REMARK SMILES IDX 8 13 7 15 6 16 1 17 2 18 3 19 88 20 4 22 5 23 20 24 21 25
REMARK SMILES IDX 22 26 23 27 24 29 25 30 26 31 87 32 27 33 86 34 28 35 29 36
REMARK SMILES IDX 30 37 80 38 31 39 85 40 79 41 81 42 32 43 84 44 78 45 77 46
REMARK SMILES IDX 33 48 65 49 45 50 64 51 46 52 49 53 63 54 82 55 47 56 48 57
REMARK SMILES IDX 62 59 83 60 50 61 34 62 35 63 43 64 36 65 37 66 41 67 44 68
REMARK SMILES IDX 38 69 39 70 42 71 40 72 66 73 67 74 75 75 68 76 69 77 73 78
REMARK SMILES IDX 76 79 70 80 71 81 74 82 72 83 51 84 52 85 60 86 53 87 54 88
REMARK SMILES IDX 58 89 61 90 55 91 56 92 59 93 57 94
REMARK H PARENT 18 5 8 14 2 21 22 28 81 47 49 58
REMARK Flexibility Score: inf
ROOT
ATOM      1  C   UNL     1       7.913  -2.663  -3.327  1.00  0.00     0.118 C 
ENDROOT
BRANCH   1   2
ATOM      2  N   UNL     1       6.500  -2.581  -3.019  1.00  0.00    -0.352 N 
ATOM      3  C   UNL     1       5.798  -2.080  -1.955  1.00  0.00     0.256 C 
ATOM      4  O   UNL     1       4.579  -2.287  -1.984  1.00  0.00    -0.269 OA
ATOM      5  H   UNL     1       5.925  -2.965  -3.720  1.00  0.00     0.163 HD
BRANCH   3   6
ATOM      6  C   UNL     1       6.371  -1.253  -0.848  1.00  0.00     0.098 A 
ATOM      7  C   UNL     1       5.558  -0.214  -0.305  1.00  0.00     0.050 A 
ATOM      8  C   UNL     1       6.071   0.579   0.735  1.00  0.00     0.027 A 
ATOM      9  C   UNL     1       7.349   0.364   1.248  1.00  0.00     0.005 A 
ATOM     10  C   UNL     1       7.631  -1.472  -0.287  1.00  0.00     0.138 A 
ATOM     11  C   UNL     1       8.129  -0.661   0.732  1.00  0.00     0.040 A 
ATOM     12  F   UNL     1       8.407  -2.494  -0.663  1.00  0.00    -0.206 F 
BRANCH   7  13
ATOM     13  N   UNL     1       4.309   0.045  -0.845  1.00  0.00    -0.381 N 
ATOM     14  H   UNL     1       3.898  -0.683  -1.365  1.00  0.00     0.160 HD
BRANCH  13  15
ATOM     15  C   UNL     1       3.539   1.267  -0.732  1.00  0.00     0.151 C 
BRANCH  15  16
ATOM     16  C   UNL     1       2.646   1.474  -1.976  1.00  0.00     0.192 C 
ATOM     17  C   UNL     1       0.573  -0.124  -0.057  1.00  0.00     0.332 C 
ATOM     18  N   UNL     1       0.375   0.427  -1.392  1.00  0.00    -0.333 N 
ATOM     19  C   UNL     1      -0.143   1.806  -1.369  1.00  0.00     0.290 C 
ATOM     20  C   UNL     1       1.582   0.382  -2.235  1.00  0.00     0.296 C 
ATOM     21  H   UNL     1      -0.325  -0.186  -1.809  1.00  0.00     0.348 HD
ATOM     22  C   UNL     1       0.927   2.872  -1.075  1.00  0.00     0.222 C 
ATOM     23  O   UNL     1       2.041   2.785  -1.972  1.00  0.00    -0.365 OA
ENDBRANCH  15  16
ENDBRANCH  13  15
ENDBRANCH   7  13
ENDBRANCH   3   6
ENDBRANCH   1   2
BRANCH   1  24
ATOM     24  C   UNL     1       8.453  -4.049  -2.968  1.00  0.00     0.042 C 
BRANCH  24  25
ATOM     25  C   UNL     1       7.988  -5.153  -3.915  1.00  0.00     0.118 C 
BRANCH  25  26
ATOM     26  N   UNL     1       8.611  -5.047  -5.225  1.00  0.00    -0.352 N 
ATOM     27  C   UNL     1       9.410  -5.935  -5.899  1.00  0.00     0.251 C 
ATOM     28  H   UNL     1       8.431  -4.205  -5.703  1.00  0.00     0.163 HD
ATOM     29  O   UNL     1      10.028  -5.558  -6.890  1.00  0.00    -0.269 OA
BRANCH  27  30
ATOM     30  C   UNL     1       9.540  -7.340  -5.449  1.00  0.00     0.039 A 
ATOM     31  C   UNL     1      10.790  -7.958  -5.546  1.00  0.00     0.014 A 
ATOM     32  C   UNL     1       8.435  -8.073  -5.005  1.00  0.00     0.014 A 
ATOM     33  C   UNL     1      10.941  -9.293  -5.162  1.00  0.00     0.010 A 
ATOM     34  C   UNL     1       8.600  -9.383  -4.557  1.00  0.00     0.010 A 
ATOM     35  C   UNL     1       9.852 -10.010  -4.641  1.00  0.00    -0.014 A 
BRANCH  35  36
ATOM     36  C   UNL     1      10.010 -11.417  -4.191  1.00  0.00     0.031 A 
ATOM     37  C   UNL     1       9.288 -12.529  -4.901  1.00  0.00     0.074 A 
ATOM     38  C   UNL     1      10.772 -11.687  -3.113  1.00  0.00     0.049 A 
ATOM     39  N   UNL     1       9.259 -13.808  -4.621  1.00  0.00    -0.248 NA
ATOM     40  C   UNL     1       8.470 -12.154  -6.065  1.00  0.00     0.031 C 
ATOM     41  C   UNL     1      11.487 -10.689  -2.316  1.00  0.00     0.029 A 
ATOM     42  N   UNL     1      11.069 -12.878  -2.499  1.00  0.00    -0.354 N 
ATOM     43  C   UNL     1       8.414 -14.383  -5.560  1.00  0.00     0.074 A 
ATOM     44  C   UNL     1       7.912 -13.311  -6.391  1.00  0.00     0.031 C 
ATOM     45  C   UNL     1      12.162 -11.311  -1.337  1.00  0.00     0.029 A 
ATOM     46  C   UNL     1      11.899 -12.745  -1.413  1.00  0.00     0.049 A 
ATOM     47  H   UNL     1      10.721 -13.745  -2.808  1.00  0.00     0.167 HD
ATOM     48  C   UNL     1       8.106 -15.691  -5.728  1.00  0.00     0.037 A 
ATOM     49  C   UNL     1      12.391 -13.674  -0.570  1.00  0.00     0.037 A 
ATOM     50  C   UNL     1       8.638 -16.759  -4.923  1.00  0.00     0.049 A 
ATOM     51  C   UNL     1      12.040 -15.120  -0.787  1.00  0.00     0.074 A 
ATOM     52  C   UNL     1       8.432 -18.121  -5.055  1.00  0.00     0.029 A 
ATOM     53  N   UNL     1       9.485 -16.585  -3.839  1.00  0.00    -0.354 N 
ATOM     54  N   UNL     1      11.281 -15.656  -1.711  1.00  0.00    -0.248 NA
ATOM     55  C   UNL     1      12.618 -16.092   0.152  1.00  0.00     0.031 C 
ATOM     56  C   UNL     1       9.121 -18.769  -4.026  1.00  0.00     0.029 A 
ATOM     57  C   UNL     1       9.796 -17.815  -3.282  1.00  0.00     0.049 A 
ATOM     58  H   UNL     1       9.816 -15.717  -3.514  1.00  0.00     0.167 HD
ATOM     59  C   UNL     1      11.304 -17.024  -1.478  1.00  0.00     0.074 A 
ATOM     60  C   UNL     1      12.169 -17.239  -0.337  1.00  0.00     0.031 C 
ATOM     61  C   UNL     1      10.661 -18.012  -2.147  1.00  0.00     0.037 A 
BRANCH  48  62
ATOM     62  C   UNL     1       7.162 -16.055  -6.838  1.00  0.00     0.064 A 
ATOM     63  C   UNL     1       5.883 -16.555  -6.551  1.00  0.00     0.173 A 
ATOM     64  C   UNL     1       7.555 -15.990  -8.183  1.00  0.00     0.173 A 
ATOM     65  F   UNL     1       5.461 -16.646  -5.280  1.00  0.00    -0.203 F 
ATOM     66  C   UNL     1       5.038 -16.990  -7.569  1.00  0.00     0.198 A 
ATOM     67  C   UNL     1       6.697 -16.400  -9.200  1.00  0.00     0.198 A 
ATOM     68  F   UNL     1       8.764 -15.511  -8.511  1.00  0.00    -0.203 F 
ATOM     69  F   UNL     1       3.834 -17.497  -7.269  1.00  0.00    -0.200 F 
ATOM     70  C   UNL     1       5.444 -16.909  -8.892  1.00  0.00     0.200 A 
ATOM     71  F   UNL     1       7.082 -16.301 -10.480  1.00  0.00    -0.200 F 
ATOM     72  F   UNL     1       4.628 -17.323  -9.872  1.00  0.00    -0.200 F 
ENDBRANCH  48  62
BRANCH  49  73
ATOM     73  C   UNL     1      13.295 -13.261   0.534  1.00  0.00     0.064 A 
ATOM     74  C   UNL     1      12.824 -12.522   1.629  1.00  0.00     0.173 A 
ATOM     75  C   UNL     1      14.660 -13.581   0.502  1.00  0.00     0.173 A 
ATOM     76  F   UNL     1      11.528 -12.186   1.704  1.00  0.00    -0.203 F 
ATOM     77  C   UNL     1      13.686 -12.104   2.640  1.00  0.00     0.198 A 
ATOM     78  C   UNL     1      15.516 -13.187   1.528  1.00  0.00     0.198 A 
ATOM     79  F   UNL     1      15.154 -14.304  -0.513  1.00  0.00    -0.203 F 
ATOM     80  F   UNL     1      13.216 -11.371   3.659  1.00  0.00    -0.200 F 
ATOM     81  C   UNL     1      15.030 -12.442   2.592  1.00  0.00     0.200 A 
ATOM     82  F   UNL     1      16.809 -13.536   1.490  1.00  0.00    -0.200 F 
ATOM     83  F   UNL     1      15.856 -12.053   3.573  1.00  0.00    -0.200 F 
ENDBRANCH  49  73
BRANCH  61  84
ATOM     84  C   UNL     1      10.875 -19.421  -1.676  1.00  0.00     0.064 A 
ATOM     85  C   UNL     1      11.604 -20.330  -2.459  1.00  0.00     0.173 A 
ATOM     86  C   UNL     1      10.303 -19.889  -0.485  1.00  0.00     0.173 A 
ATOM     87  F   UNL     1      12.163 -19.933  -3.611  1.00  0.00    -0.203 F 
ATOM     88  C   UNL     1      11.740 -21.659  -2.070  1.00  0.00     0.198 A 
ATOM     89  C   UNL     1      10.467 -21.212  -0.085  1.00  0.00     0.198 A 
ATOM     90  F   UNL     1       9.608 -19.055   0.304  1.00  0.00    -0.203 F 
ATOM     91  F   UNL     1      12.413 -22.518  -2.849  1.00  0.00    -0.200 F 
ATOM     92  C   UNL     1      11.176 -22.098  -0.882  1.00  0.00     0.200 A 
ATOM     93  F   UNL     1       9.943 -21.628   1.076  1.00  0.00    -0.200 F 
ATOM     94  F   UNL     1      11.320 -23.375  -0.502  1.00  0.00    -0.200 F 
ENDBRANCH  61  84
ENDBRANCH  35  36
ENDBRANCH  27  30
ENDBRANCH  25  26
ENDBRANCH  24  25
ENDBRANCH   1  24
TORSDOF 13
