REMARK SMILES CS(=O)(=O)c1ccc(C(=O)N2C[C@@H](C(=O)NCCCNC(=O)c3ccc(-c4c5nc(c(-c6c(F)c(F)c(F)c(F)c6F)c6ccc([nH]6)c(-c6c(F)c(F)c(F)c(F)c6F)c6nc(c(-c7c(F)c(F)c(F)c(F)c7F)c7ccc4[nH]7)C=C6)C=C5)cc3)[C@H](c3ccncc3)C2)cc1
REMARK SMILES IDX 17 1 16 2 14 3 15 4 13 6 11 7 12 8 93 9 86 10 9 11 10 12
REMARK SMILES IDX 8 13 5 14 6 15 95 16 7 17 94 18 2 19 1 20 3 21 4 22 87 23
REMARK SMILES IDX 88 24 92 25 89 26 91 27 90 28 18 29 19 30 20 31 21 32 22 34
REMARK SMILES IDX 23 35 24 36 85 37 25 38 84 39 26 40 27 41 28 42 78 43 29 44
REMARK SMILES IDX 83 45 77 46 79 47 30 48 82 49 76 50 75 51 31 53 63 54 43 55
REMARK SMILES IDX 62 56 44 57 47 58 61 59 80 60 45 61 46 62 60 64 81 65 48 66
REMARK SMILES IDX 32 67 33 68 41 69 34 70 35 71 39 72 42 73 36 74 37 75 40 76
REMARK SMILES IDX 38 77 64 78 65 79 73 80 66 81 67 82 71 83 74 84 68 85 69 86
REMARK SMILES IDX 72 87 70 88 49 89 50 90 58 91 51 92 52 93 56 94 59 95 53 96
REMARK SMILES IDX 54 97 57 98 55 99
REMARK H PARENT 16 5 20 33 79 52 47 63
REMARK Flexibility Score: inf
ROOT
ATOM      1  C   UNL     1       4.610   1.188  -6.512  1.00  0.00     0.117 C 
ENDROOT
BRANCH   1   2
ATOM      2  N   UNL     1       5.400   0.234  -7.271  1.00  0.00    -0.356 N 
ATOM      3  C   UNL     1       5.129  -1.048  -7.640  1.00  0.00     0.225 C 
ATOM      4  O   UNL     1       5.991  -1.665  -8.264  1.00  0.00    -0.275 OA
ATOM      5  H   UNL     1       6.277   0.570  -7.568  1.00  0.00     0.163 HD
BRANCH   3   6
ATOM      6  C   UNL     1       3.800  -1.668  -7.286  1.00  0.00     0.107 C 
ATOM      7  N   UNL     1       2.778  -3.515  -6.380  1.00  0.00    -0.337 N 
ATOM      8  C   UNL     1       3.987  -2.736  -6.224  1.00  0.00     0.134 C 
ATOM      9  C   UNL     1       2.463  -3.640  -7.795  1.00  0.00     0.129 C 
ATOM     10  C   UNL     1       3.149  -2.428  -8.478  1.00  0.00     0.053 C 
BRANCH   7  11
ATOM     11  C   UNL     1       1.970  -4.107  -5.431  1.00  0.00     0.253 C 
ATOM     12  O   UNL     1       1.239  -5.057  -5.711  1.00  0.00    -0.269 OA
BRANCH  11  13
ATOM     13  C   UNL     1       1.848  -3.516  -4.066  1.00  0.00     0.040 A 
ATOM     14  C   UNL     1       1.134  -2.405  -1.590  1.00  0.00     0.067 A 
ATOM     15  C   UNL     1       1.059  -3.789  -1.783  1.00  0.00     0.021 A 
ATOM     16  C   UNL     1       1.593  -1.574  -2.612  1.00  0.00     0.021 A 
ATOM     17  C   UNL     1       1.415  -4.340  -3.018  1.00  0.00     0.015 A 
ATOM     18  C   UNL     1       1.925  -2.131  -3.852  1.00  0.00     0.015 A 
BRANCH  14  19
ATOM     19  S   UNL     1       0.542  -1.755  -0.043  1.00  0.00     0.175 S 
ATOM     20  C   UNL     1       1.103  -0.080   0.075  1.00  0.00     0.163 C 
ATOM     21  O   UNL     1       1.209  -2.504   1.001  1.00  0.00    -0.224 OA
ATOM     22  O   UNL     1      -0.906  -1.723  -0.147  1.00  0.00    -0.224 OA
ENDBRANCH  14  19
ENDBRANCH  11  13
ENDBRANCH   7  11
BRANCH  10  23
ATOM     23  C   UNL     1       2.299  -1.468  -9.305  1.00  0.00    -0.039 A 
ATOM     24  C   UNL     1       2.941  -0.432 -10.006  1.00  0.00     0.024 A 
ATOM     25  C   UNL     1       0.906  -1.527  -9.401  1.00  0.00     0.024 A 
ATOM     26  C   UNL     1       2.186   0.492 -10.714  1.00  0.00     0.111 A 
ATOM     27  C   UNL     1       0.236  -0.565 -10.149  1.00  0.00     0.111 A 
ATOM     28  N   UNL     1       0.844   0.452 -10.794  1.00  0.00    -0.265 NA
ENDBRANCH  10  23
ENDBRANCH   3   6
ENDBRANCH   1   2
BRANCH   1  29
ATOM     29  C   UNL     1       5.240   1.481  -5.155  1.00  0.00     0.042 C 
BRANCH  29  30
ATOM     30  C   UNL     1       6.585   2.197  -5.243  1.00  0.00     0.118 C 
BRANCH  30  31
ATOM     31  N   UNL     1       6.476   3.526  -5.827  1.00  0.00    -0.352 N 
ATOM     32  C   UNL     1       6.858   4.746  -5.328  1.00  0.00     0.251 C 
ATOM     33  H   UNL     1       6.063   3.554  -6.720  1.00  0.00     0.163 HD
ATOM     34  O   UNL     1       6.520   5.772  -5.911  1.00  0.00    -0.269 OA
BRANCH  32  35
ATOM     35  C   UNL     1       7.651   4.837  -4.083  1.00  0.00     0.039 A 
ATOM     36  C   UNL     1       7.331   5.832  -3.155  1.00  0.00     0.014 A 
ATOM     37  C   UNL     1       8.719   3.970  -3.838  1.00  0.00     0.014 A 
ATOM     38  C   UNL     1       8.038   5.915  -1.954  1.00  0.00     0.010 A 
ATOM     39  C   UNL     1       9.373   4.004  -2.610  1.00  0.00     0.010 A 
ATOM     40  C   UNL     1       9.041   4.979  -1.657  1.00  0.00    -0.014 A 
BRANCH  40  41
ATOM     41  C   UNL     1       9.758   5.006  -0.358  1.00  0.00     0.031 A 
ATOM     42  C   UNL     1      11.232   5.295  -0.314  1.00  0.00     0.074 A 
ATOM     43  C   UNL     1       9.095   4.710   0.776  1.00  0.00     0.049 A 
ATOM     44  N   UNL     1      12.047   5.295   0.711  1.00  0.00    -0.248 NA
ATOM     45  C   UNL     1      11.884   5.596  -1.598  1.00  0.00     0.031 C 
ATOM     46  C   UNL     1       7.672   4.375   0.860  1.00  0.00     0.029 A 
ATOM     47  N   UNL     1       9.531   4.636   2.074  1.00  0.00    -0.354 N 
ATOM     48  C   UNL     1      13.303   5.580   0.195  1.00  0.00     0.074 A 
ATOM     49  C   UNL     1      13.155   5.694  -1.240  1.00  0.00     0.031 C 
ATOM     50  C   UNL     1       7.347   4.161   2.145  1.00  0.00     0.029 A 
ATOM     51  C   UNL     1       8.543   4.308   2.969  1.00  0.00     0.049 A 
ATOM     52  H   UNL     1      10.464   4.804   2.340  1.00  0.00     0.167 HD
ATOM     53  C   UNL     1      14.471   5.755   0.859  1.00  0.00     0.037 A 
ATOM     54  C   UNL     1       8.597   4.142   4.304  1.00  0.00     0.037 A 
ATOM     55  C   UNL     1      14.612   5.670   2.288  1.00  0.00     0.049 A 
ATOM     56  C   UNL     1       9.908   4.330   5.016  1.00  0.00     0.074 A 
ATOM     57  C   UNL     1      15.739   5.888   3.061  1.00  0.00     0.029 A 
ATOM     58  N   UNL     1      13.586   5.338   3.162  1.00  0.00    -0.354 N 
ATOM     59  N   UNL     1      11.077   4.658   4.524  1.00  0.00    -0.248 NA
ATOM     60  C   UNL     1       9.904   4.127   6.471  1.00  0.00     0.031 C 
ATOM     61  C   UNL     1      15.404   5.653   4.399  1.00  0.00     0.029 A 
ATOM     62  C   UNL     1      14.059   5.328   4.465  1.00  0.00     0.049 A 
ATOM     63  H   UNL     1      12.659   5.140   2.896  1.00  0.00     0.167 HD
ATOM     64  C   UNL     1      11.940   4.730   5.609  1.00  0.00     0.074 A 
ATOM     65  C   UNL     1      11.157   4.420   6.787  1.00  0.00     0.031 C 
ATOM     66  C   UNL     1      13.263   5.027   5.627  1.00  0.00     0.037 A 
BRANCH  53  67
ATOM     67  C   UNL     1      15.690   6.062   0.038  1.00  0.00     0.064 A 
ATOM     68  C   UNL     1      15.847   7.298  -0.608  1.00  0.00     0.173 A 
ATOM     69  C   UNL     1      16.720   5.118  -0.091  1.00  0.00     0.173 A 
ATOM     70  F   UNL     1      14.884   8.229  -0.527  1.00  0.00    -0.203 F 
ATOM     71  C   UNL     1      16.973   7.564  -1.382  1.00  0.00     0.198 A 
ATOM     72  C   UNL     1      17.858   5.399  -0.842  1.00  0.00     0.198 A 
ATOM     73  F   UNL     1      16.622   3.923   0.510  1.00  0.00    -0.203 F 
ATOM     74  F   UNL     1      17.075   8.729  -2.036  1.00  0.00    -0.200 F 
ATOM     75  C   UNL     1      17.980   6.617  -1.494  1.00  0.00     0.200 A 
ATOM     76  F   UNL     1      18.835   4.487  -0.941  1.00  0.00    -0.200 F 
ATOM     77  F   UNL     1      19.064   6.874  -2.240  1.00  0.00    -0.200 F 
ENDBRANCH  53  67
BRANCH  54  78
ATOM     78  C   UNL     1       7.361   3.819   5.061  1.00  0.00     0.064 A 
ATOM     79  C   UNL     1       6.766   4.775   5.896  1.00  0.00     0.173 A 
ATOM     80  C   UNL     1       6.748   2.562   4.965  1.00  0.00     0.173 A 
ATOM     81  F   UNL     1       7.327   5.985   6.032  1.00  0.00    -0.203 F 
ATOM     82  C   UNL     1       5.612   4.481   6.619  1.00  0.00     0.198 A 
ATOM     83  C   UNL     1       5.580   2.277   5.670  1.00  0.00     0.198 A 
ATOM     84  F   UNL     1       7.274   1.617   4.173  1.00  0.00    -0.203 F 
ATOM     85  F   UNL     1       5.084   5.402   7.436  1.00  0.00    -0.200 F 
ATOM     86  C   UNL     1       5.017   3.234   6.501  1.00  0.00     0.200 A 
ATOM     87  F   UNL     1       4.999   1.077   5.540  1.00  0.00    -0.200 F 
ATOM     88  F   UNL     1       3.903   2.954   7.190  1.00  0.00    -0.200 F 
ENDBRANCH  54  78
BRANCH  66  89
ATOM     89  C   UNL     1      13.937   5.066   6.965  1.00  0.00     0.064 A 
ATOM     90  C   UNL     1      14.228   3.893   7.676  1.00  0.00     0.173 A 
ATOM     91  C   UNL     1      14.327   6.291   7.527  1.00  0.00     0.173 A 
ATOM     92  F   UNL     1      13.859   2.699   7.188  1.00  0.00    -0.203 F 
ATOM     93  C   UNL     1      14.865   3.947   8.913  1.00  0.00     0.198 A 
ATOM     94  C   UNL     1      14.987   6.340   8.752  1.00  0.00     0.198 A 
ATOM     95  F   UNL     1      14.075   7.441   6.884  1.00  0.00    -0.203 F 
ATOM     96  F   UNL     1      15.094   2.817   9.596  1.00  0.00    -0.200 F 
ATOM     97  C   UNL     1      15.250   5.168   9.446  1.00  0.00     0.200 A 
ATOM     98  F   UNL     1      15.368   7.519   9.260  1.00  0.00    -0.200 F 
ATOM     99  F   UNL     1      15.868   5.217  10.634  1.00  0.00    -0.200 F 
ENDBRANCH  66  89
ENDBRANCH  40  41
ENDBRANCH  32  35
ENDBRANCH  30  31
ENDBRANCH  29  30
ENDBRANCH   1  29
TORSDOF 14
