REMARK SMILES O=C(C[C@]1(C(=O)NC2CCCCC2)CC(c2ccc([N+](=O)[O-])cc2)=NO1)NCCCNC(=O)c1ccc(-c2c3nc(c(-c4c(F)c(F)c(F)c(F)c4F)c4ccc([nH]4)c(-c4c(F)c(F)c(F)c(F)c4F)c4nc(c(-c5c(F)c(F)c(F)c(F)c5F)c5ccc2[nH]5)C=C4)C=C3)cc1
REMARK SMILES IDX 28 1 27 2 1 3 2 4 3 6 4 7 14 8 26 9 15 10 25 11 5 12 6 13
REMARK SMILES IDX 7 14 8 16 9 17 13 18 10 19 12 20 11 21 16 22 17 23 24 24
REMARK SMILES IDX 18 25 23 26 19 27 20 28 21 29 22 30 29 31 30 32 31 33 32 34
REMARK SMILES IDX 33 36 34 37 35 38 96 39 36 40 95 41 37 42 38 43 39 44 89 45
REMARK SMILES IDX 40 46 94 47 88 48 90 49 41 50 93 51 87 52 86 53 42 55 74 56
REMARK SMILES IDX 54 57 73 58 55 59 58 60 72 61 91 62 56 63 57 64 71 66 92 67
REMARK SMILES IDX 59 68 43 69 44 70 52 71 45 72 46 73 50 74 53 75 47 76 48 77
REMARK SMILES IDX 51 78 49 79 75 80 76 81 84 82 77 83 78 84 82 85 85 86 79 87
REMARK SMILES IDX 80 88 83 89 81 90 60 91 61 92 69 93 62 94 63 95 67 96 70 97
REMARK SMILES IDX 64 98 65 99 68 100 66 101
REMARK H PARENT 27 5 7 15 31 35 90 54 58 65
REMARK Flexibility Score: inf
ROOT
ATOM      1  C   UNL     1       3.380   2.837  -3.554  1.00  0.00     0.117 C 
ENDROOT
BRANCH   1   2
ATOM      2  N   UNL     1       3.445   1.529  -2.927  1.00  0.00    -0.356 N 
ATOM      3  O   UNL     1       4.605   0.541  -4.628  1.00  0.00    -0.275 OA
ATOM      4  C   UNL     1       4.043   0.455  -3.540  1.00  0.00     0.224 C 
ATOM      5  H   UNL     1       3.048   1.408  -2.034  1.00  0.00     0.163 HD
BRANCH   4   6
ATOM      6  C   UNL     1       3.851  -0.885  -2.867  1.00  0.00     0.162 C 
BRANCH   6   7
ATOM      7  C   UNL     1       4.167  -1.041  -1.381  1.00  0.00     0.229 C 
ATOM      8  C   UNL     1       5.234  -0.083  -0.841  1.00  0.00     0.123 C 
ATOM      9  O   UNL     1       4.883  -2.315  -1.274  1.00  0.00    -0.378 OA
ATOM     10  C   UNL     1       6.442  -0.798  -1.322  1.00  0.00     0.092 C 
ATOM     11  N   UNL     1       6.258  -2.055  -1.565  1.00  0.00    -0.089 NA
BRANCH   7  12
ATOM     12  C   UNL     1       3.014  -1.181  -0.341  1.00  0.00     0.268 C 
ATOM     13  O   UNL     1       3.260  -0.983   0.862  1.00  0.00    -0.270 OA
ATOM     14  N   UNL     1       1.718  -1.527  -0.542  1.00  0.00    -0.350 N 
ATOM     15  H   UNL     1       1.274  -1.718   0.315  1.00  0.00     0.163 HD
BRANCH  14  16
ATOM     16  C   UNL     1       0.780  -1.702  -1.661  1.00  0.00     0.082 C 
ATOM     17  C   UNL     1       0.518  -0.370  -2.377  1.00  0.00     0.025 C 
ATOM     18  C   UNL     1       1.072  -2.942  -2.508  1.00  0.00     0.025 C 
ATOM     19  C   UNL     1       0.043  -0.443  -3.823  1.00  0.00     0.002 C 
ATOM     20  C   UNL     1       0.349  -2.929  -3.850  1.00  0.00     0.002 C 
ATOM     21  C   UNL     1       0.583  -1.630  -4.606  1.00  0.00     0.000 C 
ENDBRANCH  14  16
ENDBRANCH   7  12
BRANCH  10  22
ATOM     22  C   UNL     1       7.706  -0.072  -1.516  1.00  0.00    -0.000 A 
ATOM     23  C   UNL     1       8.490  -0.344  -2.641  1.00  0.00     0.017 A 
ATOM     24  C   UNL     1       8.084   0.927  -0.609  1.00  0.00     0.017 A 
ATOM     25  C   UNL     1       9.653   0.398  -2.873  1.00  0.00     0.086 A 
ATOM     26  C   UNL     1       9.252   1.661  -0.828  1.00  0.00     0.086 A 
ATOM     27  C   UNL     1      10.031   1.398  -1.964  1.00  0.00     0.269 A 
BRANCH  27  28
ATOM     28  N   UNL     1      11.249   2.183  -2.204  1.00  0.00     0.062 N 
ATOM     29  O   UNL     1      11.897   1.943  -3.231  1.00  0.00    -0.258 OA
ATOM     30  O   UNL     1      11.553   3.043  -1.365  1.00  0.00    -0.258 OA
ENDBRANCH  27  28
ENDBRANCH  10  22
ENDBRANCH   6   7
ENDBRANCH   4   6
ENDBRANCH   1   2
BRANCH   1  31
ATOM     31  C   UNL     1       1.960   3.394  -3.577  1.00  0.00     0.042 C 
BRANCH  31  32
ATOM     32  C   UNL     1       1.304   3.549  -2.207  1.00  0.00     0.118 C 
BRANCH  32  33
ATOM     33  N   UNL     1       2.052   4.418  -1.315  1.00  0.00    -0.352 N 
ATOM     34  C   UNL     1       1.679   5.566  -0.670  1.00  0.00     0.251 C 
ATOM     35  H   UNL     1       2.979   4.134  -1.146  1.00  0.00     0.163 HD
ATOM     36  O   UNL     1       2.543   6.227  -0.086  1.00  0.00    -0.269 OA
BRANCH  34  37
ATOM     37  C   UNL     1       0.280   6.043  -0.673  1.00  0.00     0.039 A 
ATOM     38  C   UNL     1       0.051   7.418  -0.781  1.00  0.00     0.014 A 
ATOM     39  C   UNL     1      -0.802   5.173  -0.510  1.00  0.00     0.014 A 
ATOM     40  C   UNL     1      -1.255   7.914  -0.767  1.00  0.00     0.010 A 
ATOM     41  C   UNL     1      -2.109   5.662  -0.571  1.00  0.00     0.010 A 
ATOM     42  C   UNL     1      -2.350   7.039  -0.687  1.00  0.00    -0.014 A 
BRANCH  42  43
ATOM     43  C   UNL     1      -3.741   7.565  -0.708  1.00  0.00     0.031 A 
ATOM     44  C   UNL     1      -4.636   7.414   0.492  1.00  0.00     0.074 A 
ATOM     45  C   UNL     1      -4.209   8.164  -1.820  1.00  0.00     0.049 A 
ATOM     46  N   UNL     1      -5.875   7.808   0.657  1.00  0.00    -0.248 NA
ATOM     47  C   UNL     1      -4.076   6.706   1.653  1.00  0.00     0.031 C 
ATOM     48  C   UNL     1      -3.461   8.335  -3.066  1.00  0.00     0.029 A 
ATOM     49  N   UNL     1      -5.427   8.741  -2.082  1.00  0.00    -0.354 N 
ATOM     50  C   UNL     1      -6.241   7.391   1.930  1.00  0.00     0.074 A 
ATOM     51  C   UNL     1      -5.115   6.663   2.474  1.00  0.00     0.031 C 
ATOM     52  C   UNL     1      -4.223   9.000  -3.949  1.00  0.00     0.029 A 
ATOM     53  C   UNL     1      -5.524   9.274  -3.345  1.00  0.00     0.049 A 
ATOM     54  H   UNL     1      -6.162   8.771  -1.427  1.00  0.00     0.167 HD
ATOM     55  C   UNL     1      -7.400   7.616   2.597  1.00  0.00     0.037 A 
ATOM     56  C   UNL     1      -6.545   9.912  -3.948  1.00  0.00     0.037 A 
ATOM     57  C   UNL     1      -8.514   8.358   2.065  1.00  0.00     0.049 A 
ATOM     58  C   UNL     1      -7.819  10.152  -3.184  1.00  0.00     0.074 A 
ATOM     59  C   UNL     1      -9.712   8.678   2.680  1.00  0.00     0.029 A 
ATOM     60  N   UNL     1      -8.568   8.895   0.787  1.00  0.00    -0.354 N 
ATOM     61  N   UNL     1      -8.127   9.810  -1.957  1.00  0.00    -0.248 NA
ATOM     62  C   UNL     1      -8.883  10.881  -3.888  1.00  0.00     0.031 C 
ATOM     63  C   UNL     1     -10.509   9.368   1.760  1.00  0.00     0.029 A 
ATOM     64  C   UNL     1      -9.786   9.529   0.590  1.00  0.00     0.049 A 
ATOM     65  H   UNL     1      -7.848   8.835   0.118  1.00  0.00     0.167 HD
ATOM     66  C   UNL     1      -9.402  10.311  -1.730  1.00  0.00     0.074 A 
ATOM     67  C   UNL     1      -9.803  10.994  -2.942  1.00  0.00     0.031 C 
ATOM     68  C   UNL     1     -10.172  10.214  -0.618  1.00  0.00     0.037 A 
BRANCH  55  69
ATOM     69  C   UNL     1      -7.522   7.052   3.985  1.00  0.00     0.064 A 
ATOM     70  C   UNL     1      -6.770   7.560   5.055  1.00  0.00     0.173 A 
ATOM     71  C   UNL     1      -8.430   6.017   4.256  1.00  0.00     0.173 A 
ATOM     72  F   UNL     1      -5.880   8.542   4.848  1.00  0.00    -0.203 F 
ATOM     73  C   UNL     1      -6.898   7.032   6.337  1.00  0.00     0.198 A 
ATOM     74  C   UNL     1      -8.579   5.513   5.546  1.00  0.00     0.198 A 
ATOM     75  F   UNL     1      -9.179   5.498   3.272  1.00  0.00    -0.203 F 
ATOM     76  F   UNL     1      -6.130   7.497   7.332  1.00  0.00    -0.200 F 
ATOM     77  C   UNL     1      -7.807   6.014   6.583  1.00  0.00     0.200 A 
ATOM     78  F   UNL     1      -9.468   4.539   5.785  1.00  0.00    -0.200 F 
ATOM     79  F   UNL     1      -7.934   5.511   7.819  1.00  0.00    -0.200 F 
ENDBRANCH  55  69
BRANCH  56  80
ATOM     80  C   UNL     1      -6.393  10.404  -5.343  1.00  0.00     0.064 A 
ATOM     81  C   UNL     1      -6.336  11.778  -5.620  1.00  0.00     0.173 A 
ATOM     82  C   UNL     1      -6.316   9.516  -6.425  1.00  0.00     0.173 A 
ATOM     83  F   UNL     1      -6.426  12.667  -4.620  1.00  0.00    -0.203 F 
ATOM     84  C   UNL     1      -6.235  12.244  -6.929  1.00  0.00     0.198 A 
ATOM     85  C   UNL     1      -6.184   9.983  -7.731  1.00  0.00     0.198 A 
ATOM     86  F   UNL     1      -6.360   8.193  -6.212  1.00  0.00    -0.203 F 
ATOM     87  F   UNL     1      -6.236  13.562  -7.170  1.00  0.00    -0.200 F 
ATOM     88  C   UNL     1      -6.153  11.346  -7.983  1.00  0.00     0.200 A 
ATOM     89  F   UNL     1      -6.090   9.112  -8.745  1.00  0.00    -0.200 F 
ATOM     90  F   UNL     1      -6.054  11.795  -9.242  1.00  0.00    -0.200 F 
ENDBRANCH  56  80
BRANCH  68  91
ATOM     91  C   UNL     1     -11.507  10.904  -0.644  1.00  0.00     0.064 A 
ATOM     92  C   UNL     1     -12.563  10.445  -1.444  1.00  0.00     0.173 A 
ATOM     93  C   UNL     1     -11.734  12.036   0.154  1.00  0.00     0.173 A 
ATOM     94  F   UNL     1     -12.395   9.375  -2.236  1.00  0.00    -0.203 F 
ATOM     95  C   UNL     1     -13.783  11.117  -1.476  1.00  0.00     0.198 A 
ATOM     96  C   UNL     1     -12.965  12.685   0.147  1.00  0.00     0.198 A 
ATOM     97  F   UNL     1     -10.761  12.512   0.946  1.00  0.00    -0.203 F 
ATOM     98  F   UNL     1     -14.756  10.697  -2.296  1.00  0.00    -0.200 F 
ATOM     99  C   UNL     1     -13.985  12.232  -0.677  1.00  0.00     0.200 A 
ATOM    100  F   UNL     1     -13.163  13.754   0.931  1.00  0.00    -0.200 F 
ATOM    101  F   UNL     1     -15.158  12.878  -0.709  1.00  0.00    -0.200 F 
ENDBRANCH  68  91
ENDBRANCH  42  43
ENDBRANCH  34  37
ENDBRANCH  32  33
ENDBRANCH  31  32
ENDBRANCH   1  31
TORSDOF 15
