REMARK SMILES O=C(NCCCNC(=O)[C@@H]1CCC[N@@H+](Cc2cccc3ccccc23)C1)c1ccc(-c2c3nc(c(-c4c(F)c(F)c(F)c(F)c4F)c4ccc([nH]4)c(-c4c(F)c(F)c(F)c(F)c4F)c4nc(c(-c5c(F)c(F)c(F)c(F)c5F)c5ccc2[nH]5)C=C4)C=C3)cc1
REMARK SMILES IDX 5 1 4 2 3 3 1 4 2 5 27 7 28 8 89 9 29 10 88 11 30 12 31 13
REMARK SMILES IDX 32 14 82 15 33 16 87 17 81 18 83 19 34 20 86 21 80 22 79 23
REMARK SMILES IDX 35 25 67 26 47 27 66 28 48 29 51 30 65 31 84 32 49 33 50 34
REMARK SMILES IDX 64 36 85 37 52 38 36 39 37 40 45 41 38 42 39 43 43 44 46 45
REMARK SMILES IDX 40 46 41 47 44 48 42 49 68 50 69 51 77 52 70 53 71 54 75 55
REMARK SMILES IDX 78 56 72 57 73 58 76 59 74 60 53 61 54 62 62 63 55 64 56 65
REMARK SMILES IDX 60 66 63 67 57 68 58 69 61 70 59 71 6 72 7 73 8 74 9 76
REMARK SMILES IDX 10 77 11 78 26 79 12 80 14 81 13 82 15 84 16 85 17 86 25 87
REMARK SMILES IDX 18 88 20 89 24 90 19 91 21 92 23 93 22 94
REMARK H PARENT 3 6 83 24 51 35 7 75 14 83
REMARK Flexibility Score: inf
ROOT
ATOM      1  C   UNL     1       5.031  -2.037   0.682  1.00  0.00     0.042 C 
ENDROOT
BRANCH   1   2
ATOM      2  C   UNL     1       4.557  -1.188  -0.484  1.00  0.00     0.118 C 
BRANCH   2   3
ATOM      3  N   UNL     1       3.117  -0.967  -0.473  1.00  0.00    -0.352 N 
ATOM      4  O   UNL     1       1.164   0.047   0.002  1.00  0.00    -0.269 OA
ATOM      5  C   UNL     1       2.380   0.134  -0.100  1.00  0.00     0.251 C 
ATOM      6  H   UNL     1       2.582  -1.732  -0.786  1.00  0.00     0.163 HD
BRANCH   5   7
ATOM      7  C   UNL     1       3.054   1.415   0.213  1.00  0.00     0.039 A 
ATOM      8  C   UNL     1       4.131   1.865  -0.547  1.00  0.00     0.014 A 
ATOM      9  C   UNL     1       2.584   2.194   1.276  1.00  0.00     0.014 A 
ATOM     10  C   UNL     1       4.865   2.965  -0.127  1.00  0.00     0.010 A 
ATOM     11  C   UNL     1       3.244   3.380   1.616  1.00  0.00     0.010 A 
ATOM     12  C   UNL     1       4.417   3.753   0.943  1.00  0.00    -0.014 A 
BRANCH  12  13
ATOM     13  C   UNL     1       5.162   4.992   1.284  1.00  0.00     0.031 A 
ATOM     14  C   UNL     1       5.806   5.172   2.630  1.00  0.00     0.074 A 
ATOM     15  C   UNL     1       5.292   5.944   0.340  1.00  0.00     0.049 A 
ATOM     16  N   UNL     1       6.512   6.181   3.077  1.00  0.00    -0.248 NA
ATOM     17  C   UNL     1       5.627   4.089   3.607  1.00  0.00     0.031 C 
ATOM     18  C   UNL     1       4.704   5.882  -1.001  1.00  0.00     0.029 A 
ATOM     19  N   UNL     1       5.980   7.130   0.344  1.00  0.00    -0.354 N 
ATOM     20  C   UNL     1       6.834   5.869   4.391  1.00  0.00     0.074 A 
ATOM     21  C   UNL     1       6.229   4.586   4.678  1.00  0.00     0.031 C 
ATOM     22  C   UNL     1       5.113   6.942  -1.711  1.00  0.00     0.029 A 
ATOM     23  C   UNL     1       5.924   7.797  -0.855  1.00  0.00     0.049 A 
ATOM     24  H   UNL     1       6.466   7.470   1.130  1.00  0.00     0.167 HD
ATOM     25  C   UNL     1       7.572   6.588   5.273  1.00  0.00     0.037 A 
ATOM     26  C   UNL     1       6.454   8.977  -1.223  1.00  0.00     0.037 A 
ATOM     27  C   UNL     1       8.191   7.854   4.970  1.00  0.00     0.049 A 
ATOM     28  C   UNL     1       7.252   9.758  -0.222  1.00  0.00     0.074 A 
ATOM     29  C   UNL     1       8.991   8.641   5.780  1.00  0.00     0.029 A 
ATOM     30  N   UNL     1       8.075   8.520   3.757  1.00  0.00    -0.354 N 
ATOM     31  N   UNL     1       7.567   9.442   1.010  1.00  0.00    -0.248 NA
ATOM     32  C   UNL     1       7.758  11.065  -0.660  1.00  0.00     0.031 C 
ATOM     33  C   UNL     1       9.320   9.804   5.075  1.00  0.00     0.029 A 
ATOM     34  C   UNL     1       8.769   9.720   3.807  1.00  0.00     0.049 A 
ATOM     35  H   UNL     1       7.575   8.189   2.977  1.00  0.00     0.167 HD
ATOM     36  C   UNL     1       8.319  10.501   1.493  1.00  0.00     0.074 A 
ATOM     37  C   UNL     1       8.430  11.461   0.412  1.00  0.00     0.031 C 
ATOM     38  C   UNL     1       8.866  10.665   2.723  1.00  0.00     0.037 A 
BRANCH  25  39
ATOM     39  C   UNL     1       7.726   6.035   6.662  1.00  0.00     0.064 A 
ATOM     40  C   UNL     1       8.512   4.904   6.927  1.00  0.00     0.173 A 
ATOM     41  C   UNL     1       7.098   6.665   7.748  1.00  0.00     0.173 A 
ATOM     42  F   UNL     1       9.126   4.257   5.925  1.00  0.00    -0.203 F 
ATOM     43  C   UNL     1       8.637   4.405   8.222  1.00  0.00     0.198 A 
ATOM     44  C   UNL     1       7.248   6.180   9.045  1.00  0.00     0.198 A 
ATOM     45  F   UNL     1       6.340   7.754   7.552  1.00  0.00    -0.203 F 
ATOM     46  F   UNL     1       9.351   3.292   8.444  1.00  0.00    -0.200 F 
ATOM     47  C   UNL     1       8.010   5.046   9.280  1.00  0.00     0.200 A 
ATOM     48  F   UNL     1       6.650   6.808  10.067  1.00  0.00    -0.200 F 
ATOM     49  F   UNL     1       8.132   4.565  10.525  1.00  0.00    -0.200 F 
ENDBRANCH  25  39
BRANCH  26  50
ATOM     50  C   UNL     1       6.241   9.475  -2.606  1.00  0.00     0.064 A 
ATOM     51  C   UNL     1       7.299   9.523  -3.523  1.00  0.00     0.173 A 
ATOM     52  C   UNL     1       4.970   9.868  -3.051  1.00  0.00     0.173 A 
ATOM     53  F   UNL     1       8.535   9.172  -3.139  1.00  0.00    -0.203 F 
ATOM     54  C   UNL     1       7.094   9.951  -4.833  1.00  0.00     0.198 A 
ATOM     55  C   UNL     1       4.761  10.267  -4.368  1.00  0.00     0.198 A 
ATOM     56  F   UNL     1       3.924   9.832  -2.212  1.00  0.00    -0.203 F 
ATOM     57  F   UNL     1       8.127  10.014  -5.683  1.00  0.00    -0.200 F 
ATOM     58  C   UNL     1       5.824  10.313  -5.257  1.00  0.00     0.200 A 
ATOM     59  F   UNL     1       3.529  10.597  -4.778  1.00  0.00    -0.200 F 
ATOM     60  F   UNL     1       5.625  10.707  -6.522  1.00  0.00    -0.200 F 
ENDBRANCH  26  50
BRANCH  38  61
ATOM     61  C   UNL     1       9.655  11.919   2.952  1.00  0.00     0.064 A 
ATOM     62  C   UNL     1       9.030  13.168   3.081  1.00  0.00     0.173 A 
ATOM     63  C   UNL     1      11.053  11.867   3.062  1.00  0.00     0.173 A 
ATOM     64  F   UNL     1       7.698  13.271   2.964  1.00  0.00    -0.203 F 
ATOM     65  C   UNL     1       9.779  14.323   3.287  1.00  0.00     0.198 A 
ATOM     66  C   UNL     1      11.795  13.020   3.296  1.00  0.00     0.198 A 
ATOM     67  F   UNL     1      11.697  10.696   2.949  1.00  0.00    -0.203 F 
ATOM     68  F   UNL     1       9.165  15.513   3.357  1.00  0.00    -0.200 F 
ATOM     69  C   UNL     1      11.159  14.248   3.401  1.00  0.00     0.200 A 
ATOM     70  F   UNL     1      13.128  12.945   3.416  1.00  0.00    -0.200 F 
ATOM     71  F   UNL     1      11.877  15.361   3.601  1.00  0.00    -0.200 F 
ENDBRANCH  38  61
ENDBRANCH  12  13
ENDBRANCH   5   7
ENDBRANCH   2   3
ENDBRANCH   1   2
BRANCH   1  72
ATOM     72  C   UNL     1       4.639  -3.499   0.574  1.00  0.00     0.117 C 
BRANCH  72  73
ATOM     73  N   UNL     1       5.211  -4.139  -0.595  1.00  0.00    -0.356 N 
ATOM     74  C   UNL     1       5.860  -5.307  -0.810  1.00  0.00     0.228 C 
ATOM     75  H   UNL     1       5.104  -3.604  -1.414  1.00  0.00     0.163 HD
ATOM     76  O   UNL     1       6.159  -5.509  -1.995  1.00  0.00    -0.275 OA
BRANCH  74  77
ATOM     77  C   UNL     1       6.328  -6.276   0.285  1.00  0.00     0.133 C 
ATOM     78  C   UNL     1       6.518  -7.682  -0.326  1.00  0.00     0.025 C 
ATOM     79  C   UNL     1       5.436  -6.476   1.504  1.00  0.00     0.276 C 
ATOM     80  C   UNL     1       5.160  -8.332  -0.637  1.00  0.00     0.062 C 
ATOM     81  N   UNL     1       4.099  -6.901   1.094  1.00  0.00    -0.331 N 
ATOM     82  C   UNL     1       4.165  -8.258   0.536  1.00  0.00     0.262 C 
ATOM     83  H   UNL     1       3.782  -6.277   0.352  1.00  0.00     0.348 HD
BRANCH  81  84
ATOM     84  C   UNL     1       3.062  -6.711   2.124  1.00  0.00     0.299 C 
BRANCH  84  85
ATOM     85  C   UNL     1       3.269  -7.448   3.436  1.00  0.00     0.014 A 
ATOM     86  C   UNL     1       4.183  -6.895   4.357  1.00  0.00     0.010 A 
ATOM     87  C   UNL     1       2.619  -8.674   3.752  1.00  0.00    -0.010 A 
ATOM     88  C   UNL     1       4.555  -7.578   5.505  1.00  0.00     0.001 A 
ATOM     89  C   UNL     1       3.008  -9.358   4.934  1.00  0.00    -0.018 A 
ATOM     90  C   UNL     1       1.590  -9.257   2.974  1.00  0.00     0.009 A 
ATOM     91  C   UNL     1       3.988  -8.816   5.777  1.00  0.00     0.009 A 
ATOM     92  C   UNL     1       2.406 -10.580   5.272  1.00  0.00     0.009 A 
ATOM     93  C   UNL     1       0.976 -10.457   3.344  1.00  0.00     0.001 A 
ATOM     94  C   UNL     1       1.392 -11.123   4.487  1.00  0.00     0.001 A 
ENDBRANCH  84  85
ENDBRANCH  81  84
ENDBRANCH  74  77
ENDBRANCH  72  73
ENDBRANCH   1  72
TORSDOF 12
