REMARK SMILES O=C(NCCCNC(=O)C1(CC#Cc2ccccc2)CC1)c1ccc(-c2c3nc(c(-c4c(F)c(F)c(F)c(F)c4F)c4ccc([nH]4)c(-c4c(F)c(F)c(F)c(F)c4F)c4nc(c(-c5c(F)c(F)c(F)c(F)c5F)c5ccc2[nH]5)C=C4)C=C3)cc1
REMARK SMILES IDX 5 1 4 2 3 3 1 4 2 5 22 7 23 8 84 9 24 10 83 11 25 12 26 13
REMARK SMILES IDX 27 14 77 15 28 16 82 17 76 18 78 19 29 20 81 21 75 22 74 23
REMARK SMILES IDX 30 25 62 26 42 27 61 28 43 29 46 30 60 31 79 32 44 33 45 34
REMARK SMILES IDX 59 36 80 37 47 38 31 39 32 40 40 41 33 42 34 43 38 44 41 45
REMARK SMILES IDX 35 46 36 47 39 48 37 49 63 50 64 51 72 52 65 53 66 54 70 55
REMARK SMILES IDX 73 56 67 57 68 58 71 59 69 60 48 61 49 62 57 63 50 64 51 65
REMARK SMILES IDX 55 66 58 67 52 68 53 69 56 70 54 71 6 72 7 73 8 74 9 76
REMARK SMILES IDX 10 77 20 78 21 79 11 80 12 81 13 82 14 83 15 84 19 85 16 86
REMARK SMILES IDX 18 87 17 88
REMARK H PARENT 3 6 78 24 46 35 7 75
REMARK Flexibility Score: inf
ROOT
ATOM      1  C   UNL     1       4.574   0.411  -2.366  1.00  0.00     0.042 C 
ENDROOT
BRANCH   1   2
ATOM      2  C   UNL     1       4.321   0.872  -0.946  1.00  0.00     0.118 C 
BRANCH   2   3
ATOM      3  N   UNL     1       2.903   0.824  -0.597  1.00  0.00    -0.352 N 
ATOM      4  O   UNL     1       1.001  -0.096   0.202  1.00  0.00    -0.269 OA
ATOM      5  C   UNL     1       2.226  -0.055   0.214  1.00  0.00     0.251 C 
ATOM      6  H   UNL     1       2.348   1.527  -1.005  1.00  0.00     0.163 HD
BRANCH   5   7
ATOM      7  C   UNL     1       2.994  -0.957   1.093  1.00  0.00     0.039 A 
ATOM      8  C   UNL     1       4.141  -0.480   1.721  1.00  0.00     0.014 A 
ATOM      9  C   UNL     1       2.589  -2.281   1.281  1.00  0.00     0.014 A 
ATOM     10  C   UNL     1       5.002  -1.367   2.335  1.00  0.00     0.010 A 
ATOM     11  C   UNL     1       3.376  -3.138   2.056  1.00  0.00     0.010 A 
ATOM     12  C   UNL     1       4.606  -2.693   2.564  1.00  0.00    -0.014 A 
BRANCH  12  13
ATOM     13  C   UNL     1       5.472  -3.521   3.438  1.00  0.00     0.031 A 
ATOM     14  C   UNL     1       6.119  -4.782   2.948  1.00  0.00     0.074 A 
ATOM     15  C   UNL     1       5.735  -3.049   4.674  1.00  0.00     0.049 A 
ATOM     16  N   UNL     1       6.962  -5.565   3.574  1.00  0.00    -0.248 NA
ATOM     17  C   UNL     1       5.774  -5.236   1.593  1.00  0.00     0.031 C 
ATOM     18  C   UNL     1       5.138  -1.840   5.255  1.00  0.00     0.029 A 
ATOM     19  N   UNL     1       6.596  -3.486   5.644  1.00  0.00    -0.354 N 
ATOM     20  C   UNL     1       7.241  -6.605   2.698  1.00  0.00     0.074 A 
ATOM     21  C   UNL     1       6.450  -6.374   1.507  1.00  0.00     0.031 C 
ATOM     22  C   UNL     1       5.713  -1.584   6.435  1.00  0.00     0.029 A 
ATOM     23  C   UNL     1       6.640  -2.663   6.744  1.00  0.00     0.049 A 
ATOM     24  H   UNL     1       7.132  -4.307   5.562  1.00  0.00     0.167 HD
ATOM     25  C   UNL     1       8.088  -7.647   2.874  1.00  0.00     0.037 A 
ATOM     26  C   UNL     1       7.328  -2.776   7.893  1.00  0.00     0.037 A 
ATOM     27  C   UNL     1       8.870  -7.859   4.068  1.00  0.00     0.049 A 
ATOM     28  C   UNL     1       8.239  -3.955   8.063  1.00  0.00     0.074 A 
ATOM     29  C   UNL     1       9.758  -8.884   4.349  1.00  0.00     0.029 A 
ATOM     30  N   UNL     1       8.856  -7.030   5.182  1.00  0.00    -0.354 N 
ATOM     31  N   UNL     1       8.502  -4.923   7.219  1.00  0.00    -0.248 NA
ATOM     32  C   UNL     1       8.944  -4.060   9.344  1.00  0.00     0.031 C 
ATOM     33  C   UNL     1      10.243  -8.701   5.648  1.00  0.00     0.029 A 
ATOM     34  C   UNL     1       9.707  -7.530   6.157  1.00  0.00     0.049 A 
ATOM     35  H   UNL     1       8.321  -6.208   5.268  1.00  0.00     0.167 HD
ATOM     36  C   UNL     1       9.409  -5.750   7.864  1.00  0.00     0.074 A 
ATOM     37  C   UNL     1       9.681  -5.143   9.151  1.00  0.00     0.031 C 
ATOM     38  C   UNL     1       9.957  -6.914   7.436  1.00  0.00     0.037 A 
BRANCH  25  39
ATOM     39  C   UNL     1       8.212  -8.647   1.760  1.00  0.00     0.064 A 
ATOM     40  C   UNL     1       8.850  -8.329   0.552  1.00  0.00     0.173 A 
ATOM     41  C   UNL     1       7.742  -9.960   1.925  1.00  0.00     0.173 A 
ATOM     42  F   UNL     1       9.307  -7.086   0.336  1.00  0.00    -0.203 F 
ATOM     43  C   UNL     1       8.998  -9.281  -0.455  1.00  0.00     0.198 A 
ATOM     44  C   UNL     1       7.918 -10.917   0.928  1.00  0.00     0.198 A 
ATOM     45  F   UNL     1       7.128 -10.321   3.061  1.00  0.00    -0.203 F 
ATOM     46  F   UNL     1       9.578  -8.943  -1.615  1.00  0.00    -0.200 F 
ATOM     47  C   UNL     1       8.541 -10.576  -0.262  1.00  0.00     0.200 A 
ATOM     48  F   UNL     1       7.489 -12.172   1.123  1.00  0.00    -0.200 F 
ATOM     49  F   UNL     1       8.698 -11.495  -1.226  1.00  0.00    -0.200 F 
ENDBRANCH  25  39
BRANCH  26  50
ATOM     50  C   UNL     1       7.143  -1.771   8.972  1.00  0.00     0.064 A 
ATOM     51  C   UNL     1       8.193  -0.940   9.384  1.00  0.00     0.173 A 
ATOM     52  C   UNL     1       5.904  -1.623   9.616  1.00  0.00     0.173 A 
ATOM     53  F   UNL     1       9.400  -1.049   8.809  1.00  0.00    -0.203 F 
ATOM     54  C   UNL     1       8.019  -0.022  10.418  1.00  0.00     0.198 A 
ATOM     55  C   UNL     1       5.720  -0.677  10.620  1.00  0.00     0.198 A 
ATOM     56  F   UNL     1       4.862  -2.386   9.253  1.00  0.00    -0.203 F 
ATOM     57  F   UNL     1       9.055   0.719  10.833  1.00  0.00    -0.200 F 
ATOM     58  C   UNL     1       6.782   0.114  11.030  1.00  0.00     0.200 A 
ATOM     59  F   UNL     1       4.516  -0.533  11.188  1.00  0.00    -0.200 F 
ATOM     60  F   UNL     1       6.614   1.000  12.020  1.00  0.00    -0.200 F 
ENDBRANCH  26  50
BRANCH  38  61
ATOM     61  C   UNL     1      10.921  -7.584   8.372  1.00  0.00     0.064 A 
ATOM     62  C   UNL     1      10.494  -8.166   9.576  1.00  0.00     0.173 A 
ATOM     63  C   UNL     1      12.289  -7.634   8.066  1.00  0.00     0.173 A 
ATOM     64  F   UNL     1       9.198  -8.127   9.923  1.00  0.00    -0.203 F 
ATOM     65  C   UNL     1      11.407  -8.731  10.460  1.00  0.00     0.198 A 
ATOM     66  C   UNL     1      13.194  -8.235   8.935  1.00  0.00     0.198 A 
ATOM     67  F   UNL     1      12.748  -7.099   6.925  1.00  0.00    -0.203 F 
ATOM     68  F   UNL     1      10.986  -9.213  11.637  1.00  0.00    -0.200 F 
ATOM     69  C   UNL     1      12.755  -8.770  10.137  1.00  0.00     0.200 A 
ATOM     70  F   UNL     1      14.495  -8.284   8.616  1.00  0.00    -0.200 F 
ATOM     71  F   UNL     1      13.634  -9.311  10.992  1.00  0.00    -0.200 F 
ENDBRANCH  38  61
ENDBRANCH  12  13
ENDBRANCH   5   7
ENDBRANCH   2   3
ENDBRANCH   1   2
BRANCH   1  72
ATOM     72  C   UNL     1       3.970   1.362  -3.381  1.00  0.00     0.117 C 
BRANCH  72  73
ATOM     73  N   UNL     1       4.653   2.649  -3.369  1.00  0.00    -0.356 N 
ATOM     74  C   UNL     1       5.590   3.246  -4.172  1.00  0.00     0.227 C 
ATOM     75  H   UNL     1       4.380   3.218  -2.614  1.00  0.00     0.163 HD
ATOM     76  O   UNL     1       6.094   4.287  -3.753  1.00  0.00    -0.274 OA
BRANCH  74  77
ATOM     77  C   UNL     1       6.006   2.720  -5.531  1.00  0.00     0.060 C 
ATOM     78  C   UNL     1       6.203   1.215  -5.697  1.00  0.00     0.019 C 
ATOM     79  C   UNL     1       4.999   1.878  -6.319  1.00  0.00     0.019 C 
BRANCH  77  80
ATOM     80  C   UNL     1       6.997   3.657  -6.278  1.00  0.00     0.106 C 
BRANCH  80  81
ATOM     81  C   UNL     1       7.029   3.268  -7.695  1.00  0.00    -0.097 C 
ATOM     82  C   UNL     1       6.853   2.764  -8.771  1.00  0.00    -0.067 C 
BRANCH  82  83
ATOM     83  C   UNL     1       6.362   1.915  -9.812  1.00  0.00     0.024 A 
ATOM     84  C   UNL     1       5.038   2.057 -10.245  1.00  0.00     0.017 A 
ATOM     85  C   UNL     1       7.120   0.824 -10.236  1.00  0.00     0.017 A 
ATOM     86  C   UNL     1       4.473   1.105 -11.093  1.00  0.00     0.001 A 
ATOM     87  C   UNL     1       6.554  -0.124 -11.092  1.00  0.00     0.001 A 
ATOM     88  C   UNL     1       5.232   0.015 -11.515  1.00  0.00     0.000 A 
ENDBRANCH  82  83
ENDBRANCH  80  81
ENDBRANCH  77  80
ENDBRANCH  74  77
ENDBRANCH  72  73
ENDBRANCH   1  72
TORSDOF 13
