REMARK SMILES CC(C)[C@H](NS(=O)(=O)c1cccc(F)c1)C(=O)NCCCNC(=O)c1ccc(-c2c3nc(c(-c4c(F)c(F)c(F)c(F)c4F)c4ccc([nH]4)c(-c4c(F)c(F)c(F)c(F)c4F)c4nc(c(-c5c(F)c(F)c(F)c(F)c5F)c5ccc2[nH]5)C=C4)C=C3)cc1
REMARK SMILES IDX 19 1 18 2 16 3 17 4 4 6 2 7 1 8 3 9 5 10 6 12 7 13 8 14 9 15
REMARK SMILES IDX 10 16 15 17 11 18 13 19 12 20 14 21 20 22 21 23 22 24 23 25
REMARK SMILES IDX 24 27 25 28 26 29 87 30 27 31 86 32 28 33 29 34 30 35 80 36
REMARK SMILES IDX 31 37 85 38 79 39 81 40 32 41 84 42 78 43 77 44 33 46 65 47
REMARK SMILES IDX 45 48 64 49 46 50 49 51 63 52 82 53 47 54 48 55 62 57 83 58
REMARK SMILES IDX 50 59 34 60 35 61 43 62 36 63 37 64 41 65 44 66 38 67 39 68
REMARK SMILES IDX 42 69 40 70 66 71 67 72 75 73 68 74 69 75 73 76 76 77 70 78
REMARK SMILES IDX 71 79 74 80 72 81 51 82 52 83 60 84 53 85 54 86 58 87 61 88
REMARK SMILES IDX 55 89 56 90 59 91 57 92
REMARK H PARENT 18 5 5 11 22 26 81 45 49 56
REMARK Flexibility Score: inf
ROOT
ATOM      1  C   UNL     1       0.054   3.878   0.455  1.00  0.00     0.117 C 
ENDROOT
BRANCH   1   2
ATOM      2  N   UNL     1      -0.869   3.607  -0.632  1.00  0.00    -0.355 N 
ATOM      3  C   UNL     1      -1.473   2.459  -1.036  1.00  0.00     0.238 C 
ATOM      4  O   UNL     1      -2.293   2.565  -1.954  1.00  0.00    -0.273 OA
ATOM      5  H   UNL     1      -1.097   4.397  -1.175  1.00  0.00     0.163 HD
BRANCH   3   6
ATOM      6  C   UNL     1      -1.172   1.084  -0.421  1.00  0.00     0.161 C 
BRANCH   6   7
ATOM      7  C   UNL     1      -1.923   0.792   0.898  1.00  0.00     0.010 C 
ATOM      8  C   UNL     1      -1.583   1.687   2.087  1.00  0.00     0.009 C 
ATOM      9  C   UNL     1      -3.441   0.808   0.676  1.00  0.00     0.009 C 
ENDBRANCH   6   7
BRANCH   6  10
ATOM     10  N   UNL     1       0.285   0.840  -0.368  1.00  0.00    -0.198 NA
ATOM     11  H   UNL     1       0.631   1.388   0.420  1.00  0.00     0.142 HD
BRANCH  10  12
ATOM     12  S   UNL     1       0.962  -0.685  -0.199  1.00  0.00     0.241 S 
ATOM     13  O   UNL     1       2.381  -0.476  -0.339  1.00  0.00    -0.207 OA
ATOM     14  O   UNL     1       0.409  -1.325   0.977  1.00  0.00    -0.207 OA
BRANCH  12  15
ATOM     15  C   UNL     1       0.411  -1.609  -1.616  1.00  0.00     0.085 A 
ATOM     16  C   UNL     1       1.332  -1.980  -2.605  1.00  0.00     0.022 A 
ATOM     17  C   UNL     1      -0.918  -2.027  -1.702  1.00  0.00     0.061 A 
ATOM     18  C   UNL     1       0.904  -2.726  -3.707  1.00  0.00     0.004 A 
ATOM     19  C   UNL     1      -1.335  -2.733  -2.823  1.00  0.00     0.124 A 
ATOM     20  C   UNL     1      -0.438  -3.085  -3.826  1.00  0.00     0.039 A 
ATOM     21  F   UNL     1      -2.623  -3.079  -2.939  1.00  0.00    -0.207 F 
ENDBRANCH  12  15
ENDBRANCH  10  12
ENDBRANCH   6  10
ENDBRANCH   3   6
ENDBRANCH   1   2
BRANCH   1  22
ATOM     22  C   UNL     1       1.190   4.797   0.040  1.00  0.00     0.042 C 
BRANCH  22  23
ATOM     23  C   UNL     1       0.737   6.167  -0.448  1.00  0.00     0.118 C 
BRANCH  23  24
ATOM     24  N   UNL     1       0.051   6.948   0.574  1.00  0.00    -0.352 N 
ATOM     25  C   UNL     1       0.431   8.108   1.207  1.00  0.00     0.251 C 
ATOM     26  H   UNL     1      -0.821   6.588   0.856  1.00  0.00     0.163 HD
ATOM     27  O   UNL     1      -0.218   8.532   2.158  1.00  0.00    -0.269 OA
BRANCH  25  28
ATOM     28  C   UNL     1       1.642   8.828   0.762  1.00  0.00     0.039 A 
ATOM     29  C   UNL     1       2.543   9.302   1.718  1.00  0.00     0.014 A 
ATOM     30  C   UNL     1       1.899   9.017  -0.596  1.00  0.00     0.014 A 
ATOM     31  C   UNL     1       3.748   9.877   1.306  1.00  0.00     0.010 A 
ATOM     32  C   UNL     1       3.140   9.489  -1.004  1.00  0.00     0.010 A 
ATOM     33  C   UNL     1       4.078   9.926  -0.058  1.00  0.00    -0.014 A 
BRANCH  33  34
ATOM     34  C   UNL     1       5.388  10.443  -0.531  1.00  0.00     0.031 A 
ATOM     35  C   UNL     1       5.429  11.630  -1.454  1.00  0.00     0.074 A 
ATOM     36  C   UNL     1       6.527   9.806  -0.194  1.00  0.00     0.049 A 
ATOM     37  N   UNL     1       6.447  12.147  -2.094  1.00  0.00    -0.248 NA
ATOM     38  C   UNL     1       4.149  12.307  -1.722  1.00  0.00     0.031 C 
ATOM     39  C   UNL     1       6.617   8.627   0.668  1.00  0.00     0.029 A 
ATOM     40  N   UNL     1       7.831  10.059  -0.543  1.00  0.00    -0.354 N 
ATOM     41  C   UNL     1       5.927  13.191  -2.848  1.00  0.00     0.074 A 
ATOM     42  C   UNL     1       4.497  13.199  -2.638  1.00  0.00     0.031 C 
ATOM     43  C   UNL     1       7.907   8.284   0.815  1.00  0.00     0.029 A 
ATOM     44  C   UNL     1       8.733   9.186   0.017  1.00  0.00     0.049 A 
ATOM     45  H   UNL     1       8.095  10.797  -1.139  1.00  0.00     0.167 HD
ATOM     46  C   UNL     1       6.588  14.084  -3.619  1.00  0.00     0.037 A 
ATOM     47  C   UNL     1      10.072   9.120  -0.104  1.00  0.00     0.037 A 
ATOM     48  C   UNL     1       8.015  14.104  -3.789  1.00  0.00     0.049 A 
ATOM     49  C   UNL     1      10.779  10.117  -0.983  1.00  0.00     0.074 A 
ATOM     50  C   UNL     1       8.782  14.986  -4.529  1.00  0.00     0.029 A 
ATOM     51  N   UNL     1       8.892  13.210  -3.194  1.00  0.00    -0.354 N 
ATOM     52  N   UNL     1      10.277  11.109  -1.676  1.00  0.00    -0.248 NA
ATOM     53  C   UNL     1      12.239   9.984  -1.099  1.00  0.00     0.031 C 
ATOM     54  C   UNL     1      10.121  14.611  -4.403  1.00  0.00     0.029 A 
ATOM     55  C   UNL     1      10.192  13.520  -3.552  1.00  0.00     0.049 A 
ATOM     56  H   UNL     1       8.629  12.466  -2.605  1.00  0.00     0.167 HD
ATOM     57  C   UNL     1      11.357  11.738  -2.280  1.00  0.00     0.074 A 
ATOM     58  C   UNL     1      12.544  11.020  -1.867  1.00  0.00     0.031 C 
ATOM     59  C   UNL     1      11.363  12.813  -3.104  1.00  0.00     0.037 A 
BRANCH  46  60
ATOM     60  C   UNL     1       5.784  15.143  -4.312  1.00  0.00     0.064 A 
ATOM     61  C   UNL     1       5.653  15.146  -5.708  1.00  0.00     0.173 A 
ATOM     62  C   UNL     1       5.208  16.203  -3.595  1.00  0.00     0.173 A 
ATOM     63  F   UNL     1       6.188  14.157  -6.440  1.00  0.00    -0.203 F 
ATOM     64  C   UNL     1       4.990  16.181  -6.362  1.00  0.00     0.198 A 
ATOM     65  C   UNL     1       4.522  17.221  -4.250  1.00  0.00     0.198 A 
ATOM     66  F   UNL     1       5.294  16.237  -2.256  1.00  0.00    -0.203 F 
ATOM     67  F   UNL     1       4.907  16.183  -7.700  1.00  0.00    -0.200 F 
ATOM     68  C   UNL     1       4.424  17.216  -5.633  1.00  0.00     0.200 A 
ATOM     69  F   UNL     1       3.955  18.207  -3.541  1.00  0.00    -0.200 F 
ATOM     70  F   UNL     1       3.783  18.209  -6.263  1.00  0.00    -0.200 F 
ENDBRANCH  46  60
BRANCH  47  71
ATOM     71  C   UNL     1      10.842   8.100   0.656  1.00  0.00     0.064 A 
ATOM     72  C   UNL     1      10.765   6.734   0.347  1.00  0.00     0.173 A 
ATOM     73  C   UNL     1      11.679   8.482   1.714  1.00  0.00     0.173 A 
ATOM     74  F   UNL     1       9.977   6.315  -0.654  1.00  0.00    -0.203 F 
ATOM     75  C   UNL     1      11.490   5.790   1.073  1.00  0.00     0.198 A 
ATOM     76  C   UNL     1      12.424   7.541   2.421  1.00  0.00     0.198 A 
ATOM     77  F   UNL     1      11.802   9.779   2.034  1.00  0.00    -0.203 F 
ATOM     78  F   UNL     1      11.382   4.489   0.772  1.00  0.00    -0.200 F 
ATOM     79  C   UNL     1      12.325   6.195   2.104  1.00  0.00     0.200 A 
ATOM     80  F   UNL     1      13.249   7.941   3.398  1.00  0.00    -0.200 F 
ATOM     81  F   UNL     1      13.039   5.290   2.787  1.00  0.00    -0.200 F 
ENDBRANCH  47  71
BRANCH  59  82
ATOM     82  C   UNL     1      12.691  13.319  -3.582  1.00  0.00     0.064 A 
ATOM     83  C   UNL     1      13.190  14.544  -3.112  1.00  0.00     0.173 A 
ATOM     84  C   UNL     1      13.418  12.645  -4.572  1.00  0.00     0.173 A 
ATOM     85  F   UNL     1      12.522  15.230  -2.172  1.00  0.00    -0.203 F 
ATOM     86  C   UNL     1      14.362  15.084  -3.631  1.00  0.00     0.198 A 
ATOM     87  C   UNL     1      14.605  13.177  -5.070  1.00  0.00     0.198 A 
ATOM     88  F   UNL     1      12.986  11.466  -5.043  1.00  0.00    -0.203 F 
ATOM     89  F   UNL     1      14.800  16.274  -3.196  1.00  0.00    -0.200 F 
ATOM     90  C   UNL     1      15.069  14.400  -4.608  1.00  0.00     0.200 A 
ATOM     91  F   UNL     1      15.299  12.505  -5.999  1.00  0.00    -0.200 F 
ATOM     92  F   UNL     1      16.199  14.920  -5.106  1.00  0.00    -0.200 F 
ENDBRANCH  59  82
ENDBRANCH  33  34
ENDBRANCH  25  28
ENDBRANCH  23  24
ENDBRANCH  22  23
ENDBRANCH   1  22
TORSDOF 14
