REMARK SMILES CC(C)[C@@H](CNC(=O)NCC1C(C)(C)C1(C)C)C(=O)NCCCNC(=O)c1ccc(-c2c3nc(c(-c4c(F)c(F)c(F)c(F)c4F)c4ccc([nH]4)c(-c4c(F)c(F)c(F)c(F)c4F)c4nc(c(-c5c(F)c(F)c(F)c(F)c5F)c5ccc2[nH]5)C=C4)C=C3)cc1
REMARK SMILES IDX 21 1 20 2 18 3 19 4 4 6 2 7 1 8 3 9 5 10 6 11 7 12 8 14 9 15
REMARK SMILES IDX 10 17 11 18 12 19 15 20 13 21 14 22 16 23 17 24 22 25 23 26
REMARK SMILES IDX 24 27 25 28 26 30 27 31 28 32 89 33 29 34 88 35 30 36 31 37
REMARK SMILES IDX 32 38 82 39 33 40 87 41 81 42 83 43 34 44 86 45 80 46 79 47
REMARK SMILES IDX 35 49 67 50 47 51 66 52 48 53 51 54 65 55 84 56 49 57 50 58
REMARK SMILES IDX 64 60 85 61 52 62 36 63 37 64 45 65 38 66 39 67 43 68 46 69
REMARK SMILES IDX 40 70 41 71 44 72 42 73 68 74 69 75 77 76 70 77 71 78 75 79
REMARK SMILES IDX 78 80 72 81 73 82 76 83 74 84 53 85 54 86 62 87 55 88 56 89
REMARK SMILES IDX 60 90 63 91 57 92 58 93 61 94 59 95
REMARK H PARENT 20 5 6 13 9 16 24 29 83 48 51 59
REMARK Flexibility Score: inf
ROOT
ATOM      1  C   UNL     1      -0.148   2.715   3.009  1.00  0.00     0.117 C 
ENDROOT
BRANCH   1   2
ATOM      2  N   UNL     1      -1.008   3.075   1.898  1.00  0.00    -0.356 N 
ATOM      3  C   UNL     1      -1.358   2.363   0.795  1.00  0.00     0.225 C 
ATOM      4  O   UNL     1      -2.263   2.820   0.089  1.00  0.00    -0.275 OA
ATOM      5  H   UNL     1      -1.399   3.977   1.951  1.00  0.00     0.163 HD
BRANCH   3   6
ATOM      6  C   UNL     1      -0.670   1.057   0.406  1.00  0.00     0.100 C 
BRANCH   6   7
ATOM      7  C   UNL     1       0.867   1.172   0.225  1.00  0.00    -0.003 C 
ATOM      8  C   UNL     1       1.498  -0.145  -0.242  1.00  0.00     0.008 C 
ATOM      9  C   UNL     1       1.204   2.266  -0.802  1.00  0.00     0.008 C 
ENDBRANCH   6   7
BRANCH   6  10
ATOM     10  C   UNL     1      -1.203  -0.159   1.184  1.00  0.00     0.131 C 
BRANCH  10  11
ATOM     11  N   UNL     1      -1.197  -0.118   2.629  1.00  0.00    -0.337 N 
ATOM     12  C   UNL     1      -2.105   0.169   3.569  1.00  0.00     0.314 C 
ATOM     13  H   UNL     1      -0.321  -0.357   3.010  1.00  0.00     0.165 HD
ATOM     14  O   UNL     1      -1.714   0.185   4.740  1.00  0.00    -0.249 OA
ATOM     15  N   UNL     1      -3.383   0.462   3.338  1.00  0.00    -0.338 N 
ATOM     16  H   UNL     1      -3.870   0.676   4.167  1.00  0.00     0.165 HD
BRANCH  15  17
ATOM     17  C   UNL     1      -4.232   0.545   2.174  1.00  0.00     0.122 C 
BRANCH  17  18
ATOM     18  C   UNL     1      -5.237  -0.563   2.178  1.00  0.00     0.021 C 
ATOM     19  C   UNL     1      -5.699  -1.213   0.876  1.00  0.00    -0.025 C 
ATOM     20  C   UNL     1      -5.042  -2.074   1.978  1.00  0.00    -0.025 C 
ATOM     21  C   UNL     1      -7.195  -1.243   0.659  1.00  0.00     0.012 C 
ATOM     22  C   UNL     1      -4.962  -0.994  -0.429  1.00  0.00     0.012 C 
ATOM     23  C   UNL     1      -3.686  -2.699   1.762  1.00  0.00     0.012 C 
ATOM     24  C   UNL     1      -5.930  -3.001   2.790  1.00  0.00     0.012 C 
ENDBRANCH  17  18
ENDBRANCH  15  17
ENDBRANCH  10  11
ENDBRANCH   6  10
ENDBRANCH   3   6
ENDBRANCH   1   2
BRANCH   1  25
ATOM     25  C   UNL     1       1.014   3.669   3.200  1.00  0.00     0.042 C 
BRANCH  25  26
ATOM     26  C   UNL     1       0.585   5.040   3.691  1.00  0.00     0.118 C 
BRANCH  26  27
ATOM     27  N   UNL     1      -0.054   5.000   5.002  1.00  0.00    -0.352 N 
ATOM     28  C   UNL     1       0.381   5.433   6.231  1.00  0.00     0.251 C 
ATOM     29  H   UNL     1      -0.950   4.592   5.006  1.00  0.00     0.163 HD
ATOM     30  O   UNL     1      -0.244   5.140   7.242  1.00  0.00    -0.269 OA
BRANCH  28  31
ATOM     31  C   UNL     1       1.617   6.234   6.342  1.00  0.00     0.039 A 
ATOM     32  C   UNL     1       2.496   5.985   7.399  1.00  0.00     0.014 A 
ATOM     33  C   UNL     1       1.908   7.232   5.412  1.00  0.00     0.014 A 
ATOM     34  C   UNL     1       3.704   6.681   7.471  1.00  0.00     0.010 A 
ATOM     35  C   UNL     1       3.158   7.835   5.415  1.00  0.00     0.010 A 
ATOM     36  C   UNL     1       4.066   7.577   6.451  1.00  0.00    -0.014 A 
BRANCH  36  37
ATOM     37  C   UNL     1       5.377   8.272   6.453  1.00  0.00     0.031 A 
ATOM     38  C   UNL     1       5.427   9.775   6.484  1.00  0.00     0.074 A 
ATOM     39  C   UNL     1       6.512   7.556   6.343  1.00  0.00     0.049 A 
ATOM     40  N   UNL     1       6.461  10.572   6.393  1.00  0.00    -0.248 NA
ATOM     41  C   UNL     1       4.139  10.479   6.595  1.00  0.00     0.031 C 
ATOM     42  C   UNL     1       6.587   6.097   6.246  1.00  0.00     0.029 A 
ATOM     43  N   UNL     1       7.822   7.959   6.283  1.00  0.00    -0.354 N 
ATOM     44  C   UNL     1       5.946  11.862   6.413  1.00  0.00     0.074 A 
ATOM     45  C   UNL     1       4.506  11.744   6.458  1.00  0.00     0.031 C 
ATOM     46  C   UNL     1       7.875   5.726   6.168  1.00  0.00     0.029 A 
ATOM     47  C   UNL     1       8.713   6.921   6.163  1.00  0.00     0.049 A 
ATOM     48  H   UNL     1       8.098   8.904   6.322  1.00  0.00     0.167 HD
ATOM     49  C   UNL     1       6.615  13.039   6.424  1.00  0.00     0.037 A 
ATOM     50  C   UNL     1      10.055   6.933   6.052  1.00  0.00     0.037 A 
ATOM     51  C   UNL     1       8.050  13.147   6.414  1.00  0.00     0.049 A 
ATOM     52  C   UNL     1      10.775   8.255   6.068  1.00  0.00     0.074 A 
ATOM     53  C   UNL     1       8.829  14.287   6.492  1.00  0.00     0.029 A 
ATOM     54  N   UNL     1       8.921  12.071   6.318  1.00  0.00    -0.354 N 
ATOM     55  N   UNL     1      10.282   9.466   6.162  1.00  0.00    -0.248 NA
ATOM     56  C   UNL     1      12.240   8.210   5.968  1.00  0.00     0.031 C 
ATOM     57  C   UNL     1      10.171  13.905   6.388  1.00  0.00     0.029 A 
ATOM     58  C   UNL     1      10.230  12.523   6.309  1.00  0.00     0.049 A 
ATOM     59  H   UNL     1       8.648  11.126   6.265  1.00  0.00     0.167 HD
ATOM     60  C   UNL     1      11.373  10.324   6.164  1.00  0.00     0.074 A 
ATOM     61  C   UNL     1      12.556   9.493   6.078  1.00  0.00     0.031 C 
ATOM     62  C   UNL     1      11.395  11.678   6.230  1.00  0.00     0.037 A 
BRANCH  49  63
ATOM     63  C   UNL     1       5.803  14.302   6.453  1.00  0.00     0.064 A 
ATOM     64  C   UNL     1       5.043  14.666   7.576  1.00  0.00     0.173 A 
ATOM     65  C   UNL     1       5.807  15.176   5.356  1.00  0.00     0.173 A 
ATOM     66  F   UNL     1       4.993  13.860   8.648  1.00  0.00    -0.203 F 
ATOM     67  C   UNL     1       4.293  15.839   7.587  1.00  0.00     0.198 A 
ATOM     68  C   UNL     1       5.084  16.366   5.383  1.00  0.00     0.198 A 
ATOM     69  F   UNL     1       6.519  14.881   4.258  1.00  0.00    -0.203 F 
ATOM     70  F   UNL     1       3.532  16.136   8.649  1.00  0.00    -0.200 F 
ATOM     71  C   UNL     1       4.321  16.692   6.494  1.00  0.00     0.200 A 
ATOM     72  F   UNL     1       5.124  17.197   4.332  1.00  0.00    -0.200 F 
ATOM     73  F   UNL     1       3.606  17.826   6.509  1.00  0.00    -0.200 F 
ENDBRANCH  49  63
BRANCH  50  74
ATOM     74  C   UNL     1      10.805   5.654   5.940  1.00  0.00     0.064 A 
ATOM     75  C   UNL     1      11.639   5.215   6.978  1.00  0.00     0.173 A 
ATOM     76  C   UNL     1      10.710   4.848   4.797  1.00  0.00     0.173 A 
ATOM     77  F   UNL     1      11.779   5.960   8.085  1.00  0.00    -0.203 F 
ATOM     78  C   UNL     1      12.367   4.032   6.867  1.00  0.00     0.198 A 
ATOM     79  C   UNL     1      11.414   3.649   4.700  1.00  0.00     0.198 A 
ATOM     80  F   UNL     1       9.920   5.217   3.777  1.00  0.00    -0.203 F 
ATOM     81  F   UNL     1      13.195   3.663   7.854  1.00  0.00    -0.200 F 
ATOM     82  C   UNL     1      12.249   3.247   5.730  1.00  0.00     0.200 A 
ATOM     83  F   UNL     1      11.284   2.885   3.607  1.00  0.00    -0.200 F 
ATOM     84  F   UNL     1      12.947   2.108   5.625  1.00  0.00    -0.200 F 
ENDBRANCH  50  74
BRANCH  62  85
ATOM     85  C   UNL     1      12.740  12.345   6.251  1.00  0.00     0.064 A 
ATOM     86  C   UNL     1      13.564  12.381   5.117  1.00  0.00     0.173 A 
ATOM     87  C   UNL     1      13.191  12.993   7.411  1.00  0.00     0.173 A 
ATOM     88  F   UNL     1      13.185  11.764   3.987  1.00  0.00    -0.203 F 
ATOM     89  C   UNL     1      14.802  13.017   5.152  1.00  0.00     0.198 A 
ATOM     90  C   UNL     1      14.413  13.658   7.432  1.00  0.00     0.198 A 
ATOM     91  F   UNL     1      12.438  12.996   8.521  1.00  0.00    -0.203 F 
ATOM     92  F   UNL     1      15.595  12.994   4.072  1.00  0.00    -0.200 F 
ATOM     93  C   UNL     1      15.222  13.662   6.306  1.00  0.00     0.200 A 
ATOM     94  F   UNL     1      14.809  14.295   8.543  1.00  0.00    -0.200 F 
ATOM     95  F   UNL     1      16.409  14.282   6.334  1.00  0.00    -0.200 F 
ENDBRANCH  62  85
ENDBRANCH  36  37
ENDBRANCH  28  31
ENDBRANCH  26  27
ENDBRANCH  25  26
ENDBRANCH   1  25
TORSDOF 15
