REMARK SMILES O=C(NCCCNC(=O)[C@@H](CCCCO)c1cccc(Cl)c1)c1ccc(-c2c3nc(c(-c4c(F)c(F)c(F)c(F)c4F)c4ccc([nH]4)c(-c4c(F)c(F)c(F)c(F)c4F)c4nc(c(-c5c(F)c(F)c(F)c(F)c5F)c5ccc2[nH]5)C=C4)C=C3)cc1
REMARK SMILES IDX 7 1 8 2 9 3 6 5 5 6 4 7 3 8 1 9 2 10 23 12 24 13 85 14 25 15
REMARK SMILES IDX 84 16 26 17 27 18 28 19 78 20 29 21 83 22 77 23 79 24 30 25
REMARK SMILES IDX 82 26 76 27 75 28 31 30 63 31 43 32 62 33 44 34 47 35 61 36
REMARK SMILES IDX 80 37 45 38 46 39 60 41 81 42 48 43 32 44 33 45 41 46 34 47
REMARK SMILES IDX 35 48 39 49 42 50 36 51 37 52 40 53 38 54 64 55 65 56 73 57
REMARK SMILES IDX 66 58 67 59 71 60 74 61 68 62 69 63 72 64 70 65 49 66 50 67
REMARK SMILES IDX 58 68 51 69 52 70 56 71 59 72 53 73 54 74 57 75 55 76 10 77
REMARK SMILES IDX 11 78 12 79 13 80 14 81 15 82 16 84 17 85 22 86 18 87 20 88
REMARK SMILES IDX 19 89 21 90
REMARK H PARENT 7 4 3 11 79 29 47 40 15 83
REMARK Flexibility Score: inf
ROOT
ATOM      1  N   UNL     1       5.051  -3.785  -2.038  1.00  0.00    -0.356 N 
ATOM      2  C   UNL     1       5.687  -4.958  -2.283  1.00  0.00     0.227 C 
ATOM      3  O   UNL     1       6.221  -5.047  -3.396  1.00  0.00    -0.274 OA
ATOM      4  H   UNL     1       5.178  -3.103  -2.736  1.00  0.00     0.163 HD
ENDROOT
BRANCH   1   5
ATOM      5  C   UNL     1       4.218  -3.357  -0.934  1.00  0.00     0.117 C 
BRANCH   5   6
ATOM      6  C   UNL     1       4.682  -2.046  -0.332  1.00  0.00     0.042 C 
BRANCH   6   7
ATOM      7  C   UNL     1       4.271  -0.856  -1.179  1.00  0.00     0.118 C 
BRANCH   7   8
ATOM      8  N   UNL     1       2.840  -0.581  -1.091  1.00  0.00    -0.352 N 
ATOM      9  O   UNL     1       0.922   0.243  -0.247  1.00  0.00    -0.269 OA
ATOM     10  C   UNL     1       2.144   0.337  -0.342  1.00  0.00     0.251 C 
ATOM     11  H   UNL     1       2.279  -1.149  -1.666  1.00  0.00     0.163 HD
BRANCH  10  12
ATOM     12  C   UNL     1       2.856   1.420   0.370  1.00  0.00     0.039 A 
ATOM     13  C   UNL     1       3.968   2.029  -0.203  1.00  0.00     0.014 A 
ATOM     14  C   UNL     1       2.402   1.850   1.621  1.00  0.00     0.014 A 
ATOM     15  C   UNL     1       4.760   2.876   0.553  1.00  0.00     0.010 A 
ATOM     16  C   UNL     1       3.114   2.832   2.319  1.00  0.00     0.010 A 
ATOM     17  C   UNL     1       4.327   3.320   1.811  1.00  0.00    -0.014 A 
BRANCH  17  18
ATOM     18  C   UNL     1       5.141   4.337   2.524  1.00  0.00     0.031 A 
ATOM     19  C   UNL     1       5.715   4.064   3.886  1.00  0.00     0.074 A 
ATOM     20  C   UNL     1       5.405   5.502   1.898  1.00  0.00     0.049 A 
ATOM     21  N   UNL     1       6.464   4.836   4.635  1.00  0.00    -0.248 NA
ATOM     22  C   UNL     1       5.399   2.765   4.498  1.00  0.00     0.031 C 
ATOM     23  C   UNL     1       4.898   5.880   0.575  1.00  0.00     0.029 A 
ATOM     24  N   UNL     1       6.187   6.566   2.264  1.00  0.00    -0.354 N 
ATOM     25  C   UNL     1       6.673   4.136   5.816  1.00  0.00     0.074 A 
ATOM     26  C   UNL     1       5.958   2.884   5.694  1.00  0.00     0.031 C 
ATOM     27  C   UNL     1       5.446   7.044   0.205  1.00  0.00     0.029 A 
ATOM     28  C   UNL     1       6.265   7.544   1.301  1.00  0.00     0.049 A 
ATOM     29  H   UNL     1       6.649   6.625   3.131  1.00  0.00     0.167 HD
ATOM     30  C   UNL     1       7.399   4.507   6.899  1.00  0.00     0.037 A 
ATOM     31  C   UNL     1       6.908   8.725   1.305  1.00  0.00     0.037 A 
ATOM     32  C   UNL     1       8.132   5.745   6.994  1.00  0.00     0.049 A 
ATOM     33  C   UNL     1       7.691   9.114   2.523  1.00  0.00     0.074 A 
ATOM     34  C   UNL     1       8.929   6.199   8.030  1.00  0.00     0.029 A 
ATOM     35  N   UNL     1       8.154   6.729   6.014  1.00  0.00    -0.354 N 
ATOM     36  N   UNL     1       7.896   8.435   3.626  1.00  0.00    -0.248 NA
ATOM     37  C   UNL     1       8.325  10.437   2.501  1.00  0.00     0.031 C 
ATOM     38  C   UNL     1       9.388   7.480   7.702  1.00  0.00     0.029 A 
ATOM     39  C   UNL     1       8.931   7.798   6.433  1.00  0.00     0.049 A 
ATOM     40  H   UNL     1       7.686   6.675   5.150  1.00  0.00     0.167 HD
ATOM     41  C   UNL     1       8.705   9.234   4.418  1.00  0.00     0.074 A 
ATOM     42  C   UNL     1       8.965  10.442   3.661  1.00  0.00     0.031 C 
ATOM     43  C   UNL     1       9.189   8.989   5.661  1.00  0.00     0.037 A 
BRANCH  30  44
ATOM     44  C   UNL     1       7.407   3.582   8.085  1.00  0.00     0.064 A 
ATOM     45  C   UNL     1       8.053   2.337   8.057  1.00  0.00     0.173 A 
ATOM     46  C   UNL     1       6.775   3.963   9.280  1.00  0.00     0.173 A 
ATOM     47  F   UNL     1       8.663   1.917   6.939  1.00  0.00    -0.203 F 
ATOM     48  C   UNL     1       8.037   1.495   9.168  1.00  0.00     0.198 A 
ATOM     49  C   UNL     1       6.790   3.134  10.399  1.00  0.00     0.198 A 
ATOM     50  F   UNL     1       6.148   5.146   9.366  1.00  0.00    -0.203 F 
ATOM     51  F   UNL     1       8.614   0.287   9.099  1.00  0.00    -0.200 F 
ATOM     52  C   UNL     1       7.411   1.896  10.339  1.00  0.00     0.200 A 
ATOM     53  F   UNL     1       6.197   3.531  11.533  1.00  0.00    -0.200 F 
ATOM     54  F   UNL     1       7.401   1.087  11.407  1.00  0.00    -0.200 F 
ENDBRANCH  30  44
BRANCH  31  55
ATOM     55  C   UNL     1       6.832   9.613   0.116  1.00  0.00     0.064 A 
ATOM     56  C   UNL     1       7.966   9.861  -0.670  1.00  0.00     0.173 A 
ATOM     57  C   UNL     1       5.625  10.213  -0.273  1.00  0.00     0.173 A 
ATOM     58  F   UNL     1       9.146   9.322  -0.331  1.00  0.00    -0.203 F 
ATOM     59  C   UNL     1       7.898  10.688  -1.789  1.00  0.00     0.198 A 
ATOM     60  C   UNL     1       5.551  11.012  -1.411  1.00  0.00     0.198 A 
ATOM     61  F   UNL     1       4.509  10.000   0.440  1.00  0.00    -0.203 F 
ATOM     62  F   UNL     1       9.006  10.942  -2.499  1.00  0.00    -0.200 F 
ATOM     63  C   UNL     1       6.689  11.256  -2.163  1.00  0.00     0.200 A 
ATOM     64  F   UNL     1       4.376  11.540  -1.780  1.00  0.00    -0.200 F 
ATOM     65  F   UNL     1       6.623  12.042  -3.246  1.00  0.00    -0.200 F 
ENDBRANCH  31  55
BRANCH  43  66
ATOM     66  C   UNL     1      10.097  10.027   6.252  1.00  0.00     0.064 A 
ATOM     67  C   UNL     1       9.621  11.280   6.668  1.00  0.00     0.173 A 
ATOM     68  C   UNL     1      11.464   9.756   6.415  1.00  0.00     0.173 A 
ATOM     69  F   UNL     1       8.326  11.595   6.516  1.00  0.00    -0.203 F 
ATOM     70  C   UNL     1      10.488  12.236   7.190  1.00  0.00     0.198 A 
ATOM     71  C   UNL     1      12.321  10.701   6.970  1.00  0.00     0.198 A 
ATOM     72  F   UNL     1      11.969   8.572   6.038  1.00  0.00    -0.203 F 
ATOM     73  F   UNL     1      10.023  13.448   7.522  1.00  0.00    -0.200 F 
ATOM     74  C   UNL     1      11.835  11.944   7.347  1.00  0.00     0.200 A 
ATOM     75  F   UNL     1      13.619  10.412   7.133  1.00  0.00    -0.200 F 
ATOM     76  F   UNL     1      12.667  12.865   7.851  1.00  0.00    -0.200 F 
ENDBRANCH  43  66
ENDBRANCH  17  18
ENDBRANCH  10  12
ENDBRANCH   7   8
ENDBRANCH   6   7
ENDBRANCH   5   6
ENDBRANCH   1   5
BRANCH   2  77
ATOM     77  C   UNL     1       5.829  -6.108  -1.275  1.00  0.00     0.108 C 
BRANCH  77  78
ATOM     78  C   UNL     1       6.850  -5.847  -0.131  1.00  0.00     0.018 C 
BRANCH  78  79
ATOM     79  C   UNL     1       6.529  -4.893   1.027  1.00  0.00     0.004 C 
BRANCH  79  80
ATOM     80  C   UNL     1       5.334  -5.224   1.929  1.00  0.00     0.028 C 
BRANCH  80  81
ATOM     81  C   UNL     1       5.572  -6.362   2.909  1.00  0.00     0.156 C 
BRANCH  81  82
ATOM     82  O   UNL     1       6.341  -5.910   4.014  1.00  0.00    -0.396 OA
ATOM     83  H   UNL     1       7.200  -5.586   3.700  1.00  0.00     0.210 HD
ENDBRANCH  81  82
ENDBRANCH  80  81
ENDBRANCH  79  80
ENDBRANCH  78  79
ENDBRANCH  77  78
BRANCH  77  84
ATOM     84  C   UNL     1       4.598  -6.923  -0.892  1.00  0.00    -0.034 A 
ATOM     85  C   UNL     1       3.275  -6.482  -1.016  1.00  0.00     0.004 A 
ATOM     86  C   UNL     1       4.801  -8.215  -0.366  1.00  0.00     0.025 A 
ATOM     87  C   UNL     1       2.210  -7.229  -0.501  1.00  0.00     0.002 A 
ATOM     88  C   UNL     1       3.734  -8.981   0.103  1.00  0.00     0.041 A 
ATOM     89  C   UNL     1       2.441  -8.477   0.070  1.00  0.00     0.020 A 
ATOM     90  Cl  UNL     1       4.028 -10.552   0.737  1.00  0.00    -0.084 Cl
ENDBRANCH  77  84
ENDBRANCH   2  77
TORSDOF 16
