REMARK SMILES Cc1ccsc1[C@@H]1[NH2+][C@@H](C(=O)NCCCNC(=O)c2ccc(-c3c4nc(c(-c5c(F)c(F)c(F)c(F)c5F)c5ccc([nH]5)c(-c5c(F)c(F)c(F)c(F)c5F)c5nc(c(-c6c(F)c(F)c(F)c(F)c6F)c6ccc3[nH]6)C=C5)C=C4)cc2)CS1
REMARK SMILES IDX 14 1 13 2 12 3 10 4 11 5 9 7 7 8 8 9 83 10 82 13 6 14 1 15
REMARK SMILES IDX 2 16 3 17 4 18 5 19 15 20 16 21 17 22 18 24 19 25 20 26
REMARK SMILES IDX 81 27 21 28 80 29 22 30 23 31 24 32 74 33 25 34 79 35 73 36
REMARK SMILES IDX 75 37 26 38 78 39 72 40 71 41 27 43 59 44 39 45 58 46 40 47
REMARK SMILES IDX 43 48 57 49 76 50 41 51 42 52 56 54 77 55 44 56 28 57 29 58
REMARK SMILES IDX 37 59 30 60 31 61 35 62 38 63 32 64 33 65 36 66 34 67 60 68
REMARK SMILES IDX 61 69 69 70 62 71 63 72 67 73 70 74 64 75 65 76 68 77 66 78
REMARK SMILES IDX 45 79 46 80 54 81 47 82 48 83 52 84 55 85 49 86 50 87 53 88
REMARK SMILES IDX 51 89
REMARK H PARENT 12 6 8 11 8 12 16 23 75 42 43 53
REMARK Flexibility Score: inf
ROOT
ATOM      1  C   UNL     1       2.261  -0.086   4.001  1.00  0.00     0.042 C 
ENDROOT
BRANCH   1   2
ATOM      2  C   UNL     1       3.154  -1.110   3.300  1.00  0.00     0.118 C 
BRANCH   2   3
ATOM      3  N   UNL     1       2.722  -2.457   3.603  1.00  0.00    -0.351 N 
ATOM      4  C   UNL     1       2.303  -3.481   2.817  1.00  0.00     0.279 C 
ATOM      5  O   UNL     1       1.961  -4.498   3.426  1.00  0.00    -0.268 OA
ATOM      6  H   UNL     1       2.735  -2.672   4.564  1.00  0.00     0.163 HD
BRANCH   4   7
ATOM      7  C   UNL     1       2.335  -3.391   1.270  1.00  0.00     0.283 C 
ATOM      8  C   UNL     1       0.191  -3.145   0.121  1.00  0.00     0.284 C 
ATOM      9  N   UNL     1       1.341  -2.421   0.703  1.00  0.00    -0.320 N 
ATOM     10  S   UNL     1       0.297  -4.879   0.622  1.00  0.00    -0.087 SA
ATOM     11  H   UNL     1       1.010  -1.806   1.446  1.00  0.00     0.348 HD
ATOM     12  H   UNL     1       1.792  -1.874  -0.029  1.00  0.00     0.348 HD
ATOM     13  C   UNL     1       2.097  -4.787   0.695  1.00  0.00     0.151 C 
BRANCH   8  14
ATOM     14  C   UNL     1       0.057  -2.964  -1.397  1.00  0.00     0.075 A 
ATOM     15  C   UNL     1      -1.266  -0.748  -1.538  1.00  0.00     0.046 C 
ATOM     16  C   UNL     1      -0.639  -1.979  -2.103  1.00  0.00    -0.030 A 
ATOM     17  C   UNL     1      -0.759  -2.312  -3.499  1.00  0.00     0.015 A 
ATOM     18  C   UNL     1      -0.084  -3.456  -3.837  1.00  0.00     0.065 A 
ATOM     19  S   UNL     1       0.766  -4.088  -2.513  1.00  0.00    -0.141 S 
ENDBRANCH   8  14
ENDBRANCH   4   7
ENDBRANCH   2   3
ENDBRANCH   1   2
BRANCH   1  20
ATOM     20  C   UNL     1       2.193  -0.218   5.526  1.00  0.00     0.118 C 
BRANCH  20  21
ATOM     21  N   UNL     1       3.458   0.054   6.191  1.00  0.00    -0.352 N 
ATOM     22  C   UNL     1       3.759   0.954   7.185  1.00  0.00     0.251 C 
ATOM     23  H   UNL     1       4.217  -0.491   5.880  1.00  0.00     0.163 HD
ATOM     24  O   UNL     1       4.932   1.124   7.516  1.00  0.00    -0.269 OA
BRANCH  22  25
ATOM     25  C   UNL     1       2.696   1.749   7.839  1.00  0.00     0.039 A 
ATOM     26  C   UNL     1       2.918   3.112   8.058  1.00  0.00     0.014 A 
ATOM     27  C   UNL     1       1.494   1.167   8.251  1.00  0.00     0.014 A 
ATOM     28  C   UNL     1       1.909   3.904   8.612  1.00  0.00     0.010 A 
ATOM     29  C   UNL     1       0.462   1.970   8.735  1.00  0.00     0.010 A 
ATOM     30  C   UNL     1       0.653   3.349   8.912  1.00  0.00    -0.014 A 
BRANCH  30  31
ATOM     31  C   UNL     1      -0.473   4.206   9.373  1.00  0.00     0.031 A 
ATOM     32  C   UNL     1      -1.083   4.009  10.733  1.00  0.00     0.074 A 
ATOM     33  C   UNL     1      -0.991   5.127   8.535  1.00  0.00     0.049 A 
ATOM     34  N   UNL     1      -2.105   4.619  11.279  1.00  0.00    -0.248 NA
ATOM     35  C   UNL     1      -0.478   2.974  11.585  1.00  0.00     0.031 C 
ATOM     36  C   UNL     1      -0.519   5.389   7.174  1.00  0.00     0.029 A 
ATOM     37  N   UNL     1      -2.032   6.007   8.699  1.00  0.00    -0.354 N 
ATOM     38  C   UNL     1      -2.271   4.039  12.530  1.00  0.00     0.074 A 
ATOM     39  C   UNL     1      -1.279   2.991  12.641  1.00  0.00     0.031 C 
ATOM     40  C   UNL     1      -1.252   6.377   6.636  1.00  0.00     0.029 A 
ATOM     41  C   UNL     1      -2.274   6.788   7.594  1.00  0.00     0.049 A 
ATOM     42  H   UNL     1      -2.557   6.072   9.529  1.00  0.00     0.167 HD
ATOM     43  C   UNL     1      -3.155   4.364  13.504  1.00  0.00     0.037 A 
ATOM     44  C   UNL     1      -3.219   7.721   7.370  1.00  0.00     0.037 A 
ATOM     45  C   UNL     1      -4.135   5.415  13.395  1.00  0.00     0.049 A 
ATOM     46  C   UNL     1      -4.208   8.041   8.459  1.00  0.00     0.074 A 
ATOM     47  C   UNL     1      -5.037   5.855  14.348  1.00  0.00     0.029 A 
ATOM     48  N   UNL     1      -4.348   6.184  12.260  1.00  0.00    -0.354 N 
ATOM     49  N   UNL     1      -4.308   7.535   9.663  1.00  0.00    -0.248 NA
ATOM     50  C   UNL     1      -5.214   9.069   8.157  1.00  0.00     0.031 C 
ATOM     51  C   UNL     1      -5.836   6.848  13.771  1.00  0.00     0.029 A 
ATOM     52  C   UNL     1      -5.389   7.074  12.480  1.00  0.00     0.049 A 
ATOM     53  H   UNL     1      -3.836   6.109  11.423  1.00  0.00     0.167 HD
ATOM     54  C   UNL     1      -5.364   8.200  10.272  1.00  0.00     0.074 A 
ATOM     55  C   UNL     1      -5.861   9.161   9.309  1.00  0.00     0.031 C 
ATOM     56  C   UNL     1      -5.874   8.030  11.516  1.00  0.00     0.037 A 
BRANCH  43  57
ATOM     57  C   UNL     1      -3.109   3.570  14.780  1.00  0.00     0.064 A 
ATOM     58  C   UNL     1      -2.030   3.669  15.672  1.00  0.00     0.173 A 
ATOM     59  C   UNL     1      -4.179   2.736  15.139  1.00  0.00     0.173 A 
ATOM     60  F   UNL     1      -0.977   4.446  15.375  1.00  0.00    -0.203 F 
ATOM     61  C   UNL     1      -2.009   2.938  16.857  1.00  0.00     0.198 A 
ATOM     62  C   UNL     1      -4.170   2.033  16.342  1.00  0.00     0.198 A 
ATOM     63  F   UNL     1      -5.241   2.611  14.329  1.00  0.00    -0.203 F 
ATOM     64  F   UNL     1      -0.943   3.009  17.667  1.00  0.00    -0.200 F 
ATOM     65  C   UNL     1      -3.082   2.128  17.195  1.00  0.00     0.200 A 
ATOM     66  F   UNL     1      -5.216   1.264  16.674  1.00  0.00    -0.200 F 
ATOM     67  F   UNL     1      -3.064   1.433  18.341  1.00  0.00    -0.200 F 
ENDBRANCH  43  57
BRANCH  44  68
ATOM     68  C   UNL     1      -3.270   8.430   6.064  1.00  0.00     0.064 A 
ATOM     69  C   UNL     1      -2.978   9.799   5.974  1.00  0.00     0.173 A 
ATOM     70  C   UNL     1      -3.623   7.761   4.882  1.00  0.00     0.173 A 
ATOM     71  F   UNL     1      -2.657  10.488   7.079  1.00  0.00    -0.203 F 
ATOM     72  C   UNL     1      -3.060  10.476   4.759  1.00  0.00     0.198 A 
ATOM     73  C   UNL     1      -3.671   8.432   3.662  1.00  0.00     0.198 A 
ATOM     74  F   UNL     1      -3.906   6.451   4.910  1.00  0.00    -0.203 F 
ATOM     75  F   UNL     1      -2.827  11.794   4.712  1.00  0.00    -0.200 F 
ATOM     76  C   UNL     1      -3.401   9.790   3.603  1.00  0.00     0.200 A 
ATOM     77  F   UNL     1      -3.983   7.762   2.544  1.00  0.00    -0.200 F 
ATOM     78  F   UNL     1      -3.475  10.440   2.433  1.00  0.00    -0.200 F 
ENDBRANCH  44  68
BRANCH  56  79
ATOM     79  C   UNL     1      -7.009   8.927  11.926  1.00  0.00     0.064 A 
ATOM     80  C   UNL     1      -8.288   8.805  11.364  1.00  0.00     0.173 A 
ATOM     81  C   UNL     1      -6.820   9.900  12.920  1.00  0.00     0.173 A 
ATOM     82  F   UNL     1      -8.519   7.902  10.399  1.00  0.00    -0.203 F 
ATOM     83  C   UNL     1      -9.328   9.644  11.760  1.00  0.00     0.198 A 
ATOM     84  C   UNL     1      -7.870  10.713  13.338  1.00  0.00     0.198 A 
ATOM     85  F   UNL     1      -5.618  10.055  13.495  1.00  0.00    -0.203 F 
ATOM     86  F   UNL     1     -10.527   9.546  11.169  1.00  0.00    -0.200 F 
ATOM     87  C   UNL     1      -9.120  10.591  12.752  1.00  0.00     0.200 A 
ATOM     88  F   UNL     1      -7.671  11.616  14.308  1.00  0.00    -0.200 F 
ATOM     89  F   UNL     1     -10.123  11.391  13.137  1.00  0.00    -0.200 F 
ENDBRANCH  56  79
ENDBRANCH  30  31
ENDBRANCH  22  25
ENDBRANCH  20  21
ENDBRANCH   1  20
TORSDOF 11
