REMARK SMILES COc1cnc(F)c(C(=O)NCCCNC(=O)c2ccc(-c3c4nc(c(-c5c(F)c(F)c(F)c(F)c5F)c5ccc([nH]5)c(-c5c(F)c(F)c(F)c(F)c5F)c5nc(c(-c6c(F)c(F)c(F)c(F)c6F)c6ccc3[nH]6)C=C5)C=C4)cc2)c1
REMARK SMILES IDX 13 1 12 2 11 3 9 4 10 5 8 7 3 8 4 9 81 10 5 11 6 12 7 13
REMARK SMILES IDX 2 14 1 15 14 16 15 17 16 18 17 20 18 21 19 22 80 23 20 24
REMARK SMILES IDX 79 25 21 26 22 27 23 28 73 29 24 30 78 31 72 32 74 33 25 34
REMARK SMILES IDX 77 35 71 36 70 37 26 39 58 40 38 41 57 42 39 43 42 44 56 45
REMARK SMILES IDX 75 46 40 47 41 48 55 50 76 51 43 52 27 53 28 54 36 55 29 56
REMARK SMILES IDX 30 57 34 58 37 59 31 60 32 61 35 62 33 63 59 64 60 65 68 66
REMARK SMILES IDX 61 67 62 68 66 69 69 70 63 71 64 72 67 73 65 74 44 75 45 76
REMARK SMILES IDX 53 77 46 78 47 79 51 80 54 81 48 82 49 83 52 84 50 85
REMARK H PARENT 11 6 15 19 74 38 42 49
REMARK Flexibility Score: inf
ROOT
ATOM      1  C   UNL     1       2.831   0.212   7.958  1.00  0.00     0.042 C 
ENDROOT
BRANCH   1   2
ATOM      2  C   UNL     1       3.228   1.236   6.893  1.00  0.00     0.118 C 
BRANCH   2   3
ATOM      3  N   UNL     1       3.864   0.593   5.755  1.00  0.00    -0.352 N 
ATOM      4  C   UNL     1       3.423   0.275   4.499  1.00  0.00     0.256 C 
ATOM      5  O   UNL     1       4.236  -0.258   3.740  1.00  0.00    -0.269 OA
ATOM      6  H   UNL     1       4.799   0.333   5.922  1.00  0.00     0.163 HD
BRANCH   4   7
ATOM      7  C   UNL     1       2.080   0.580   3.966  1.00  0.00     0.098 A 
ATOM      8  C   UNL     1       0.736   1.036   2.006  1.00  0.00     0.138 A 
ATOM      9  C   UNL     1      -0.375   1.073   2.830  1.00  0.00     0.160 A 
ATOM     10  C   UNL     1       1.982   0.823   2.587  1.00  0.00     0.066 A 
ATOM     11  N   UNL     1      -0.328   0.822   4.156  1.00  0.00    -0.224 NA
ATOM     12  C   UNL     1       0.893   0.548   4.682  1.00  0.00     0.225 A 
ATOM     13  F   UNL     1       0.878   0.170   5.965  1.00  0.00    -0.184 F 
BRANCH   8  14
ATOM     14  O   UNL     1       0.567   1.238   0.668  1.00  0.00    -0.495 OA
ATOM     15  C   UNL     1       1.037   0.121  -0.092  1.00  0.00     0.278 C 
ENDBRANCH   8  14
ENDBRANCH   4   7
ENDBRANCH   2   3
ENDBRANCH   1   2
BRANCH   1  16
ATOM     16  C   UNL     1       4.010  -0.389   8.720  1.00  0.00     0.118 C 
BRANCH  16  17
ATOM     17  N   UNL     1       4.615   0.560   9.639  1.00  0.00    -0.352 N 
ATOM     18  C   UNL     1       4.811   0.484  10.995  1.00  0.00     0.251 C 
ATOM     19  H   UNL     1       4.936   1.392   9.221  1.00  0.00     0.163 HD
ATOM     20  O   UNL     1       5.159   1.492  11.604  1.00  0.00    -0.269 OA
BRANCH  18  21
ATOM     21  C   UNL     1       4.610  -0.782  11.741  1.00  0.00     0.039 A 
ATOM     22  C   UNL     1       4.072  -0.710  13.030  1.00  0.00     0.014 A 
ATOM     23  C   UNL     1       5.022  -2.018  11.234  1.00  0.00     0.014 A 
ATOM     24  C   UNL     1       3.921  -1.869  13.796  1.00  0.00     0.010 A 
ATOM     25  C   UNL     1       4.814  -3.184  11.974  1.00  0.00     0.010 A 
ATOM     26  C   UNL     1       4.279  -3.120  13.269  1.00  0.00    -0.014 A 
BRANCH  26  27
ATOM     27  C   UNL     1       4.121  -4.356  14.079  1.00  0.00     0.031 A 
ATOM     28  C   UNL     1       5.330  -5.120  14.545  1.00  0.00     0.074 A 
ATOM     29  C   UNL     1       2.887  -4.809  14.372  1.00  0.00     0.049 A 
ATOM     30  N   UNL     1       5.393  -6.227  15.243  1.00  0.00    -0.248 NA
ATOM     31  C   UNL     1       6.643  -4.581  14.158  1.00  0.00     0.031 C 
ATOM     32  C   UNL     1       1.636  -4.184  13.944  1.00  0.00     0.029 A 
ATOM     33  N   UNL     1       2.484  -5.902  15.097  1.00  0.00    -0.354 N 
ATOM     34  C   UNL     1       6.745  -6.522  15.365  1.00  0.00     0.074 A 
ATOM     35  C   UNL     1       7.467  -5.505  14.632  1.00  0.00     0.031 C 
ATOM     36  C   UNL     1       0.604  -4.892  14.431  1.00  0.00     0.029 A 
ATOM     37  C   UNL     1       1.120  -6.032  15.183  1.00  0.00     0.049 A 
ATOM     38  H   UNL     1       3.113  -6.534  15.515  1.00  0.00     0.167 HD
ATOM     39  C   UNL     1       7.332  -7.537  16.044  1.00  0.00     0.037 A 
ATOM     40  C   UNL     1       0.370  -6.964  15.800  1.00  0.00     0.037 A 
ATOM     41  C   UNL     1       6.617  -8.532  16.799  1.00  0.00     0.049 A 
ATOM     42  C   UNL     1       1.047  -8.071  16.561  1.00  0.00     0.074 A 
ATOM     43  C   UNL     1       7.125  -9.562  17.573  1.00  0.00     0.029 A 
ATOM     44  N   UNL     1       5.235  -8.621  16.877  1.00  0.00    -0.354 N 
ATOM     45  N   UNL     1       2.327  -8.302  16.723  1.00  0.00    -0.248 NA
ATOM     46  C   UNL     1       0.172  -9.043  17.233  1.00  0.00     0.031 C 
ATOM     47  C   UNL     1       6.051 -10.295  18.089  1.00  0.00     0.029 A 
ATOM     48  C   UNL     1       4.873  -9.698  17.669  1.00  0.00     0.049 A 
ATOM     49  H   UNL     1       4.604  -8.008  16.433  1.00  0.00     0.167 HD
ATOM     50  C   UNL     1       2.412  -9.429  17.528  1.00  0.00     0.074 A 
ATOM     51  C   UNL     1       1.054  -9.825  17.838  1.00  0.00     0.031 C 
ATOM     52  C   UNL     1       3.517 -10.080  17.968  1.00  0.00     0.037 A 
BRANCH  39  53
ATOM     53  C   UNL     1       8.830  -7.621  16.004  1.00  0.00     0.064 A 
ATOM     54  C   UNL     1       9.635  -6.700  16.692  1.00  0.00     0.173 A 
ATOM     55  C   UNL     1       9.469  -8.653  15.301  1.00  0.00     0.173 A 
ATOM     56  F   UNL     1       9.074  -5.688  17.371  1.00  0.00    -0.203 F 
ATOM     57  C   UNL     1      11.024  -6.793  16.654  1.00  0.00     0.198 A 
ATOM     58  C   UNL     1      10.857  -8.759  15.287  1.00  0.00     0.198 A 
ATOM     59  F   UNL     1       8.746  -9.564  14.632  1.00  0.00    -0.203 F 
ATOM     60  F   UNL     1      11.773  -5.875  17.281  1.00  0.00    -0.200 F 
ATOM     61  C   UNL     1      11.634  -7.825  15.957  1.00  0.00     0.200 A 
ATOM     62  F   UNL     1      11.445  -9.764  14.622  1.00  0.00    -0.200 F 
ATOM     63  F   UNL     1      12.970  -7.916  15.925  1.00  0.00    -0.200 F 
ENDBRANCH  39  53
BRANCH  40  64
ATOM     64  C   UNL     1      -1.111  -6.872  15.751  1.00  0.00     0.064 A 
ATOM     65  C   UNL     1      -1.847  -6.518  16.890  1.00  0.00     0.173 A 
ATOM     66  C   UNL     1      -1.819  -7.135  14.570  1.00  0.00     0.173 A 
ATOM     67  F   UNL     1      -1.214  -6.280  18.048  1.00  0.00    -0.203 F 
ATOM     68  C   UNL     1      -3.237  -6.446  16.855  1.00  0.00     0.198 A 
ATOM     69  C   UNL     1      -3.209  -7.038  14.529  1.00  0.00     0.198 A 
ATOM     70  F   UNL     1      -1.160  -7.475  13.453  1.00  0.00    -0.203 F 
ATOM     71  F   UNL     1      -3.919  -6.145  17.968  1.00  0.00    -0.200 F 
ATOM     72  C   UNL     1      -3.917  -6.700  15.673  1.00  0.00     0.200 A 
ATOM     73  F   UNL     1      -3.861  -7.274  13.383  1.00  0.00    -0.200 F 
ATOM     74  F   UNL     1      -5.254  -6.628  15.638  1.00  0.00    -0.200 F 
ENDBRANCH  40  64
BRANCH  52  75
ATOM     75  C   UNL     1       3.300 -11.277  18.845  1.00  0.00     0.064 A 
ATOM     76  C   UNL     1       2.822 -12.489  18.325  1.00  0.00     0.173 A 
ATOM     77  C   UNL     1       3.596 -11.219  20.215  1.00  0.00     0.173 A 
ATOM     78  F   UNL     1       2.510 -12.589  17.025  1.00  0.00    -0.203 F 
ATOM     79  C   UNL     1       2.624 -13.592  19.151  1.00  0.00     0.198 A 
ATOM     80  C   UNL     1       3.422 -12.332  21.033  1.00  0.00     0.198 A 
ATOM     81  F   UNL     1       4.061 -10.084  20.759  1.00  0.00    -0.203 F 
ATOM     82  F   UNL     1       2.122 -14.726  18.642  1.00  0.00    -0.200 F 
ATOM     83  C   UNL     1       2.929 -13.515  20.502  1.00  0.00     0.200 A 
ATOM     84  F   UNL     1       3.726 -12.259  22.336  1.00  0.00    -0.200 F 
ATOM     85  F   UNL     1       2.739 -14.578  21.295  1.00  0.00    -0.200 F 
ENDBRANCH  52  75
ENDBRANCH  26  27
ENDBRANCH  18  21
ENDBRANCH  16  17
ENDBRANCH   1  16
TORSDOF 11
