REMARK SMILES O=C(NCCCNC(=O)c1ccc(S(=O)(=O)NCCCn2cccn2)cc1)c1ccc(-c2c3nc(c(-c4c(F)c(F)c(F)c(F)c4F)c4ccc([nH]4)c(-c4c(F)c(F)c(F)c(F)c4F)c4nc(c(-c5c(F)c(F)c(F)c(F)c5F)c5ccc2[nH]5)C=C4)C=C3)cc1
REMARK SMILES IDX 7 1 8 2 9 3 6 5 5 6 4 7 3 8 1 9 2 10 28 12 29 13 90 14 30 15
REMARK SMILES IDX 89 16 31 17 32 18 33 19 83 20 34 21 88 22 82 23 84 24 35 25
REMARK SMILES IDX 87 26 81 27 80 28 36 30 68 31 48 32 67 33 49 34 52 35 66 36
REMARK SMILES IDX 85 37 50 38 51 39 65 41 86 42 53 43 37 44 38 45 46 46 39 47
REMARK SMILES IDX 40 48 44 49 47 50 41 51 42 52 45 53 43 54 69 55 70 56 78 57
REMARK SMILES IDX 71 58 72 59 76 60 79 61 73 62 74 63 77 64 75 65 54 66 55 67
REMARK SMILES IDX 63 68 56 69 57 70 61 71 64 72 58 73 59 74 62 75 60 76 10 77
REMARK SMILES IDX 11 78 27 79 12 80 26 81 13 82 14 83 15 84 16 85 17 86 18 88
REMARK SMILES IDX 19 89 20 90 21 91 22 92 25 93 23 94 24 95
REMARK H PARENT 7 4 3 11 84 29 52 40 17 87
REMARK Flexibility Score: inf
ROOT
ATOM      1  N   UNL     1       5.128   3.216   2.455  1.00  0.00    -0.352 N 
ATOM      2  C   UNL     1       5.908   4.157   3.087  1.00  0.00     0.251 C 
ATOM      3  O   UNL     1       6.388   3.921   4.192  1.00  0.00    -0.269 OA
ATOM      4  H   UNL     1       4.916   2.424   2.999  1.00  0.00     0.163 HD
ENDROOT
BRANCH   1   5
ATOM      5  C   UNL     1       4.565   3.204   1.108  1.00  0.00     0.118 C 
BRANCH   5   6
ATOM      6  C   UNL     1       5.078   2.062   0.240  1.00  0.00     0.042 C 
BRANCH   6   7
ATOM      7  C   UNL     1       4.696   0.678   0.744  1.00  0.00     0.118 C 
BRANCH   7   8
ATOM      8  N   UNL     1       3.268   0.465   0.864  1.00  0.00    -0.352 N 
ATOM      9  O   UNL     1       1.171  -0.121   0.544  1.00  0.00    -0.269 OA
ATOM     10  C   UNL     1       2.267   0.084   0.017  1.00  0.00     0.251 C 
ATOM     11  H   UNL     1       2.940   0.637   1.776  1.00  0.00     0.163 HD
BRANCH  10  12
ATOM     12  C   UNL     1       2.374  -0.033  -1.464  1.00  0.00     0.039 A 
ATOM     13  C   UNL     1       3.549   0.009  -2.217  1.00  0.00     0.014 A 
ATOM     14  C   UNL     1       1.148  -0.172  -2.145  1.00  0.00     0.014 A 
ATOM     15  C   UNL     1       3.491  -0.011  -3.612  1.00  0.00     0.010 A 
ATOM     16  C   UNL     1       1.085  -0.201  -3.533  1.00  0.00     0.010 A 
ATOM     17  C   UNL     1       2.257  -0.086  -4.270  1.00  0.00    -0.014 A 
BRANCH  17  18
ATOM     18  C   UNL     1       2.238  -0.213  -5.728  1.00  0.00     0.031 A 
ATOM     19  C   UNL     1       2.854  -1.473  -6.250  1.00  0.00     0.074 A 
ATOM     20  C   UNL     1       1.574   0.632  -6.546  1.00  0.00     0.049 A 
ATOM     21  N   UNL     1       3.816  -1.605  -7.106  1.00  0.00    -0.248 NA
ATOM     22  C   UNL     1       2.389  -2.748  -5.678  1.00  0.00     0.031 C 
ATOM     23  C   UNL     1       0.679   1.733  -6.181  1.00  0.00     0.029 A 
ATOM     24  N   UNL     1       1.497   0.622  -7.909  1.00  0.00    -0.354 N 
ATOM     25  C   UNL     1       3.986  -2.978  -7.293  1.00  0.00     0.074 A 
ATOM     26  C   UNL     1       3.160  -3.631  -6.313  1.00  0.00     0.031 C 
ATOM     27  C   UNL     1      -0.007   2.140  -7.275  1.00  0.00     0.029 A 
ATOM     28  C   UNL     1       0.494   1.427  -8.439  1.00  0.00     0.049 A 
ATOM     29  H   UNL     1       2.102   0.088  -8.472  1.00  0.00     0.167 HD
ATOM     30  C   UNL     1       4.664  -3.483  -8.361  1.00  0.00     0.037 A 
ATOM     31  C   UNL     1       0.077   1.467  -9.731  1.00  0.00     0.037 A 
ATOM     32  C   UNL     1       5.535  -2.502  -8.945  1.00  0.00     0.049 A 
ATOM     33  C   UNL     1       1.149   0.874 -10.566  1.00  0.00     0.074 A 
ATOM     34  C   UNL     1       6.642  -1.806  -8.499  1.00  0.00     0.029 A 
ATOM     35  N   UNL     1       5.114  -1.836 -10.068  1.00  0.00    -0.354 N 
ATOM     36  N   UNL     1       2.313   1.427 -10.755  1.00  0.00    -0.248 NA
ATOM     37  C   UNL     1       1.079  -0.554 -10.829  1.00  0.00     0.031 C 
ATOM     38  C   UNL     1       6.503  -0.501  -9.056  1.00  0.00     0.029 A 
ATOM     39  C   UNL     1       5.362  -0.504  -9.858  1.00  0.00     0.049 A 
ATOM     40  H   UNL     1       4.710  -2.238 -10.871  1.00  0.00     0.167 HD
ATOM     41  C   UNL     1       3.208   0.369 -10.728  1.00  0.00     0.074 A 
ATOM     42  C   UNL     1       2.384  -0.832 -10.848  1.00  0.00     0.031 C 
ATOM     43  C   UNL     1       4.500   0.552 -10.331  1.00  0.00     0.037 A 
BRANCH  30  44
ATOM     44  C   UNL     1       4.311  -4.773  -9.060  1.00  0.00     0.064 A 
ATOM     45  C   UNL     1       5.175  -5.299 -10.042  1.00  0.00     0.173 A 
ATOM     46  C   UNL     1       3.024  -5.351  -9.011  1.00  0.00     0.173 A 
ATOM     47  F   UNL     1       6.413  -4.807 -10.197  1.00  0.00    -0.203 F 
ATOM     48  C   UNL     1       4.758  -6.283 -10.943  1.00  0.00     0.198 A 
ATOM     49  C   UNL     1       2.627  -6.367  -9.879  1.00  0.00     0.198 A 
ATOM     50  F   UNL     1       2.067  -4.881  -8.201  1.00  0.00    -0.203 F 
ATOM     51  F   UNL     1       5.575  -6.670 -11.933  1.00  0.00    -0.200 F 
ATOM     52  C   UNL     1       3.483  -6.813 -10.864  1.00  0.00     0.200 A 
ATOM     53  F   UNL     1       1.380  -6.852  -9.800  1.00  0.00    -0.200 F 
ATOM     54  F   UNL     1       3.061  -7.713 -11.762  1.00  0.00    -0.200 F 
ENDBRANCH  30  44
BRANCH  31  55
ATOM     55  C   UNL     1      -1.295   1.670 -10.260  1.00  0.00     0.064 A 
ATOM     56  C   UNL     1      -1.520   2.000 -11.608  1.00  0.00     0.173 A 
ATOM     57  C   UNL     1      -2.420   1.248  -9.526  1.00  0.00     0.173 A 
ATOM     58  F   UNL     1      -0.495   2.361 -12.394  1.00  0.00    -0.203 F 
ATOM     59  C   UNL     1      -2.789   1.891 -12.191  1.00  0.00     0.198 A 
ATOM     60  C   UNL     1      -3.685   1.144 -10.107  1.00  0.00     0.198 A 
ATOM     61  F   UNL     1      -2.293   0.832  -8.258  1.00  0.00    -0.203 F 
ATOM     62  F   UNL     1      -2.953   2.155 -13.495  1.00  0.00    -0.200 F 
ATOM     63  C   UNL     1      -3.868   1.453 -11.442  1.00  0.00     0.200 A 
ATOM     64  F   UNL     1      -4.712   0.678  -9.381  1.00  0.00    -0.200 F 
ATOM     65  F   UNL     1      -5.069   1.287 -12.013  1.00  0.00    -0.200 F 
ENDBRANCH  31  55
BRANCH  43  66
ATOM     66  C   UNL     1       4.982   1.965 -10.149  1.00  0.00     0.064 A 
ATOM     67  C   UNL     1       4.448   2.865  -9.209  1.00  0.00     0.173 A 
ATOM     68  C   UNL     1       6.117   2.379 -10.859  1.00  0.00     0.173 A 
ATOM     69  F   UNL     1       3.431   2.513  -8.415  1.00  0.00    -0.203 F 
ATOM     70  C   UNL     1       4.996   4.134  -9.026  1.00  0.00     0.198 A 
ATOM     71  C   UNL     1       6.686   3.632 -10.647  1.00  0.00     0.198 A 
ATOM     72  F   UNL     1       6.706   1.543 -11.728  1.00  0.00    -0.203 F 
ATOM     73  F   UNL     1       4.459   4.977  -8.131  1.00  0.00    -0.200 F 
ATOM     74  C   UNL     1       6.119   4.513  -9.741  1.00  0.00     0.200 A 
ATOM     75  F   UNL     1       7.803   3.974 -11.303  1.00  0.00    -0.200 F 
ATOM     76  F   UNL     1       6.673   5.717  -9.536  1.00  0.00    -0.200 F 
ENDBRANCH  43  66
ENDBRANCH  17  18
ENDBRANCH  10  12
ENDBRANCH   7   8
ENDBRANCH   6   7
ENDBRANCH   5   6
ENDBRANCH   1   5
BRANCH   2  77
ATOM     77  C   UNL     1       6.186   5.449   2.426  1.00  0.00     0.039 A 
ATOM     78  C   UNL     1       7.487   5.968   2.434  1.00  0.00     0.015 A 
ATOM     79  C   UNL     1       5.157   6.139   1.784  1.00  0.00     0.015 A 
ATOM     80  C   UNL     1       7.768   7.139   1.727  1.00  0.00     0.022 A 
ATOM     81  C   UNL     1       5.453   7.242   0.998  1.00  0.00     0.022 A 
ATOM     82  C   UNL     1       6.751   7.756   0.990  1.00  0.00     0.082 A 
BRANCH  82  83
ATOM     83  S   UNL     1       7.113   9.258   0.122  1.00  0.00     0.240 S 
ATOM     84  O   UNL     1       7.752  10.162   1.046  1.00  0.00    -0.207 OA
ATOM     85  O   UNL     1       7.713   8.885  -1.141  1.00  0.00    -0.207 OA
BRANCH  83  86
ATOM     86  N   UNL     1       5.614   9.899  -0.256  1.00  0.00    -0.211 NA
ATOM     87  H   UNL     1       5.130   9.183  -0.798  1.00  0.00     0.141 HD
BRANCH  86  88
ATOM     88  C   UNL     1       4.667  10.346   0.762  1.00  0.00     0.101 C 
BRANCH  88  89
ATOM     89  C   UNL     1       4.911  11.773   1.216  1.00  0.00     0.040 C 
BRANCH  89  90
ATOM     90  C   UNL     1       5.072  12.791   0.094  1.00  0.00     0.145 C 
BRANCH  90  91
ATOM     91  N   UNL     1       3.829  13.192  -0.538  1.00  0.00    -0.273 N 
ATOM     92  C   UNL     1       2.970  12.425  -1.273  1.00  0.00     0.108 A 
ATOM     93  N   UNL     1       3.453  14.483  -0.476  1.00  0.00    -0.182 NA
ATOM     94  C   UNL     1       1.958  13.263  -1.678  1.00  0.00     0.042 A 
ATOM     95  C   UNL     1       2.321  14.524  -1.180  1.00  0.00     0.135 A 
ENDBRANCH  90  91
ENDBRANCH  89  90
ENDBRANCH  88  89
ENDBRANCH  86  88
ENDBRANCH  83  86
ENDBRANCH  82  83
ENDBRANCH   2  77
TORSDOF 16
