REMARK SMILES COc1ccc2c(c1C)OC(=O)[C@@H](CC(=O)N[C@@H](CC1=c3ccccc3=NC1)C(=O)NCCCNC(=O)c1ccc(-c3c4nc(c(-c5c(F)c(F)c(F)c(F)c5F)c5ccc([nH]5)c(-c5c(F)c(F)c(F)c(F)c5F)c5nc(c(-c6c(F)c(F)c(F)c(F)c6F)c6ccc3[nH]6)C=C5)C=C4)cc1)[C@H]2C
REMARK SMILES IDX 32 1 31 2 29 3 30 4 18 6 17 7 15 8 16 9 14 11 13 12 3 13
REMARK SMILES IDX 4 14 8 15 5 16 7 17 9 18 6 19 10 20 101 21 11 22 102 23
REMARK SMILES IDX 12 24 2 25 1 26 19 27 20 28 21 29 28 30 22 31 26 32 27 33
REMARK SMILES IDX 23 34 25 35 24 36 33 37 34 38 35 39 36 40 37 42 38 43 39 44
REMARK SMILES IDX 100 45 40 46 99 47 41 48 42 49 43 50 93 51 44 52 98 53 92 54
REMARK SMILES IDX 94 55 45 56 97 57 91 58 90 59 46 61 78 62 58 63 77 64 59 65
REMARK SMILES IDX 62 66 76 67 95 68 60 69 61 70 75 72 96 73 63 74 47 75 48 76
REMARK SMILES IDX 56 77 49 78 50 79 54 80 57 81 51 82 52 83 55 84 53 85 79 86
REMARK SMILES IDX 80 87 88 88 81 89 82 90 86 91 89 92 83 93 84 94 87 95 85 96
REMARK SMILES IDX 64 97 65 98 73 99 66 100 67 101 71 102 74 103 68 104 69 105
REMARK SMILES IDX 72 106 70 107
REMARK H PARENT 31 5 17 10 35 41 94 60 62 71
REMARK Flexibility Score: inf
ROOT
ATOM      1  C   UNL     1       5.223  10.208   3.927  1.00  0.00     0.117 C 
ENDROOT
BRANCH   1   2
ATOM      2  N   UNL     1       5.777   8.955   4.384  1.00  0.00    -0.354 N 
ATOM      3  C   UNL     1       5.230   7.710   4.345  1.00  0.00     0.242 C 
ATOM      4  O   UNL     1       5.992   6.755   4.534  1.00  0.00    -0.273 OA
ATOM      5  H   UNL     1       6.677   9.010   4.779  1.00  0.00     0.163 HD
BRANCH   3   6
ATOM      6  C   UNL     1       3.737   7.453   4.039  1.00  0.00     0.175 C 
BRANCH   6   7
ATOM      7  N   UNL     1       2.840   8.160   4.957  1.00  0.00    -0.344 N 
ATOM      8  C   UNL     1       1.930   7.710   5.861  1.00  0.00     0.221 C 
ATOM      9  O   UNL     1       1.265   8.553   6.465  1.00  0.00    -0.275 OA
ATOM     10  H   UNL     1       2.910   9.141   4.911  1.00  0.00     0.164 HD
BRANCH   8  11
ATOM     11  C   UNL     1       1.787   6.234   6.161  1.00  0.00     0.116 C 
BRANCH  11  12
ATOM     12  C   UNL     1       1.340   5.391   4.960  1.00  0.00     0.116 C 
ATOM     13  C   UNL     1       0.938   2.052   1.279  1.00  0.00     0.125 A 
ATOM     14  C   UNL     1       2.278   2.006   1.683  1.00  0.00     0.047 A 
ATOM     15  C   UNL     1      -0.001   2.801   2.007  1.00  0.00     0.034 A 
ATOM     16  C   UNL     1       2.691   2.668   2.837  1.00  0.00     0.012 A 
ATOM     17  C   UNL     1       0.440   3.457   3.167  1.00  0.00     0.140 A 
ATOM     18  C   UNL     1      -1.432   2.927   1.567  1.00  0.00     0.052 C 
ATOM     19  C   UNL     1       1.768   3.393   3.592  1.00  0.00    -0.001 A 
ATOM     20  O   UNL     1      -0.511   4.163   3.945  1.00  0.00    -0.426 OA
ATOM     21  C   UNL     1       2.179   4.107   4.846  1.00  0.00     0.035 C 
ATOM     22  C   UNL     1      -0.132   5.029   4.974  1.00  0.00     0.315 C 
ATOM     23  C   UNL     1       2.082   3.175   6.057  1.00  0.00     0.014 C 
ATOM     24  O   UNL     1      -0.957   5.517   5.735  1.00  0.00    -0.251 OA
BRANCH  13  25
ATOM     25  O   UNL     1       0.513   1.421   0.137  1.00  0.00    -0.496 OA
ATOM     26  C   UNL     1       0.967   0.072   0.030  1.00  0.00     0.278 C 
ENDBRANCH  13  25
ENDBRANCH  11  12
ENDBRANCH   8  11
ENDBRANCH   6   7
BRANCH   6  27
ATOM     27  C   UNL     1       3.329   7.533   2.536  1.00  0.00     0.068 C 
BRANCH  27  28
ATOM     28  C   UNL     1       3.123   8.879   1.899  1.00  0.00    -0.037 C 
ATOM     29  C   UNL     1       2.275   9.857   2.223  1.00  0.00     0.001 A 
ATOM     30  C   UNL     1       4.040   9.336   0.798  1.00  0.00     0.174 C 
ATOM     31  C   UNL     1       1.215  10.014   3.166  1.00  0.00     0.010 A 
ATOM     32  C   UNL     1       2.866  11.021   1.535  1.00  0.00     0.065 A 
ATOM     33  N   UNL     1       3.841  10.800   0.708  1.00  0.00    -0.280 NA
ATOM     34  C   UNL     1       0.840  11.253   3.522  1.00  0.00     0.001 A 
ATOM     35  C   UNL     1       2.384  12.353   1.963  1.00  0.00     0.028 A 
ATOM     36  C   UNL     1       1.459  12.428   2.935  1.00  0.00     0.002 A 
ENDBRANCH  27  28
ENDBRANCH   6  27
ENDBRANCH   3   6
ENDBRANCH   1   2
BRANCH   1  37
ATOM     37  C   UNL     1       5.459  11.380   4.852  1.00  0.00     0.042 C 
BRANCH  37  38
ATOM     38  C   UNL     1       6.907  11.829   4.866  1.00  0.00     0.118 C 
BRANCH  38  39
ATOM     39  N   UNL     1       7.343  12.361   3.579  1.00  0.00    -0.352 N 
ATOM     40  C   UNL     1       7.386  13.650   3.101  1.00  0.00     0.251 C 
ATOM     41  H   UNL     1       7.662  11.680   2.943  1.00  0.00     0.163 HD
ATOM     42  O   UNL     1       7.608  13.859   1.916  1.00  0.00    -0.269 OA
BRANCH  40  43
ATOM     43  C   UNL     1       7.146  14.788   4.011  1.00  0.00     0.039 A 
ATOM     44  C   UNL     1       6.380  15.871   3.567  1.00  0.00     0.014 A 
ATOM     45  C   UNL     1       7.703  14.804   5.288  1.00  0.00     0.014 A 
ATOM     46  C   UNL     1       6.114  16.933   4.435  1.00  0.00     0.010 A 
ATOM     47  C   UNL     1       7.348  15.799   6.185  1.00  0.00     0.010 A 
ATOM     48  C   UNL     1       6.571  16.885   5.760  1.00  0.00    -0.014 A 
BRANCH  48  49
ATOM     49  C   UNL     1       6.330  17.988   6.717  1.00  0.00     0.031 A 
ATOM     50  C   UNL     1       7.504  18.757   7.253  1.00  0.00     0.074 A 
ATOM     51  C   UNL     1       5.085  18.237   7.162  1.00  0.00     0.049 A 
ATOM     52  N   UNL     1       7.544  19.660   8.198  1.00  0.00    -0.248 NA
ATOM     53  C   UNL     1       8.820  18.440   6.671  1.00  0.00     0.031 C 
ATOM     54  C   UNL     1       3.876  17.532   6.735  1.00  0.00     0.029 A 
ATOM     55  N   UNL     1       4.634  19.145   8.085  1.00  0.00    -0.354 N 
ATOM     56  C   UNL     1       8.883  20.002   8.332  1.00  0.00     0.074 A 
ATOM     57  C   UNL     1       9.633  19.163   7.425  1.00  0.00     0.031 C 
ATOM     58  C   UNL     1       2.816  18.050   7.378  1.00  0.00     0.029 A 
ATOM     59  C   UNL     1       3.277  19.094   8.289  1.00  0.00     0.049 A 
ATOM     60  H   UNL     1       5.227  19.773   8.557  1.00  0.00     0.167 HD
ATOM     61  C   UNL     1       9.434  20.955   9.118  1.00  0.00     0.037 A 
ATOM     62  C   UNL     1       2.499  19.811   9.122  1.00  0.00     0.037 A 
ATOM     63  C   UNL     1       8.677  21.807   9.994  1.00  0.00     0.049 A 
ATOM     64  C   UNL     1       3.138  20.852  10.001  1.00  0.00     0.074 A 
ATOM     65  C   UNL     1       9.129  22.833  10.803  1.00  0.00     0.029 A 
ATOM     66  N   UNL     1       7.302  21.733  10.166  1.00  0.00    -0.354 N 
ATOM     67  N   UNL     1       4.400  21.195  10.095  1.00  0.00    -0.248 NA
ATOM     68  C   UNL     1       2.243  21.607  10.889  1.00  0.00     0.031 C 
ATOM     69  C   UNL     1       8.031  23.358  11.492  1.00  0.00     0.029 A 
ATOM     70  C   UNL     1       6.889  22.688  11.079  1.00  0.00     0.049 A 
ATOM     71  H   UNL     1       6.708  21.096   9.706  1.00  0.00     0.167 HD
ATOM     72  C   UNL     1       4.450  22.219  11.030  1.00  0.00     0.074 A 
ATOM     73  C   UNL     1       3.088  22.452  11.465  1.00  0.00     0.031 C 
ATOM     74  C   UNL     1       5.526  22.904  11.491  1.00  0.00     0.037 A 
BRANCH  61  75
ATOM     75  C   UNL     1      10.921  21.138   9.046  1.00  0.00     0.064 A 
ATOM     76  C   UNL     1      11.535  21.679   7.905  1.00  0.00     0.173 A 
ATOM     77  C   UNL     1      11.739  20.798  10.133  1.00  0.00     0.173 A 
ATOM     78  F   UNL     1      10.799  22.003   6.832  1.00  0.00    -0.203 F 
ATOM     79  C   UNL     1      12.915  21.849   7.847  1.00  0.00     0.198 A 
ATOM     80  C   UNL     1      13.116  20.997  10.082  1.00  0.00     0.198 A 
ATOM     81  F   UNL     1      11.202  20.277  11.246  1.00  0.00    -0.203 F 
ATOM     82  F   UNL     1      13.483  22.321   6.729  1.00  0.00    -0.200 F 
ATOM     83  C   UNL     1      13.703  21.516   8.938  1.00  0.00     0.200 A 
ATOM     84  F   UNL     1      13.876  20.685  11.141  1.00  0.00    -0.200 F 
ATOM     85  F   UNL     1      15.031  21.689   8.884  1.00  0.00    -0.200 F 
ENDBRANCH  61  75
BRANCH  62  86
ATOM     86  C   UNL     1       1.030  19.597   9.128  1.00  0.00     0.064 A 
ATOM     87  C   UNL     1       0.168  20.565   8.593  1.00  0.00     0.173 A 
ATOM     88  C   UNL     1       0.457  18.426   9.644  1.00  0.00     0.173 A 
ATOM     89  F   UNL     1       0.668  21.710   8.106  1.00  0.00    -0.203 F 
ATOM     90  C   UNL     1      -1.212  20.374   8.584  1.00  0.00     0.198 A 
ATOM     91  C   UNL     1      -0.922  18.226   9.612  1.00  0.00     0.198 A 
ATOM     92  F   UNL     1       1.238  17.468  10.162  1.00  0.00    -0.203 F 
ATOM     93  F   UNL     1      -2.015  21.330   8.096  1.00  0.00    -0.200 F 
ATOM     94  C   UNL     1      -1.756  19.202   9.086  1.00  0.00     0.200 A 
ATOM     95  F   UNL     1      -1.443  17.086  10.086  1.00  0.00    -0.200 F 
ATOM     96  F   UNL     1      -3.083  19.015   9.068  1.00  0.00    -0.200 F 
ENDBRANCH  62  86
BRANCH  74  97
ATOM     97  C   UNL     1       5.276  23.984  12.501  1.00  0.00     0.064 A 
ATOM     98  C   UNL     1       4.944  23.681  13.829  1.00  0.00     0.173 A 
ATOM     99  C   UNL     1       5.442  25.333  12.153  1.00  0.00     0.173 A 
ATOM    100  F   UNL     1       4.763  22.406  14.205  1.00  0.00    -0.203 F 
ATOM    101  C   UNL     1       4.771  24.692  14.770  1.00  0.00     0.198 A 
ATOM    102  C   UNL     1       5.297  26.339  13.103  1.00  0.00     0.198 A 
ATOM    103  F   UNL     1       5.769  25.673  10.897  1.00  0.00    -0.203 F 
ATOM    104  F   UNL     1       4.419  24.382  16.025  1.00  0.00    -0.200 F 
ATOM    105  C   UNL     1       4.957  26.018  14.409  1.00  0.00     0.200 A 
ATOM    106  F   UNL     1       5.493  27.619  12.757  1.00  0.00    -0.200 F 
ATOM    107  F   UNL     1       4.806  26.989  15.320  1.00  0.00    -0.200 F 
ENDBRANCH  74  97
ENDBRANCH  48  49
ENDBRANCH  40  43
ENDBRANCH  38  39
ENDBRANCH  37  38
ENDBRANCH   1  37
TORSDOF 16
