REMARK SMILES Nc1cc(C(=O)NCCCNC(=O)c2ccc(-c3c4nc(c(-c5c(F)c(F)c(F)c(F)c5F)c5ccc([nH]5)c(-c5c(F)c(F)c(F)c(F)c5F)c5nc(c(-c6c(F)c(F)c(F)c(F)c6F)c6ccc3[nH]6)C=C5)C=C4)cc2)c(-c2ccc(F)cc2O)cn1
REMARK SMILES IDX 9 1 8 2 7 3 5 4 6 5 4 7 2 8 3 9 87 10 86 11 77 12 1 13 78 16
REMARK SMILES IDX 79 17 84 18 80 19 83 20 81 21 82 22 85 23 10 25 11 26 12 27
REMARK SMILES IDX 13 29 14 30 15 31 76 32 16 33 75 34 17 35 18 36 19 37 69 38
REMARK SMILES IDX 20 39 74 40 68 41 70 42 21 43 73 44 67 45 66 46 22 48 54 49
REMARK SMILES IDX 34 50 53 51 35 52 38 53 52 54 71 55 36 56 37 57 51 59 72 60
REMARK SMILES IDX 39 61 23 62 24 63 32 64 25 65 26 66 30 67 33 68 27 69 28 70
REMARK SMILES IDX 31 71 29 72 55 73 56 74 64 75 57 76 58 77 62 78 65 79 59 80
REMARK SMILES IDX 60 81 63 82 61 83 40 84 41 85 49 86 42 87 43 88 47 89 50 90
REMARK SMILES IDX 44 91 45 92 48 93 46 94
REMARK H PARENT 7 6 1 14 1 15 85 24 11 28 70 47 38 58
REMARK Flexibility Score: inf
ROOT
ATOM      1  C   UNL     1       0.705  -4.602   0.592  1.00  0.00     0.042 C 
ENDROOT
BRANCH   1   2
ATOM      2  C   UNL     1       0.052  -3.981  -0.649  1.00  0.00     0.118 C 
BRANCH   2   3
ATOM      3  N   UNL     1      -1.295  -3.538  -0.342  1.00  0.00    -0.352 N 
ATOM      4  C   UNL     1      -1.839  -2.369   0.121  1.00  0.00     0.252 C 
ATOM      5  O   UNL     1      -2.989  -2.470   0.553  1.00  0.00    -0.269 OA
ATOM      6  H   UNL     1      -1.971  -4.236  -0.502  1.00  0.00     0.163 HD
BRANCH   4   7
ATOM      7  C   UNL     1      -1.146  -1.043   0.135  1.00  0.00     0.052 A 
ATOM      8  C   UNL     1       0.888   0.257   0.254  1.00  0.00     0.124 A 
ATOM      9  C   UNL     1       0.242  -0.966   0.311  1.00  0.00     0.061 A 
ATOM     10  N   UNL     1       0.229   1.407   0.108  1.00  0.00    -0.239 NA
ATOM     11  C   UNL     1      -1.118   1.337   0.017  1.00  0.00     0.123 A 
ATOM     12  C   UNL     1      -1.878   0.162   0.019  1.00  0.00     0.017 A 
BRANCH   8  13
ATOM     13  N   UNL     1       2.256   0.345   0.408  1.00  0.00    -0.384 N 
ATOM     14  H   UNL     1       2.793  -0.473   0.520  1.00  0.00     0.158 HD
ATOM     15  H   UNL     1       2.696   1.226   0.407  1.00  0.00     0.158 HD
ENDBRANCH   8  13
BRANCH  12  16
ATOM     16  C   UNL     1      -3.348   0.309  -0.073  1.00  0.00     0.026 A 
ATOM     17  C   UNL     1      -3.935   0.856  -1.231  1.00  0.00     0.015 A 
ATOM     18  C   UNL     1      -4.208   0.031   1.008  1.00  0.00     0.126 A 
ATOM     19  C   UNL     1      -5.312   1.099  -1.295  1.00  0.00     0.040 A 
ATOM     20  C   UNL     1      -5.578   0.272   0.957  1.00  0.00     0.086 A 
ATOM     21  C   UNL     1      -6.118   0.805  -0.201  1.00  0.00     0.126 A 
ATOM     22  F   UNL     1      -7.436   1.034  -0.271  1.00  0.00    -0.207 F 
BRANCH  18  23
ATOM     23  O   UNL     1      -3.735  -0.556   2.151  1.00  0.00    -0.507 OA
ATOM     24  H   UNL     1      -2.821  -0.741   2.238  1.00  0.00     0.293 HD
ENDBRANCH  18  23
ENDBRANCH  12  16
ENDBRANCH   4   7
ENDBRANCH   2   3
ENDBRANCH   1   2
BRANCH   1  25
ATOM     25  C   UNL     1       0.057  -5.915   1.041  1.00  0.00     0.118 C 
BRANCH  25  26
ATOM     26  N   UNL     1       0.271  -6.983   0.079  1.00  0.00    -0.352 N 
ATOM     27  C   UNL     1       0.853  -8.214   0.228  1.00  0.00     0.251 C 
ATOM     28  H   UNL     1      -0.056  -6.790  -0.830  1.00  0.00     0.163 HD
ATOM     29  O   UNL     1       1.142  -8.861  -0.775  1.00  0.00    -0.269 OA
BRANCH  27  30
ATOM     30  C   UNL     1       1.137  -8.783   1.566  1.00  0.00     0.039 A 
ATOM     31  C   UNL     1       2.299  -9.546   1.725  1.00  0.00     0.014 A 
ATOM     32  C   UNL     1       0.236  -8.664   2.628  1.00  0.00     0.014 A 
ATOM     33  C   UNL     1       2.569 -10.167   2.946  1.00  0.00     0.010 A 
ATOM     34  C   UNL     1       0.534  -9.238   3.867  1.00  0.00     0.010 A 
ATOM     35  C   UNL     1       1.695 -10.009   4.033  1.00  0.00    -0.014 A 
BRANCH  35  36
ATOM     36  C   UNL     1       1.984 -10.663   5.335  1.00  0.00     0.031 A 
ATOM     37  C   UNL     1       1.111 -11.778   5.841  1.00  0.00     0.074 A 
ATOM     38  C   UNL     1       3.022 -10.232   6.076  1.00  0.00     0.049 A 
ATOM     39  N   UNL     1       1.204 -12.463   6.954  1.00  0.00    -0.248 NA
ATOM     40  C   UNL     1      -0.030 -12.161   4.996  1.00  0.00     0.031 C 
ATOM     41  C   UNL     1       3.913  -9.128   5.718  1.00  0.00     0.029 A 
ATOM     42  N   UNL     1       3.502 -10.669   7.285  1.00  0.00    -0.354 N 
ATOM     43  C   UNL     1       0.130 -13.343   6.949  1.00  0.00     0.074 A 
ATOM     44  C   UNL     1      -0.627 -13.077   5.745  1.00  0.00     0.031 C 
ATOM     45  C   UNL     1       4.845  -8.989   6.674  1.00  0.00     0.029 A 
ATOM     46  C   UNL     1       4.604  -9.977   7.722  1.00  0.00     0.049 A 
ATOM     47  H   UNL     1       3.094 -11.408   7.792  1.00  0.00     0.167 HD
ATOM     48  C   UNL     1      -0.186 -14.299   7.856  1.00  0.00     0.037 A 
ATOM     49  C   UNL     1       5.341 -10.127   8.838  1.00  0.00     0.037 A 
ATOM     50  C   UNL     1       0.583 -14.582   9.041  1.00  0.00     0.049 A 
ATOM     51  C   UNL     1       4.992 -11.220   9.810  1.00  0.00     0.074 A 
ATOM     52  C   UNL     1       0.373 -15.562   9.996  1.00  0.00     0.029 A 
ATOM     53  N   UNL     1       1.716 -13.884   9.430  1.00  0.00    -0.354 N 
ATOM     54  N   UNL     1       4.010 -12.086   9.762  1.00  0.00    -0.248 NA
ATOM     55  C   UNL     1       5.865 -11.366  10.982  1.00  0.00     0.031 C 
ATOM     56  C   UNL     1       1.361 -15.437  10.979  1.00  0.00     0.029 A 
ATOM     57  C   UNL     1       2.211 -14.405  10.615  1.00  0.00     0.049 A 
ATOM     58  H   UNL     1       2.111 -13.128   8.937  1.00  0.00     0.167 HD
ATOM     59  C   UNL     1       4.160 -12.895  10.880  1.00  0.00     0.074 A 
ATOM     60  C   UNL     1       5.340 -12.427  11.578  1.00  0.00     0.031 C 
ATOM     61  C   UNL     1       3.391 -13.932  11.292  1.00  0.00     0.037 A 
BRANCH  48  62
ATOM     62  C   UNL     1      -1.420 -15.116   7.600  1.00  0.00     0.064 A 
ATOM     63  C   UNL     1      -1.467 -16.072   6.573  1.00  0.00     0.173 A 
ATOM     64  C   UNL     1      -2.555 -14.968   8.411  1.00  0.00     0.173 A 
ATOM     65  F   UNL     1      -0.412 -16.244   5.763  1.00  0.00    -0.203 F 
ATOM     66  C   UNL     1      -2.615 -16.827   6.349  1.00  0.00     0.198 A 
ATOM     67  C   UNL     1      -3.692 -15.745   8.201  1.00  0.00     0.198 A 
ATOM     68  F   UNL     1      -2.561 -14.074   9.411  1.00  0.00    -0.203 F 
ATOM     69  F   UNL     1      -2.653 -17.700   5.333  1.00  0.00    -0.200 F 
ATOM     70  C   UNL     1      -3.724 -16.668   7.166  1.00  0.00     0.200 A 
ATOM     71  F   UNL     1      -4.759 -15.598   8.999  1.00  0.00    -0.200 F 
ATOM     72  F   UNL     1      -4.827 -17.399   6.952  1.00  0.00    -0.200 F 
ENDBRANCH  48  62
BRANCH  49  73
ATOM     73  C   UNL     1       6.514  -9.247   9.071  1.00  0.00     0.064 A 
ATOM     74  C   UNL     1       7.819  -9.747   8.962  1.00  0.00     0.173 A 
ATOM     75  C   UNL     1       6.357  -7.894   9.403  1.00  0.00     0.173 A 
ATOM     76  F   UNL     1       8.018 -11.040   8.665  1.00  0.00    -0.203 F 
ATOM     77  C   UNL     1       8.924  -8.931   9.193  1.00  0.00     0.198 A 
ATOM     78  C   UNL     1       7.463  -7.073   9.609  1.00  0.00     0.198 A 
ATOM     79  F   UNL     1       5.129  -7.368   9.513  1.00  0.00    -0.203 F 
ATOM     80  F   UNL     1      10.160  -9.444   9.121  1.00  0.00    -0.200 F 
ATOM     81  C   UNL     1       8.745  -7.593   9.511  1.00  0.00     0.200 A 
ATOM     82  F   UNL     1       7.288  -5.777   9.903  1.00  0.00    -0.200 F 
ATOM     83  F   UNL     1       9.808  -6.807   9.729  1.00  0.00    -0.200 F 
ENDBRANCH  49  73
BRANCH  61  84
ATOM     84  C   UNL     1       3.824 -14.650  12.536  1.00  0.00     0.064 A 
ATOM     85  C   UNL     1       3.691 -14.068  13.805  1.00  0.00     0.173 A 
ATOM     86  C   UNL     1       4.365 -15.942  12.457  1.00  0.00     0.173 A 
ATOM     87  F   UNL     1       3.194 -12.828  13.930  1.00  0.00    -0.203 F 
ATOM     88  C   UNL     1       4.115 -14.741  14.948  1.00  0.00     0.198 A 
ATOM     89  C   UNL     1       4.762 -16.622  13.605  1.00  0.00     0.198 A 
ATOM     90  F   UNL     1       4.507 -16.544  11.267  1.00  0.00    -0.203 F 
ATOM     91  F   UNL     1       4.028 -14.144  16.145  1.00  0.00    -0.200 F 
ATOM     92  C   UNL     1       4.645 -16.018  14.848  1.00  0.00     0.200 A 
ATOM     93  F   UNL     1       5.266 -17.860  13.507  1.00  0.00    -0.200 F 
ATOM     94  F   UNL     1       5.055 -16.663  15.948  1.00  0.00    -0.200 F 
ENDBRANCH  61  84
ENDBRANCH  35  36
ENDBRANCH  27  30
ENDBRANCH  25  26
ENDBRANCH   1  25
TORSDOF 13
