REMARK SMILES C/C(=N/N=c1\[nH]c(O)c(C(=O)NCCCNC(=O)c2ccc(-c3c4nc(c(-c5c(F)c(F)c(F)c(F)c5F)c5ccc([nH]5)c(-c5c(F)c(F)c(F)c(F)c5F)c5nc(c(-c6c(F)c(F)c(F)c(F)c6F)c6ccc3[nH]6)C=C5)C=C4)cc2)s1)c1ccc2c(c1)OCO2
REMARK SMILES IDX 14 1 13 2 12 3 10 4 11 5 9 7 4 8 5 9 6 10 82 11 7 12 3 14
REMARK SMILES IDX 1 15 2 16 83 17 84 18 88 19 85 20 87 21 86 22 89 23 91 24
REMARK SMILES IDX 90 25 8 26 15 28 16 29 17 30 18 32 19 33 20 34 81 35 21 36
REMARK SMILES IDX 80 37 22 38 23 39 24 40 74 41 25 42 79 43 73 44 75 45 26 46
REMARK SMILES IDX 78 47 72 48 71 49 27 51 59 52 39 53 58 54 40 55 43 56 57 57
REMARK SMILES IDX 76 58 41 59 42 60 56 62 77 63 44 64 28 65 29 66 37 67 30 68
REMARK SMILES IDX 31 69 35 70 38 71 32 72 33 73 36 74 34 75 60 76 61 77 69 78
REMARK SMILES IDX 62 79 63 80 67 81 70 82 64 83 65 84 68 85 66 86 45 87 46 88
REMARK SMILES IDX 54 89 47 90 48 91 52 92 55 93 49 94 50 95 53 96 51 97
REMARK H PARENT 12 6 6 13 8 27 16 31 75 50 43 61
REMARK Flexibility Score: inf
ROOT
ATOM      1  C   UNL     1      -2.079  -8.121   0.733  1.00  0.00     0.042 C 
ENDROOT
BRANCH   1   2
ATOM      2  C   UNL     1      -3.361  -7.299   0.939  1.00  0.00     0.118 C 
BRANCH   2   3
ATOM      3  N   UNL     1      -3.770  -7.208   2.340  1.00  0.00    -0.351 N 
ATOM      4  C   UNL     1      -3.552  -6.241   3.289  1.00  0.00     0.266 C 
ATOM      5  O   UNL     1      -4.129  -6.365   4.370  1.00  0.00    -0.268 OA
ATOM      6  H   UNL     1      -4.295  -7.978   2.659  1.00  0.00     0.163 HD
BRANCH   4   7
ATOM      7  C   UNL     1      -2.671  -5.078   3.017  1.00  0.00     0.155 A 
ATOM      8  N   UNL     1      -0.255  -2.983   1.133  1.00  0.00    -0.121 NA
ATOM      9  C   UNL     1      -1.044  -3.469   2.017  1.00  0.00     0.211 A 
ATOM     10  N   UNL     1      -1.896  -2.928   2.942  1.00  0.00    -0.300 N 
ATOM     11  S   UNL     1      -1.211  -5.224   2.066  1.00  0.00    -0.086 S 
ATOM     12  C   UNL     1      -2.811  -3.812   3.467  1.00  0.00     0.214 A 
ATOM     13  H   UNL     1      -1.857  -1.982   3.210  1.00  0.00     0.172 HD
BRANCH   8  14
ATOM     14  N   UNL     1      -0.203  -1.601   1.085  1.00  0.00    -0.152 NA
ATOM     15  C   UNL     1       0.778   0.268  -0.116  1.00  0.00     0.069 C 
ATOM     16  C   UNL     1       0.466  -1.197   0.043  1.00  0.00     0.067 C 
BRANCH  16  17
ATOM     17  C   UNL     1       0.993  -2.076  -1.031  1.00  0.00     0.001 A 
ATOM     18  C   UNL     1       0.119  -2.597  -2.009  1.00  0.00     0.014 A 
ATOM     19  C   UNL     1       2.372  -2.288  -1.096  1.00  0.00     0.060 A 
ATOM     20  C   UNL     1       0.634  -3.306  -3.100  1.00  0.00     0.051 A 
ATOM     21  C   UNL     1       2.845  -2.957  -2.200  1.00  0.00     0.166 A 
ATOM     22  C   UNL     1       2.005  -3.440  -3.180  1.00  0.00     0.165 A 
ATOM     23  O   UNL     1       4.157  -3.169  -2.492  1.00  0.00    -0.454 OA
ATOM     24  O   UNL     1       2.696  -4.001  -4.211  1.00  0.00    -0.454 OA
ATOM     25  C   UNL     1       4.042  -3.616  -3.858  1.00  0.00     0.468 C 
ENDBRANCH  16  17
ENDBRANCH   8  14
BRANCH  12  26
ATOM     26  O   UNL     1      -3.782  -3.360   4.306  1.00  0.00    -0.493 OA
ATOM     27  H   UNL     1      -3.796  -2.459   4.563  1.00  0.00     0.295 HD
ENDBRANCH  12  26
ENDBRANCH   4   7
ENDBRANCH   2   3
ENDBRANCH   1   2
BRANCH   1  28
ATOM     28  C   UNL     1      -2.327  -9.617   0.730  1.00  0.00     0.118 C 
BRANCH  28  29
ATOM     29  N   UNL     1      -3.049 -10.070  -0.461  1.00  0.00    -0.352 N 
ATOM     30  C   UNL     1      -3.535 -11.335  -0.750  1.00  0.00     0.251 C 
ATOM     31  H   UNL     1      -3.210  -9.384  -1.149  1.00  0.00     0.163 HD
ATOM     32  O   UNL     1      -3.800 -11.664  -1.891  1.00  0.00    -0.269 OA
BRANCH  30  33
ATOM     33  C   UNL     1      -3.719 -12.282   0.364  1.00  0.00     0.039 A 
ATOM     34  C   UNL     1      -3.392 -13.635   0.238  1.00  0.00     0.014 A 
ATOM     35  C   UNL     1      -4.178 -11.769   1.569  1.00  0.00     0.014 A 
ATOM     36  C   UNL     1      -3.449 -14.443   1.372  1.00  0.00     0.010 A 
ATOM     37  C   UNL     1      -4.024 -12.502   2.711  1.00  0.00     0.010 A 
ATOM     38  C   UNL     1      -3.743 -13.857   2.612  1.00  0.00    -0.014 A 
BRANCH  38  39
ATOM     39  C   UNL     1      -3.656 -14.614   3.855  1.00  0.00     0.031 A 
ATOM     40  C   UNL     1      -2.317 -15.209   4.096  1.00  0.00     0.074 A 
ATOM     41  C   UNL     1      -4.615 -14.542   4.807  1.00  0.00     0.049 A 
ATOM     42  N   UNL     1      -2.001 -16.461   4.103  1.00  0.00    -0.248 NA
ATOM     43  C   UNL     1      -1.155 -14.307   4.192  1.00  0.00     0.031 C 
ATOM     44  C   UNL     1      -5.805 -13.676   4.801  1.00  0.00     0.029 A 
ATOM     45  N   UNL     1      -4.678 -15.118   6.043  1.00  0.00    -0.354 N 
ATOM     46  C   UNL     1      -0.656 -16.503   4.466  1.00  0.00     0.074 A 
ATOM     47  C   UNL     1      -0.144 -15.175   4.272  1.00  0.00     0.031 C 
ATOM     48  C   UNL     1      -6.313 -13.587   6.048  1.00  0.00     0.029 A 
ATOM     49  C   UNL     1      -5.620 -14.540   6.890  1.00  0.00     0.049 A 
ATOM     50  H   UNL     1      -4.108 -15.875   6.311  1.00  0.00     0.167 HD
ATOM     51  C   UNL     1      -0.192 -17.535   5.225  1.00  0.00     0.037 A 
ATOM     52  C   UNL     1      -5.825 -14.819   8.198  1.00  0.00     0.037 A 
ATOM     53  C   UNL     1      -1.167 -18.594   5.276  1.00  0.00     0.049 A 
ATOM     54  C   UNL     1      -5.240 -16.149   8.469  1.00  0.00     0.074 A 
ATOM     55  C   UNL     1      -1.599 -19.607   4.451  1.00  0.00     0.029 A 
ATOM     56  N   UNL     1      -2.135 -18.393   6.223  1.00  0.00    -0.354 N 
ATOM     57  N   UNL     1      -5.705 -17.253   7.953  1.00  0.00    -0.248 NA
ATOM     58  C   UNL     1      -3.896 -16.235   9.030  1.00  0.00     0.031 C 
ATOM     59  C   UNL     1      -2.924 -19.930   4.874  1.00  0.00     0.029 A 
ATOM     60  C   UNL     1      -3.252 -19.141   5.973  1.00  0.00     0.049 A 
ATOM     61  H   UNL     1      -2.039 -17.784   6.990  1.00  0.00     0.167 HD
ATOM     62  C   UNL     1      -4.580 -18.022   7.735  1.00  0.00     0.074 A 
ATOM     63  C   UNL     1      -3.540 -17.439   8.572  1.00  0.00     0.031 C 
ATOM     64  C   UNL     1      -4.494 -18.831   6.642  1.00  0.00     0.037 A 
BRANCH  51  65
ATOM     65  C   UNL     1       0.847 -17.420   6.326  1.00  0.00     0.064 A 
ATOM     66  C   UNL     1       1.278 -18.600   6.973  1.00  0.00     0.173 A 
ATOM     67  C   UNL     1       1.183 -16.218   6.986  1.00  0.00     0.173 A 
ATOM     68  F   UNL     1       1.004 -19.805   6.450  1.00  0.00    -0.203 F 
ATOM     69  C   UNL     1       1.921 -18.575   8.216  1.00  0.00     0.198 A 
ATOM     70  C   UNL     1       1.870 -16.195   8.200  1.00  0.00     0.198 A 
ATOM     71  F   UNL     1       0.767 -15.023   6.554  1.00  0.00    -0.203 F 
ATOM     72  F   UNL     1       2.199 -19.724   8.846  1.00  0.00    -0.200 F 
ATOM     73  C   UNL     1       2.210 -17.372   8.831  1.00  0.00     0.200 A 
ATOM     74  F   UNL     1       2.120 -15.018   8.791  1.00  0.00    -0.200 F 
ATOM     75  F   UNL     1       2.772 -17.343  10.046  1.00  0.00    -0.200 F 
ENDBRANCH  51  65
BRANCH  52  76
ATOM     76  C   UNL     1      -6.306 -13.926   9.274  1.00  0.00     0.064 A 
ATOM     77  C   UNL     1      -6.896 -14.435  10.440  1.00  0.00     0.173 A 
ATOM     78  C   UNL     1      -5.937 -12.567   9.296  1.00  0.00     0.173 A 
ATOM     79  F   UNL     1      -7.241 -15.729  10.510  1.00  0.00    -0.203 F 
ATOM     80  C   UNL     1      -7.079 -13.639  11.576  1.00  0.00     0.198 A 
ATOM     81  C   UNL     1      -6.121 -11.773  10.429  1.00  0.00     0.198 A 
ATOM     82  F   UNL     1      -5.304 -12.015   8.250  1.00  0.00    -0.203 F 
ATOM     83  F   UNL     1      -7.590 -14.175  12.693  1.00  0.00    -0.200 F 
ATOM     84  C   UNL     1      -6.678 -12.313  11.573  1.00  0.00     0.200 A 
ATOM     85  F   UNL     1      -5.694 -10.502  10.428  1.00  0.00    -0.200 F 
ATOM     86  F   UNL     1      -6.789 -11.569  12.683  1.00  0.00    -0.200 F 
ENDBRANCH  52  76
BRANCH  64  87
ATOM     87  C   UNL     1      -5.772 -19.293   6.019  1.00  0.00     0.064 A 
ATOM     88  C   UNL     1      -6.678 -18.462   5.342  1.00  0.00     0.173 A 
ATOM     89  C   UNL     1      -6.048 -20.666   6.053  1.00  0.00     0.173 A 
ATOM     90  F   UNL     1      -6.445 -17.151   5.209  1.00  0.00    -0.203 F 
ATOM     91  C   UNL     1      -7.829 -18.986   4.754  1.00  0.00     0.198 A 
ATOM     92  C   UNL     1      -7.176 -21.190   5.435  1.00  0.00     0.198 A 
ATOM     93  F   UNL     1      -5.194 -21.507   6.657  1.00  0.00    -0.203 F 
ATOM     94  F   UNL     1      -8.692 -18.174   4.125  1.00  0.00    -0.200 F 
ATOM     95  C   UNL     1      -8.072 -20.350   4.795  1.00  0.00     0.200 A 
ATOM     96  F   UNL     1      -7.384 -22.514   5.444  1.00  0.00    -0.200 F 
ATOM     97  F   UNL     1      -9.161 -20.858   4.200  1.00  0.00    -0.200 F 
ENDBRANCH  64  87
ENDBRANCH  38  39
ENDBRANCH  30  33
ENDBRANCH  28  29
ENDBRANCH   1  28
TORSDOF 13
