REMARK SMILES CC[C@H]1CN(C(=O)N(CC(=O)NCCCNC(=O)c2ccc(-c3c4nc(c(-c5c(F)c(F)c(F)c(F)c5F)c5ccc([nH]5)c(-c5c(F)c(F)c(F)c(F)c5F)c5nc(c(-c6c(F)c(F)c(F)c(F)c6F)c6ccc3[nH]6)C=C5)C=C4)cc2)C(C)(C)C)CC[N@@H+]1C
REMARK SMILES IDX 13 1 12 2 10 3 11 4 9 6 8 7 6 8 7 9 5 10 3 11 4 12 88 13
REMARK SMILES IDX 87 14 89 15 86 17 2 18 1 19 82 20 83 21 84 22 85 23 14 24
REMARK SMILES IDX 15 25 16 26 17 27 18 29 19 30 20 31 81 32 21 33 80 34 22 35
REMARK SMILES IDX 23 36 24 37 74 38 25 39 79 40 73 41 75 42 26 43 78 44 72 45
REMARK SMILES IDX 71 46 27 48 59 49 39 50 58 51 40 52 43 53 57 54 76 55 41 56
REMARK SMILES IDX 42 57 56 59 77 60 44 61 28 62 29 63 37 64 30 65 31 66 35 67
REMARK SMILES IDX 38 68 32 69 33 70 36 71 34 72 60 73 61 74 69 75 62 76 63 77
REMARK SMILES IDX 67 78 70 79 64 80 65 81 68 82 66 83 45 84 46 85 54 86 47 87
REMARK SMILES IDX 48 88 52 89 55 90 49 91 50 92 53 93 51 94
REMARK H PARENT 12 5 88 16 16 28 75 47 43 58
REMARK Flexibility Score: inf
ROOT
ATOM      1  C   UNL     1       4.311  -5.928   1.905  1.00  0.00     0.117 C 
ENDROOT
BRANCH   1   2
ATOM      2  N   UNL     1       4.965  -6.296   0.670  1.00  0.00    -0.354 N 
ATOM      3  C   UNL     1       4.498  -6.145  -0.602  1.00  0.00     0.239 C 
ATOM      4  O   UNL     1       5.288  -6.316  -1.533  1.00  0.00    -0.273 OA
ATOM      5  H   UNL     1       5.856  -6.705   0.758  1.00  0.00     0.163 HD
BRANCH   3   6
ATOM      6  C   UNL     1       3.062  -5.664  -0.843  1.00  0.00     0.221 C 
BRANCH   6   7
ATOM      7  N   UNL     1       1.955  -6.555  -0.437  1.00  0.00    -0.311 N 
BRANCH   7   8
ATOM      8  C   UNL     1       1.105  -6.264   0.629  1.00  0.00     0.321 C 
ATOM      9  O   UNL     1       0.579  -7.169   1.283  1.00  0.00    -0.248 OA
BRANCH   8  10
ATOM     10  N   UNL     1       0.828  -4.947   0.972  1.00  0.00    -0.313 N 
ATOM     11  C   UNL     1       0.891  -2.437   0.689  1.00  0.00     0.203 C 
ATOM     12  C   UNL     1       0.690  -3.834   0.032  1.00  0.00     0.186 C 
ATOM     13  N   UNL     1       0.070  -2.210   1.904  1.00  0.00    -0.332 N 
ATOM     14  C   UNL     1       0.098  -3.372   2.820  1.00  0.00     0.284 C 
ATOM     15  C   UNL     1      -1.314  -1.882   1.551  1.00  0.00     0.333 C 
ATOM     16  H   UNL     1       0.484  -1.417   2.394  1.00  0.00     0.348 HD
ATOM     17  C   UNL     1       0.005  -4.768   2.178  1.00  0.00     0.183 C 
BRANCH  11  18
ATOM     18  C   UNL     1       2.380  -2.039   0.884  1.00  0.00     0.063 C 
ATOM     19  C   UNL     1       3.093  -2.484   2.151  1.00  0.00     0.010 C 
ENDBRANCH  11  18
ENDBRANCH   8  10
ENDBRANCH   7   8
BRANCH   7  20
ATOM     20  C   UNL     1       1.854  -7.930  -1.077  1.00  0.00     0.037 C 
ATOM     21  C   UNL     1       2.289  -9.057  -0.111  1.00  0.00     0.034 C 
ATOM     22  C   UNL     1       0.399  -8.184  -1.542  1.00  0.00     0.034 C 
ATOM     23  C   UNL     1       2.722  -8.104  -2.350  1.00  0.00     0.034 C 
ENDBRANCH   7  20
ENDBRANCH   6   7
ENDBRANCH   3   6
ENDBRANCH   1   2
BRANCH   1  24
ATOM     24  C   UNL     1       3.966  -7.114   2.785  1.00  0.00     0.042 C 
BRANCH  24  25
ATOM     25  C   UNL     1       5.179  -7.917   3.218  1.00  0.00     0.118 C 
BRANCH  25  26
ATOM     26  N   UNL     1       6.075  -7.147   4.070  1.00  0.00    -0.352 N 
ATOM     27  C   UNL     1       6.535  -7.431   5.328  1.00  0.00     0.251 C 
ATOM     28  H   UNL     1       6.396  -6.300   3.686  1.00  0.00     0.163 HD
ATOM     29  O   UNL     1       7.125  -6.565   5.974  1.00  0.00    -0.269 OA
BRANCH  27  30
ATOM     30  C   UNL     1       6.321  -8.768   5.917  1.00  0.00     0.039 A 
ATOM     31  C   UNL     1       5.991  -8.862   7.272  1.00  0.00     0.014 A 
ATOM     32  C   UNL     1       6.478  -9.928   5.152  1.00  0.00     0.014 A 
ATOM     33  C   UNL     1       5.787 -10.116   7.849  1.00  0.00     0.010 A 
ATOM     34  C   UNL     1       6.192 -11.171   5.706  1.00  0.00     0.010 A 
ATOM     35  C   UNL     1       5.870 -11.278   7.066  1.00  0.00    -0.014 A 
BRANCH  35  36
ATOM     36  C   UNL     1       5.675 -12.619   7.668  1.00  0.00     0.031 A 
ATOM     37  C   UNL     1       6.822 -13.590   7.721  1.00  0.00     0.074 A 
ATOM     38  C   UNL     1       4.461 -12.976   8.127  1.00  0.00     0.049 A 
ATOM     39  N   UNL     1       6.848 -14.818   8.174  1.00  0.00    -0.248 NA
ATOM     40  C   UNL     1       8.104 -13.132   7.161  1.00  0.00     0.031 C 
ATOM     41  C   UNL     1       3.259 -12.142   8.078  1.00  0.00     0.029 A 
ATOM     42  N   UNL     1       4.038 -14.138   8.721  1.00  0.00    -0.354 N 
ATOM     43  C   UNL     1       8.136 -15.280   7.938  1.00  0.00     0.074 A 
ATOM     44  C   UNL     1       8.847 -14.224   7.251  1.00  0.00     0.031 C 
ATOM     45  C   UNL     1       2.240 -12.809   8.645  1.00  0.00     0.029 A 
ATOM     46  C   UNL     1       2.711 -14.123   9.072  1.00  0.00     0.049 A 
ATOM     47  H   UNL     1       4.629 -14.908   8.880  1.00  0.00     0.167 HD
ATOM     48  C   UNL     1       8.686 -16.466   8.288  1.00  0.00     0.037 A 
ATOM     49  C   UNL     1       1.962 -15.066   9.674  1.00  0.00     0.037 A 
ATOM     50  C   UNL     1       7.989 -17.499   9.007  1.00  0.00     0.049 A 
ATOM     51  C   UNL     1       2.604 -16.365  10.077  1.00  0.00     0.074 A 
ATOM     52  C   UNL     1       8.474 -18.708   9.471  1.00  0.00     0.029 A 
ATOM     53  N   UNL     1       6.651 -17.437   9.370  1.00  0.00    -0.354 N 
ATOM     54  N   UNL     1       3.842 -16.763   9.914  1.00  0.00    -0.248 NA
ATOM     55  C   UNL     1       1.744 -17.343  10.758  1.00  0.00     0.031 C 
ATOM     56  C   UNL     1       7.421 -19.395  10.084  1.00  0.00     0.029 A 
ATOM     57  C   UNL     1       6.290 -18.596  10.038  1.00  0.00     0.049 A 
ATOM     58  H   UNL     1       6.048 -16.683   9.180  1.00  0.00     0.167 HD
ATOM     59  C   UNL     1       3.917 -18.024  10.488  1.00  0.00     0.074 A 
ATOM     60  C   UNL     1       2.603 -18.317  11.022  1.00  0.00     0.031 C 
ATOM     61  C   UNL     1       4.976 -18.866  10.563  1.00  0.00     0.037 A 
BRANCH  48  62
ATOM     62  C   UNL     1      10.118 -16.705   7.906  1.00  0.00     0.064 A 
ATOM     63  C   UNL     1      11.169 -16.014   8.529  1.00  0.00     0.173 A 
ATOM     64  C   UNL     1      10.446 -17.650   6.923  1.00  0.00     0.173 A 
ATOM     65  F   UNL     1      10.907 -15.090   9.466  1.00  0.00    -0.203 F 
ATOM     66  C   UNL     1      12.492 -16.240   8.162  1.00  0.00     0.198 A 
ATOM     67  C   UNL     1      11.773 -17.894   6.578  1.00  0.00     0.198 A 
ATOM     68  F   UNL     1       9.480 -18.340   6.298  1.00  0.00    -0.203 F 
ATOM     69  F   UNL     1      13.475 -15.532   8.735  1.00  0.00    -0.200 F 
ATOM     70  C   UNL     1      12.794 -17.184   7.192  1.00  0.00     0.200 A 
ATOM     71  F   UNL     1      12.064 -18.814   5.648  1.00  0.00    -0.200 F 
ATOM     72  F   UNL     1      14.069 -17.404   6.842  1.00  0.00    -0.200 F 
ENDBRANCH  48  62
BRANCH  49  73
ATOM     73  C   UNL     1       0.531 -14.799   9.969  1.00  0.00     0.064 A 
ATOM     74  C   UNL     1       0.096 -14.599  11.286  1.00  0.00     0.173 A 
ATOM     75  C   UNL     1      -0.427 -14.741   8.947  1.00  0.00     0.173 A 
ATOM     76  F   UNL     1       0.973 -14.665  12.298  1.00  0.00    -0.203 F 
ATOM     77  C   UNL     1      -1.248 -14.370  11.572  1.00  0.00     0.198 A 
ATOM     78  C   UNL     1      -1.767 -14.487   9.232  1.00  0.00     0.198 A 
ATOM     79  F   UNL     1      -0.059 -14.922   7.670  1.00  0.00    -0.203 F 
ATOM     80  F   UNL     1      -1.644 -14.225  12.844  1.00  0.00    -0.200 F 
ATOM     81  C   UNL     1      -2.177 -14.309  10.545  1.00  0.00     0.200 A 
ATOM     82  F   UNL     1      -2.660 -14.418   8.236  1.00  0.00    -0.200 F 
ATOM     83  F   UNL     1      -3.470 -14.088  10.821  1.00  0.00    -0.200 F 
ENDBRANCH  49  73
BRANCH  61  84
ATOM     84  C   UNL     1       4.761 -20.173  11.267  1.00  0.00     0.064 A 
ATOM     85  C   UNL     1       4.008 -21.203  10.684  1.00  0.00     0.173 A 
ATOM     86  C   UNL     1       5.338 -20.408  12.524  1.00  0.00     0.173 A 
ATOM     87  F   UNL     1       3.424 -21.019   9.490  1.00  0.00    -0.203 F 
ATOM     88  C   UNL     1       3.818 -22.412  11.347  1.00  0.00     0.198 A 
ATOM     89  C   UNL     1       5.169 -21.629  13.171  1.00  0.00     0.198 A 
ATOM     90  F   UNL     1       6.072 -19.457  13.120  1.00  0.00    -0.203 F 
ATOM     91  F   UNL     1       3.055 -23.365  10.793  1.00  0.00    -0.200 F 
ATOM     92  C   UNL     1       4.403 -22.626  12.586  1.00  0.00     0.200 A 
ATOM     93  F   UNL     1       5.744 -21.839  14.363  1.00  0.00    -0.200 F 
ATOM     94  F   UNL     1       4.222 -23.792  13.221  1.00  0.00    -0.200 F 
ENDBRANCH  61  84
ENDBRANCH  35  36
ENDBRANCH  27  30
ENDBRANCH  25  26
ENDBRANCH  24  25
ENDBRANCH   1  24
TORSDOF 15
