REMARK SMILES [NH3+][C@@]1(C(=O)NCCCNC(=O)c2ccc(-c3c4nc(c(-c5c(F)c(F)c(F)c(F)c5F)c5ccc([nH]5)c(-c5c(F)c(F)c(F)c(F)c5F)c5nc(c(-c6c(F)c(F)c(F)c(F)c6F)c6ccc3[nH]6)C=C5)C=C4)cc2)CCC[C@H]1CCOc1ccccc1
REMARK SMILES IDX 6 1 5 2 3 3 4 4 2 6 75 7 78 8 76 9 77 10 1 11 79 15 80 16
REMARK SMILES IDX 81 17 82 18 83 19 87 20 84 21 86 22 85 23 7 24 8 25 9 26
REMARK SMILES IDX 10 27 11 29 12 30 13 31 74 32 14 33 73 34 15 35 16 36 17 37
REMARK SMILES IDX 67 38 18 39 72 40 66 41 68 42 19 43 71 44 65 45 64 46 20 48
REMARK SMILES IDX 52 49 32 50 51 51 33 52 36 53 50 54 69 55 34 56 35 57 49 59
REMARK SMILES IDX 70 60 37 61 21 62 22 63 30 64 23 65 24 66 28 67 31 68 25 69
REMARK SMILES IDX 26 70 29 71 27 72 53 73 54 74 62 75 55 76 56 77 60 78 63 79
REMARK SMILES IDX 57 80 58 81 61 82 59 83 38 84 39 85 47 86 40 87 41 88 45 89
REMARK SMILES IDX 48 90 42 91 43 92 46 93 44 94
REMARK H PARENT 5 5 1 12 1 13 1 14 9 28 68 47 36 58
REMARK Flexibility Score: inf
ROOT
ATOM      1  C   UNL     1      -1.146   3.584  -2.027  1.00  0.00     0.118 C 
ENDROOT
BRANCH   1   2
ATOM      2  N   UNL     1      -0.654   2.275  -2.394  1.00  0.00    -0.351 N 
ATOM      3  C   UNL     1      -0.126   1.251  -1.680  1.00  0.00     0.281 C 
ATOM      4  O   UNL     1       0.068   0.209  -2.327  1.00  0.00    -0.268 OA
ATOM      5  H   UNL     1      -0.714   2.090  -3.359  1.00  0.00     0.163 HD
BRANCH   3   6
ATOM      6  C   UNL     1       0.246   1.292  -0.143  1.00  0.00     0.176 C 
ATOM      7  C   UNL     1      -0.966   1.513   0.776  1.00  0.00     0.079 C 
ATOM      8  C   UNL     1       1.283   2.394   0.202  1.00  0.00     0.064 C 
ATOM      9  C   UNL     1      -0.858   2.898   1.385  1.00  0.00     0.008 C 
ATOM     10  C   UNL     1       0.559   3.386   1.143  1.00  0.00     0.011 C 
BRANCH   6  11
ATOM     11  N   UNL     1       0.743  -0.081   0.174  1.00  0.00    -0.345 N 
ATOM     12  H   UNL     1       0.027  -0.766  -0.070  1.00  0.00     0.345 HD
ATOM     13  H   UNL     1       0.950  -0.146   1.170  1.00  0.00     0.345 HD
ATOM     14  H   UNL     1       1.590  -0.268  -0.363  1.00  0.00     0.345 HD
ENDBRANCH   6  11
BRANCH   8  15
ATOM     15  C   UNL     1       2.617   1.976   0.882  1.00  0.00     0.052 C 
BRANCH  15  16
ATOM     16  C   UNL     1       3.613   1.118   0.090  1.00  0.00     0.230 C 
BRANCH  16  17
ATOM     17  O   UNL     1       4.361   1.908  -0.844  1.00  0.00    -0.494 OA
BRANCH  17  18
ATOM     18  C   UNL     1       3.847   1.875  -2.108  1.00  0.00     0.119 A 
ATOM     19  C   UNL     1       3.827   0.720  -2.886  1.00  0.00     0.046 A 
ATOM     20  C   UNL     1       3.401   3.085  -2.632  1.00  0.00     0.046 A 
ATOM     21  C   UNL     1       3.279   0.766  -4.170  1.00  0.00     0.004 A 
ATOM     22  C   UNL     1       2.852   3.129  -3.909  1.00  0.00     0.004 A 
ATOM     23  C   UNL     1       2.775   1.966  -4.673  1.00  0.00     0.000 A 
ENDBRANCH  17  18
ENDBRANCH  16  17
ENDBRANCH  15  16
ENDBRANCH   8  15
ENDBRANCH   3   6
ENDBRANCH   1   2
BRANCH   1  24
ATOM     24  C   UNL     1      -0.316   4.731  -2.586  1.00  0.00     0.042 C 
BRANCH  24  25
ATOM     25  C   UNL     1      -0.357   4.843  -4.104  1.00  0.00     0.118 C 
BRANCH  25  26
ATOM     26  N   UNL     1      -1.636   5.330  -4.600  1.00  0.00    -0.352 N 
ATOM     27  C   UNL     1      -1.921   6.468  -5.312  1.00  0.00     0.251 C 
ATOM     28  H   UNL     1      -2.411   4.759  -4.394  1.00  0.00     0.163 HD
ATOM     29  O   UNL     1      -3.093   6.803  -5.485  1.00  0.00    -0.269 OA
BRANCH  27  30
ATOM     30  C   UNL     1      -0.833   7.308  -5.858  1.00  0.00     0.039 A 
ATOM     31  C   UNL     1      -0.930   8.698  -5.746  1.00  0.00     0.014 A 
ATOM     32  C   UNL     1       0.267   6.736  -6.503  1.00  0.00     0.014 A 
ATOM     33  C   UNL     1       0.099   9.509  -6.231  1.00  0.00     0.010 A 
ATOM     34  C   UNL     1       1.329   7.540  -6.913  1.00  0.00     0.010 A 
ATOM     35  C   UNL     1       1.251   8.936  -6.795  1.00  0.00    -0.014 A 
BRANCH  35  36
ATOM     36  C   UNL     1       2.366   9.781  -7.300  1.00  0.00     0.031 A 
ATOM     37  C   UNL     1       2.714   9.763  -8.765  1.00  0.00     0.074 A 
ATOM     38  C   UNL     1       3.095  10.521  -6.442  1.00  0.00     0.049 A 
ATOM     39  N   UNL     1       3.696  10.363  -9.392  1.00  0.00    -0.248 NA
ATOM     40  C   UNL     1       1.861   8.942  -9.640  1.00  0.00     0.031 C 
ATOM     41  C   UNL     1       2.881  10.597  -4.996  1.00  0.00     0.029 A 
ATOM     42  N   UNL     1       4.175  11.342  -6.660  1.00  0.00    -0.354 N 
ATOM     43  C   UNL     1       3.589   9.976 -10.721  1.00  0.00     0.074 A 
ATOM     44  C   UNL     1       2.479   9.053 -10.807  1.00  0.00     0.031 C 
ATOM     45  C   UNL     1       3.787  11.431  -4.460  1.00  0.00     0.029 A 
ATOM     46  C   UNL     1       4.673  11.916  -5.514  1.00  0.00     0.049 A 
ATOM     47  H   UNL     1       4.556  11.504  -7.553  1.00  0.00     0.167 HD
ATOM     48  C   UNL     1       4.335  10.372 -11.779  1.00  0.00     0.037 A 
ATOM     49  C   UNL     1       5.732  12.730  -5.335  1.00  0.00     0.037 A 
ATOM     50  C   UNL     1       5.414  11.320 -11.698  1.00  0.00     0.049 A 
ATOM     51  C   UNL     1       6.550  13.145  -6.532  1.00  0.00     0.074 A 
ATOM     52  C   UNL     1       6.187  11.835 -12.725  1.00  0.00     0.029 A 
ATOM     53  N   UNL     1       5.873  11.896 -10.524  1.00  0.00    -0.354 N 
ATOM     54  N   UNL     1       6.392  12.828  -7.794  1.00  0.00    -0.248 NA
ATOM     55  C   UNL     1       7.691  14.037  -6.278  1.00  0.00     0.031 C 
ATOM     56  C   UNL     1       7.148  12.681 -12.165  1.00  0.00     0.029 A 
ATOM     57  C   UNL     1       6.935  12.742 -10.798  1.00  0.00     0.049 A 
ATOM     58  H   UNL     1       5.500  11.728  -9.628  1.00  0.00     0.167 HD
ATOM     59  C   UNL     1       7.383  13.512  -8.486  1.00  0.00     0.074 A 
ATOM     60  C   UNL     1       8.131  14.270  -7.506  1.00  0.00     0.031 C 
ATOM     61  C   UNL     1       7.650  13.513  -9.815  1.00  0.00     0.037 A 
BRANCH  48  62
ATOM     62  C   UNL     1       4.013   9.791 -13.126  1.00  0.00     0.064 A 
ATOM     63  C   UNL     1       2.844  10.139 -13.819  1.00  0.00     0.173 A 
ATOM     64  C   UNL     1       4.921   8.931 -13.763  1.00  0.00     0.173 A 
ATOM     65  F   UNL     1       1.938  10.948 -13.250  1.00  0.00    -0.203 F 
ATOM     66  C   UNL     1       2.588   9.634 -15.091  1.00  0.00     0.198 A 
ATOM     67  C   UNL     1       4.677   8.454 -15.047  1.00  0.00     0.198 A 
ATOM     68  F   UNL     1       6.058   8.572 -13.147  1.00  0.00    -0.203 F 
ATOM     69  F   UNL     1       1.447   9.951 -15.719  1.00  0.00    -0.200 F 
ATOM     70  C   UNL     1       3.509   8.801 -15.708  1.00  0.00     0.200 A 
ATOM     71  F   UNL     1       5.576   7.662 -15.648  1.00  0.00    -0.200 F 
ATOM     72  F   UNL     1       3.270   8.332 -16.941  1.00  0.00    -0.200 F 
ENDBRANCH  48  62
BRANCH  49  73
ATOM     73  C   UNL     1       6.086  13.218  -3.974  1.00  0.00     0.064 A 
ATOM     74  C   UNL     1       5.989  14.579  -3.647  1.00  0.00     0.173 A 
ATOM     75  C   UNL     1       6.572  12.347  -2.989  1.00  0.00     0.173 A 
ATOM     76  F   UNL     1       5.549  15.457  -4.561  1.00  0.00    -0.203 F 
ATOM     77  C   UNL     1       6.399  15.053  -2.402  1.00  0.00     0.198 A 
ATOM     78  C   UNL     1       6.949  12.817  -1.732  1.00  0.00     0.198 A 
ATOM     79  F   UNL     1       6.681  11.035  -3.246  1.00  0.00    -0.203 F 
ATOM     80  F   UNL     1       6.357  16.366  -2.142  1.00  0.00    -0.200 F 
ATOM     81  C   UNL     1       6.876  14.171  -1.445  1.00  0.00     0.200 A 
ATOM     82  F   UNL     1       7.395  11.959  -0.804  1.00  0.00    -0.200 F 
ATOM     83  F   UNL     1       7.276  14.628  -0.250  1.00  0.00    -0.200 F 
ENDBRANCH  49  73
BRANCH  61  84
ATOM     84  C   UNL     1       8.755  14.405 -10.302  1.00  0.00     0.064 A 
ATOM     85  C   UNL     1      10.104  14.123 -10.044  1.00  0.00     0.173 A 
ATOM     86  C   UNL     1       8.457  15.530 -11.088  1.00  0.00     0.173 A 
ATOM     87  F   UNL     1      10.440  13.067  -9.287  1.00  0.00    -0.203 F 
ATOM     88  C   UNL     1      11.113  14.947 -10.535  1.00  0.00     0.198 A 
ATOM     89  C   UNL     1       9.470  16.332 -11.605  1.00  0.00     0.198 A 
ATOM     90  F   UNL     1       7.183  15.839 -11.371  1.00  0.00    -0.203 F 
ATOM     91  F   UNL     1      12.393  14.684 -10.237  1.00  0.00    -0.200 F 
ATOM     92  C   UNL     1      10.796  16.044 -11.322  1.00  0.00     0.200 A 
ATOM     93  F   UNL     1       9.162  17.381 -12.380  1.00  0.00    -0.200 F 
ATOM     94  F   UNL     1      11.771  16.828 -11.805  1.00  0.00    -0.200 F 
ENDBRANCH  61  84
ENDBRANCH  35  36
ENDBRANCH  27  30
ENDBRANCH  25  26
ENDBRANCH  24  25
ENDBRANCH   1  24
TORSDOF 15
