REMARK SMILES O=C(NCCCNC(=O)[C@H](c1c[nH]c2cc(F)ccc12)[NH+]1CCN(c2ccccc2)CC1)c1ccc(-c2c3nc(c(-c4c(F)c(F)c(F)c(F)c4F)c4ccc([nH]4)c(-c4c(F)c(F)c(F)c(F)c4F)c4nc(c(-c5c(F)c(F)c(F)c(F)c5F)c5ccc2[nH]5)C=C4)C=C3)cc1
REMARK SMILES IDX 5 1 4 2 3 3 1 4 2 5 33 7 34 8 95 9 35 10 94 11 36 12 37 13
REMARK SMILES IDX 38 14 88 15 39 16 93 17 87 18 89 19 40 20 92 21 86 22 85 23
REMARK SMILES IDX 41 25 73 26 53 27 72 28 54 29 57 30 71 31 90 32 55 33 56 34
REMARK SMILES IDX 70 36 91 37 58 38 42 39 43 40 51 41 44 42 45 43 49 44 52 45
REMARK SMILES IDX 46 46 47 47 50 48 48 49 74 50 75 51 83 52 76 53 77 54 81 55
REMARK SMILES IDX 84 56 78 57 79 58 82 59 80 60 59 61 60 62 68 63 61 64 62 65
REMARK SMILES IDX 66 66 69 67 63 68 64 69 67 70 65 71 6 72 7 73 8 74 9 76
REMARK SMILES IDX 10 77 21 78 22 79 32 80 23 82 31 83 24 84 25 85 26 86 30 87
REMARK SMILES IDX 27 88 29 89 28 90 11 91 12 92 20 93 13 94 14 95 19 96 15 98
REMARK SMILES IDX 18 99 16 100 17 101
REMARK H PARENT 3 6 89 24 57 35 7 75 21 81 13 97
REMARK Flexibility Score: inf
ROOT
ATOM      1  C   UNL     1       9.270  -3.677   3.908  1.00  0.00     0.042 C 
ENDROOT
BRANCH   1   2
ATOM      2  C   UNL     1      10.417  -2.937   3.234  1.00  0.00     0.118 C 
BRANCH   2   3
ATOM      3  N   UNL     1      11.684  -3.257   3.875  1.00  0.00    -0.352 N 
ATOM      4  O   UNL     1      13.463  -4.566   4.292  1.00  0.00    -0.269 OA
ATOM      5  C   UNL     1      12.657  -4.130   3.471  1.00  0.00     0.251 C 
ATOM      6  H   UNL     1      11.866  -2.778   4.716  1.00  0.00     0.163 HD
BRANCH   5   7
ATOM      7  C   UNL     1      12.759  -4.533   2.054  1.00  0.00     0.039 A 
ATOM      8  C   UNL     1      12.560  -3.599   1.031  1.00  0.00     0.014 A 
ATOM      9  C   UNL     1      13.163  -5.835   1.745  1.00  0.00     0.014 A 
ATOM     10  C   UNL     1      12.680  -3.985  -0.298  1.00  0.00     0.010 A 
ATOM     11  C   UNL     1      13.360  -6.201   0.413  1.00  0.00     0.010 A 
ATOM     12  C   UNL     1      13.117  -5.278  -0.617  1.00  0.00    -0.014 A 
BRANCH  12  13
ATOM     13  C   UNL     1      13.419  -5.628  -2.023  1.00  0.00     0.031 A 
ATOM     14  C   UNL     1      12.619  -6.670  -2.741  1.00  0.00     0.074 A 
ATOM     15  C   UNL     1      14.456  -5.021  -2.630  1.00  0.00     0.049 A 
ATOM     16  N   UNL     1      12.801  -7.171  -3.936  1.00  0.00    -0.248 NA
ATOM     17  C   UNL     1      11.469  -7.232  -2.019  1.00  0.00     0.031 C 
ATOM     18  C   UNL     1      15.309  -4.001  -2.014  1.00  0.00     0.029 A 
ATOM     19  N   UNL     1      14.979  -5.178  -3.887  1.00  0.00    -0.354 N 
ATOM     20  C   UNL     1      11.809  -8.127  -4.099  1.00  0.00     0.074 A 
ATOM     21  C   UNL     1      11.036  -8.148  -2.875  1.00  0.00     0.031 C 
ATOM     22  C   UNL     1      16.242  -3.618  -2.897  1.00  0.00     0.029 A 
ATOM     23  C   UNL     1      16.092  -4.407  -4.114  1.00  0.00     0.049 A 
ATOM     24  H   UNL     1      14.595  -5.785  -4.560  1.00  0.00     0.167 HD
ATOM     25  C   UNL     1      11.572  -8.913  -5.176  1.00  0.00     0.037 A 
ATOM     26  C   UNL     1      16.923  -4.365  -5.171  1.00  0.00     0.037 A 
ATOM     27  C   UNL     1      12.343  -8.870  -6.392  1.00  0.00     0.049 A 
ATOM     28  C   UNL     1      16.649  -5.255  -6.346  1.00  0.00     0.074 A 
ATOM     29  C   UNL     1      12.156  -9.587  -7.560  1.00  0.00     0.029 A 
ATOM     30  N   UNL     1      13.459  -8.067  -6.590  1.00  0.00    -0.354 N 
ATOM     31  N   UNL     1      15.687  -6.131  -6.507  1.00  0.00    -0.248 NA
ATOM     32  C   UNL     1      17.573  -5.158  -7.483  1.00  0.00     0.031 C 
ATOM     33  C   UNL     1      13.184  -9.252  -8.448  1.00  0.00     0.029 A 
ATOM     34  C   UNL     1      13.985  -8.290  -7.853  1.00  0.00     0.049 A 
ATOM     35  H   UNL     1      13.823  -7.433  -5.931  1.00  0.00     0.167 HD
ATOM     36  C   UNL     1      15.876  -6.678  -7.766  1.00  0.00     0.074 A 
ATOM     37  C   UNL     1      17.042  -6.029  -8.332  1.00  0.00     0.031 C 
ATOM     38  C   UNL     1      15.146  -7.630  -8.396  1.00  0.00     0.037 A 
BRANCH  25  39
ATOM     39  C   UNL     1      10.452  -9.907  -5.072  1.00  0.00     0.064 A 
ATOM     40  C   UNL     1       9.107  -9.510  -5.066  1.00  0.00     0.173 A 
ATOM     41  C   UNL     1      10.731 -11.280  -4.991  1.00  0.00     0.173 A 
ATOM     42  F   UNL     1       8.787  -8.209  -5.130  1.00  0.00    -0.203 F 
ATOM     43  C   UNL     1       8.084 -10.447  -4.947  1.00  0.00     0.198 A 
ATOM     44  C   UNL     1       9.704 -12.216  -4.899  1.00  0.00     0.198 A 
ATOM     45  F   UNL     1      12.000 -11.714  -5.000  1.00  0.00    -0.203 F 
ATOM     46  F   UNL     1       6.808 -10.040  -4.890  1.00  0.00    -0.200 F 
ATOM     47  C   UNL     1       8.383 -11.799  -4.868  1.00  0.00     0.200 A 
ATOM     48  F   UNL     1       9.995 -13.523  -4.835  1.00  0.00    -0.200 F 
ATOM     49  F   UNL     1       7.397 -12.700  -4.752  1.00  0.00    -0.200 F 
ENDBRANCH  25  39
BRANCH  26  50
ATOM     50  C   UNL     1      18.090  -3.449  -5.134  1.00  0.00     0.064 A 
ATOM     51  C   UNL     1      18.113  -2.278  -5.901  1.00  0.00     0.173 A 
ATOM     52  C   UNL     1      19.172  -3.691  -4.272  1.00  0.00     0.173 A 
ATOM     53  F   UNL     1      17.108  -2.013  -6.748  1.00  0.00    -0.203 F 
ATOM     54  C   UNL     1      19.174  -1.380  -5.806  1.00  0.00     0.198 A 
ATOM     55  C   UNL     1      20.219  -2.780  -4.160  1.00  0.00     0.198 A 
ATOM     56  F   UNL     1      19.189  -4.794  -3.510  1.00  0.00    -0.203 F 
ATOM     57  F   UNL     1      19.182  -0.273  -6.561  1.00  0.00    -0.200 F 
ATOM     58  C   UNL     1      20.220  -1.626  -4.928  1.00  0.00     0.200 A 
ATOM     59  F   UNL     1      21.217  -3.013  -3.296  1.00  0.00    -0.200 F 
ATOM     60  F   UNL     1      21.228  -0.749  -4.820  1.00  0.00    -0.200 F 
ENDBRANCH  26  50
BRANCH  38  61
ATOM     61  C   UNL     1      15.567  -8.009  -9.784  1.00  0.00     0.064 A 
ATOM     62  C   UNL     1      16.682  -8.826 -10.013  1.00  0.00     0.173 A 
ATOM     63  C   UNL     1      14.805  -7.604 -10.889  1.00  0.00     0.173 A 
ATOM     64  F   UNL     1      17.451  -9.224  -8.988  1.00  0.00    -0.203 F 
ATOM     65  C   UNL     1      17.025  -9.218 -11.304  1.00  0.00     0.198 A 
ATOM     66  C   UNL     1      15.137  -8.017 -12.176  1.00  0.00     0.198 A 
ATOM     67  F   UNL     1      13.727  -6.824 -10.718  1.00  0.00    -0.203 F 
ATOM     68  F   UNL     1      18.111  -9.977 -11.506  1.00  0.00    -0.200 F 
ATOM     69  C   UNL     1      16.247  -8.821 -12.382  1.00  0.00     0.200 A 
ATOM     70  F   UNL     1      14.378  -7.641 -13.215  1.00  0.00    -0.200 F 
ATOM     71  F   UNL     1      16.570  -9.212 -13.623  1.00  0.00    -0.200 F 
ENDBRANCH  38  61
ENDBRANCH  12  13
ENDBRANCH   5   7
ENDBRANCH   2   3
ENDBRANCH   1   2
BRANCH   1  72
ATOM     72  C   UNL     1       8.979  -3.142   5.308  1.00  0.00     0.118 C 
BRANCH  72  73
ATOM     73  N   UNL     1       8.322  -1.852   5.233  1.00  0.00    -0.351 N 
ATOM     74  C   UNL     1       6.985  -1.600   5.053  1.00  0.00     0.283 C 
ATOM     75  H   UNL     1       8.904  -1.063   5.321  1.00  0.00     0.163 HD
ATOM     76  O   UNL     1       6.704  -0.511   4.544  1.00  0.00    -0.268 OA
BRANCH  74  77
ATOM     77  C   UNL     1       5.942  -2.678   5.471  1.00  0.00     0.307 C 
BRANCH  77  78
ATOM     78  N   UNL     1       4.782  -2.219   6.280  1.00  0.00    -0.318 N 
ATOM     79  C   UNL     1       4.871  -2.704   7.680  1.00  0.00     0.284 C 
ATOM     80  C   UNL     1       4.514  -0.761   6.313  1.00  0.00     0.284 C 
ATOM     81  H   UNL     1       3.996  -2.632   5.777  1.00  0.00     0.349 HD
ATOM     82  C   UNL     1       5.902  -1.957   8.560  1.00  0.00     0.178 C 
ATOM     83  C   UNL     1       5.426   0.102   7.231  1.00  0.00     0.178 C 
ATOM     84  N   UNL     1       5.594  -0.529   8.546  1.00  0.00    -0.360 N 
BRANCH  84  85
ATOM     85  C   UNL     1       5.514   0.200   9.711  1.00  0.00     0.037 A 
ATOM     86  C   UNL     1       6.468   0.075  10.730  1.00  0.00     0.026 A 
ATOM     87  C   UNL     1       4.445   1.079   9.934  1.00  0.00     0.026 A 
ATOM     88  C   UNL     1       6.361   0.800  11.922  1.00  0.00     0.002 A 
ATOM     89  C   UNL     1       4.321   1.795  11.127  1.00  0.00     0.002 A 
ATOM     90  C   UNL     1       5.282   1.656  12.122  1.00  0.00     0.000 A 
ENDBRANCH  84  85
ENDBRANCH  77  78
BRANCH  77  91
ATOM     91  C   UNL     1       5.468  -3.410   4.235  1.00  0.00     0.044 A 
ATOM     92  C   UNL     1       4.726  -2.898   3.185  1.00  0.00     0.094 A 
ATOM     93  C   UNL     1       5.833  -4.750   3.857  1.00  0.00     0.009 A 
ATOM     94  N   UNL     1       4.701  -3.822   2.177  1.00  0.00    -0.361 N 
ATOM     95  C   UNL     1       5.428  -4.934   2.534  1.00  0.00     0.049 A 
ATOM     96  C   UNL     1       6.549  -5.794   4.489  1.00  0.00     0.014 A 
ATOM     97  H   UNL     1       4.230  -3.708   1.320  1.00  0.00     0.166 HD
ATOM     98  C   UNL     1       5.767  -6.071   1.789  1.00  0.00     0.065 A 
ATOM     99  C   UNL     1       6.899  -6.936   3.760  1.00  0.00     0.040 A 
ATOM    100  C   UNL     1       6.526  -7.050   2.429  1.00  0.00     0.125 A 
ATOM    101  F   UNL     1       6.910  -8.132   1.736  1.00  0.00    -0.207 F 
ENDBRANCH  77  91
ENDBRANCH  74  77
ENDBRANCH  72  73
ENDBRANCH   1  72
TORSDOF 13
