REMARK SMILES C[C@H]1CCN1c1cc(C(=O)NCCCNC(=O)c2ccc(-c3c4nc(c(-c5c(F)c(F)c(F)c(F)c5F)c5ccc([nH]5)c(-c5c(F)c(F)c(F)c(F)c5F)c5nc(c(-c6c(F)c(F)c(F)c(F)c6F)c6ccc3[nH]6)C=C5)C=C4)cc2)ccc1Cl
REMARK SMILES IDX 13 1 12 2 11 3 9 4 10 5 8 7 6 8 7 9 83 10 82 11 84 12 81 13
REMARK SMILES IDX 5 14 1 15 2 16 3 17 4 18 14 19 15 20 16 21 17 23 18 24 19 25
REMARK SMILES IDX 80 26 20 27 79 28 21 29 22 30 23 31 73 32 24 33 78 34 72 35
REMARK SMILES IDX 74 36 25 37 77 38 71 39 70 40 26 42 58 43 38 44 57 45 39 46
REMARK SMILES IDX 42 47 56 48 75 49 40 50 41 51 55 53 76 54 43 55 27 56 28 57
REMARK SMILES IDX 36 58 29 59 30 60 34 61 37 62 31 63 32 64 35 65 33 66 59 67
REMARK SMILES IDX 60 68 68 69 61 70 62 71 66 72 69 73 63 74 64 75 67 76 65 77
REMARK SMILES IDX 44 78 45 79 53 80 46 81 47 82 51 83 54 84 48 85 49 86 52 87
REMARK SMILES IDX 50 88
REMARK H PARENT 11 6 15 22 74 41 42 52
REMARK Flexibility Score: inf
ROOT
ATOM      1  C   UNL     1      -8.033  -1.498  -0.203  1.00  0.00     0.042 C 
ENDROOT
BRANCH   1   2
ATOM      2  C   UNL     1      -6.933  -2.039  -1.118  1.00  0.00     0.118 C 
BRANCH   2   3
ATOM      3  N   UNL     1      -6.539  -1.053  -2.107  1.00  0.00    -0.352 N 
ATOM      4  C   UNL     1      -5.470  -0.202  -2.209  1.00  0.00     0.251 C 
ATOM      5  O   UNL     1      -5.406   0.491  -3.225  1.00  0.00    -0.269 OA
ATOM      6  H   UNL     1      -7.170  -0.980  -2.859  1.00  0.00     0.163 HD
BRANCH   4   7
ATOM      7  C   UNL     1      -4.383  -0.093  -1.194  1.00  0.00     0.041 A 
ATOM      8  C   UNL     1      -2.032   0.553  -0.796  1.00  0.00     0.057 A 
ATOM      9  C   UNL     1      -3.141   0.382  -1.649  1.00  0.00     0.041 A 
ATOM     10  C   UNL     1      -2.196   0.227   0.558  1.00  0.00     0.064 A 
ATOM     11  C   UNL     1      -3.438  -0.221   1.030  1.00  0.00     0.023 A 
ATOM     12  Cl  UNL     1      -0.968   0.465   1.750  1.00  0.00    -0.082 Cl
ATOM     13  C   UNL     1      -4.529  -0.358   0.165  1.00  0.00     0.015 A 
BRANCH   8  14
ATOM     14  N   UNL     1      -0.870   1.093  -1.378  1.00  0.00    -0.367 N 
ATOM     15  C   UNL     1       1.071  -0.030  -2.317  1.00  0.00     0.031 C 
ATOM     16  C   UNL     1       0.527   0.844  -1.197  1.00  0.00     0.081 C 
ATOM     17  C   UNL     1       0.766   2.350  -1.357  1.00  0.00     0.046 C 
ATOM     18  C   UNL     1      -0.702   2.464  -1.762  1.00  0.00     0.119 C 
ENDBRANCH   8  14
ENDBRANCH   4   7
ENDBRANCH   2   3
ENDBRANCH   1   2
BRANCH   1  19
ATOM     19  C   UNL     1      -9.398  -1.377  -0.883  1.00  0.00     0.118 C 
BRANCH  19  20
ATOM     20  N   UNL     1      -9.987  -2.678  -1.165  1.00  0.00    -0.352 N 
ATOM     21  C   UNL     1     -11.180  -3.227  -0.766  1.00  0.00     0.251 C 
ATOM     22  H   UNL     1      -9.438  -3.262  -1.737  1.00  0.00     0.163 HD
ATOM     23  O   UNL     1     -11.376  -4.425  -0.948  1.00  0.00    -0.269 OA
BRANCH  21  24
ATOM     24  C   UNL     1     -12.231  -2.410  -0.116  1.00  0.00     0.039 A 
ATOM     25  C   UNL     1     -12.975  -2.989   0.918  1.00  0.00     0.014 A 
ATOM     26  C   UNL     1     -12.548  -1.123  -0.558  1.00  0.00     0.014 A 
ATOM     27  C   UNL     1     -13.999  -2.267   1.536  1.00  0.00     0.010 A 
ATOM     28  C   UNL     1     -13.534  -0.380   0.096  1.00  0.00     0.010 A 
ATOM     29  C   UNL     1     -14.271  -0.946   1.147  1.00  0.00    -0.014 A 
BRANCH  29  30
ATOM     30  C   UNL     1     -15.316  -0.149   1.840  1.00  0.00     0.031 A 
ATOM     31  C   UNL     1     -16.568   0.268   1.121  1.00  0.00     0.074 A 
ATOM     32  C   UNL     1     -15.113   0.240   3.114  1.00  0.00     0.049 A 
ATOM     33  N   UNL     1     -17.568   0.997   1.552  1.00  0.00    -0.248 NA
ATOM     34  C   UNL     1     -16.707  -0.174  -0.275  1.00  0.00     0.031 C 
ATOM     35  C   UNL     1     -13.920  -0.061   3.907  1.00  0.00     0.029 A 
ATOM     36  N   UNL     1     -15.899   0.980   3.962  1.00  0.00    -0.354 N 
ATOM     37  C   UNL     1     -18.444   1.112   0.481  1.00  0.00     0.074 A 
ATOM     38  C   UNL     1     -17.840   0.413  -0.634  1.00  0.00     0.031 C 
ATOM     39  C   UNL     1     -14.061   0.472   5.131  1.00  0.00     0.029 A 
ATOM     40  C   UNL     1     -15.338   1.177   5.199  1.00  0.00     0.049 A 
ATOM     41  H   UNL     1     -16.780   1.336   3.706  1.00  0.00     0.167 HD
ATOM     42  C   UNL     1     -19.649   1.730   0.437  1.00  0.00     0.037 A 
ATOM     43  C   UNL     1     -15.800   1.851   6.269  1.00  0.00     0.037 A 
ATOM     44  C   UNL     1     -20.262   2.402   1.554  1.00  0.00     0.049 A 
ATOM     45  C   UNL     1     -17.146   2.515   6.198  1.00  0.00     0.074 A 
ATOM     46  C   UNL     1     -21.508   3.002   1.624  1.00  0.00     0.029 A 
ATOM     47  N   UNL     1     -19.671   2.564   2.798  1.00  0.00    -0.354 N 
ATOM     48  N   UNL     1     -17.993   2.562   5.199  1.00  0.00    -0.248 NA
ATOM     49  C   UNL     1     -17.604   3.214   7.407  1.00  0.00     0.031 C 
ATOM     50  C   UNL     1     -21.656   3.558   2.899  1.00  0.00     0.029 A 
ATOM     51  C   UNL     1     -20.520   3.270   3.637  1.00  0.00     0.049 A 
ATOM     52  H   UNL     1     -18.781   2.227   3.049  1.00  0.00     0.167 HD
ATOM     53  C   UNL     1     -19.089   3.276   5.662  1.00  0.00     0.074 A 
ATOM     54  C   UNL     1     -18.809   3.627   7.039  1.00  0.00     0.031 C 
ATOM     55  C   UNL     1     -20.226   3.613   5.004  1.00  0.00     0.037 A 
BRANCH  42  56
ATOM     56  C   UNL     1     -20.393   1.705  -0.867  1.00  0.00     0.064 A 
ATOM     57  C   UNL     1     -20.987   0.530  -1.350  1.00  0.00     0.173 A 
ATOM     58  C   UNL     1     -20.550   2.878  -1.620  1.00  0.00     0.173 A 
ATOM     59  F   UNL     1     -20.858  -0.620  -0.671  1.00  0.00    -0.203 F 
ATOM     60  C   UNL     1     -21.689   0.524  -2.553  1.00  0.00     0.198 A 
ATOM     61  C   UNL     1     -21.274   2.874  -2.810  1.00  0.00     0.198 A 
ATOM     62  F   UNL     1     -20.009   4.030  -1.199  1.00  0.00    -0.203 F 
ATOM     63  F   UNL     1     -22.211  -0.620  -3.017  1.00  0.00    -0.200 F 
ATOM     64  C   UNL     1     -21.837   1.696  -3.279  1.00  0.00     0.200 A 
ATOM     65  F   UNL     1     -21.427   4.010  -3.504  1.00  0.00    -0.200 F 
ATOM     66  F   UNL     1     -22.517   1.690  -4.433  1.00  0.00    -0.200 F 
ENDBRANCH  42  56
BRANCH  43  67
ATOM     67  C   UNL     1     -14.990   1.906   7.512  1.00  0.00     0.064 A 
ATOM     68  C   UNL     1     -15.379   1.192   8.654  1.00  0.00     0.173 A 
ATOM     69  C   UNL     1     -13.812   2.664   7.583  1.00  0.00     0.173 A 
ATOM     70  F   UNL     1     -16.509   0.470   8.639  1.00  0.00    -0.203 F 
ATOM     71  C   UNL     1     -14.628   1.247   9.826  1.00  0.00     0.198 A 
ATOM     72  C   UNL     1     -13.050   2.698   8.748  1.00  0.00     0.198 A 
ATOM     73  F   UNL     1     -13.396   3.360   6.515  1.00  0.00    -0.203 F 
ATOM     74  F   UNL     1     -15.042   0.586  10.915  1.00  0.00    -0.200 F 
ATOM     75  C   UNL     1     -13.461   1.995   9.870  1.00  0.00     0.200 A 
ATOM     76  F   UNL     1     -11.916   3.412   8.783  1.00  0.00    -0.200 F 
ATOM     77  F   UNL     1     -12.736   2.043  10.996  1.00  0.00    -0.200 F 
ENDBRANCH  43  67
BRANCH  55  78
ATOM     78  C   UNL     1     -21.256   4.384   5.774  1.00  0.00     0.064 A 
ATOM     79  C   UNL     1     -21.071   5.737   6.094  1.00  0.00     0.173 A 
ATOM     80  C   UNL     1     -22.451   3.769   6.177  1.00  0.00     0.173 A 
ATOM     81  F   UNL     1     -19.938   6.364   5.745  1.00  0.00    -0.203 F 
ATOM     82  C   UNL     1     -22.035   6.440   6.812  1.00  0.00     0.198 A 
ATOM     83  C   UNL     1     -23.424   4.482   6.872  1.00  0.00     0.198 A 
ATOM     84  F   UNL     1     -22.677   2.478   5.892  1.00  0.00    -0.203 F 
ATOM     85  F   UNL     1     -21.817   7.719   7.148  1.00  0.00    -0.200 F 
ATOM     86  C   UNL     1     -23.212   5.814   7.196  1.00  0.00     0.200 A 
ATOM     87  F   UNL     1     -24.564   3.879   7.235  1.00  0.00    -0.200 F 
ATOM     88  F   UNL     1     -24.138   6.493   7.886  1.00  0.00    -0.200 F 
ENDBRANCH  55  78
ENDBRANCH  29  30
ENDBRANCH  21  24
ENDBRANCH  19  20
ENDBRANCH   1  19
TORSDOF 11
