REMARK SMILES CCN(C(=O)Cc1c(C(=O)NCCCNC(=O)c2ccc(-c3c4nc(c(-c5c(F)c(F)c(F)c(F)c5F)c5ccc([nH]5)c(-c5c(F)c(F)c(F)c(F)c5F)c5nc(c(-c6c(F)c(F)c(F)c(F)c6F)c6ccc3[nH]6)C=C5)C=C4)cc2)[nH]c2ccc(Cl)cc12)c1ccc(C)c(C)c1
REMARK SMILES IDX 12 1 11 2 9 3 10 4 8 6 7 7 88 8 81 9 82 10 87 11 83 13 85 14
REMARK SMILES IDX 84 15 86 16 6 17 4 18 5 19 3 20 2 21 1 22 89 23 90 24 96 25
REMARK SMILES IDX 91 26 94 27 92 28 95 29 93 30 13 31 14 32 15 33 16 34 17 36
REMARK SMILES IDX 18 37 19 38 80 39 20 40 79 41 21 42 22 43 23 44 73 45 24 46
REMARK SMILES IDX 78 47 72 48 74 49 25 50 77 51 71 52 70 53 26 55 58 56 38 57
REMARK SMILES IDX 57 58 39 59 42 60 56 61 75 62 40 63 41 64 55 66 76 67 43 68
REMARK SMILES IDX 27 69 28 70 36 71 29 72 30 73 34 74 37 75 31 76 32 77 35 78
REMARK SMILES IDX 33 79 59 80 60 81 68 82 61 83 62 84 66 85 69 86 63 87 64 88
REMARK SMILES IDX 67 89 65 90 44 91 45 92 53 93 46 94 47 95 51 96 54 97 48 98
REMARK SMILES IDX 49 99 52 100 50 101
REMARK H PARENT 11 5 81 12 15 35 74 54 42 65
REMARK Flexibility Score: inf
ROOT
ATOM      1  C   UNL     1      -1.993   1.464  -2.842  1.00  0.00     0.118 C 
ENDROOT
BRANCH   1   2
ATOM      2  N   UNL     1      -2.633   1.388  -1.552  1.00  0.00    -0.351 N 
ATOM      3  C   UNL     1      -2.789   0.476  -0.556  1.00  0.00     0.268 C 
ATOM      4  O   UNL     1      -3.369   0.941   0.435  1.00  0.00    -0.268 OA
ATOM      5  H   UNL     1      -3.083   2.235  -1.330  1.00  0.00     0.163 HD
BRANCH   3   6
ATOM      6  C   UNL     1      -2.356  -0.912  -0.526  1.00  0.00     0.109 A 
ATOM      7  C   UNL     1      -1.726  -1.876  -1.323  1.00  0.00    -0.000 A 
ATOM      8  C   UNL     1      -1.749  -3.128  -0.595  1.00  0.00     0.005 A 
ATOM      9  N   UNL     1      -2.601  -1.556   0.684  1.00  0.00    -0.350 N 
ATOM     10  C   UNL     1      -2.272  -2.879   0.662  1.00  0.00     0.046 A 
ATOM     11  C   UNL     1      -1.366  -4.452  -0.909  1.00  0.00     0.031 A 
ATOM     12  H   UNL     1      -2.974  -1.103   1.474  1.00  0.00     0.167 HD
ATOM     13  C   UNL     1      -2.408  -3.859   1.651  1.00  0.00     0.028 A 
ATOM     14  C   UNL     1      -1.529  -5.454   0.053  1.00  0.00     0.041 A 
ATOM     15  C   UNL     1      -2.030  -5.163   1.318  1.00  0.00     0.022 A 
ATOM     16  Cl  UNL     1      -1.114  -7.079  -0.340  1.00  0.00    -0.084 Cl
BRANCH   7  17
ATOM     17  C   UNL     1      -1.152  -1.816  -2.699  1.00  0.00     0.139 C 
BRANCH  17  18
ATOM     18  C   UNL     1       0.366  -1.988  -2.807  1.00  0.00     0.231 C 
ATOM     19  O   UNL     1       0.763  -2.873  -3.581  1.00  0.00    -0.274 OA
BRANCH  18  20
ATOM     20  N   UNL     1       1.253  -1.155  -2.108  1.00  0.00    -0.312 N 
BRANCH  20  21
ATOM     21  C   UNL     1       0.883  -0.038  -1.223  1.00  0.00     0.122 C 
ATOM     22  C   UNL     1       0.962  -0.276   0.276  1.00  0.00     0.028 C 
ENDBRANCH  20  21
BRANCH  20  23
ATOM     23  C   UNL     1       2.658  -1.277  -2.366  1.00  0.00     0.044 A 
ATOM     24  C   UNL     1       3.155  -1.281  -3.670  1.00  0.00     0.026 A 
ATOM     25  C   UNL     1       3.564  -1.364  -1.307  1.00  0.00     0.030 A 
ATOM     26  C   UNL     1       4.532  -1.365  -3.899  1.00  0.00     0.006 A 
ATOM     27  C   UNL     1       4.950  -1.449  -1.517  1.00  0.00    -0.046 A 
ATOM     28  C   UNL     1       5.441  -1.454  -2.832  1.00  0.00    -0.048 A 
ATOM     29  C   UNL     1       5.844  -1.575  -0.315  1.00  0.00     0.044 C 
ATOM     30  C   UNL     1       6.900  -1.610  -3.160  1.00  0.00     0.044 C 
ENDBRANCH  20  23
ENDBRANCH  18  20
ENDBRANCH  17  18
ENDBRANCH   7  17
ENDBRANCH   3   6
ENDBRANCH   1   2
BRANCH   1  31
ATOM     31  C   UNL     1      -2.940   1.151  -3.988  1.00  0.00     0.042 C 
BRANCH  31  32
ATOM     32  C   UNL     1      -3.194   2.382  -4.838  1.00  0.00     0.118 C 
BRANCH  32  33
ATOM     33  N   UNL     1      -1.978   2.875  -5.481  1.00  0.00    -0.352 N 
ATOM     34  C   UNL     1      -1.770   3.268  -6.779  1.00  0.00     0.251 C 
ATOM     35  H   UNL     1      -1.190   2.934  -4.895  1.00  0.00     0.163 HD
ATOM     36  O   UNL     1      -0.636   3.539  -7.163  1.00  0.00    -0.269 OA
BRANCH  34  37
ATOM     37  C   UNL     1      -2.907   3.326  -7.715  1.00  0.00     0.039 A 
ATOM     38  C   UNL     1      -2.735   2.847  -9.016  1.00  0.00     0.014 A 
ATOM     39  C   UNL     1      -4.146   3.818  -7.301  1.00  0.00     0.014 A 
ATOM     40  C   UNL     1      -3.829   2.796  -9.878  1.00  0.00     0.010 A 
ATOM     41  C   UNL     1      -5.254   3.661  -8.118  1.00  0.00     0.010 A 
ATOM     42  C   UNL     1      -5.104   3.163  -9.420  1.00  0.00    -0.014 A 
BRANCH  42  43
ATOM     43  C   UNL     1      -6.301   3.068 -10.288  1.00  0.00     0.031 A 
ATOM     44  C   UNL     1      -7.083   4.311 -10.609  1.00  0.00     0.074 A 
ATOM     45  C   UNL     1      -6.725   1.861 -10.708  1.00  0.00     0.049 A 
ATOM     46  N   UNL     1      -8.219   4.434 -11.246  1.00  0.00    -0.248 NA
ATOM     47  C   UNL     1      -6.537   5.583 -10.108  1.00  0.00     0.031 C 
ATOM     48  C   UNL     1      -6.082   0.582 -10.404  1.00  0.00     0.029 A 
ATOM     49  N   UNL     1      -7.810   1.514 -11.472  1.00  0.00    -0.354 N 
ATOM     50  C   UNL     1      -8.533   5.785 -11.193  1.00  0.00     0.074 A 
ATOM     51  C   UNL     1      -7.506   6.433 -10.410  1.00  0.00     0.031 C 
ATOM     52  C   UNL     1      -6.767  -0.408 -10.999  1.00  0.00     0.029 A 
ATOM     53  C   UNL     1      -7.918   0.163 -11.692  1.00  0.00     0.049 A 
ATOM     54  H   UNL     1      -8.450   2.171 -11.830  1.00  0.00     0.167 HD
ATOM     55  C   UNL     1      -9.571   6.431 -11.774  1.00  0.00     0.037 A 
ATOM     56  C   UNL     1      -8.847  -0.534 -12.373  1.00  0.00     0.037 A 
ATOM     57  C   UNL     1     -10.559   5.784 -12.594  1.00  0.00     0.049 A 
ATOM     58  C   UNL     1      -9.971   0.212 -13.037  1.00  0.00     0.074 A 
ATOM     59  C   UNL     1     -11.609   6.353 -13.290  1.00  0.00     0.029 A 
ATOM     60  N   UNL     1     -10.609   4.418 -12.832  1.00  0.00    -0.354 N 
ATOM     61  N   UNL     1     -10.224   1.499 -13.036  1.00  0.00    -0.248 NA
ATOM     62  C   UNL     1     -10.935  -0.589 -13.802  1.00  0.00     0.031 C 
ATOM     63  C   UNL     1     -12.318   5.326 -13.922  1.00  0.00     0.029 A 
ATOM     64  C   UNL     1     -11.682   4.123 -13.656  1.00  0.00     0.049 A 
ATOM     65  H   UNL     1      -9.976   3.757 -12.470  1.00  0.00     0.167 HD
ATOM     66  C   UNL     1     -11.357   1.665 -13.820  1.00  0.00     0.074 A 
ATOM     67  C   UNL     1     -11.734   0.349 -14.292  1.00  0.00     0.031 C 
ATOM     68  C   UNL     1     -12.029   2.804 -14.120  1.00  0.00     0.037 A 
BRANCH  55  69
ATOM     69  C   UNL     1      -9.678   7.912 -11.553  1.00  0.00     0.064 A 
ATOM     70  C   UNL     1      -8.756   8.809 -12.115  1.00  0.00     0.173 A 
ATOM     71  C   UNL     1     -10.727   8.444 -10.789  1.00  0.00     0.173 A 
ATOM     72  F   UNL     1      -7.724   8.350 -12.840  1.00  0.00    -0.203 F 
ATOM     73  C   UNL     1      -8.863  10.179 -11.895  1.00  0.00     0.198 A 
ATOM     74  C   UNL     1     -10.849   9.818 -10.598  1.00  0.00     0.198 A 
ATOM     75  F   UNL     1     -11.637   7.633 -10.230  1.00  0.00    -0.203 F 
ATOM     76  F   UNL     1      -7.938  11.010 -12.396  1.00  0.00    -0.200 F 
ATOM     77  C   UNL     1      -9.913  10.684 -11.144  1.00  0.00     0.200 A 
ATOM     78  F   UNL     1     -11.871  10.305  -9.880  1.00  0.00    -0.200 F 
ATOM     79  F   UNL     1     -10.018  12.004 -10.938  1.00  0.00    -0.200 F 
ENDBRANCH  55  69
BRANCH  56  80
ATOM     80  C   UNL     1      -8.730  -2.010 -12.489  1.00  0.00     0.064 A 
ATOM     81  C   UNL     1      -8.404  -2.609 -13.714  1.00  0.00     0.173 A 
ATOM     82  C   UNL     1      -8.937  -2.851 -11.386  1.00  0.00     0.173 A 
ATOM     83  F   UNL     1      -8.213  -1.847 -14.801  1.00  0.00    -0.203 F 
ATOM     84  C   UNL     1      -8.309  -3.994 -13.836  1.00  0.00     0.198 A 
ATOM     85  C   UNL     1      -8.816  -4.234 -11.504  1.00  0.00     0.198 A 
ATOM     86  F   UNL     1      -9.244  -2.327 -10.191  1.00  0.00    -0.203 F 
ATOM     87  F   UNL     1      -8.039  -4.542 -15.029  1.00  0.00    -0.200 F 
ATOM     88  C   UNL     1      -8.511  -4.805 -12.730  1.00  0.00     0.200 A 
ATOM     89  F   UNL     1      -8.997  -5.014 -10.429  1.00  0.00    -0.200 F 
ATOM     90  F   UNL     1      -8.417  -6.136 -12.847  1.00  0.00    -0.200 F 
ENDBRANCH  56  80
BRANCH  68  91
ATOM     91  C   UNL     1     -13.216   2.680 -15.028  1.00  0.00     0.064 A 
ATOM     92  C   UNL     1     -14.421   2.115 -14.588  1.00  0.00     0.173 A 
ATOM     93  C   UNL     1     -13.159   3.175 -16.340  1.00  0.00     0.173 A 
ATOM     94  F   UNL     1     -14.519   1.615 -13.347  1.00  0.00    -0.203 F 
ATOM     95  C   UNL     1     -15.521   2.030 -15.437  1.00  0.00     0.198 A 
ATOM     96  C   UNL     1     -14.269   3.115 -17.175  1.00  0.00     0.198 A 
ATOM     97  F   UNL     1     -12.030   3.732 -16.804  1.00  0.00    -0.203 F 
ATOM     98  F   UNL     1     -16.649   1.447 -15.010  1.00  0.00    -0.200 F 
ATOM     99  C   UNL     1     -15.447   2.537 -16.726  1.00  0.00     0.200 A 
ATOM    100  F   UNL     1     -14.200   3.618 -18.416  1.00  0.00    -0.200 F 
ATOM    101  F   UNL     1     -16.510   2.462 -17.538  1.00  0.00    -0.200 F 
ENDBRANCH  68  91
ENDBRANCH  42  43
ENDBRANCH  34  37
ENDBRANCH  32  33
ENDBRANCH  31  32
ENDBRANCH   1  31
TORSDOF 15
