REMARK SMILES O=C(NCCCNC(=O)c1cccc(NC(=O)c2ccc(N3C(=O)CCC3=O)cc2)c1)c1ccc(-c2c3nc(c(-c4c(F)c(F)c(F)c(F)c4F)c4ccc([nH]4)c(-c4c(F)c(F)c(F)c(F)c4F)c4nc(c(-c5c(F)c(F)c(F)c(F)c5F)c5ccc2[nH]5)C=C4)C=C3)cc1
REMARK SMILES IDX 5 1 4 2 3 3 1 4 2 5 32 7 33 8 94 9 34 10 93 11 35 12 36 13
REMARK SMILES IDX 37 14 87 15 38 16 92 17 86 18 88 19 39 20 91 21 85 22 84 23
REMARK SMILES IDX 40 25 72 26 52 27 71 28 53 29 56 30 70 31 89 32 54 33 55 34
REMARK SMILES IDX 69 36 90 37 57 38 41 39 42 40 50 41 43 42 44 43 48 44 51 45
REMARK SMILES IDX 45 46 46 47 49 48 47 49 73 50 74 51 82 52 75 53 76 54 80 55
REMARK SMILES IDX 83 56 77 57 78 58 81 59 79 60 58 61 59 62 67 63 60 64 61 65
REMARK SMILES IDX 65 66 68 67 62 68 63 69 66 70 64 71 6 72 7 73 8 74 9 76
REMARK SMILES IDX 10 77 11 78 31 79 12 80 14 81 13 82 15 83 16 84 17 86 18 87
REMARK SMILES IDX 19 88 30 89 20 90 29 91 21 92 22 93 23 94 27 95 24 96 25 97
REMARK SMILES IDX 26 98 28 99
REMARK H PARENT 3 6 88 24 56 35 7 75 15 85
REMARK Flexibility Score: inf
ROOT
ATOM      1  C   UNL     1       4.884  -1.922   1.624  1.00  0.00     0.042 C 
ENDROOT
BRANCH   1   2
ATOM      2  C   UNL     1       4.503  -1.396   0.251  1.00  0.00     0.118 C 
BRANCH   2   3
ATOM      3  N   UNL     1       3.065  -1.224   0.086  1.00  0.00    -0.352 N 
ATOM      4  O   UNL     1       1.100  -0.123  -0.022  1.00  0.00    -0.269 OA
ATOM      5  C   UNL     1       2.325  -0.077  -0.071  1.00  0.00     0.251 C 
ATOM      6  H   UNL     1       2.543  -2.059   0.087  1.00  0.00     0.163 HD
BRANCH   5   7
ATOM      7  C   UNL     1       3.007   1.218  -0.272  1.00  0.00     0.039 A 
ATOM      8  C   UNL     1       4.109   1.314  -1.122  1.00  0.00     0.014 A 
ATOM      9  C   UNL     1       2.537   2.352   0.396  1.00  0.00     0.014 A 
ATOM     10  C   UNL     1       4.850   2.486  -1.161  1.00  0.00     0.010 A 
ATOM     11  C   UNL     1       3.215   3.566   0.260  1.00  0.00     0.010 A 
ATOM     12  C   UNL     1       4.398   3.634  -0.492  1.00  0.00    -0.014 A 
BRANCH  12  13
ATOM     13  C   UNL     1       5.143   4.907  -0.662  1.00  0.00     0.031 A 
ATOM     14  C   UNL     1       5.783   5.600   0.507  1.00  0.00     0.074 A 
ATOM     15  C   UNL     1       5.255   5.422  -1.902  1.00  0.00     0.049 A 
ATOM     16  N   UNL     1       6.465   6.718   0.529  1.00  0.00    -0.248 NA
ATOM     17  C   UNL     1       5.634   4.964   1.824  1.00  0.00     0.031 C 
ATOM     18  C   UNL     1       4.669   4.838  -3.111  1.00  0.00     0.029 A 
ATOM     19  N   UNL     1       5.907   6.538  -2.357  1.00  0.00    -0.354 N 
ATOM     20  C   UNL     1       6.810   6.929   1.857  1.00  0.00     0.074 A 
ATOM     21  C   UNL     1       6.237   5.839   2.618  1.00  0.00     0.031 C 
ATOM     22  C   UNL     1       5.026   5.571  -4.173  1.00  0.00     0.029 A 
ATOM     23  C   UNL     1       5.796   6.719  -3.714  1.00  0.00     0.049 A 
ATOM     24  H   UNL     1       6.407   7.149  -1.770  1.00  0.00     0.167 HD
ATOM     25  C   UNL     1       7.545   7.938   2.387  1.00  0.00     0.037 A 
ATOM     26  C   UNL     1       6.240   7.716  -4.501  1.00  0.00     0.037 A 
ATOM     27  C   UNL     1       8.115   9.015   1.617  1.00  0.00     0.049 A 
ATOM     28  C   UNL     1       7.009   8.843  -3.878  1.00  0.00     0.074 A 
ATOM     29  C   UNL     1       8.902  10.066   2.054  1.00  0.00     0.029 A 
ATOM     30  N   UNL     1       7.951   9.185   0.249  1.00  0.00    -0.354 N 
ATOM     31  N   UNL     1       7.361   9.013  -2.627  1.00  0.00    -0.248 NA
ATOM     32  C   UNL     1       7.442   9.920  -4.776  1.00  0.00     0.031 C 
ATOM     33  C   UNL     1       9.161  10.905   0.965  1.00  0.00     0.029 A 
ATOM     34  C   UNL     1       8.595  10.341  -0.167  1.00  0.00     0.049 A 
ATOM     35  H   UNL     1       7.450   8.575  -0.340  1.00  0.00     0.167 HD
ATOM     36  C   UNL     1       8.076  10.200  -2.590  1.00  0.00     0.074 A 
ATOM     37  C   UNL     1       8.126  10.698  -3.949  1.00  0.00     0.031 C 
ATOM     38  C   UNL     1       8.639  10.823  -1.525  1.00  0.00     0.037 A 
BRANCH  25  39
ATOM     39  C   UNL     1       7.756   7.943   3.876  1.00  0.00     0.064 A 
ATOM     40  C   UNL     1       8.565   6.991   4.514  1.00  0.00     0.173 A 
ATOM     41  C   UNL     1       7.178   8.947   4.670  1.00  0.00     0.173 A 
ATOM     42  F   UNL     1       9.136   6.005   3.806  1.00  0.00    -0.203 F 
ATOM     43  C   UNL     1       8.764   7.026   5.893  1.00  0.00     0.198 A 
ATOM     44  C   UNL     1       7.405   8.998   6.043  1.00  0.00     0.198 A 
ATOM     45  F   UNL     1       6.402   9.888   4.113  1.00  0.00    -0.203 F 
ATOM     46  F   UNL     1       9.501   6.077   6.486  1.00  0.00    -0.200 F 
ATOM     47  C   UNL     1       8.191   8.033   6.655  1.00  0.00     0.200 A 
ATOM     48  F   UNL     1       6.864   9.982   6.775  1.00  0.00    -0.200 F 
ATOM     49  F   UNL     1       8.391   8.071   7.980  1.00  0.00    -0.200 F 
ENDBRANCH  25  39
BRANCH  26  50
ATOM     50  C   UNL     1       5.948   7.691  -5.958  1.00  0.00     0.064 A 
ATOM     51  C   UNL     1       6.975   7.534  -6.898  1.00  0.00     0.173 A 
ATOM     52  C   UNL     1       4.636   7.814  -6.440  1.00  0.00     0.173 A 
ATOM     53  F   UNL     1       8.248   7.428  -6.489  1.00  0.00    -0.203 F 
ATOM     54  C   UNL     1       6.703   7.524  -8.265  1.00  0.00     0.198 A 
ATOM     55  C   UNL     1       4.361   7.768  -7.804  1.00  0.00     0.198 A 
ATOM     56  F   UNL     1       3.615   7.957  -5.581  1.00  0.00    -0.203 F 
ATOM     57  F   UNL     1       7.709   7.423  -9.144  1.00  0.00    -0.200 F 
ATOM     58  C   UNL     1       5.396   7.634  -8.716  1.00  0.00     0.200 A 
ATOM     59  F   UNL     1       3.095   7.852  -8.233  1.00  0.00    -0.200 F 
ATOM     60  F   UNL     1       5.135   7.616 -10.030  1.00  0.00    -0.200 F 
ENDBRANCH  26  50
BRANCH  38  61
ATOM     61  C   UNL     1       9.394  12.093  -1.797  1.00  0.00     0.064 A 
ATOM     62  C   UNL     1       8.741  13.277  -2.172  1.00  0.00     0.173 A 
ATOM     63  C   UNL     1      10.790  12.130  -1.654  1.00  0.00     0.173 A 
ATOM     64  F   UNL     1       7.410  13.290  -2.340  1.00  0.00    -0.203 F 
ATOM     65  C   UNL     1       9.461  14.441  -2.425  1.00  0.00     0.198 A 
ATOM     66  C   UNL     1      11.502  13.306  -1.872  1.00  0.00     0.198 A 
ATOM     67  F   UNL     1      11.463  11.028  -1.292  1.00  0.00    -0.203 F 
ATOM     68  F   UNL     1       8.822  15.544  -2.840  1.00  0.00    -0.200 F 
ATOM     69  C   UNL     1      10.839  14.457  -2.267  1.00  0.00     0.200 A 
ATOM     70  F   UNL     1      12.831  13.323  -1.703  1.00  0.00    -0.200 F 
ATOM     71  F   UNL     1      11.529  15.581  -2.503  1.00  0.00    -0.200 F 
ENDBRANCH  38  61
ENDBRANCH  12  13
ENDBRANCH   5   7
ENDBRANCH   2   3
ENDBRANCH   1   2
BRANCH   1  72
ATOM     72  C   UNL     1       4.342  -3.309   1.925  1.00  0.00     0.118 C 
BRANCH  72  73
ATOM     73  N   UNL     1       4.773  -4.286   0.937  1.00  0.00    -0.352 N 
ATOM     74  C   UNL     1       5.648  -5.333   1.039  1.00  0.00     0.251 C 
ATOM     75  H   UNL     1       4.369  -4.174   0.046  1.00  0.00     0.163 HD
ATOM     76  O   UNL     1       6.084  -5.848   0.013  1.00  0.00    -0.269 OA
BRANCH  74  77
ATOM     77  C   UNL     1       6.063  -5.861   2.355  1.00  0.00     0.041 A 
ATOM     78  C   UNL     1       7.368  -6.338   2.492  1.00  0.00     0.014 A 
ATOM     79  C   UNL     1       5.160  -5.973   3.420  1.00  0.00     0.040 A 
ATOM     80  C   UNL     1       7.754  -6.934   3.685  1.00  0.00     0.003 A 
ATOM     81  C   UNL     1       5.569  -6.476   4.658  1.00  0.00     0.042 A 
ATOM     82  C   UNL     1       6.852  -7.017   4.750  1.00  0.00     0.026 A 
BRANCH  81  83
ATOM     83  N   UNL     1       4.633  -6.379   5.709  1.00  0.00    -0.322 N 
ATOM     84  C   UNL     1       4.715  -6.569   7.069  1.00  0.00     0.255 C 
ATOM     85  H   UNL     1       3.732  -6.122   5.405  1.00  0.00     0.170 HD
ATOM     86  O   UNL     1       3.712  -6.465   7.771  1.00  0.00    -0.269 OA
BRANCH  84  87
ATOM     87  C   UNL     1       5.989  -6.901   7.715  1.00  0.00     0.040 A 
ATOM     88  C   UNL     1       6.152  -8.195   8.203  1.00  0.00     0.016 A 
ATOM     89  C   UNL     1       7.042  -5.985   7.756  1.00  0.00     0.016 A 
ATOM     90  C   UNL     1       7.417  -8.612   8.617  1.00  0.00     0.027 A 
ATOM     91  C   UNL     1       8.303  -6.409   8.190  1.00  0.00     0.027 A 
ATOM     92  C   UNL     1       8.522  -7.743   8.577  1.00  0.00     0.052 A 
BRANCH  92  93
ATOM     93  N   UNL     1       9.826  -8.226   8.881  1.00  0.00    -0.251 N 
ATOM     94  C   UNL     1      10.862  -7.450   9.343  1.00  0.00     0.234 C 
ATOM     95  C   UNL     1      10.221  -9.530   8.674  1.00  0.00     0.234 C 
ATOM     96  O   UNL     1      10.876  -6.249   9.585  1.00  0.00    -0.274 OA
ATOM     97  C   UNL     1      12.050  -8.326   9.604  1.00  0.00     0.111 C 
ATOM     98  C   UNL     1      11.662  -9.675   9.055  1.00  0.00     0.111 C 
ATOM     99  O   UNL     1       9.589 -10.454   8.181  1.00  0.00    -0.274 OA
ENDBRANCH  92  93
ENDBRANCH  84  87
ENDBRANCH  81  83
ENDBRANCH  74  77
ENDBRANCH  72  73
ENDBRANCH   1  72
TORSDOF 13
