REMARK SMILES COCCCC(=O)N[C@H]1CC[C@@H](C(=O)NCCCNC(=O)c2ccc(-c3c4nc(c(-c5c(F)c(F)c(F)c(F)c5F)c5ccc([nH]5)c(-c5c(F)c(F)c(F)c(F)c5F)c5nc(c(-c6c(F)c(F)c(F)c(F)c6F)c6ccc3[nH]6)C=C5)C=C4)cc2)CC1
REMARK SMILES IDX 13 1 14 2 15 3 12 5 9 6 10 7 86 8 11 9 85 10 8 11 6 12 7 13
REMARK SMILES IDX 5 15 4 16 3 17 2 18 1 19 16 20 17 21 18 22 19 23 20 24 21 26
REMARK SMILES IDX 22 27 23 28 84 29 24 30 83 31 25 32 26 33 27 34 77 35 28 36
REMARK SMILES IDX 82 37 76 38 78 39 29 40 81 41 75 42 74 43 30 45 62 46 42 47
REMARK SMILES IDX 61 48 43 49 46 50 60 51 79 52 44 53 45 54 59 56 80 57 47 58
REMARK SMILES IDX 31 59 32 60 40 61 33 62 34 63 38 64 41 65 35 66 36 67 39 68
REMARK SMILES IDX 37 69 63 70 64 71 72 72 65 73 66 74 70 75 73 76 67 77 68 78
REMARK SMILES IDX 71 79 69 80 48 81 49 82 57 83 50 84 51 85 55 86 58 87 52 88
REMARK SMILES IDX 53 89 56 90 54 91
REMARK H PARENT 15 4 8 14 19 25 78 44 46 55
REMARK Flexibility Score: inf
ROOT
ATOM      1  C   UNL     1       0.223   3.944   0.004  1.00  0.00     0.223 C 
ATOM      2  O   UNL     1      -0.789   4.546  -0.370  1.00  0.00    -0.275 OA
ATOM      3  N   UNL     1       0.449   3.927   1.343  1.00  0.00    -0.356 N 
ATOM      4  H   UNL     1       0.184   4.736   1.839  1.00  0.00     0.163 HD
ENDROOT
BRANCH   1   5
ATOM      5  C   UNL     1       1.156   3.293  -1.035  1.00  0.00     0.078 C 
ATOM      6  C   UNL     1       3.071   1.058  -0.260  1.00  0.00     0.082 C 
ATOM      7  C   UNL     1       1.869   0.765  -1.149  1.00  0.00     0.026 C 
ATOM      8  C   UNL     1       3.528   2.536  -0.268  1.00  0.00     0.026 C 
ATOM      9  C   UNL     1       0.837   1.864  -1.450  1.00  0.00     0.015 C 
ATOM     10  C   UNL     1       2.642   3.587  -0.924  1.00  0.00     0.015 C 
BRANCH   6  11
ATOM     11  N   UNL     1       3.115   0.582   1.145  1.00  0.00    -0.353 N 
ATOM     12  C   UNL     1       2.571  -0.252   2.050  1.00  0.00     0.220 C 
ATOM     13  O   UNL     1       3.127  -0.217   3.156  1.00  0.00    -0.275 OA
ATOM     14  H   UNL     1       3.834   1.078   1.600  1.00  0.00     0.163 HD
BRANCH  12  15
ATOM     15  C   UNL     1       1.398  -1.185   1.851  1.00  0.00     0.102 C 
BRANCH  15  16
ATOM     16  C   UNL     1       0.021  -0.657   2.284  1.00  0.00     0.038 C 
BRANCH  16  17
ATOM     17  C   UNL     1      -0.758   0.061   1.195  1.00  0.00     0.160 C 
BRANCH  17  18
ATOM     18  O   UNL     1      -1.608  -0.736   0.383  1.00  0.00    -0.385 OA
ATOM     19  C   UNL     1      -1.025  -1.864  -0.242  1.00  0.00     0.194 C 
ENDBRANCH  17  18
ENDBRANCH  16  17
ENDBRANCH  15  16
ENDBRANCH  12  15
ENDBRANCH   6  11
ENDBRANCH   1   5
BRANCH   3  20
ATOM     20  C   UNL     1       1.029   2.867   2.121  1.00  0.00     0.117 C 
BRANCH  20  21
ATOM     21  C   UNL     1       2.175   3.294   3.021  1.00  0.00     0.042 C 
BRANCH  21  22
ATOM     22  C   UNL     1       1.842   3.211   4.503  1.00  0.00     0.118 C 
BRANCH  22  23
ATOM     23  N   UNL     1       1.501   1.869   4.972  1.00  0.00    -0.352 N 
ATOM     24  C   UNL     1       1.978   1.135   6.039  1.00  0.00     0.251 C 
ATOM     25  H   UNL     1       0.816   1.410   4.434  1.00  0.00     0.163 HD
ATOM     26  O   UNL     1       1.607  -0.008   6.230  1.00  0.00    -0.269 OA
BRANCH  24  27
ATOM     27  C   UNL     1       2.940   1.768   6.962  1.00  0.00     0.039 A 
ATOM     28  C   UNL     1       4.066   1.064   7.395  1.00  0.00     0.014 A 
ATOM     29  C   UNL     1       2.734   3.086   7.360  1.00  0.00     0.014 A 
ATOM     30  C   UNL     1       5.031   1.722   8.161  1.00  0.00     0.010 A 
ATOM     31  C   UNL     1       3.753   3.773   7.990  1.00  0.00     0.010 A 
ATOM     32  C   UNL     1       4.903   3.096   8.422  1.00  0.00    -0.014 A 
BRANCH  32  33
ATOM     33  C   UNL     1       5.912   3.870   9.184  1.00  0.00     0.031 A 
ATOM     34  C   UNL     1       5.474   4.625  10.412  1.00  0.00     0.074 A 
ATOM     35  C   UNL     1       7.164   4.007   8.707  1.00  0.00     0.049 A 
ATOM     36  N   UNL     1       6.109   5.539  11.099  1.00  0.00    -0.248 NA
ATOM     37  C   UNL     1       4.102   4.368  10.885  1.00  0.00     0.031 C 
ATOM     38  C   UNL     1       7.684   3.389   7.487  1.00  0.00     0.029 A 
ATOM     39  N   UNL     1       8.223   4.733   9.188  1.00  0.00    -0.354 N 
ATOM     40  C   UNL     1       5.192   6.006  12.033  1.00  0.00     0.074 A 
ATOM     41  C   UNL     1       3.941   5.329  11.779  1.00  0.00     0.031 C 
ATOM     42  C   UNL     1       8.974   3.731   7.335  1.00  0.00     0.029 A 
ATOM     43  C   UNL     1       9.358   4.623   8.424  1.00  0.00     0.049 A 
ATOM     44  H   UNL     1       8.175   5.280  10.005  1.00  0.00     0.167 HD
ATOM     45  C   UNL     1       5.387   6.893  13.037  1.00  0.00     0.037 A 
ATOM     46  C   UNL     1      10.571   5.182   8.592  1.00  0.00     0.037 A 
ATOM     47  C   UNL     1       6.662   7.487  13.334  1.00  0.00     0.049 A 
ATOM     48  C   UNL     1      10.795   6.081   9.777  1.00  0.00     0.074 A 
ATOM     49  C   UNL     1       7.004   8.332  14.373  1.00  0.00     0.029 A 
ATOM     50  N   UNL     1       7.817   7.267  12.596  1.00  0.00    -0.354 N 
ATOM     51  N   UNL     1       9.938   6.482  10.686  1.00  0.00    -0.248 NA
ATOM     52  C   UNL     1      12.157   6.595   9.969  1.00  0.00     0.031 C 
ATOM     53  C   UNL     1       8.364   8.636  14.255  1.00  0.00     0.029 A 
ATOM     54  C   UNL     1       8.877   7.951  13.164  1.00  0.00     0.049 A 
ATOM     55  H   UNL     1       7.873   6.707  11.788  1.00  0.00     0.167 HD
ATOM     56  C   UNL     1      10.661   7.263  11.576  1.00  0.00     0.074 A 
ATOM     57  C   UNL     1      12.031   7.272  11.102  1.00  0.00     0.031 C 
ATOM     58  C   UNL     1      10.234   7.916  12.684  1.00  0.00     0.037 A 
BRANCH  45  59
ATOM     59  C   UNL     1       4.202   7.243  13.892  1.00  0.00     0.064 A 
ATOM     60  C   UNL     1       3.599   6.300  14.739  1.00  0.00     0.173 A 
ATOM     61  C   UNL     1       3.655   8.534  13.859  1.00  0.00     0.173 A 
ATOM     62  F   UNL     1       4.072   5.045  14.799  1.00  0.00    -0.203 F 
ATOM     63  C   UNL     1       2.465   6.620  15.481  1.00  0.00     0.198 A 
ATOM     64  C   UNL     1       2.543   8.863  14.632  1.00  0.00     0.198 A 
ATOM     65  F   UNL     1       4.193   9.478  13.072  1.00  0.00    -0.203 F 
ATOM     66  F   UNL     1       1.864   5.680  16.223  1.00  0.00    -0.200 F 
ATOM     67  C   UNL     1       1.941   7.903  15.431  1.00  0.00     0.200 A 
ATOM     68  F   UNL     1       2.046  10.107  14.593  1.00  0.00    -0.200 F 
ATOM     69  F   UNL     1       0.850   8.210  16.145  1.00  0.00    -0.200 F 
ENDBRANCH  45  59
BRANCH  46  70
ATOM     70  C   UNL     1      11.679   4.847   7.661  1.00  0.00     0.064 A 
ATOM     71  C   UNL     1      12.737   4.027   8.080  1.00  0.00     0.173 A 
ATOM     72  C   UNL     1      11.705   5.321   6.342  1.00  0.00     0.173 A 
ATOM     73  F   UNL     1      12.763   3.562   9.338  1.00  0.00    -0.203 F 
ATOM     74  C   UNL     1      13.789   3.711   7.224  1.00  0.00     0.198 A 
ATOM     75  C   UNL     1      12.746   4.983   5.478  1.00  0.00     0.198 A 
ATOM     76  F   UNL     1      10.712   6.098   5.887  1.00  0.00    -0.203 F 
ATOM     77  F   UNL     1      14.807   2.960   7.665  1.00  0.00    -0.200 F 
ATOM     78  C   UNL     1      13.790   4.186   5.921  1.00  0.00     0.200 A 
ATOM     79  F   UNL     1      12.737   5.430   4.214  1.00  0.00    -0.200 F 
ATOM     80  F   UNL     1      14.800   3.879   5.096  1.00  0.00    -0.200 F 
ENDBRANCH  46  70
BRANCH  58  81
ATOM     81  C   UNL     1      11.268   8.642  13.490  1.00  0.00     0.064 A 
ATOM     82  C   UNL     1      11.838   9.844  13.047  1.00  0.00     0.173 A 
ATOM     83  C   UNL     1      11.659   8.147  14.743  1.00  0.00     0.173 A 
ATOM     84  F   UNL     1      11.504  10.348  11.850  1.00  0.00    -0.203 F 
ATOM     85  C   UNL     1      12.783  10.511  13.820  1.00  0.00     0.198 A 
ATOM     86  C   UNL     1      12.583   8.832  15.525  1.00  0.00     0.198 A 
ATOM     87  F   UNL     1      11.135   7.004  15.213  1.00  0.00    -0.203 F 
ATOM     88  F   UNL     1      13.350  11.634  13.358  1.00  0.00    -0.200 F 
ATOM     89  C   UNL     1      13.150  10.009  15.060  1.00  0.00     0.200 A 
ATOM     90  F   UNL     1      12.927   8.352  16.728  1.00  0.00    -0.200 F 
ATOM     91  F   UNL     1      14.056  10.657  15.805  1.00  0.00    -0.200 F 
ENDBRANCH  58  81
ENDBRANCH  32  33
ENDBRANCH  24  27
ENDBRANCH  22  23
ENDBRANCH  21  22
ENDBRANCH  20  21
ENDBRANCH   3  20
TORSDOF 15
