REMARK SMILES COc1ccc(NC2=[NH+]C(=O)/C(=C\c3ccccc3C(=O)NCCCNC(=O)c3ccc(-c4c5nc(c(-c6c(F)c(F)c(F)c(F)c6F)c6ccc([nH]6)c(-c6c(F)c(F)c(F)c(F)c6F)c6nc(c(-c7c(F)c(F)c(F)c(F)c7F)c7ccc4[nH]7)C=C6)C=C5)cc3)S2)cc1
REMARK SMILES IDX 23 1 22 2 20 3 21 4 19 6 14 7 15 8 16 9 18 10 17 11 13 12
REMARK SMILES IDX 7 13 8 14 9 16 92 17 10 18 12 20 11 21 6 22 3 23 4 24 94 25
REMARK SMILES IDX 5 26 93 27 2 28 1 29 24 30 25 31 26 32 27 33 28 35 29 36
REMARK SMILES IDX 30 37 91 38 31 39 90 40 32 41 33 42 34 43 84 44 35 45 89 46
REMARK SMILES IDX 83 47 85 48 36 49 88 50 82 51 81 52 37 54 69 55 49 56 68 57
REMARK SMILES IDX 50 58 53 59 67 60 86 61 51 62 52 63 66 65 87 66 54 67 38 68
REMARK SMILES IDX 39 69 47 70 40 71 41 72 45 73 48 74 42 75 43 76 46 77 44 78
REMARK SMILES IDX 70 79 71 80 79 81 72 82 73 83 77 84 80 85 74 86 75 87 78 88
REMARK SMILES IDX 76 89 55 90 56 91 64 92 57 93 58 94 62 95 65 96 59 97 60 98
REMARK SMILES IDX 63 99 61 100
REMARK H PARENT 22 5 7 15 9 19 26 34 85 53 53 64
REMARK Flexibility Score: inf
ROOT
ATOM      1  C   UNL     1      -2.615   8.504  -0.344  1.00  0.00     0.118 C 
ENDROOT
BRANCH   1   2
ATOM      2  N   UNL     1      -2.268   8.791  -1.714  1.00  0.00    -0.352 N 
ATOM      3  C   UNL     1      -1.912  10.004  -2.265  1.00  0.00     0.251 C 
ATOM      4  O   UNL     1      -1.732  10.053  -3.481  1.00  0.00    -0.269 OA
ATOM      5  H   UNL     1      -2.288   8.026  -2.333  1.00  0.00     0.163 HD
BRANCH   3   6
ATOM      6  C   UNL     1      -1.885  11.261  -1.456  1.00  0.00     0.047 A 
ATOM      7  C   UNL     1      -1.314  11.450  -0.179  1.00  0.00    -0.011 A 
ATOM      8  C   UNL     1      -1.584  12.665   0.492  1.00  0.00     0.009 A 
ATOM      9  C   UNL     1      -2.305  13.696  -0.111  1.00  0.00     0.001 A 
ATOM     10  C   UNL     1      -2.560  12.337  -2.074  1.00  0.00     0.014 A 
ATOM     11  C   UNL     1      -2.764  13.546  -1.410  1.00  0.00     0.001 A 
BRANCH   7  12
ATOM     12  C   UNL     1      -0.506  10.506   0.622  1.00  0.00     0.032 C 
ATOM     13  N   UNL     1       2.366   6.446   0.297  1.00  0.00    -0.235 N 
ATOM     14  C   UNL     1       1.817   7.649  -0.029  1.00  0.00     0.322 C 
ATOM     15  H   UNL     1       3.105   6.468   0.947  1.00  0.00     0.313 HD
ATOM     16  N   UNL     1       1.655   8.207  -1.180  1.00  0.00    -0.199 N 
ATOM     17  S   UNL     1       1.224   8.569   1.348  1.00  0.00     0.006 SA
ATOM     18  C   UNL     1       1.095   9.466  -1.090  1.00  0.00     0.346 C 
ATOM     19  H   UNL     1       1.903   7.780  -2.032  1.00  0.00     0.316 HD
ATOM     20  C   UNL     1       0.494   9.691   0.254  1.00  0.00     0.110 C 
ATOM     21  O   UNL     1       1.121  10.319  -1.963  1.00  0.00    -0.240 OA
BRANCH  13  22
ATOM     22  C   UNL     1       2.001   5.175  -0.188  1.00  0.00     0.125 A 
ATOM     23  C   UNL     1       1.164   2.545  -0.790  1.00  0.00     0.119 A 
ATOM     24  C   UNL     1       0.567   3.644  -1.411  1.00  0.00     0.051 A 
ATOM     25  C   UNL     1       2.256   2.755   0.045  1.00  0.00     0.051 A 
ATOM     26  C   UNL     1       0.996   4.951  -1.130  1.00  0.00     0.055 A 
ATOM     27  C   UNL     1       2.672   4.058   0.336  1.00  0.00     0.055 A 
BRANCH  23  28
ATOM     28  O   UNL     1       0.607   1.327  -1.074  1.00  0.00    -0.497 OA
ATOM     29  C   UNL     1       0.946   0.266  -0.184  1.00  0.00     0.278 C 
ENDBRANCH  23  28
ENDBRANCH  13  22
ENDBRANCH   7  12
ENDBRANCH   3   6
ENDBRANCH   1   2
BRANCH   1  30
ATOM     30  C   UNL     1      -3.551   7.335  -0.134  1.00  0.00     0.042 C 
BRANCH  30  31
ATOM     31  C   UNL     1      -2.905   5.958  -0.224  1.00  0.00     0.118 C 
BRANCH  31  32
ATOM     32  N   UNL     1      -1.742   5.749   0.639  1.00  0.00    -0.352 N 
ATOM     33  C   UNL     1      -1.357   4.686   1.427  1.00  0.00     0.251 C 
ATOM     34  H   UNL     1      -1.117   6.510   0.660  1.00  0.00     0.163 HD
ATOM     35  O   UNL     1      -0.328   4.783   2.094  1.00  0.00    -0.269 OA
BRANCH  33  36
ATOM     36  C   UNL     1      -2.214   3.487   1.572  1.00  0.00     0.039 A 
ATOM     37  C   UNL     1      -2.261   2.860   2.821  1.00  0.00     0.014 A 
ATOM     38  C   UNL     1      -3.053   3.047   0.552  1.00  0.00     0.014 A 
ATOM     39  C   UNL     1      -3.271   1.940   3.096  1.00  0.00     0.010 A 
ATOM     40  C   UNL     1      -4.145   2.251   0.866  1.00  0.00     0.010 A 
ATOM     41  C   UNL     1      -4.285   1.718   2.153  1.00  0.00    -0.014 A 
BRANCH  41  42
ATOM     42  C   UNL     1      -5.524   0.988   2.518  1.00  0.00     0.031 A 
ATOM     43  C   UNL     1      -5.932  -0.239   1.754  1.00  0.00     0.074 A 
ATOM     44  C   UNL     1      -6.320   1.493   3.485  1.00  0.00     0.049 A 
ATOM     45  N   UNL     1      -7.012  -0.967   1.878  1.00  0.00    -0.248 NA
ATOM     46  C   UNL     1      -5.028  -0.686   0.681  1.00  0.00     0.031 C 
ATOM     47  C   UNL     1      -6.071   2.733   4.227  1.00  0.00     0.029 A 
ATOM     48  N   UNL     1      -7.503   1.034   4.007  1.00  0.00    -0.354 N 
ATOM     49  C   UNL     1      -6.918  -1.946   0.899  1.00  0.00     0.074 A 
ATOM     50  C   UNL     1      -5.720  -1.675   0.137  1.00  0.00     0.031 C 
ATOM     51  C   UNL     1      -7.045   2.912   5.134  1.00  0.00     0.029 A 
ATOM     52  C   UNL     1      -8.009   1.827   5.011  1.00  0.00     0.049 A 
ATOM     53  H   UNL     1      -7.949   0.214   3.693  1.00  0.00     0.167 HD
ATOM     54  C   UNL     1      -7.736  -3.002   0.683  1.00  0.00     0.037 A 
ATOM     55  C   UNL     1      -9.126   1.688   5.750  1.00  0.00     0.037 A 
ATOM     56  C   UNL     1      -8.912  -3.275   1.463  1.00  0.00     0.049 A 
ATOM     57  C   UNL     1     -10.002   0.489   5.505  1.00  0.00     0.074 A 
ATOM     58  C   UNL     1      -9.799  -4.331   1.351  1.00  0.00     0.029 A 
ATOM     59  N   UNL     1      -9.359  -2.483   2.511  1.00  0.00    -0.354 N 
ATOM     60  N   UNL     1      -9.861  -0.471   4.623  1.00  0.00    -0.248 NA
ATOM     61  C   UNL     1     -11.183   0.344   6.366  1.00  0.00     0.031 C 
ATOM     62  C   UNL     1     -10.797  -4.164   2.316  1.00  0.00     0.029 A 
ATOM     63  C   UNL     1     -10.509  -3.028   3.056  1.00  0.00     0.049 A 
ATOM     64  H   UNL     1      -8.923  -1.657   2.821  1.00  0.00     0.167 HD
ATOM     65  C   UNL     1     -10.914  -1.347   4.841  1.00  0.00     0.074 A 
ATOM     66  C   UNL     1     -11.675  -0.815   5.953  1.00  0.00     0.031 C 
ATOM     67  C   UNL     1     -11.229  -2.486   4.179  1.00  0.00     0.037 A 
BRANCH  54  68
ATOM     68  C   UNL     1      -7.362  -3.953  -0.416  1.00  0.00     0.064 A 
ATOM     69  C   UNL     1      -6.239  -4.787  -0.305  1.00  0.00     0.173 A 
ATOM     70  C   UNL     1      -8.142  -4.056  -1.577  1.00  0.00     0.173 A 
ATOM     71  F   UNL     1      -5.449  -4.715   0.778  1.00  0.00    -0.203 F 
ATOM     72  C   UNL     1      -5.895  -5.670  -1.325  1.00  0.00     0.198 A 
ATOM     73  C   UNL     1      -7.813  -4.963  -2.582  1.00  0.00     0.198 A 
ATOM     74  F   UNL     1      -9.227  -3.283  -1.735  1.00  0.00    -0.203 F 
ATOM     75  F   UNL     1      -4.790  -6.420  -1.215  1.00  0.00    -0.200 F 
ATOM     76  C   UNL     1      -6.687  -5.763  -2.458  1.00  0.00     0.200 A 
ATOM     77  F   UNL     1      -8.585  -5.060  -3.674  1.00  0.00    -0.200 F 
ATOM     78  F   UNL     1      -6.361  -6.620  -3.436  1.00  0.00    -0.200 F 
ENDBRANCH  54  68
BRANCH  55  79
ATOM     79  C   UNL     1      -9.467   2.684   6.802  1.00  0.00     0.064 A 
ATOM     80  C   UNL     1      -9.440   2.336   8.161  1.00  0.00     0.173 A 
ATOM     81  C   UNL     1      -9.849   3.993   6.476  1.00  0.00     0.173 A 
ATOM     82  F   UNL     1      -9.094   1.093   8.527  1.00  0.00    -0.203 F 
ATOM     83  C   UNL     1      -9.818   3.245   9.148  1.00  0.00     0.198 A 
ATOM     84  C   UNL     1     -10.197   4.912   7.465  1.00  0.00     0.198 A 
ATOM     85  F   UNL     1      -9.881   4.384   5.193  1.00  0.00    -0.203 F 
ATOM     86  F   UNL     1      -9.841   2.865  10.432  1.00  0.00    -0.200 F 
ATOM     87  C   UNL     1     -10.194   4.533   8.799  1.00  0.00     0.200 A 
ATOM     88  F   UNL     1     -10.542   6.161   7.125  1.00  0.00    -0.200 F 
ATOM     89  F   UNL     1     -10.561   5.406   9.747  1.00  0.00    -0.200 F 
ENDBRANCH  55  79
BRANCH  67  90
ATOM     90  C   UNL     1     -12.419  -3.254   4.672  1.00  0.00     0.064 A 
ATOM     91  C   UNL     1     -13.727  -2.795   4.467  1.00  0.00     0.173 A 
ATOM     92  C   UNL     1     -12.244  -4.487   5.319  1.00  0.00     0.173 A 
ATOM     93  F   UNL     1     -13.942  -1.614   3.867  1.00  0.00    -0.203 F 
ATOM     94  C   UNL     1     -14.819  -3.531   4.916  1.00  0.00     0.198 A 
ATOM     95  C   UNL     1     -13.339  -5.234   5.739  1.00  0.00     0.198 A 
ATOM     96  F   UNL     1     -11.011  -4.971   5.531  1.00  0.00    -0.203 F 
ATOM     97  F   UNL     1     -16.060  -3.051   4.753  1.00  0.00    -0.200 F 
ATOM     98  C   UNL     1     -14.625  -4.753   5.544  1.00  0.00     0.200 A 
ATOM     99  F   UNL     1     -13.151  -6.421   6.332  1.00  0.00    -0.200 F 
ATOM    100  F   UNL     1     -15.679  -5.463   5.968  1.00  0.00    -0.200 F 
ENDBRANCH  67  90
ENDBRANCH  41  42
ENDBRANCH  33  36
ENDBRANCH  31  32
ENDBRANCH  30  31
ENDBRANCH   1  30
TORSDOF 13
