REMARK SMILES Cc1ccc2c(c1)c(-c1ccnc3c(C)cccc13)c(C)n2CC(=O)NCCCNC(=O)c1ccc(-c2c3nc(c(-c4c(F)c(F)c(F)c(F)c4F)c4ccc([nH]4)c(-c4c(F)c(F)c(F)c(F)c4F)c4nc(c(-c5c(F)c(F)c(F)c(F)c5F)c5ccc2[nH]5)C=C4)C=C3)cc1
REMARK SMILES IDX 28 1 27 2 26 3 24 4 25 5 23 7 22 8 1 9 2 10 3 11 7 12 4 13
REMARK SMILES IDX 6 14 5 15 8 16 20 17 21 18 9 19 10 20 19 21 11 22 13 23
REMARK SMILES IDX 18 24 12 25 14 26 17 27 15 28 16 29 29 30 30 31 31 32 32 34
REMARK SMILES IDX 33 35 34 36 95 37 35 38 94 39 36 40 37 41 38 42 88 43 39 44
REMARK SMILES IDX 93 45 87 46 89 47 40 48 92 49 86 50 85 51 41 53 73 54 53 55
REMARK SMILES IDX 72 56 54 57 57 58 71 59 90 60 55 61 56 62 70 64 91 65 58 66
REMARK SMILES IDX 42 67 43 68 51 69 44 70 45 71 49 72 52 73 46 74 47 75 50 76
REMARK SMILES IDX 48 77 74 78 75 79 83 80 76 81 77 82 81 83 84 84 78 85 79 86
REMARK SMILES IDX 82 87 80 88 59 89 60 90 68 91 61 92 62 93 66 94 69 95 63 96
REMARK SMILES IDX 64 97 67 98 65 99
REMARK H PARENT 26 6 30 33 89 52 57 63
REMARK Flexibility Score: inf
ROOT
ATOM      1  C   UNL     1       2.056   4.167   4.132  1.00  0.00     0.042 C 
ENDROOT
BRANCH   1   2
ATOM      2  C   UNL     1       0.621   4.470   4.566  1.00  0.00     0.117 C 
BRANCH   2   3
ATOM      3  N   UNL     1       0.282   5.878   4.453  1.00  0.00    -0.354 N 
ATOM      4  C   UNL     1      -0.543   6.520   3.577  1.00  0.00     0.239 C 
ATOM      5  O   UNL     1      -0.689   7.737   3.723  1.00  0.00    -0.273 OA
ATOM      6  H   UNL     1       0.719   6.463   5.114  1.00  0.00     0.163 HD
BRANCH   4   7
ATOM      7  C   UNL     1      -1.301   5.764   2.503  1.00  0.00     0.222 C 
BRANCH   7   8
ATOM      8  N   UNL     1      -0.442   5.237   1.449  1.00  0.00    -0.335 N 
ATOM      9  C   UNL     1       0.987  -0.017  -0.084  1.00  0.00     0.044 C 
ATOM     10  C   UNL     1       0.530   1.345   0.349  1.00  0.00    -0.050 A 
ATOM     11  C   UNL     1      -0.535   1.490   1.238  1.00  0.00     0.005 A 
ATOM     12  C   UNL     1       1.148   2.490  -0.178  1.00  0.00     0.014 A 
ATOM     13  C   UNL     1      -0.971   2.753   1.650  1.00  0.00     0.027 A 
ATOM     14  C   UNL     1       0.728   3.776   0.226  1.00  0.00     0.008 A 
ATOM     15  C   UNL     1      -0.306   3.888   1.155  1.00  0.00     0.049 A 
ATOM     16  C   UNL     1       1.142   5.098  -0.108  1.00  0.00     0.011 A 
ATOM     17  C   UNL     1       0.359   5.991   0.610  1.00  0.00     0.024 A 
ATOM     18  C   UNL     1       0.365   7.485   0.581  1.00  0.00     0.065 C 
BRANCH  16  19
ATOM     19  C   UNL     1       2.193   5.503  -1.033  1.00  0.00    -0.005 A 
ATOM     20  C   UNL     1       1.944   5.362  -2.396  1.00  0.00     0.029 A 
ATOM     21  C   UNL     1       3.448   5.986  -0.582  1.00  0.00     0.008 A 
ATOM     22  C   UNL     1       2.946   5.715  -3.270  1.00  0.00     0.112 A 
ATOM     23  C   UNL     1       4.410   6.319  -1.564  1.00  0.00     0.074 A 
ATOM     24  C   UNL     1       3.780   6.138   0.787  1.00  0.00     0.011 A 
ATOM     25  N   UNL     1       4.150   6.183  -2.881  1.00  0.00    -0.256 NA
ATOM     26  C   UNL     1       5.661   6.796  -1.141  1.00  0.00    -0.025 A 
ATOM     27  C   UNL     1       5.024   6.606   1.189  1.00  0.00     0.001 A 
ATOM     28  C   UNL     1       6.733   7.177  -2.129  1.00  0.00     0.047 C 
ATOM     29  C   UNL     1       5.963   6.933   0.226  1.00  0.00     0.005 A 
ENDBRANCH  16  19
ENDBRANCH   7   8
ENDBRANCH   4   7
ENDBRANCH   2   3
ENDBRANCH   1   2
BRANCH   1  30
ATOM     30  C   UNL     1       3.120   4.878   4.970  1.00  0.00     0.118 C 
BRANCH  30  31
ATOM     31  N   UNL     1       3.035   4.592   6.390  1.00  0.00    -0.352 N 
ATOM     32  C   UNL     1       3.534   3.635   7.224  1.00  0.00     0.251 C 
ATOM     33  H   UNL     1       2.483   5.251   6.869  1.00  0.00     0.163 HD
ATOM     34  O   UNL     1       3.298   3.799   8.428  1.00  0.00    -0.269 OA
BRANCH  32  35
ATOM     35  C   UNL     1       4.261   2.406   6.809  1.00  0.00     0.039 A 
ATOM     36  C   UNL     1       4.623   2.072   5.505  1.00  0.00     0.014 A 
ATOM     37  C   UNL     1       4.539   1.485   7.840  1.00  0.00     0.014 A 
ATOM     38  C   UNL     1       5.143   0.810   5.226  1.00  0.00     0.010 A 
ATOM     39  C   UNL     1       5.072   0.231   7.570  1.00  0.00     0.010 A 
ATOM     40  C   UNL     1       5.320  -0.126   6.252  1.00  0.00    -0.014 A 
BRANCH  40  41
ATOM     41  C   UNL     1       5.851  -1.440   5.898  1.00  0.00     0.031 A 
ATOM     42  C   UNL     1       7.203  -1.408   5.275  1.00  0.00     0.074 A 
ATOM     43  C   UNL     1       5.217  -2.602   6.167  1.00  0.00     0.049 A 
ATOM     44  N   UNL     1       7.534  -1.768   4.078  1.00  0.00    -0.248 NA
ATOM     45  C   UNL     1       8.299  -0.792   6.038  1.00  0.00     0.031 C 
ATOM     46  C   UNL     1       4.029  -2.808   7.000  1.00  0.00     0.029 A 
ATOM     47  N   UNL     1       5.558  -3.874   5.802  1.00  0.00    -0.354 N 
ATOM     48  C   UNL     1       8.911  -1.573   3.982  1.00  0.00     0.074 A 
ATOM     49  C   UNL     1       9.307  -0.858   5.166  1.00  0.00     0.031 C 
ATOM     50  C   UNL     1       3.881  -4.129   7.255  1.00  0.00     0.029 A 
ATOM     51  C   UNL     1       4.864  -4.868   6.482  1.00  0.00     0.049 A 
ATOM     52  H   UNL     1       6.237  -4.069   5.117  1.00  0.00     0.167 HD
ATOM     53  C   UNL     1       9.648  -2.212   3.033  1.00  0.00     0.037 A 
ATOM     54  C   UNL     1       5.114  -6.199   6.437  1.00  0.00     0.037 A 
ATOM     55  C   UNL     1       8.809  -2.726   1.985  1.00  0.00     0.049 A 
ATOM     56  C   UNL     1       5.837  -6.467   5.174  1.00  0.00     0.074 A 
ATOM     57  C   UNL     1       8.102  -2.202   0.927  1.00  0.00     0.029 A 
ATOM     58  N   UNL     1       8.336  -3.990   2.204  1.00  0.00    -0.354 N 
ATOM     59  N   UNL     1       5.308  -6.341   3.990  1.00  0.00    -0.248 NA
ATOM     60  C   UNL     1       7.290  -6.579   5.203  1.00  0.00     0.031 C 
ATOM     61  C   UNL     1       7.003  -3.089   0.719  1.00  0.00     0.029 A 
ATOM     62  C   UNL     1       7.102  -4.138   1.633  1.00  0.00     0.049 A 
ATOM     63  H   UNL     1       8.815  -4.693   2.700  1.00  0.00     0.167 HD
ATOM     64  C   UNL     1       6.355  -5.931   3.189  1.00  0.00     0.074 A 
ATOM     65  C   UNL     1       7.561  -6.268   3.933  1.00  0.00     0.031 C 
ATOM     66  C   UNL     1       6.135  -5.084   2.144  1.00  0.00     0.037 A 
BRANCH  53  67
ATOM     67  C   UNL     1      11.038  -2.768   3.260  1.00  0.00     0.064 A 
ATOM     68  C   UNL     1      11.744  -3.337   2.177  1.00  0.00     0.173 A 
ATOM     69  C   UNL     1      11.560  -3.059   4.539  1.00  0.00     0.173 A 
ATOM     70  F   UNL     1      11.320  -3.159   0.917  1.00  0.00    -0.203 F 
ATOM     71  C   UNL     1      12.846  -4.177   2.369  1.00  0.00     0.198 A 
ATOM     72  C   UNL     1      12.689  -3.857   4.724  1.00  0.00     0.198 A 
ATOM     73  F   UNL     1      10.936  -2.685   5.662  1.00  0.00    -0.203 F 
ATOM     74  F   UNL     1      13.411  -4.788   1.318  1.00  0.00    -0.200 F 
ATOM     75  C   UNL     1      13.316  -4.439   3.643  1.00  0.00     0.200 A 
ATOM     76  F   UNL     1      13.111  -4.122   5.969  1.00  0.00    -0.200 F 
ATOM     77  F   UNL     1      14.334  -5.287   3.834  1.00  0.00    -0.200 F 
ENDBRANCH  53  67
BRANCH  54  78
ATOM     78  C   UNL     1       5.077  -7.197   7.537  1.00  0.00     0.064 A 
ATOM     79  C   UNL     1       5.182  -8.572   7.259  1.00  0.00     0.173 A 
ATOM     80  C   UNL     1       5.280  -6.814   8.876  1.00  0.00     0.173 A 
ATOM     81  F   UNL     1       5.028  -9.021   6.004  1.00  0.00    -0.203 F 
ATOM     82  C   UNL     1       5.540  -9.497   8.245  1.00  0.00     0.198 A 
ATOM     83  C   UNL     1       5.630  -7.740   9.861  1.00  0.00     0.198 A 
ATOM     84  F   UNL     1       5.249  -5.523   9.235  1.00  0.00    -0.203 F 
ATOM     85  F   UNL     1       5.720 -10.785   7.921  1.00  0.00    -0.200 F 
ATOM     86  C   UNL     1       5.783  -9.076   9.541  1.00  0.00     0.200 A 
ATOM     87  F   UNL     1       5.894  -7.316  11.105  1.00  0.00    -0.200 F 
ATOM     88  F   UNL     1       6.209  -9.946  10.468  1.00  0.00    -0.200 F 
ENDBRANCH  54  78
BRANCH  66  89
ATOM     89  C   UNL     1       4.735  -4.994   1.616  1.00  0.00     0.064 A 
ATOM     90  C   UNL     1       3.650  -4.451   2.324  1.00  0.00     0.173 A 
ATOM     91  C   UNL     1       4.513  -5.383   0.288  1.00  0.00     0.173 A 
ATOM     92  F   UNL     1       3.802  -3.986   3.571  1.00  0.00    -0.203 F 
ATOM     93  C   UNL     1       2.393  -4.333   1.733  1.00  0.00     0.198 A 
ATOM     94  C   UNL     1       3.268  -5.229  -0.311  1.00  0.00     0.198 A 
ATOM     95  F   UNL     1       5.526  -5.870  -0.447  1.00  0.00    -0.203 F 
ATOM     96  F   UNL     1       1.367  -3.819   2.428  1.00  0.00    -0.200 F 
ATOM     97  C   UNL     1       2.207  -4.712   0.413  1.00  0.00     0.200 A 
ATOM     98  F   UNL     1       3.106  -5.556  -1.601  1.00  0.00    -0.200 F 
ATOM     99  F   UNL     1       1.010  -4.553  -0.170  1.00  0.00    -0.200 F 
ENDBRANCH  66  89
ENDBRANCH  40  41
ENDBRANCH  32  35
ENDBRANCH  30  31
ENDBRANCH   1  30
TORSDOF 12
