REMARK SMILES CC[C@H]1CO[C@H](C)C[N@H+]1[C@@H]1CC[C@]([NH2+]C(C)C)(C(=O)NCCCNC(=O)c2ccc(-c3c4nc(c(-c5c(F)c(F)c(F)c(F)c5F)c5ccc([nH]5)c(-c5c(F)c(F)c(F)c(F)c5F)c5nc(c(-c6c(F)c(F)c(F)c(F)c6F)c6ccc3[nH]6)C=C5)C=C4)cc2)C1
REMARK SMILES IDX 22 1 21 2 20 3 18 4 19 5 13 7 10 8 11 9 90 10 12 11 9 12
REMARK SMILES IDX 3 13 4 14 5 15 8 16 6 18 7 19 2 20 1 21 14 22 15 25 16 26
REMARK SMILES IDX 17 27 23 28 24 29 25 30 26 32 27 33 28 34 89 35 29 36 88 37
REMARK SMILES IDX 30 38 31 39 32 40 82 41 33 42 87 43 81 44 83 45 34 46 86 47
REMARK SMILES IDX 80 48 79 49 35 51 67 52 47 53 66 54 48 55 51 56 65 57 84 58
REMARK SMILES IDX 49 59 50 60 64 62 85 63 52 64 36 65 37 66 45 67 38 68 39 69
REMARK SMILES IDX 43 70 46 71 40 72 41 73 44 74 42 75 68 76 69 77 77 78 70 79
REMARK SMILES IDX 71 80 75 81 78 82 72 83 73 84 76 85 74 86 53 87 54 88 62 89
REMARK SMILES IDX 55 90 56 91 60 92 63 93 57 94 58 95 61 96 59 97
REMARK H PARENT 20 6 9 17 14 23 14 24 24 31 83 50 51 61
REMARK Flexibility Score: inf
ROOT
ATOM      1  C   UNL     1       8.857   3.002   2.038  1.00  0.00     0.042 C 
ENDROOT
BRANCH   1   2
ATOM      2  C   UNL     1       7.885   3.340   0.926  1.00  0.00     0.118 C 
BRANCH   2   3
ATOM      3  N   UNL     1       7.989   2.420  -0.190  1.00  0.00    -0.351 N 
ATOM      4  C   UNL     1       7.044   1.628  -0.783  1.00  0.00     0.281 C 
ATOM      5  O   UNL     1       7.425   0.938  -1.732  1.00  0.00    -0.268 OA
ATOM      6  H   UNL     1       8.888   2.353  -0.585  1.00  0.00     0.163 HD
BRANCH   4   7
ATOM      7  C   UNL     1       5.579   1.600  -0.225  1.00  0.00     0.181 C 
ATOM      8  C   UNL     1       3.307   1.568  -1.139  1.00  0.00     0.191 C 
ATOM      9  C   UNL     1       3.601   3.011  -0.748  1.00  0.00     0.072 C 
ATOM     10  C   UNL     1       4.681   0.906  -1.279  1.00  0.00     0.144 C 
ATOM     11  C   UNL     1       5.020   3.037  -0.207  1.00  0.00     0.085 C 
BRANCH   8  12
ATOM     12  N   UNL     1       2.341   1.294  -2.209  1.00  0.00    -0.326 N 
ATOM     13  C   UNL     1       0.945   1.743  -1.968  1.00  0.00     0.210 C 
ATOM     14  C   UNL     1       0.729   3.235  -2.329  1.00  0.00     0.225 C 
ATOM     15  O   UNL     1       1.103   3.521  -3.685  1.00  0.00    -0.366 OA
ATOM     16  C   UNL     1       2.727   1.678  -3.585  1.00  0.00     0.294 C 
ATOM     17  H   UNL     1       2.370   0.276  -2.157  1.00  0.00     0.348 HD
ATOM     18  C   UNL     1       2.464   3.155  -3.953  1.00  0.00     0.170 C 
ATOM     19  C   UNL     1       2.748   3.421  -5.426  1.00  0.00     0.045 C 
BRANCH  13  20
ATOM     20  C   UNL     1       0.373   1.424  -0.568  1.00  0.00     0.064 C 
ATOM     21  C   UNL     1       0.386  -0.065  -0.228  1.00  0.00     0.010 C 
ENDBRANCH  13  20
ENDBRANCH   8  12
BRANCH   7  22
ATOM     22  N   UNL     1       5.661   0.893   1.071  1.00  0.00    -0.331 N 
ATOM     23  H   UNL     1       6.314   1.431   1.641  1.00  0.00     0.347 HD
ATOM     24  H   UNL     1       5.899  -0.051   0.770  1.00  0.00     0.347 HD
BRANCH  22  25
ATOM     25  C   UNL     1       4.505   0.640   1.921  1.00  0.00     0.176 C 
ATOM     26  C   UNL     1       4.945  -0.394   2.968  1.00  0.00     0.075 C 
ATOM     27  C   UNL     1       3.994   1.875   2.664  1.00  0.00     0.075 C 
ENDBRANCH  22  25
ENDBRANCH   7  22
ENDBRANCH   4   7
ENDBRANCH   2   3
ENDBRANCH   1   2
BRANCH   1  28
ATOM     28  C   UNL     1      10.310   3.124   1.619  1.00  0.00     0.118 C 
BRANCH  28  29
ATOM     29  N   UNL     1      10.658   4.477   1.207  1.00  0.00    -0.352 N 
ATOM     30  C   UNL     1      11.505   5.391   1.781  1.00  0.00     0.251 C 
ATOM     31  H   UNL     1      10.213   4.785   0.385  1.00  0.00     0.163 HD
ATOM     32  O   UNL     1      11.489   6.557   1.400  1.00  0.00    -0.269 OA
BRANCH  30  33
ATOM     33  C   UNL     1      12.417   4.981   2.868  1.00  0.00     0.039 A 
ATOM     34  C   UNL     1      12.659   5.870   3.917  1.00  0.00     0.014 A 
ATOM     35  C   UNL     1      13.045   3.733   2.852  1.00  0.00     0.014 A 
ATOM     36  C   UNL     1      13.482   5.481   4.974  1.00  0.00     0.010 A 
ATOM     37  C   UNL     1      13.761   3.301   3.960  1.00  0.00     0.010 A 
ATOM     38  C   UNL     1      14.009   4.179   5.022  1.00  0.00    -0.014 A 
BRANCH  38  39
ATOM     39  C   UNL     1      14.837   3.738   6.170  1.00  0.00     0.031 A 
ATOM     40  C   UNL     1      16.268   3.327   5.964  1.00  0.00     0.074 A 
ATOM     41  C   UNL     1      14.281   3.670   7.394  1.00  0.00     0.049 A 
ATOM     42  N   UNL     1      17.154   2.946   6.850  1.00  0.00    -0.248 NA
ATOM     43  C   UNL     1      16.762   3.305   4.578  1.00  0.00     0.031 C 
ATOM     44  C   UNL     1      12.877   3.950   7.701  1.00  0.00     0.029 A 
ATOM     45  N   UNL     1      14.830   3.348   8.608  1.00  0.00    -0.354 N 
ATOM     46  C   UNL     1      18.300   2.638   6.128  1.00  0.00     0.074 A 
ATOM     47  C   UNL     1      17.974   2.795   4.729  1.00  0.00     0.031 C 
ATOM     48  C   UNL     1      12.685   3.829   9.024  1.00  0.00     0.029 A 
ATOM     49  C   UNL     1      13.943   3.441   9.652  1.00  0.00     0.049 A 
ATOM     50  H   UNL     1      15.769   3.076   8.721  1.00  0.00     0.167 HD
ATOM     51  C   UNL     1      19.525   2.291   6.591  1.00  0.00     0.037 A 
ATOM     52  C   UNL     1      14.131   3.252  10.971  1.00  0.00     0.037 A 
ATOM     53  C   UNL     1      19.846   2.151   7.986  1.00  0.00     0.049 A 
ATOM     54  C   UNL     1      15.509   2.919  11.469  1.00  0.00     0.074 A 
ATOM     55  C   UNL     1      21.064   1.852   8.569  1.00  0.00     0.029 A 
ATOM     56  N   UNL     1      18.933   2.300   9.021  1.00  0.00    -0.354 N 
ATOM     57  N   UNL     1      16.609   2.717  10.785  1.00  0.00    -0.248 NA
ATOM     58  C   UNL     1      15.677   2.813  12.924  1.00  0.00     0.031 C 
ATOM     59  C   UNL     1      20.879   1.782   9.956  1.00  0.00     0.029 A 
ATOM     60  C   UNL     1      19.558   2.088  10.240  1.00  0.00     0.049 A 
ATOM     61  H   UNL     1      17.981   2.524   8.906  1.00  0.00     0.167 HD
ATOM     62  C   UNL     1      17.604   2.478  11.723  1.00  0.00     0.074 A 
ATOM     63  C   UNL     1      16.979   2.587  13.026  1.00  0.00     0.031 C 
ATOM     64  C   UNL     1      18.915   2.192  11.525  1.00  0.00     0.037 A 
BRANCH  51  65
ATOM     65  C   UNL     1      20.602   2.053   5.570  1.00  0.00     0.064 A 
ATOM     66  C   UNL     1      21.114   3.100   4.785  1.00  0.00     0.173 A 
ATOM     67  C   UNL     1      21.127   0.769   5.368  1.00  0.00     0.173 A 
ATOM     68  F   UNL     1      20.636   4.346   4.926  1.00  0.00    -0.203 F 
ATOM     69  C   UNL     1      22.079   2.862   3.811  1.00  0.00     0.198 A 
ATOM     70  C   UNL     1      22.118   0.540   4.416  1.00  0.00     0.198 A 
ATOM     71  F   UNL     1      20.678  -0.268   6.091  1.00  0.00    -0.203 F 
ATOM     72  F   UNL     1      22.503   3.865   3.030  1.00  0.00    -0.200 F 
ATOM     73  C   UNL     1      22.584   1.584   3.630  1.00  0.00     0.200 A 
ATOM     74  F   UNL     1      22.614  -0.694   4.250  1.00  0.00    -0.200 F 
ATOM     75  F   UNL     1      23.513   1.355   2.691  1.00  0.00    -0.200 F 
ENDBRANCH  51  65
BRANCH  52  76
ATOM     76  C   UNL     1      12.992   3.436  11.906  1.00  0.00     0.064 A 
ATOM     77  C   UNL     1      12.929   4.547  12.758  1.00  0.00     0.173 A 
ATOM     78  C   UNL     1      11.926   2.525  11.941  1.00  0.00     0.173 A 
ATOM     79  F   UNL     1      13.931   5.439  12.769  1.00  0.00    -0.203 F 
ATOM     80  C   UNL     1      11.851   4.733  13.620  1.00  0.00     0.198 A 
ATOM     81  C   UNL     1      10.835   2.726  12.783  1.00  0.00     0.198 A 
ATOM     82  F   UNL     1      11.933   1.453  11.135  1.00  0.00    -0.203 F 
ATOM     83  F   UNL     1      11.832   5.787  14.447  1.00  0.00    -0.200 F 
ATOM     84  C   UNL     1      10.801   3.826  13.627  1.00  0.00     0.200 A 
ATOM     85  F   UNL     1       9.815   1.858  12.773  1.00  0.00    -0.200 F 
ATOM     86  F   UNL     1       9.758   4.013  14.446  1.00  0.00    -0.200 F 
ENDBRANCH  52  76
BRANCH  64  87
ATOM     87  C   UNL     1      19.760   1.998  12.751  1.00  0.00     0.064 A 
ATOM     88  C   UNL     1      19.616   0.871  13.574  1.00  0.00     0.173 A 
ATOM     89  C   UNL     1      20.733   2.948  13.100  1.00  0.00     0.173 A 
ATOM     90  F   UNL     1      18.691  -0.058  13.290  1.00  0.00    -0.203 F 
ATOM     91  C   UNL     1      20.388   0.721  14.722  1.00  0.00     0.198 A 
ATOM     92  C   UNL     1      21.525   2.778  14.232  1.00  0.00     0.198 A 
ATOM     93  F   UNL     1      20.916   4.039  12.342  1.00  0.00    -0.203 F 
ATOM     94  F   UNL     1      20.191  -0.332  15.527  1.00  0.00    -0.200 F 
ATOM     95  C   UNL     1      21.344   1.672  15.048  1.00  0.00     0.200 A 
ATOM     96  F   UNL     1      22.457   3.691  14.538  1.00  0.00    -0.200 F 
ATOM     97  F   UNL     1      22.084   1.527  16.156  1.00  0.00    -0.200 F 
ENDBRANCH  64  87
ENDBRANCH  38  39
ENDBRANCH  30  33
ENDBRANCH  28  29
ENDBRANCH   1  28
TORSDOF 14
