REMARK SMILES CC(C)COc1ccc(CC(=O)NCCCNC(=O)c2ccc(-c3c4nc(c(-c5c(F)c(F)c(F)c(F)c5F)c5ccc([nH]5)c(-c5c(F)c(F)c(F)c(F)c5F)c5nc(c(-c6c(F)c(F)c(F)c(F)c6F)c6ccc3[nH]6)C=C5)C=C4)cc2)cc1
REMARK SMILES IDX 14 1 13 2 11 3 12 4 10 6 9 7 6 8 7 9 84 10 8 11 83 12 5 13
REMARK SMILES IDX 4 14 2 15 1 16 3 17 15 18 16 19 17 20 18 21 19 23 20 24
REMARK SMILES IDX 21 25 82 26 22 27 81 28 23 29 24 30 25 31 75 32 26 33 80 34
REMARK SMILES IDX 74 35 76 36 27 37 79 38 73 39 72 40 28 42 60 43 40 44 59 45
REMARK SMILES IDX 41 46 44 47 58 48 77 49 42 50 43 51 57 53 78 54 45 55 29 56
REMARK SMILES IDX 30 57 38 58 31 59 32 60 36 61 39 62 33 63 34 64 37 65 35 66
REMARK SMILES IDX 61 67 62 68 70 69 63 70 64 71 68 72 71 73 65 74 66 75 69 76
REMARK SMILES IDX 67 77 46 78 47 79 55 80 48 81 49 82 53 83 56 84 50 85 51 86
REMARK SMILES IDX 54 87 52 88
REMARK H PARENT 13 5 17 22 76 41 44 52
REMARK Flexibility Score: inf
ROOT
ATOM      1  C   UNL     1       1.672   3.320   4.854  1.00  0.00     0.117 C 
ENDROOT
BRANCH   1   2
ATOM      2  N   UNL     1       0.564   3.157   5.775  1.00  0.00    -0.356 N 
ATOM      3  C   UNL     1      -0.332   2.134   5.904  1.00  0.00     0.224 C 
ATOM      4  O   UNL     1      -1.227   2.259   6.744  1.00  0.00    -0.275 OA
ATOM      5  H   UNL     1       0.437   3.901   6.407  1.00  0.00     0.163 HD
BRANCH   3   6
ATOM      6  C   UNL     1      -0.198   0.858   5.088  1.00  0.00     0.135 C 
BRANCH   6   7
ATOM      7  C   UNL     1      -0.521   1.019   3.624  1.00  0.00    -0.038 A 
ATOM      8  C   UNL     1      -1.028   1.414   0.901  1.00  0.00     0.119 A 
ATOM      9  C   UNL     1      -2.095   1.284   1.786  1.00  0.00     0.047 A 
ATOM     10  C   UNL     1       0.269   1.441   1.381  1.00  0.00     0.047 A 
ATOM     11  C   UNL     1      -1.841   1.113   3.155  1.00  0.00     0.008 A 
ATOM     12  C   UNL     1       0.525   1.131   2.706  1.00  0.00     0.008 A 
BRANCH   8  13
ATOM     13  O   UNL     1      -1.236   1.562  -0.440  1.00  0.00    -0.493 OA
BRANCH  13  14
ATOM     14  C   UNL     1      -0.941   0.350  -1.171  1.00  0.00     0.232 C 
BRANCH  14  15
ATOM     15  C   UNL     1       0.556   0.184  -1.546  1.00  0.00     0.020 C 
ATOM     16  C   UNL     1       1.283  -0.834  -0.649  1.00  0.00     0.011 C 
ATOM     17  C   UNL     1       0.704  -0.307  -2.988  1.00  0.00     0.011 C 
ENDBRANCH  14  15
ENDBRANCH  13  14
ENDBRANCH   8  13
ENDBRANCH   6   7
ENDBRANCH   3   6
ENDBRANCH   1   2
BRANCH   1  18
ATOM     18  C   UNL     1       1.290   4.163   3.636  1.00  0.00     0.042 C 
BRANCH  18  19
ATOM     19  C   UNL     1       1.120   5.646   3.943  1.00  0.00     0.118 C 
BRANCH  19  20
ATOM     20  N   UNL     1       2.368   6.273   4.354  1.00  0.00    -0.352 N 
ATOM     21  C   UNL     1       3.066   7.316   3.798  1.00  0.00     0.251 C 
ATOM     22  H   UNL     1       2.777   5.887   5.162  1.00  0.00     0.163 HD
ATOM     23  O   UNL     1       4.204   7.558   4.184  1.00  0.00    -0.269 OA
BRANCH  21  24
ATOM     24  C   UNL     1       2.466   8.136   2.724  1.00  0.00     0.039 A 
ATOM     25  C   UNL     1       3.265   8.510   1.640  1.00  0.00     0.014 A 
ATOM     26  C   UNL     1       1.134   8.551   2.788  1.00  0.00     0.014 A 
ATOM     27  C   UNL     1       2.706   9.227   0.580  1.00  0.00     0.010 A 
ATOM     28  C   UNL     1       0.559   9.202   1.700  1.00  0.00     0.010 A 
ATOM     29  C   UNL     1       1.336   9.534   0.580  1.00  0.00    -0.014 A 
BRANCH  29  30
ATOM     30  C   UNL     1       0.682  10.148  -0.603  1.00  0.00     0.031 A 
ATOM     31  C   UNL     1       0.060  11.511  -0.512  1.00  0.00     0.074 A 
ATOM     32  C   UNL     1       0.575   9.430  -1.737  1.00  0.00     0.049 A 
ATOM     33  N   UNL     1      -0.629  12.168  -1.411  1.00  0.00    -0.248 NA
ATOM     34  C   UNL     1       0.212  12.219   0.767  1.00  0.00     0.031 C 
ATOM     35  C   UNL     1       1.111   8.083  -1.937  1.00  0.00     0.029 A 
ATOM     36  N   UNL     1      -0.034   9.726  -2.932  1.00  0.00    -0.354 N 
ATOM     37  C   UNL     1      -1.006  13.358  -0.802  1.00  0.00     0.074 A 
ATOM     38  C   UNL     1      -0.508  13.311   0.557  1.00  0.00     0.031 C 
ATOM     39  C   UNL     1       0.833   7.680  -3.186  1.00  0.00     0.029 A 
ATOM     40  C   UNL     1       0.054   8.715  -3.857  1.00  0.00     0.049 A 
ATOM     41  H   UNL     1      -0.489  10.581  -3.108  1.00  0.00     0.167 HD
ATOM     42  C   UNL     1      -1.693  14.397  -1.335  1.00  0.00     0.037 A 
ATOM     43  C   UNL     1      -0.452   8.626  -5.102  1.00  0.00     0.037 A 
ATOM     44  C   UNL     1      -2.179  14.435  -2.691  1.00  0.00     0.049 A 
ATOM     45  C   UNL     1      -1.260   9.770  -5.649  1.00  0.00     0.074 A 
ATOM     46  C   UNL     1      -2.820  15.470  -3.349  1.00  0.00     0.029 A 
ATOM     47  N   UNL     1      -2.095  13.382  -3.591  1.00  0.00    -0.354 N 
ATOM     48  N   UNL     1      -1.541  10.925  -5.096  1.00  0.00    -0.248 NA
ATOM     49  C   UNL     1      -1.829   9.593  -6.992  1.00  0.00     0.031 C 
ATOM     50  C   UNL     1      -3.187  15.019  -4.622  1.00  0.00     0.029 A 
ATOM     51  C   UNL     1      -2.716  13.725  -4.783  1.00  0.00     0.049 A 
ATOM     52  H   UNL     1      -1.659  12.518  -3.411  1.00  0.00     0.167 HD
ATOM     53  C   UNL     1      -2.293  11.623  -6.030  1.00  0.00     0.074 A 
ATOM     54  C   UNL     1      -2.413  10.766  -7.192  1.00  0.00     0.031 C 
ATOM     55  C   UNL     1      -2.833  12.863  -5.933  1.00  0.00     0.037 A 
BRANCH  42  56
ATOM     56  C   UNL     1      -1.982  15.569  -0.439  1.00  0.00     0.064 A 
ATOM     57  C   UNL     1      -0.963  16.409   0.039  1.00  0.00     0.173 A 
ATOM     58  C   UNL     1      -3.301  15.867  -0.064  1.00  0.00     0.173 A 
ATOM     59  F   UNL     1       0.317  16.168  -0.283  1.00  0.00    -0.203 F 
ATOM     60  C   UNL     1      -1.249  17.471   0.893  1.00  0.00     0.198 A 
ATOM     61  C   UNL     1      -3.588  16.952   0.760  1.00  0.00     0.198 A 
ATOM     62  F   UNL     1      -4.317  15.106  -0.499  1.00  0.00    -0.203 F 
ATOM     63  F   UNL     1      -0.252  18.217   1.388  1.00  0.00    -0.200 F 
ATOM     64  C   UNL     1      -2.561  17.745   1.249  1.00  0.00     0.200 A 
ATOM     65  F   UNL     1      -4.858  17.225   1.089  1.00  0.00    -0.200 F 
ATOM     66  F   UNL     1      -2.834  18.768   2.070  1.00  0.00    -0.200 F 
ENDBRANCH  42  56
BRANCH  43  67
ATOM     67  C   UNL     1      -0.183   7.418  -5.924  1.00  0.00     0.064 A 
ATOM     68  C   UNL     1       0.647   7.494  -7.051  1.00  0.00     0.173 A 
ATOM     69  C   UNL     1      -0.731   6.168  -5.601  1.00  0.00     0.173 A 
ATOM     70  F   UNL     1       1.178   8.672  -7.412  1.00  0.00    -0.203 F 
ATOM     71  C   UNL     1       0.910   6.369  -7.830  1.00  0.00     0.198 A 
ATOM     72  C   UNL     1      -0.443   5.037  -6.363  1.00  0.00     0.198 A 
ATOM     73  F   UNL     1      -1.530   6.040  -4.531  1.00  0.00    -0.203 F 
ATOM     74  F   UNL     1       1.676   6.479  -8.923  1.00  0.00    -0.200 F 
ATOM     75  C   UNL     1       0.371   5.140  -7.481  1.00  0.00     0.200 A 
ATOM     76  F   UNL     1      -0.952   3.848  -6.013  1.00  0.00    -0.200 F 
ATOM     77  F   UNL     1       0.633   4.056  -8.224  1.00  0.00    -0.200 F 
ENDBRANCH  43  67
BRANCH  55  78
ATOM     78  C   UNL     1      -3.585  13.384  -7.125  1.00  0.00     0.064 A 
ATOM     79  C   UNL     1      -4.835  12.866  -7.492  1.00  0.00     0.173 A 
ATOM     80  C   UNL     1      -3.069  14.449  -7.880  1.00  0.00     0.173 A 
ATOM     81  F   UNL     1      -5.365  11.835  -6.815  1.00  0.00    -0.203 F 
ATOM     82  C   UNL     1      -5.533  13.381  -8.582  1.00  0.00     0.198 A 
ATOM     83  C   UNL     1      -3.784  14.984  -8.948  1.00  0.00     0.198 A 
ATOM     84  F   UNL     1      -1.879  14.984  -7.571  1.00  0.00    -0.203 F 
ATOM     85  F   UNL     1      -6.705  12.840  -8.942  1.00  0.00    -0.200 F 
ATOM     86  C   UNL     1      -5.012  14.446  -9.302  1.00  0.00     0.200 A 
ATOM     87  F   UNL     1      -3.286  16.023  -9.633  1.00  0.00    -0.200 F 
ATOM     88  F   UNL     1      -5.691  14.950 -10.342  1.00  0.00    -0.200 F 
ENDBRANCH  55  78
ENDBRANCH  29  30
ENDBRANCH  21  24
ENDBRANCH  19  20
ENDBRANCH  18  19
ENDBRANCH   1  18
TORSDOF 14
