REMARK SMILES COCC[C@@]1(C(=O)NCCCNC(=O)c2ccc(-c3c4nc(c(-c5c(F)c(F)c(F)c(F)c5F)c5ccc([nH]5)c(-c5c(F)c(F)c(F)c(F)c5F)c5nc(c(-c6c(F)c(F)c(F)c(F)c6F)c6ccc3[nH]6)C=C5)C=C4)cc2)CCC[N@@H+](Cc2cccc3c2OC(C)(C)C3)C1
REMARK SMILES IDX 9 1 8 2 6 3 7 4 5 6 78 7 94 8 79 9 81 10 80 11 4 13 3 14
REMARK SMILES IDX 2 15 1 16 82 17 83 18 84 19 88 20 85 21 87 22 89 23 86 24
REMARK SMILES IDX 93 25 90 26 91 27 92 28 10 29 11 30 12 31 13 32 14 34 15 35
REMARK SMILES IDX 16 36 77 37 17 38 76 39 18 40 19 41 20 42 70 43 21 44 75 45
REMARK SMILES IDX 69 46 71 47 22 48 74 49 68 50 67 51 23 53 55 54 35 55 54 56
REMARK SMILES IDX 36 57 39 58 53 59 72 60 37 61 38 62 52 64 73 65 40 66 24 67
REMARK SMILES IDX 25 68 33 69 26 70 27 71 31 72 34 73 28 74 29 75 32 76 30 77
REMARK SMILES IDX 56 78 57 79 65 80 58 81 59 82 63 83 66 84 60 85 61 86 64 87
REMARK SMILES IDX 62 88 41 89 42 90 50 91 43 92 44 93 48 94 51 95 45 96 46 97
REMARK SMILES IDX 49 98 47 99
REMARK H PARENT 8 5 81 12 12 33 71 52 39 63
REMARK Flexibility Score: inf
ROOT
ATOM      1  C   UNL     1      -2.024   3.705   0.180  1.00  0.00     0.117 C 
ENDROOT
BRANCH   1   2
ATOM      2  N   UNL     1      -0.956   3.112  -0.582  1.00  0.00    -0.355 N 
ATOM      3  C   UNL     1      -0.020   2.217  -0.204  1.00  0.00     0.232 C 
ATOM      4  O   UNL     1       0.275   1.419  -1.107  1.00  0.00    -0.274 OA
ATOM      5  H   UNL     1      -0.901   3.403  -1.521  1.00  0.00     0.163 HD
BRANCH   3   6
ATOM      6  C   UNL     1       0.731   2.173   1.153  1.00  0.00     0.100 C 
ATOM      7  C   UNL     1       0.715   0.683   1.586  1.00  0.00     0.029 C 
ATOM      8  C   UNL     1       0.196   3.002   2.371  1.00  0.00     0.279 C 
ATOM      9  C   UNL     1      -0.701   0.286   2.018  1.00  0.00     0.063 C 
ATOM     10  N   UNL     1      -1.098   2.584   2.916  1.00  0.00    -0.330 N 
ATOM     11  C   UNL     1      -1.201   1.151   3.183  1.00  0.00     0.262 C 
ATOM     12  H   UNL     1      -1.748   2.712   2.140  1.00  0.00     0.348 HD
BRANCH   6  13
ATOM     13  C   UNL     1       2.213   2.664   0.931  1.00  0.00     0.051 C 
BRANCH  13  14
ATOM     14  C   UNL     1       2.966   2.320  -0.367  1.00  0.00     0.161 C 
BRANCH  14  15
ATOM     15  O   UNL     1       3.258   3.494  -1.137  1.00  0.00    -0.385 OA
ATOM     16  C   UNL     1       2.147   4.005  -1.859  1.00  0.00     0.194 C 
ENDBRANCH  14  15
ENDBRANCH  13  14
ENDBRANCH   6  13
BRANCH  10  17
ATOM     17  C   UNL     1      -1.702   3.503   3.929  1.00  0.00     0.303 C 
BRANCH  17  18
ATOM     18  C   UNL     1      -1.255   3.276   5.358  1.00  0.00     0.049 A 
ATOM     19  C   UNL     1      -1.803   2.231   6.103  1.00  0.00     0.013 A 
ATOM     20  C   UNL     1      -0.045   3.757   5.798  1.00  0.00     0.132 A 
ATOM     21  C   UNL     1      -0.990   1.525   7.000  1.00  0.00     0.001 A 
ATOM     22  C   UNL     1       0.849   2.926   6.427  1.00  0.00    -0.001 A 
ATOM     23  O   UNL     1       0.390   5.053   5.751  1.00  0.00    -0.487 OA
ATOM     24  C   UNL     1       0.385   1.797   7.066  1.00  0.00     0.008 A 
ATOM     25  C   UNL     1       2.194   3.534   6.234  1.00  0.00     0.087 C 
ATOM     26  C   UNL     1       1.752   5.010   6.292  1.00  0.00     0.108 C 
ATOM     27  C   UNL     1       1.916   5.461   7.762  1.00  0.00     0.057 C 
ATOM     28  C   UNL     1       2.488   5.992   5.386  1.00  0.00     0.057 C 
ENDBRANCH  17  18
ENDBRANCH  10  17
ENDBRANCH   3   6
ENDBRANCH   1   2
BRANCH   1  29
ATOM     29  C   UNL     1      -1.915   5.212   0.257  1.00  0.00     0.042 C 
BRANCH  29  30
ATOM     30  C   UNL     1      -2.372   5.865  -1.039  1.00  0.00     0.118 C 
BRANCH  30  31
ATOM     31  N   UNL     1      -3.764   5.536  -1.354  1.00  0.00    -0.352 N 
ATOM     32  C   UNL     1      -4.905   6.269  -1.212  1.00  0.00     0.251 C 
ATOM     33  H   UNL     1      -3.898   4.637  -1.732  1.00  0.00     0.163 HD
ATOM     34  O   UNL     1      -6.006   5.694  -1.225  1.00  0.00    -0.269 OA
BRANCH  32  35
ATOM     35  C   UNL     1      -4.848   7.729  -1.056  1.00  0.00     0.039 A 
ATOM     36  C   UNL     1      -5.791   8.377  -0.254  1.00  0.00     0.014 A 
ATOM     37  C   UNL     1      -3.885   8.472  -1.742  1.00  0.00     0.014 A 
ATOM     38  C   UNL     1      -5.727   9.761  -0.095  1.00  0.00     0.010 A 
ATOM     39  C   UNL     1      -3.750   9.829  -1.492  1.00  0.00     0.010 A 
ATOM     40  C   UNL     1      -4.681  10.491  -0.682  1.00  0.00    -0.014 A 
BRANCH  40  41
ATOM     41  C   UNL     1      -4.547  11.954  -0.489  1.00  0.00     0.031 A 
ATOM     42  C   UNL     1      -4.594  12.873  -1.679  1.00  0.00     0.074 A 
ATOM     43  C   UNL     1      -4.298  12.440   0.741  1.00  0.00     0.049 A 
ATOM     44  N   UNL     1      -4.389  14.165  -1.736  1.00  0.00    -0.248 NA
ATOM     45  C   UNL     1      -4.870  12.253  -2.985  1.00  0.00     0.031 C 
ATOM     46  C   UNL     1      -4.175  11.639   1.960  1.00  0.00     0.029 A 
ATOM     47  N   UNL     1      -4.090  13.727   1.168  1.00  0.00    -0.354 N 
ATOM     48  C   UNL     1      -4.489  14.502  -3.080  1.00  0.00     0.074 A 
ATOM     49  C   UNL     1      -4.708  13.274  -3.812  1.00  0.00     0.031 C 
ATOM     50  C   UNL     1      -3.941  12.453   3.000  1.00  0.00     0.029 A 
ATOM     51  C   UNL     1      -3.851  13.826   2.516  1.00  0.00     0.049 A 
ATOM     52  H   UNL     1      -4.110  14.505   0.565  1.00  0.00     0.167 HD
ATOM     53  C   UNL     1      -4.431  15.729  -3.648  1.00  0.00     0.037 A 
ATOM     54  C   UNL     1      -3.580  14.906   3.273  1.00  0.00     0.037 A 
ATOM     55  C   UNL     1      -4.246  16.948  -2.907  1.00  0.00     0.049 A 
ATOM     56  C   UNL     1      -3.524  16.259   2.617  1.00  0.00     0.074 A 
ATOM     57  C   UNL     1      -4.237  18.250  -3.374  1.00  0.00     0.029 A 
ATOM     58  N   UNL     1      -4.037  17.013  -1.536  1.00  0.00    -0.354 N 
ATOM     59  N   UNL     1      -3.689  16.576   1.356  1.00  0.00    -0.248 NA
ATOM     60  C   UNL     1      -3.250  17.406   3.493  1.00  0.00     0.031 C 
ATOM     61  C   UNL     1      -3.973  19.099  -2.295  1.00  0.00     0.029 A 
ATOM     62  C   UNL     1      -3.876  18.332  -1.145  1.00  0.00     0.049 A 
ATOM     63  H   UNL     1      -4.008  16.236  -0.932  1.00  0.00     0.167 HD
ATOM     64  C   UNL     1      -3.572  17.957   1.290  1.00  0.00     0.074 A 
ATOM     65  C   UNL     1      -3.335  18.419   2.643  1.00  0.00     0.031 C 
ATOM     66  C   UNL     1      -3.654  18.771   0.209  1.00  0.00     0.037 A 
BRANCH  53  67
ATOM     67  C   UNL     1      -4.576  15.814  -5.141  1.00  0.00     0.064 A 
ATOM     68  C   UNL     1      -5.789  15.521  -5.782  1.00  0.00     0.173 A 
ATOM     69  C   UNL     1      -3.497  16.223  -5.939  1.00  0.00     0.173 A 
ATOM     70  F   UNL     1      -6.850  15.113  -5.068  1.00  0.00    -0.203 F 
ATOM     71  C   UNL     1      -5.908  15.603  -7.167  1.00  0.00     0.198 A 
ATOM     72  C   UNL     1      -3.628  16.337  -7.320  1.00  0.00     0.198 A 
ATOM     73  F   UNL     1      -2.314  16.520  -5.378  1.00  0.00    -0.203 F 
ATOM     74  F   UNL     1      -7.061  15.265  -7.760  1.00  0.00    -0.200 F 
ATOM     75  C   UNL     1      -4.830  16.019  -7.934  1.00  0.00     0.200 A 
ATOM     76  F   UNL     1      -2.590  16.753  -8.059  1.00  0.00    -0.200 F 
ATOM     77  F   UNL     1      -4.948  16.106  -9.266  1.00  0.00    -0.200 F 
ENDBRANCH  53  67
BRANCH  54  78
ATOM     78  C   UNL     1      -3.370  14.754   4.736  1.00  0.00     0.064 A 
ATOM     79  C   UNL     1      -4.304  15.257   5.652  1.00  0.00     0.173 A 
ATOM     80  C   UNL     1      -2.237  14.106   5.250  1.00  0.00     0.173 A 
ATOM     81  F   UNL     1      -5.395  15.900   5.209  1.00  0.00    -0.203 F 
ATOM     82  C   UNL     1      -4.101  15.141   7.025  1.00  0.00     0.198 A 
ATOM     83  C   UNL     1      -2.051  13.963   6.623  1.00  0.00     0.198 A 
ATOM     84  F   UNL     1      -1.317  13.598   4.416  1.00  0.00    -0.203 F 
ATOM     85  F   UNL     1      -4.986  15.675   7.878  1.00  0.00    -0.200 F 
ATOM     86  C   UNL     1      -2.978  14.489   7.510  1.00  0.00     0.200 A 
ATOM     87  F   UNL     1      -0.972  13.318   7.087  1.00  0.00    -0.200 F 
ATOM     88  F   UNL     1      -2.785  14.375   8.831  1.00  0.00    -0.200 F 
ENDBRANCH  54  78
BRANCH  66  89
ATOM     89  C   UNL     1      -3.532  20.248   0.449  1.00  0.00     0.064 A 
ATOM     90  C   UNL     1      -2.311  20.841   0.798  1.00  0.00     0.173 A 
ATOM     91  C   UNL     1      -4.646  21.085   0.281  1.00  0.00     0.173 A 
ATOM     92  F   UNL     1      -1.220  20.082   0.985  1.00  0.00    -0.203 F 
ATOM     93  C   UNL     1      -2.215  22.216   0.997  1.00  0.00     0.198 A 
ATOM     94  C   UNL     1      -4.539  22.462   0.447  1.00  0.00     0.198 A 
ATOM     95  F   UNL     1      -5.836  20.568  -0.061  1.00  0.00    -0.203 F 
ATOM     96  F   UNL     1      -1.049  22.756   1.379  1.00  0.00    -0.200 F 
ATOM     97  C   UNL     1      -3.326  23.026   0.813  1.00  0.00     0.200 A 
ATOM     98  F   UNL     1      -5.609  23.245   0.253  1.00  0.00    -0.200 F 
ATOM     99  F   UNL     1      -3.229  24.350   0.994  1.00  0.00    -0.200 F 
ENDBRANCH  66  89
ENDBRANCH  40  41
ENDBRANCH  32  35
ENDBRANCH  30  31
ENDBRANCH  29  30
ENDBRANCH   1  29
TORSDOF 15
