REMARK SMILES C[C@@H](C(=O)NCCCNC(=O)c1ccc(-c2c3nc(c(-c4c(F)c(F)c(F)c(F)c4F)c4ccc([nH]4)c(-c4c(F)c(F)c(F)c(F)c4F)c4nc(c(-c5c(F)c(F)c(F)c(F)c5F)c5ccc2[nH]5)C=C4)C=C3)cc1)N1C(=O)/C(=C\c2ccc(OCc3ccccc3Cl)cc2)SC1=S
REMARK SMILES IDX 3 1 4 2 5 3 2 5 1 6 75 7 76 8 96 9 77 10 78 11 95 12 97 13
REMARK SMILES IDX 79 14 80 15 81 16 94 17 82 18 93 19 83 20 84 21 85 22 86 23
REMARK SMILES IDX 87 24 91 25 88 26 90 27 92 28 89 29 6 30 7 31 8 32 9 33
REMARK SMILES IDX 10 34 11 36 12 37 13 38 74 39 14 40 73 41 15 42 16 43 17 44
REMARK SMILES IDX 67 45 18 46 72 47 66 48 68 49 19 50 71 51 65 52 64 53 20 55
REMARK SMILES IDX 52 56 32 57 51 58 33 59 36 60 50 61 69 62 34 63 35 64 49 66
REMARK SMILES IDX 70 67 37 68 21 69 22 70 30 71 23 72 24 73 28 74 31 75 25 76
REMARK SMILES IDX 26 77 29 78 27 79 53 80 54 81 62 82 55 83 56 84 60 85 63 86
REMARK SMILES IDX 57 87 58 88 61 89 59 90 38 91 39 92 47 93 40 94 41 95 45 96
REMARK SMILES IDX 48 97 42 98 43 99 46 100 44 101
REMARK H PARENT 5 4 9 35 68 54 36 65
REMARK Flexibility Score: inf
ROOT
ATOM      1  C   UNL     1       1.000   1.612  -1.668  1.00  0.00     0.242 C 
ATOM      2  O   UNL     1       0.257   1.669  -2.651  1.00  0.00    -0.273 OA
ATOM      3  N   UNL     1       2.320   1.900  -1.867  1.00  0.00    -0.354 N 
ATOM      4  H   UNL     1       2.552   2.162  -2.787  1.00  0.00     0.163 HD
ENDROOT
BRANCH   1   5
ATOM      5  C   UNL     1       0.476   1.279  -0.253  1.00  0.00     0.178 C 
ATOM      6  C   UNL     1       1.072  -0.020   0.291  1.00  0.00     0.042 C 
BRANCH   5   7
ATOM      7  N   UNL     1      -1.006   1.286  -0.298  1.00  0.00    -0.281 N 
ATOM      8  C   UNL     1      -1.712   0.126  -0.585  1.00  0.00     0.266 C 
ATOM      9  C   UNL     1      -1.758   2.445  -0.231  1.00  0.00     0.149 C 
ATOM     10  O   UNL     1      -1.227  -0.954  -0.882  1.00  0.00    -0.268 OA
ATOM     11  C   UNL     1      -3.182   0.377  -0.481  1.00  0.00     0.081 C 
ATOM     12  S   UNL     1      -3.468   2.074  -0.435  1.00  0.00    -0.054 SA
ATOM     13  S   UNL     1      -1.229   4.008   0.033  1.00  0.00    -0.052 S 
ATOM     14  C   UNL     1      -4.158  -0.534  -0.347  1.00  0.00     0.029 C 
BRANCH  14  15
ATOM     15  C   UNL     1      -3.915  -1.970  -0.202  1.00  0.00    -0.024 A 
ATOM     16  C   UNL     1      -4.087  -2.832  -1.285  1.00  0.00     0.012 A 
ATOM     17  C   UNL     1      -3.428  -2.475   1.011  1.00  0.00     0.012 A 
ATOM     18  C   UNL     1      -3.675  -4.162  -1.182  1.00  0.00     0.047 A 
ATOM     19  C   UNL     1      -3.021  -3.809   1.112  1.00  0.00     0.047 A 
ATOM     20  C   UNL     1      -3.081  -4.635  -0.008  1.00  0.00     0.119 A 
BRANCH  20  21
ATOM     21  O   UNL     1      -2.506  -5.868  -0.128  1.00  0.00    -0.489 OA
BRANCH  21  22
ATOM     22  C   UNL     1      -1.523  -6.289   0.828  1.00  0.00     0.267 C 
BRANCH  22  23
ATOM     23  C   UNL     1      -0.118  -5.713   0.683  1.00  0.00     0.008 A 
ATOM     24  C   UNL     1       0.117  -4.449   0.114  1.00  0.00     0.009 A 
ATOM     25  C   UNL     1       1.000  -6.399   1.198  1.00  0.00     0.047 A 
ATOM     26  C   UNL     1       1.395  -3.887   0.079  1.00  0.00     0.001 A 
ATOM     27  C   UNL     1       2.284  -5.837   1.149  1.00  0.00     0.021 A 
ATOM     28  Cl  UNL     1       0.862  -7.961   1.930  1.00  0.00    -0.084 Cl
ATOM     29  C   UNL     1       2.480  -4.574   0.601  1.00  0.00     0.002 A 
ENDBRANCH  22  23
ENDBRANCH  21  22
ENDBRANCH  20  21
ENDBRANCH  14  15
ENDBRANCH   5   7
ENDBRANCH   1   5
BRANCH   3  30
ATOM     30  C   UNL     1       3.436   1.881  -0.939  1.00  0.00     0.117 C 
BRANCH  30  31
ATOM     31  C   UNL     1       4.317   0.650  -1.150  1.00  0.00     0.042 C 
BRANCH  31  32
ATOM     32  C   UNL     1       5.093   0.667  -2.467  1.00  0.00     0.118 C 
BRANCH  32  33
ATOM     33  N   UNL     1       6.067   1.748  -2.522  1.00  0.00    -0.352 N 
ATOM     34  C   UNL     1       7.429   1.715  -2.686  1.00  0.00     0.251 C 
ATOM     35  H   UNL     1       5.686   2.651  -2.426  1.00  0.00     0.163 HD
ATOM     36  O   UNL     1       8.084   2.735  -2.489  1.00  0.00    -0.269 OA
BRANCH  34  37
ATOM     37  C   UNL     1       8.120   0.467  -3.076  1.00  0.00     0.039 A 
ATOM     38  C   UNL     1       9.346   0.166  -2.474  1.00  0.00     0.014 A 
ATOM     39  C   UNL     1       7.598  -0.385  -4.053  1.00  0.00     0.014 A 
ATOM     40  C   UNL     1      10.011  -1.018  -2.800  1.00  0.00     0.010 A 
ATOM     41  C   UNL     1       8.225  -1.600  -4.326  1.00  0.00     0.010 A 
ATOM     42  C   UNL     1       9.434  -1.933  -3.696  1.00  0.00    -0.014 A 
BRANCH  42  43
ATOM     43  C   UNL     1      10.066  -3.255  -3.949  1.00  0.00     0.031 A 
ATOM     44  C   UNL     1      10.572  -3.616  -5.318  1.00  0.00     0.074 A 
ATOM     45  C   UNL     1      10.129  -4.155  -2.948  1.00  0.00     0.049 A 
ATOM     46  N   UNL     1      11.098  -4.741  -5.735  1.00  0.00    -0.248 NA
ATOM     47  C   UNL     1      10.455  -2.587  -6.364  1.00  0.00     0.031 C 
ATOM     48  C   UNL     1       9.634  -3.938  -1.586  1.00  0.00     0.029 A 
ATOM     49  N   UNL     1      10.624  -5.435  -2.919  1.00  0.00    -0.354 N 
ATOM     50  C   UNL     1      11.364  -4.560  -7.085  1.00  0.00     0.074 A 
ATOM     51  C   UNL     1      10.902  -3.233  -7.432  1.00  0.00     0.031 C 
ATOM     52  C   UNL     1       9.870  -5.037  -0.852  1.00  0.00     0.029 A 
ATOM     53  C   UNL     1      10.486  -6.052  -1.699  1.00  0.00     0.049 A 
ATOM     54  H   UNL     1      11.038  -5.870  -3.699  1.00  0.00     0.167 HD
ATOM     55  C   UNL     1      11.958  -5.416  -7.951  1.00  0.00     0.037 A 
ATOM     56  C   UNL     1      10.805  -7.302  -1.310  1.00  0.00     0.037 A 
ATOM     57  C   UNL     1      12.434  -6.729  -7.597  1.00  0.00     0.049 A 
ATOM     58  C   UNL     1      11.438  -8.239  -2.304  1.00  0.00     0.074 A 
ATOM     59  C   UNL     1      13.105  -7.645  -8.389  1.00  0.00     0.029 A 
ATOM     60  N   UNL     1      12.279  -7.318  -6.350  1.00  0.00    -0.354 N 
ATOM     61  N   UNL     1      11.758  -8.025  -3.556  1.00  0.00    -0.248 NA
ATOM     62  C   UNL     1      11.760  -9.591  -1.826  1.00  0.00     0.031 C 
ATOM     63  C   UNL     1      13.302  -8.810  -7.642  1.00  0.00     0.029 A 
ATOM     64  C   UNL     1      12.813  -8.598  -6.363  1.00  0.00     0.049 A 
ATOM     65  H   UNL     1      11.854  -6.891  -5.572  1.00  0.00     0.167 HD
ATOM     66  C   UNL     1      12.346  -9.200  -4.006  1.00  0.00     0.074 A 
ATOM     67  C   UNL     1      12.358 -10.116  -2.885  1.00  0.00     0.031 C 
ATOM     68  C   UNL     1      12.828  -9.496  -5.237  1.00  0.00     0.037 A 
BRANCH  55  69
ATOM     69  C   UNL     1      12.135  -4.970  -9.374  1.00  0.00     0.064 A 
ATOM     70  C   UNL     1      13.056  -3.971  -9.725  1.00  0.00     0.173 A 
ATOM     71  C   UNL     1      11.433  -5.606 -10.410  1.00  0.00     0.173 A 
ATOM     72  F   UNL     1      13.747  -3.326  -8.773  1.00  0.00    -0.203 F 
ATOM     73  C   UNL     1      13.254  -3.613 -11.056  1.00  0.00     0.198 A 
ATOM     74  C   UNL     1      11.656  -5.267 -11.742  1.00  0.00     0.198 A 
ATOM     75  F   UNL     1      10.546  -6.573 -10.132  1.00  0.00    -0.203 F 
ATOM     76  F   UNL     1      14.113  -2.631 -11.364  1.00  0.00    -0.200 F 
ATOM     77  C   UNL     1      12.563  -4.269 -12.064  1.00  0.00     0.200 A 
ATOM     78  F   UNL     1      11.000  -5.914 -12.716  1.00  0.00    -0.200 F 
ATOM     79  F   UNL     1      12.769  -3.937 -13.346  1.00  0.00    -0.200 F 
ENDBRANCH  55  69
BRANCH  56  80
ATOM     80  C   UNL     1      10.532  -7.748   0.084  1.00  0.00     0.064 A 
ATOM     81  C   UNL     1      11.581  -8.064   0.959  1.00  0.00     0.173 A 
ATOM     82  C   UNL     1       9.221  -7.901   0.558  1.00  0.00     0.173 A 
ATOM     83  F   UNL     1      12.852  -7.952   0.549  1.00  0.00    -0.203 F 
ATOM     84  C   UNL     1      11.328  -8.551   2.240  1.00  0.00     0.198 A 
ATOM     85  C   UNL     1       8.970  -8.353   1.852  1.00  0.00     0.198 A 
ATOM     86  F   UNL     1       8.180  -7.604  -0.234  1.00  0.00    -0.203 F 
ATOM     87  F   UNL     1      12.349  -8.908   3.032  1.00  0.00    -0.200 F 
ATOM     88  C   UNL     1      10.023  -8.691   2.687  1.00  0.00     0.200 A 
ATOM     89  F   UNL     1       7.707  -8.467   2.286  1.00  0.00    -0.200 F 
ATOM     90  F   UNL     1       9.781  -9.162   3.918  1.00  0.00    -0.200 F 
ENDBRANCH  56  80
BRANCH  68  91
ATOM     91  C   UNL     1      13.448 -10.852  -5.428  1.00  0.00     0.064 A 
ATOM     92  C   UNL     1      12.677 -12.024  -5.424  1.00  0.00     0.173 A 
ATOM     93  C   UNL     1      14.828 -10.976  -5.650  1.00  0.00     0.173 A 
ATOM     94  F   UNL     1      11.356 -11.963  -5.200  1.00  0.00    -0.203 F 
ATOM     95  C   UNL     1      13.270 -13.272  -5.602  1.00  0.00     0.198 A 
ATOM     96  C   UNL     1      15.412 -12.221  -5.864  1.00  0.00     0.198 A 
ATOM     97  F   UNL     1      15.611  -9.886  -5.672  1.00  0.00    -0.203 F 
ATOM     98  F   UNL     1      12.522 -14.382  -5.535  1.00  0.00    -0.200 F 
ATOM     99  C   UNL     1      14.634 -13.368  -5.830  1.00  0.00     0.200 A 
ATOM    100  F   UNL     1      16.728 -12.311  -6.102  1.00  0.00    -0.200 F 
ATOM    101  F   UNL     1      15.202 -14.569  -6.009  1.00  0.00    -0.200 F 
ENDBRANCH  68  91
ENDBRANCH  42  43
ENDBRANCH  34  37
ENDBRANCH  32  33
ENDBRANCH  31  32
ENDBRANCH  30  31
ENDBRANCH   3  30
TORSDOF 15
