REMARK SMILES Cc1ccc(C)c(-c2cc(C(=O)NCCCNC(=O)c3ccc(-c4c5nc(c(-c6c(F)c(F)c(F)c(F)c6F)c6ccc([nH]6)c(-c6c(F)c(F)c(F)c(F)c6F)c6nc(c(-c7c(F)c(F)c(F)c(F)c7F)c7ccc4[nH]7)C=C6)C=C5)cc3)c3cc(C)ccc3n2)c1
REMARK SMILES IDX 15 1 14 2 13 3 11 4 12 5 10 7 8 8 9 9 90 10 89 11 83 12
REMARK SMILES IDX 88 13 84 14 87 15 85 16 86 17 7 18 1 19 2 20 3 21 91 22 4 23
REMARK SMILES IDX 5 24 6 25 16 26 17 27 18 28 19 30 20 31 21 32 82 33 22 34
REMARK SMILES IDX 81 35 23 36 24 37 25 38 75 39 26 40 80 41 74 42 76 43 27 44
REMARK SMILES IDX 79 45 73 46 72 47 28 49 60 50 40 51 59 52 41 53 44 54 58 55
REMARK SMILES IDX 77 56 42 57 43 58 57 60 78 61 45 62 29 63 30 64 38 65 31 66
REMARK SMILES IDX 32 67 36 68 39 69 33 70 34 71 37 72 35 73 61 74 62 75 70 76
REMARK SMILES IDX 63 77 64 78 68 79 71 80 65 81 66 82 69 83 67 84 46 85 47 86
REMARK SMILES IDX 55 87 48 88 49 89 53 90 56 91 50 92 51 93 54 94 52 95
REMARK H PARENT 13 6 17 29 76 48 44 59
REMARK Flexibility Score: inf
ROOT
ATOM      1  C   UNL     1      -2.579   8.425   0.462  1.00  0.00     0.042 C 
ENDROOT
BRANCH   1   2
ATOM      2  C   UNL     1      -2.948   7.095  -0.153  1.00  0.00     0.118 C 
BRANCH   2   3
ATOM      3  N   UNL     1      -2.369   6.635  -1.408  1.00  0.00    -0.352 N 
ATOM      4  C   UNL     1      -2.328   5.325  -1.882  1.00  0.00     0.252 C 
ATOM      5  O   UNL     1      -1.981   5.119  -3.043  1.00  0.00    -0.269 OA
ATOM      6  H   UNL     1      -1.963   7.323  -1.983  1.00  0.00     0.163 HD
BRANCH   4   7
ATOM      7  C   UNL     1      -2.555   4.163  -0.964  1.00  0.00     0.051 A 
ATOM      8  C   UNL     1      -1.526   2.287   0.069  1.00  0.00     0.072 A 
ATOM      9  C   UNL     1      -1.571   3.174  -0.990  1.00  0.00     0.043 A 
ATOM     10  N   UNL     1      -2.281   2.458   1.182  1.00  0.00    -0.248 NA
ATOM     11  C   UNL     1      -3.249   3.385   1.176  1.00  0.00     0.072 A 
ATOM     12  C   UNL     1      -3.549   4.139   0.039  1.00  0.00     0.013 A 
ATOM     13  C   UNL     1      -3.939   3.668   2.347  1.00  0.00     0.029 A 
ATOM     14  C   UNL     1      -4.733   4.913   0.026  1.00  0.00     0.014 A 
ATOM     15  C   UNL     1      -4.934   4.651   2.398  1.00  0.00     0.005 A 
ATOM     16  C   UNL     1      -5.360   5.266   1.225  1.00  0.00    -0.050 A 
ATOM     17  C   UNL     1      -6.287   6.448   1.268  1.00  0.00     0.044 C 
BRANCH   8  18
ATOM     18  C   UNL     1      -0.727   1.056   0.037  1.00  0.00     0.003 A 
ATOM     19  C   UNL     1       2.956  -0.001   0.034  1.00  0.00     0.044 C 
ATOM     20  C   UNL     1       1.457  -0.058   0.019  1.00  0.00    -0.050 A 
ATOM     21  C   UNL     1       0.818  -1.300  -0.006  1.00  0.00     0.004 A 
ATOM     22  C   UNL     1       0.681   1.111   0.045  1.00  0.00     0.014 A 
ATOM     23  C   UNL     1      -0.573  -1.376  -0.019  1.00  0.00     0.004 A 
ATOM     24  C   UNL     1      -1.356  -0.212  -0.013  1.00  0.00    -0.042 A 
ATOM     25  C   UNL     1      -2.855  -0.380  -0.024  1.00  0.00     0.045 C 
ENDBRANCH   8  18
ENDBRANCH   4   7
ENDBRANCH   2   3
ENDBRANCH   1   2
BRANCH   1  26
ATOM     26  C   UNL     1      -2.941   9.582  -0.424  1.00  0.00     0.118 C 
BRANCH  26  27
ATOM     27  N   UNL     1      -4.339   9.810  -0.776  1.00  0.00    -0.352 N 
ATOM     28  C   UNL     1      -4.865  10.670  -1.746  1.00  0.00     0.251 C 
ATOM     29  H   UNL     1      -4.999   9.290  -0.263  1.00  0.00     0.163 HD
ATOM     30  O   UNL     1      -6.068  10.747  -1.902  1.00  0.00    -0.269 OA
BRANCH  28  31
ATOM     31  C   UNL     1      -3.956  11.491  -2.604  1.00  0.00     0.039 A 
ATOM     32  C   UNL     1      -4.337  11.969  -3.867  1.00  0.00     0.014 A 
ATOM     33  C   UNL     1      -2.597  11.516  -2.330  1.00  0.00     0.014 A 
ATOM     34  C   UNL     1      -3.309  12.221  -4.800  1.00  0.00     0.010 A 
ATOM     35  C   UNL     1      -1.847  12.433  -2.982  1.00  0.00     0.010 A 
ATOM     36  C   UNL     1      -2.000  12.226  -4.327  1.00  0.00    -0.014 A 
BRANCH  36  37
ATOM     37  C   UNL     1      -0.772  11.847  -5.018  1.00  0.00     0.031 A 
ATOM     38  C   UNL     1       0.310  12.854  -4.890  1.00  0.00     0.074 A 
ATOM     39  C   UNL     1      -0.321  10.605  -5.306  1.00  0.00     0.049 A 
ATOM     40  N   UNL     1       0.615  13.764  -5.748  1.00  0.00    -0.248 NA
ATOM     41  C   UNL     1       1.017  12.969  -3.602  1.00  0.00     0.031 C 
ATOM     42  C   UNL     1      -0.847   9.278  -4.982  1.00  0.00     0.029 A 
ATOM     43  N   UNL     1       0.859  10.316  -5.934  1.00  0.00    -0.354 N 
ATOM     44  C   UNL     1       1.643  14.491  -5.170  1.00  0.00     0.074 A 
ATOM     45  C   UNL     1       1.675  14.115  -3.780  1.00  0.00     0.031 C 
ATOM     46  C   UNL     1       0.082   8.335  -5.298  1.00  0.00     0.029 A 
ATOM     47  C   UNL     1       1.198   8.976  -5.979  1.00  0.00     0.049 A 
ATOM     48  H   UNL     1       1.429  11.015  -6.327  1.00  0.00     0.167 HD
ATOM     49  C   UNL     1       2.528  15.200  -5.921  1.00  0.00     0.037 A 
ATOM     50  C   UNL     1       2.332   8.471  -6.529  1.00  0.00     0.037 A 
ATOM     51  C   UNL     1       2.161  15.183  -7.316  1.00  0.00     0.049 A 
ATOM     52  C   UNL     1       2.919   9.524  -7.407  1.00  0.00     0.074 A 
ATOM     53  C   UNL     1       1.055  15.597  -8.036  1.00  0.00     0.029 A 
ATOM     54  N   UNL     1       2.809  14.282  -8.130  1.00  0.00    -0.354 N 
ATOM     55  N   UNL     1       2.374   9.963  -8.507  1.00  0.00    -0.248 NA
ATOM     56  C   UNL     1       3.972  10.368  -6.860  1.00  0.00     0.031 C 
ATOM     57  C   UNL     1       0.842  14.577  -9.015  1.00  0.00     0.029 A 
ATOM     58  C   UNL     1       1.848  13.621  -8.857  1.00  0.00     0.049 A 
ATOM     59  H   UNL     1       3.781  14.137  -8.181  1.00  0.00     0.167 HD
ATOM     60  C   UNL     1       2.717  11.306  -8.568  1.00  0.00     0.074 A 
ATOM     61  C   UNL     1       3.798  11.463  -7.604  1.00  0.00     0.031 C 
ATOM     62  C   UNL     1       1.904  12.213  -9.188  1.00  0.00     0.037 A 
BRANCH  49  63
ATOM     63  C   UNL     1       3.875  15.667  -5.449  1.00  0.00     0.064 A 
ATOM     64  C   UNL     1       4.541  16.672  -6.173  1.00  0.00     0.173 A 
ATOM     65  C   UNL     1       4.629  15.042  -4.433  1.00  0.00     0.173 A 
ATOM     66  F   UNL     1       3.929  17.304  -7.185  1.00  0.00    -0.203 F 
ATOM     67  C   UNL     1       5.871  17.008  -5.913  1.00  0.00     0.198 A 
ATOM     68  C   UNL     1       5.933  15.429  -4.130  1.00  0.00     0.198 A 
ATOM     69  F   UNL     1       4.178  13.971  -3.770  1.00  0.00    -0.203 F 
ATOM     70  F   UNL     1       6.495  17.899  -6.695  1.00  0.00    -0.200 F 
ATOM     71  C   UNL     1       6.563  16.394  -4.886  1.00  0.00     0.200 A 
ATOM     72  F   UNL     1       6.591  14.808  -3.140  1.00  0.00    -0.200 F 
ATOM     73  F   UNL     1       7.847  16.694  -4.654  1.00  0.00    -0.200 F 
ENDBRANCH  49  63
BRANCH  50  74
ATOM     74  C   UNL     1       3.080   7.232  -6.218  1.00  0.00     0.064 A 
ATOM     75  C   UNL     1       3.946   6.646  -7.158  1.00  0.00     0.173 A 
ATOM     76  C   UNL     1       3.178   6.764  -4.896  1.00  0.00     0.173 A 
ATOM     77  F   UNL     1       3.949   7.070  -8.430  1.00  0.00    -0.203 F 
ATOM     78  C   UNL     1       4.873   5.665  -6.790  1.00  0.00     0.198 A 
ATOM     79  C   UNL     1       4.101   5.782  -4.530  1.00  0.00     0.198 A 
ATOM     80  F   UNL     1       2.451   7.326  -3.919  1.00  0.00    -0.203 F 
ATOM     81  F   UNL     1       5.727   5.175  -7.701  1.00  0.00    -0.200 F 
ATOM     82  C   UNL     1       4.957   5.242  -5.474  1.00  0.00     0.200 A 
ATOM     83  F   UNL     1       4.205   5.411  -3.246  1.00  0.00    -0.200 F 
ATOM     84  F   UNL     1       5.890   4.351  -5.107  1.00  0.00    -0.200 F 
ENDBRANCH  50  74
BRANCH  62  85
ATOM     85  C   UNL     1       0.815  11.672 -10.077  1.00  0.00     0.064 A 
ATOM     86  C   UNL     1      -0.241  10.861  -9.625  1.00  0.00     0.173 A 
ATOM     87  C   UNL     1       0.772  12.086 -11.415  1.00  0.00     0.173 A 
ATOM     88  F   UNL     1      -0.336  10.510  -8.339  1.00  0.00    -0.203 F 
ATOM     89  C   UNL     1      -1.256  10.441 -10.482  1.00  0.00     0.198 A 
ATOM     90  C   UNL     1      -0.265  11.698 -12.261  1.00  0.00     0.198 A 
ATOM     91  F   UNL     1       1.719  12.908 -11.895  1.00  0.00    -0.203 F 
ATOM     92  F   UNL     1      -2.239   9.652 -10.022  1.00  0.00    -0.200 F 
ATOM     93  C   UNL     1      -1.271  10.865 -11.798  1.00  0.00     0.200 A 
ATOM     94  F   UNL     1      -0.302  12.152 -13.522  1.00  0.00    -0.200 F 
ATOM     95  F   UNL     1      -2.268  10.494 -12.614  1.00  0.00    -0.200 F 
ENDBRANCH  62  85
ENDBRANCH  36  37
ENDBRANCH  28  31
ENDBRANCH  26  27
ENDBRANCH   1  26
TORSDOF 11
