REMARK SMILES Cc1c(C[NH2+]Cc2cccc(F)c2)c(C(=O)NCCCNC(=O)c2ccc(-c3c4nc(c(-c5c(F)c(F)c(F)c(F)c5F)c5ccc([nH]5)c(-c5c(F)c(F)c(F)c(F)c5F)c5nc(c(-c6c(F)c(F)c(F)c(F)c6F)c6ccc3[nH]6)C=C5)C=C4)cc2)c(C)n1Cc1c(F)cccc1Cl
REMARK SMILES IDX 18 1 17 2 15 3 16 4 14 6 1 7 2 8 3 9 89 10 87 11 88 12 4 13
REMARK SMILES IDX 5 14 6 17 7 18 8 19 13 20 9 21 11 22 10 23 12 24 90 25 91 26
REMARK SMILES IDX 92 27 97 28 93 29 94 30 96 31 98 32 95 33 19 34 20 35 21 36
REMARK SMILES IDX 22 37 23 39 24 40 25 41 86 42 26 43 85 44 27 45 28 46 29 47
REMARK SMILES IDX 79 48 30 49 84 50 78 51 80 52 31 53 83 54 77 55 76 56 32 58
REMARK SMILES IDX 64 59 44 60 63 61 45 62 48 63 62 64 81 65 46 66 47 67 61 69
REMARK SMILES IDX 82 70 49 71 33 72 34 73 42 74 35 75 36 76 40 77 43 78 37 79
REMARK SMILES IDX 38 80 41 81 39 82 65 83 66 84 74 85 67 86 68 87 72 88 75 89
REMARK SMILES IDX 69 90 70 91 73 92 71 93 50 94 51 95 59 96 52 97 53 98 57 99
REMARK SMILES IDX 60 100 54 101 55 102 58 103 56 104
REMARK H PARENT 17 5 5 15 5 16 21 38 80 57 48 68
REMARK Flexibility Score: inf
ROOT
ATOM      1  C   UNL     1      -0.546   4.855   5.210  1.00  0.00     0.118 C 
ENDROOT
BRANCH   1   2
ATOM      2  N   UNL     1      -0.838   3.454   5.434  1.00  0.00    -0.352 N 
ATOM      3  C   UNL     1      -0.705   2.262   4.764  1.00  0.00     0.253 C 
ATOM      4  O   UNL     1      -1.189   1.322   5.396  1.00  0.00    -0.269 OA
ATOM      5  H   UNL     1      -1.248   3.317   6.319  1.00  0.00     0.163 HD
BRANCH   3   6
ATOM      6  C   UNL     1      -0.158   2.073   3.399  1.00  0.00     0.069 A 
ATOM      7  C   UNL     1       0.504   0.039   0.285  1.00  0.00     0.065 C 
ATOM      8  C   UNL     1       0.274   1.015   1.390  1.00  0.00     0.025 A 
ATOM      9  C   UNL     1      -0.296   0.821   2.649  1.00  0.00     0.040 A 
ATOM     10  N   UNL     1       0.659   2.342   1.320  1.00  0.00    -0.343 N 
ATOM     11  C   UNL     1       0.740   2.818   2.626  1.00  0.00     0.028 A 
ATOM     12  C   UNL     1       1.757   3.834   3.015  1.00  0.00     0.065 C 
BRANCH   9  13
ATOM     13  C   UNL     1      -0.881  -0.479   3.168  1.00  0.00     0.300 C 
BRANCH  13  14
ATOM     14  N   UNL     1       0.130  -1.138   3.993  1.00  0.00    -0.339 N 
ATOM     15  H   UNL     1       0.360  -0.520   4.772  1.00  0.00     0.346 HD
ATOM     16  H   UNL     1       0.929  -1.323   3.388  1.00  0.00     0.346 HD
BRANCH  14  17
ATOM     17  C   UNL     1      -0.291  -2.425   4.539  1.00  0.00     0.297 C 
BRANCH  17  18
ATOM     18  C   UNL     1      -0.162  -3.636   3.631  1.00  0.00     0.009 A 
ATOM     19  C   UNL     1       0.288  -3.571   2.303  1.00  0.00     0.010 A 
ATOM     20  C   UNL     1      -0.511  -4.900   4.140  1.00  0.00     0.048 A 
ATOM     21  C   UNL     1       0.335  -4.709   1.491  1.00  0.00     0.004 A 
ATOM     22  C   UNL     1      -0.444  -6.033   3.330  1.00  0.00     0.123 A 
ATOM     23  C   UNL     1      -0.037  -5.945   2.006  1.00  0.00     0.039 A 
ATOM     24  F   UNL     1      -0.781  -7.227   3.836  1.00  0.00    -0.207 F 
ENDBRANCH  17  18
ENDBRANCH  14  17
ENDBRANCH  13  14
ENDBRANCH   9  13
BRANCH  10  25
ATOM     25  C   UNL     1       1.140   3.030   0.104  1.00  0.00     0.162 C 
BRANCH  25  26
ATOM     26  C   UNL     1       0.121   3.972  -0.504  1.00  0.00     0.026 A 
ATOM     27  C   UNL     1      -0.157   5.194   0.125  1.00  0.00     0.129 A 
ATOM     28  C   UNL     1      -0.549   3.736  -1.715  1.00  0.00     0.048 A 
ATOM     29  F   UNL     1       0.556   5.581   1.185  1.00  0.00    -0.207 F 
ATOM     30  C   UNL     1      -1.113   6.093  -0.344  1.00  0.00     0.040 A 
ATOM     31  C   UNL     1      -1.498   4.648  -2.212  1.00  0.00     0.021 A 
ATOM     32  Cl  UNL     1      -0.207   2.369  -2.714  1.00  0.00    -0.084 Cl
ATOM     33  C   UNL     1      -1.799   5.815  -1.514  1.00  0.00     0.005 A 
ENDBRANCH  25  26
ENDBRANCH  10  25
ENDBRANCH   3   6
ENDBRANCH   1   2
BRANCH   1  34
ATOM     34  C   UNL     1      -1.684   5.635   4.550  1.00  0.00     0.042 C 
BRANCH  34  35
ATOM     35  C   UNL     1      -2.916   5.854   5.448  1.00  0.00     0.118 C 
BRANCH  35  36
ATOM     36  N   UNL     1      -2.860   7.062   6.248  1.00  0.00    -0.352 N 
ATOM     37  C   UNL     1      -3.913   7.782   6.780  1.00  0.00     0.251 C 
ATOM     38  H   UNL     1      -1.960   7.413   6.436  1.00  0.00     0.163 HD
ATOM     39  O   UNL     1      -3.666   8.834   7.363  1.00  0.00    -0.269 OA
BRANCH  37  40
ATOM     40  C   UNL     1      -5.345   7.396   6.532  1.00  0.00     0.039 A 
ATOM     41  C   UNL     1      -6.061   8.256   5.731  1.00  0.00     0.014 A 
ATOM     42  C   UNL     1      -6.067   6.339   7.119  1.00  0.00     0.014 A 
ATOM     43  C   UNL     1      -7.434   8.023   5.490  1.00  0.00     0.010 A 
ATOM     44  C   UNL     1      -7.519   6.185   6.958  1.00  0.00     0.010 A 
ATOM     45  C   UNL     1      -8.277   7.050   6.152  1.00  0.00    -0.014 A 
BRANCH  45  46
ATOM     46  C   UNL     1      -9.881   7.356   6.115  1.00  0.00     0.031 A 
ATOM     47  C   UNL     1      -9.919   8.846   6.085  1.00  0.00     0.074 A 
ATOM     48  C   UNL     1     -11.168   6.830   6.269  1.00  0.00     0.049 A 
ATOM     49  N   UNL     1      -9.346   9.492   7.063  1.00  0.00    -0.248 NA
ATOM     50  C   UNL     1     -10.138   9.636   4.870  1.00  0.00     0.031 C 
ATOM     51  C   UNL     1     -11.573   5.469   6.657  1.00  0.00     0.029 A 
ATOM     52  N   UNL     1     -12.471   7.423   6.120  1.00  0.00    -0.354 N 
ATOM     53  C   UNL     1      -9.344  10.812   6.711  1.00  0.00     0.074 A 
ATOM     54  C   UNL     1      -9.648  10.813   5.285  1.00  0.00     0.031 C 
ATOM     55  C   UNL     1     -12.928   5.294   6.575  1.00  0.00     0.029 A 
ATOM     56  C   UNL     1     -13.605   6.531   6.184  1.00  0.00     0.049 A 
ATOM     57  H   UNL     1     -12.584   8.392   5.982  1.00  0.00     0.167 HD
ATOM     58  C   UNL     1      -9.757  11.666   7.688  1.00  0.00     0.037 A 
ATOM     59  C   UNL     1     -14.973   6.770   6.026  1.00  0.00     0.037 A 
ATOM     60  C   UNL     1     -11.116  12.076   7.471  1.00  0.00     0.049 A 
ATOM     61  C   UNL     1     -15.179   8.159   6.449  1.00  0.00     0.074 A 
ATOM     62  C   UNL     1     -11.829  12.414   6.337  1.00  0.00     0.029 A 
ATOM     63  N   UNL     1     -12.042  11.658   8.399  1.00  0.00    -0.354 N 
ATOM     64  N   UNL     1     -15.220   8.470   7.708  1.00  0.00    -0.248 NA
ATOM     65  C   UNL     1     -15.522   9.229   5.520  1.00  0.00     0.031 C 
ATOM     66  C   UNL     1     -12.998  11.625   6.426  1.00  0.00     0.029 A 
ATOM     67  C   UNL     1     -13.156  11.197   7.739  1.00  0.00     0.049 A 
ATOM     68  H   UNL     1     -11.925  11.685   9.376  1.00  0.00     0.167 HD
ATOM     69  C   UNL     1     -15.083   9.816   7.695  1.00  0.00     0.074 A 
ATOM     70  C   UNL     1     -15.560  10.240   6.391  1.00  0.00     0.031 C 
ATOM     71  C   UNL     1     -14.050  10.296   8.425  1.00  0.00     0.037 A 
BRANCH  58  72
ATOM     72  C   UNL     1      -9.173  11.354   9.045  1.00  0.00     0.064 A 
ATOM     73  C   UNL     1      -9.415  10.149   9.744  1.00  0.00     0.173 A 
ATOM     74  C   UNL     1      -8.244  12.236   9.603  1.00  0.00     0.173 A 
ATOM     75  F   UNL     1     -10.411   9.326   9.374  1.00  0.00    -0.203 F 
ATOM     76  C   UNL     1      -8.657   9.782  10.850  1.00  0.00     0.198 A 
ATOM     77  C   UNL     1      -7.542  11.899  10.762  1.00  0.00     0.198 A 
ATOM     78  F   UNL     1      -8.024  13.429   9.032  1.00  0.00    -0.203 F 
ATOM     79  F   UNL     1      -8.851   8.587  11.426  1.00  0.00    -0.200 F 
ATOM     80  C   UNL     1      -7.718  10.658  11.359  1.00  0.00     0.200 A 
ATOM     81  F   UNL     1      -6.690  12.781  11.305  1.00  0.00    -0.200 F 
ATOM     82  F   UNL     1      -7.008  10.322  12.445  1.00  0.00    -0.200 F 
ENDBRANCH  58  72
BRANCH  59  83
ATOM     83  C   UNL     1     -16.384   6.130   5.816  1.00  0.00     0.064 A 
ATOM     84  C   UNL     1     -16.655   5.228   4.779  1.00  0.00     0.173 A 
ATOM     85  C   UNL     1     -17.575   6.755   6.345  1.00  0.00     0.173 A 
ATOM     86  F   UNL     1     -15.650   4.570   4.188  1.00  0.00    -0.203 F 
ATOM     87  C   UNL     1     -17.964   5.047   4.252  1.00  0.00     0.198 A 
ATOM     88  C   UNL     1     -18.858   6.613   5.789  1.00  0.00     0.198 A 
ATOM     89  F   UNL     1     -17.526   7.597   7.385  1.00  0.00    -0.203 F 
ATOM     90  F   UNL     1     -18.159   4.213   3.220  1.00  0.00    -0.200 F 
ATOM     91  C   UNL     1     -19.050   5.771   4.724  1.00  0.00     0.200 A 
ATOM     92  F   UNL     1     -19.878   7.356   6.249  1.00  0.00    -0.200 F 
ATOM     93  F   UNL     1     -20.256   5.681   4.142  1.00  0.00    -0.200 F 
ENDBRANCH  59  83
BRANCH  71  94
ATOM     94  C   UNL     1     -13.824   9.696   9.809  1.00  0.00     0.064 A 
ATOM     95  C   UNL     1     -13.681  10.603  10.871  1.00  0.00     0.173 A 
ATOM     96  C   UNL     1     -13.790   8.325  10.170  1.00  0.00     0.173 A 
ATOM     97  F   UNL     1     -13.665  11.922  10.626  1.00  0.00    -0.203 F 
ATOM     98  C   UNL     1     -13.518  10.188  12.192  1.00  0.00     0.198 A 
ATOM     99  C   UNL     1     -13.694   7.914  11.505  1.00  0.00     0.198 A 
ATOM    100  F   UNL     1     -13.806   7.337   9.264  1.00  0.00    -0.203 F 
ATOM    101  F   UNL     1     -13.321  11.104  13.150  1.00  0.00    -0.200 F 
ATOM    102  C   UNL     1     -13.549   8.846  12.513  1.00  0.00     0.200 A 
ATOM    103  F   UNL     1     -13.732   6.607  11.811  1.00  0.00    -0.200 F 
ATOM    104  F   UNL     1     -13.422   8.454  13.788  1.00  0.00    -0.200 F 
ENDBRANCH  71  94
ENDBRANCH  45  46
ENDBRANCH  37  40
ENDBRANCH  35  36
ENDBRANCH  34  35
ENDBRANCH   1  34
TORSDOF 16
