REMARK SMILES CC[C@@](C)([NH2+]CC(=O)N[C@@H](C)c1ccc(F)cc1)C(=O)NCCCNC(=O)c1ccc(-c2c3nc(c(-c4c(F)c(F)c(F)c(F)c4F)c4ccc([nH]4)c(-c4c(F)c(F)c(F)c(F)c4F)c4nc(c(-c5c(F)c(F)c(F)c(F)c5F)c5ccc2[nH]5)C=C4)C=C3)cc1
REMARK SMILES IDX 19 1 20 2 21 3 3 5 4 6 2 7 1 8 5 9 6 12 7 13 8 14 9 15 10 17
REMARK SMILES IDX 11 18 12 19 13 20 18 21 14 22 17 23 15 24 16 25 22 26 23 27
REMARK SMILES IDX 24 28 25 29 26 30 27 32 28 33 29 34 90 35 30 36 89 37 31 38
REMARK SMILES IDX 32 39 33 40 83 41 34 42 88 43 82 44 84 45 35 46 87 47 81 48
REMARK SMILES IDX 80 49 36 51 68 52 48 53 67 54 49 55 52 56 66 57 85 58 50 59
REMARK SMILES IDX 51 60 65 62 86 63 53 64 37 65 38 66 46 67 39 68 40 69 44 70
REMARK SMILES IDX 47 71 41 72 42 73 45 74 43 75 69 76 70 77 78 78 71 79 72 80
REMARK SMILES IDX 76 81 79 82 73 83 74 84 77 85 75 86 54 87 55 88 63 89 56 90
REMARK SMILES IDX 57 91 61 92 64 93 58 94 59 95 62 96 60 97
REMARK H PARENT 21 4 5 10 5 11 9 16 25 31 84 50 52 61
REMARK Flexibility Score: inf
ROOT
ATOM      1  C   UNL     1       2.198  -2.230  -0.476  1.00  0.00     0.281 C 
ATOM      2  O   UNL     1       2.816  -1.251  -0.047  1.00  0.00    -0.268 OA
ATOM      3  N   UNL     1       2.961  -3.298  -0.921  1.00  0.00    -0.351 N 
ATOM      4  H   UNL     1       3.242  -3.329  -1.864  1.00  0.00     0.163 HD
ENDROOT
BRANCH   1   5
ATOM      5  C   UNL     1       0.610  -2.204  -0.674  1.00  0.00     0.172 C 
ATOM      6  C   UNL     1      -0.318  -1.710   0.453  1.00  0.00     0.090 C 
BRANCH   5   7
ATOM      7  C   UNL     1       0.412  -1.127  -1.810  1.00  0.00     0.075 C 
ATOM      8  C   UNL     1       0.509   0.335  -1.313  1.00  0.00     0.011 C 
ENDBRANCH   5   7
BRANCH   5   9
ATOM      9  N   UNL     1       0.073  -3.505  -1.093  1.00  0.00    -0.326 N 
ATOM     10  H   UNL     1       0.521  -3.724  -1.984  1.00  0.00     0.347 HD
ATOM     11  H   UNL     1      -0.932  -3.337  -1.069  1.00  0.00     0.347 HD
BRANCH   9  12
ATOM     12  C   UNL     1       0.203  -4.716  -0.259  1.00  0.00     0.362 C 
BRANCH  12  13
ATOM     13  C   UNL     1      -0.059  -4.828   1.271  1.00  0.00     0.275 C 
ATOM     14  O   UNL     1      -0.936  -5.634   1.632  1.00  0.00    -0.268 OA
ATOM     15  N   UNL     1       0.655  -4.318   2.320  1.00  0.00    -0.345 N 
ATOM     16  H   UNL     1       0.623  -4.910   3.106  1.00  0.00     0.164 HD
BRANCH  15  17
ATOM     17  C   UNL     1       1.458  -3.113   2.577  1.00  0.00     0.109 C 
ATOM     18  C   UNL     1       0.710  -2.162   3.523  1.00  0.00     0.036 C 
BRANCH  17  19
ATOM     19  C   UNL     1       2.872  -3.324   3.097  1.00  0.00    -0.026 A 
ATOM     20  C   UNL     1       3.775  -2.234   3.045  1.00  0.00     0.009 A 
ATOM     21  C   UNL     1       3.325  -4.539   3.623  1.00  0.00     0.009 A 
ATOM     22  C   UNL     1       5.077  -2.350   3.527  1.00  0.00     0.039 A 
ATOM     23  C   UNL     1       4.637  -4.656   4.097  1.00  0.00     0.039 A 
ATOM     24  C   UNL     1       5.495  -3.561   4.055  1.00  0.00     0.123 A 
ATOM     25  F   UNL     1       6.744  -3.679   4.523  1.00  0.00    -0.207 F 
ENDBRANCH  17  19
ENDBRANCH  15  17
ENDBRANCH  12  13
ENDBRANCH   9  12
ENDBRANCH   5   9
ENDBRANCH   1   5
BRANCH   3  26
ATOM     26  C   UNL     1       3.357  -4.380  -0.018  1.00  0.00     0.118 C 
BRANCH  26  27
ATOM     27  C   UNL     1       3.559  -5.725  -0.705  1.00  0.00     0.042 C 
BRANCH  27  28
ATOM     28  C   UNL     1       4.970  -6.264  -0.548  1.00  0.00     0.118 C 
BRANCH  28  29
ATOM     29  N   UNL     1       5.277  -6.693   0.816  1.00  0.00    -0.352 N 
ATOM     30  C   UNL     1       5.672  -7.922   1.294  1.00  0.00     0.251 C 
ATOM     31  H   UNL     1       5.186  -5.991   1.500  1.00  0.00     0.163 HD
ATOM     32  O   UNL     1       5.753  -8.112   2.507  1.00  0.00    -0.269 OA
BRANCH  30  33
ATOM     33  C   UNL     1       5.957  -9.031   0.355  1.00  0.00     0.039 A 
ATOM     34  C   UNL     1       5.498 -10.319   0.652  1.00  0.00     0.014 A 
ATOM     35  C   UNL     1       6.637  -8.796  -0.839  1.00  0.00     0.014 A 
ATOM     36  C   UNL     1       5.619 -11.335  -0.302  1.00  0.00     0.010 A 
ATOM     37  C   UNL     1       6.649  -9.770  -1.829  1.00  0.00     0.010 A 
ATOM     38  C   UNL     1       6.136 -11.050  -1.576  1.00  0.00    -0.014 A 
BRANCH  38  39
ATOM     39  C   UNL     1       6.151 -12.059  -2.668  1.00  0.00     0.031 A 
ATOM     40  C   UNL     1       7.455 -12.445  -3.311  1.00  0.00     0.074 A 
ATOM     41  C   UNL     1       4.989 -12.546  -3.149  1.00  0.00     0.049 A 
ATOM     42  N   UNL     1       7.670 -13.187  -4.368  1.00  0.00    -0.248 NA
ATOM     43  C   UNL     1       8.680 -11.892  -2.710  1.00  0.00     0.031 C 
ATOM     44  C   UNL     1       3.656 -12.207  -2.648  1.00  0.00     0.029 A 
ATOM     45  N   UNL     1       4.741 -13.422  -4.178  1.00  0.00    -0.354 N 
ATOM     46  C   UNL     1       9.043 -13.165  -4.570  1.00  0.00     0.074 A 
ATOM     47  C   UNL     1       9.608 -12.290  -3.567  1.00  0.00     0.031 C 
ATOM     48  C   UNL     1       2.735 -12.891  -3.345  1.00  0.00     0.029 A 
ATOM     49  C   UNL     1       3.405 -13.679  -4.375  1.00  0.00     0.049 A 
ATOM     50  H   UNL     1       5.454 -13.827  -4.723  1.00  0.00     0.167 HD
ATOM     51  C   UNL     1       9.771 -13.839  -5.490  1.00  0.00     0.037 A 
ATOM     52  C   UNL     1       2.789 -14.455  -5.287  1.00  0.00     0.037 A 
ATOM     53  C   UNL     1       9.208 -14.747  -6.452  1.00  0.00     0.049 A 
ATOM     54  C   UNL     1       3.620 -15.200  -6.296  1.00  0.00     0.074 A 
ATOM     55  C   UNL     1       9.868 -15.533  -7.380  1.00  0.00     0.029 A 
ATOM     56  N   UNL     1       7.852 -14.998  -6.602  1.00  0.00    -0.354 N 
ATOM     57  N   UNL     1       4.923 -15.211  -6.444  1.00  0.00    -0.248 NA
ATOM     58  C   UNL     1       2.900 -16.039  -7.265  1.00  0.00     0.031 C 
ATOM     59  C   UNL     1       8.909 -16.228  -8.121  1.00  0.00     0.029 A 
ATOM     60  C   UNL     1       7.654 -15.914  -7.621  1.00  0.00     0.049 A 
ATOM     61  H   UNL     1       7.138 -14.586  -6.064  1.00  0.00     0.167 HD
ATOM     62  C   UNL     1       5.180 -16.071  -7.503  1.00  0.00     0.074 A 
ATOM     63  C   UNL     1       3.900 -16.572  -7.956  1.00  0.00     0.031 C 
ATOM     64  C   UNL     1       6.372 -16.412  -8.049  1.00  0.00     0.037 A 
BRANCH  51  65
ATOM     65  C   UNL     1      11.258 -13.644  -5.488  1.00  0.00     0.064 A 
ATOM     66  C   UNL     1      11.895 -12.999  -6.559  1.00  0.00     0.173 A 
ATOM     67  C   UNL     1      12.062 -14.153  -4.457  1.00  0.00     0.173 A 
ATOM     68  F   UNL     1      11.174 -12.499  -7.574  1.00  0.00    -0.203 F 
ATOM     69  C   UNL     1      13.282 -12.882  -6.603  1.00  0.00     0.198 A 
ATOM     70  C   UNL     1      13.446 -14.007  -4.489  1.00  0.00     0.198 A 
ATOM     71  F   UNL     1      11.502 -14.767  -3.405  1.00  0.00    -0.203 F 
ATOM     72  F   UNL     1      13.871 -12.290  -7.651  1.00  0.00    -0.200 F 
ATOM     73  C   UNL     1      14.056 -13.381  -5.566  1.00  0.00     0.200 A 
ATOM     74  F   UNL     1      14.190 -14.466  -3.473  1.00  0.00    -0.200 F 
ATOM     75  F   UNL     1      15.389 -13.256  -5.603  1.00  0.00    -0.200 F 
ENDBRANCH  51  65
BRANCH  52  76
ATOM     76  C   UNL     1       1.310 -14.594  -5.257  1.00  0.00     0.064 A 
ATOM     77  C   UNL     1       0.464 -13.531  -5.606  1.00  0.00     0.173 A 
ATOM     78  C   UNL     1       0.713 -15.792  -4.840  1.00  0.00     0.173 A 
ATOM     79  F   UNL     1       0.985 -12.362  -6.007  1.00  0.00    -0.203 F 
ATOM     80  C   UNL     1      -0.922 -13.655  -5.519  1.00  0.00     0.198 A 
ATOM     81  C   UNL     1      -0.673 -15.923  -4.779  1.00  0.00     0.198 A 
ATOM     82  F   UNL     1       1.479 -16.843  -4.516  1.00  0.00    -0.203 F 
ATOM     83  F   UNL     1      -1.707 -12.613  -5.825  1.00  0.00    -0.200 F 
ATOM     84  C   UNL     1      -1.489 -14.852  -5.109  1.00  0.00     0.200 A 
ATOM     85  F   UNL     1      -1.218 -17.089  -4.404  1.00  0.00    -0.200 F 
ATOM     86  F   UNL     1      -2.822 -14.974  -5.035  1.00  0.00    -0.200 F 
ENDBRANCH  52  76
BRANCH  64  87
ATOM     87  C   UNL     1       6.368 -17.393  -9.183  1.00  0.00     0.064 A 
ATOM     88  C   UNL     1       6.876 -18.688  -9.000  1.00  0.00     0.173 A 
ATOM     89  C   UNL     1       5.968 -17.016 -10.472  1.00  0.00     0.173 A 
ATOM     90  F   UNL     1       7.281 -19.091  -7.786  1.00  0.00    -0.203 F 
ATOM     91  C   UNL     1       7.006 -19.563 -10.074  1.00  0.00     0.198 A 
ATOM     92  C   UNL     1       6.075 -17.904 -11.539  1.00  0.00     0.198 A 
ATOM     93  F   UNL     1       5.465 -15.792 -10.693  1.00  0.00    -0.203 F 
ATOM     94  F   UNL     1       7.536 -20.779  -9.885  1.00  0.00    -0.200 F 
ATOM     95  C   UNL     1       6.606 -19.170 -11.342  1.00  0.00     0.200 A 
ATOM     96  F   UNL     1       5.669 -17.531 -12.761  1.00  0.00    -0.200 F 
ATOM     97  F   UNL     1       6.734 -20.013 -12.377  1.00  0.00    -0.200 F 
ENDBRANCH  64  87
ENDBRANCH  38  39
ENDBRANCH  30  33
ENDBRANCH  28  29
ENDBRANCH  27  28
ENDBRANCH  26  27
ENDBRANCH   3  26
TORSDOF 16
