REMARK SMILES Cc1ccc(C(=O)C2=C(NCCCNC(=O)c3ccc(-c4c5nc(c(-c6c(F)c(F)c(F)c(F)c6F)c6ccc([nH]6)c(-c6c(F)c(F)c(F)c(F)c6F)c6nc(c(-c7c(F)c(F)c(F)c(F)c7F)c7ccc4[nH]7)C=C6)C=C5)cc3)C(=O)N(CCCC(=O)[O-])[C@H]2c2ccc3c(c2)OCO3)cc1
REMARK SMILES IDX 11 1 10 2 9 4 8 5 89 6 80 7 82 8 81 9 6 10 7 11 5 12 1 13
REMARK SMILES IDX 2 14 3 15 100 16 4 17 99 18 90 19 91 20 95 21 92 22 94 23
REMARK SMILES IDX 93 24 96 25 98 26 97 27 83 28 84 29 85 30 86 31 87 32 88 33
REMARK SMILES IDX 12 34 13 35 14 36 15 37 16 39 17 40 18 41 79 42 19 43 78 44
REMARK SMILES IDX 20 45 21 46 22 47 72 48 23 49 77 50 71 51 73 52 24 53 76 54
REMARK SMILES IDX 70 55 69 56 25 58 57 59 37 60 56 61 38 62 41 63 55 64 74 65
REMARK SMILES IDX 39 66 40 67 54 69 75 70 42 71 26 72 27 73 35 74 28 75 29 76
REMARK SMILES IDX 33 77 36 78 30 79 31 80 34 81 32 82 58 83 59 84 67 85 60 86
REMARK SMILES IDX 61 87 65 88 68 89 62 90 63 91 66 92 64 93 43 94 44 95 52 96
REMARK SMILES IDX 45 97 46 98 50 99 53 100 47 101 48 102 51 103 49 104
REMARK H PARENT 10 3 14 38 73 57 41 68
REMARK Flexibility Score: inf
ROOT
ATOM      1  C   UNL     1      -7.638  -0.245   0.419  1.00  0.00     0.115 C 
ENDROOT
BRANCH   1   2
ATOM      2  N   UNL     1      -6.199  -0.343   0.187  1.00  0.00    -0.380 N 
ATOM      3  H   UNL     1      -5.802  -1.229   0.018  1.00  0.00     0.160 HD
BRANCH   2   4
ATOM      4  C   UNL     1      -5.384   0.755   0.196  1.00  0.00     0.110 C 
ATOM      5  C   UNL     1      -4.274   1.097  -0.485  1.00  0.00     0.056 C 
ATOM      6  C   UNL     1      -3.876   2.512  -0.143  1.00  0.00     0.153 C 
ATOM      7  C   UNL     1      -5.697   1.939   1.085  1.00  0.00     0.271 C 
ATOM      8  N   UNL     1      -5.097   3.026   0.455  1.00  0.00    -0.326 N 
ATOM      9  O   UNL     1      -6.444   1.968   2.033  1.00  0.00    -0.267 OA
BRANCH   5  10
ATOM     10  C   UNL     1      -3.570   0.149  -1.399  1.00  0.00     0.193 C 
ATOM     11  O   UNL     1      -4.205  -0.739  -1.970  1.00  0.00    -0.289 OA
BRANCH  10  12
ATOM     12  C   UNL     1      -2.073   0.128  -1.516  1.00  0.00     0.022 A 
ATOM     13  C   UNL     1       2.240  -0.097  -1.156  1.00  0.00     0.044 C 
ATOM     14  C   UNL     1       0.756  -0.035  -1.398  1.00  0.00    -0.051 A 
ATOM     15  C   UNL     1      -0.025  -1.189  -1.292  1.00  0.00     0.004 A 
ATOM     16  C   UNL     1       0.119   1.171  -1.706  1.00  0.00     0.004 A 
ATOM     17  C   UNL     1      -1.426  -1.106  -1.342  1.00  0.00     0.012 A 
ATOM     18  C   UNL     1      -1.285   1.248  -1.786  1.00  0.00     0.012 A 
ENDBRANCH  10  12
ENDBRANCH   5  10
BRANCH   6  19
ATOM     19  C   UNL     1      -2.699   2.494   0.847  1.00  0.00    -0.017 A 
ATOM     20  C   UNL     1      -1.584   3.342   0.651  1.00  0.00     0.010 A 
ATOM     21  C   UNL     1      -2.593   1.425   1.763  1.00  0.00     0.056 A 
ATOM     22  C   UNL     1      -0.326   2.975   1.155  1.00  0.00     0.051 A 
ATOM     23  C   UNL     1      -1.338   1.036   2.142  1.00  0.00     0.166 A 
ATOM     24  C   UNL     1      -0.226   1.766   1.813  1.00  0.00     0.165 A 
ATOM     25  O   UNL     1      -1.043  -0.167   2.701  1.00  0.00    -0.454 OA
ATOM     26  O   UNL     1       0.918   1.090   2.114  1.00  0.00    -0.454 OA
ATOM     27  C   UNL     1       0.368  -0.212   2.428  1.00  0.00     0.468 C 
ENDBRANCH   6  19
BRANCH   8  28
ATOM     28  C   UNL     1      -6.073   3.769  -0.344  1.00  0.00     0.121 C 
BRANCH  28  29
ATOM     29  C   UNL     1      -7.006   4.659   0.488  1.00  0.00     0.028 C 
BRANCH  29  30
ATOM     30  C   UNL     1      -6.283   5.857   1.090  1.00  0.00     0.054 C 
BRANCH  30  31
ATOM     31  C   UNL     1      -5.697   6.795   0.068  1.00  0.00     0.041 C 
ATOM     32  O   UNL     1      -4.855   7.649   0.291  1.00  0.00    -0.550 OA
ATOM     33  O   UNL     1      -6.198   6.658  -1.174  1.00  0.00    -0.550 OA
ENDBRANCH  30  31
ENDBRANCH  29  30
ENDBRANCH  28  29
ENDBRANCH   8  28
ENDBRANCH   2   4
ENDBRANCH   1   2
BRANCH   1  34
ATOM     34  C   UNL     1      -8.370  -0.194  -0.914  1.00  0.00     0.042 C 
BRANCH  34  35
ATOM     35  C   UNL     1      -8.480  -1.578  -1.506  1.00  0.00     0.118 C 
BRANCH  35  36
ATOM     36  N   UNL     1      -9.530  -2.384  -0.895  1.00  0.00    -0.352 N 
ATOM     37  C   UNL     1      -9.961  -3.660  -1.197  1.00  0.00     0.251 C 
ATOM     38  H   UNL     1     -10.007  -1.949  -0.151  1.00  0.00     0.163 HD
ATOM     39  O   UNL     1     -10.986  -4.095  -0.682  1.00  0.00    -0.269 OA
BRANCH  37  40
ATOM     40  C   UNL     1      -9.069  -4.572  -1.951  1.00  0.00     0.039 A 
ATOM     41  C   UNL     1      -8.876  -5.835  -1.371  1.00  0.00     0.014 A 
ATOM     42  C   UNL     1      -8.136  -4.056  -2.838  1.00  0.00     0.014 A 
ATOM     43  C   UNL     1      -7.613  -6.399  -1.401  1.00  0.00     0.010 A 
ATOM     44  C   UNL     1      -6.848  -4.497  -2.708  1.00  0.00     0.010 A 
ATOM     45  C   UNL     1      -6.590  -5.631  -1.935  1.00  0.00    -0.014 A 
BRANCH  45  46
ATOM     46  C   UNL     1      -5.191  -5.976  -1.875  1.00  0.00     0.031 A 
ATOM     47  C   UNL     1      -4.667  -6.686  -3.047  1.00  0.00     0.074 A 
ATOM     48  C   UNL     1      -4.448  -5.433  -0.888  1.00  0.00     0.049 A 
ATOM     49  N   UNL     1      -3.529  -7.269  -3.101  1.00  0.00    -0.248 NA
ATOM     50  C   UNL     1      -5.444  -6.838  -4.277  1.00  0.00     0.031 C 
ATOM     51  C   UNL     1      -2.998  -5.312  -0.792  1.00  0.00     0.029 A 
ATOM     52  N   UNL     1      -4.907  -5.038   0.381  1.00  0.00    -0.354 N 
ATOM     53  C   UNL     1      -3.293  -7.598  -4.419  1.00  0.00     0.074 A 
ATOM     54  C   UNL     1      -4.551  -7.404  -5.089  1.00  0.00     0.031 C 
ATOM     55  C   UNL     1      -2.659  -5.201   0.507  1.00  0.00     0.029 A 
ATOM     56  C   UNL     1      -3.877  -5.415   1.275  1.00  0.00     0.049 A 
ATOM     57  H   UNL     1      -5.758  -4.595   0.599  1.00  0.00     0.167 HD
ATOM     58  C   UNL     1      -2.003  -7.851  -4.779  1.00  0.00     0.037 A 
ATOM     59  C   UNL     1      -4.077  -6.455   2.142  1.00  0.00     0.037 A 
ATOM     60  C   UNL     1      -1.174  -7.882  -3.574  1.00  0.00     0.049 A 
ATOM     61  C   UNL     1      -3.131  -7.605   1.868  1.00  0.00     0.074 A 
ATOM     62  C   UNL     1      -0.416  -6.910  -2.941  1.00  0.00     0.029 A 
ATOM     63  N   UNL     1      -1.409  -8.878  -2.632  1.00  0.00    -0.354 N 
ATOM     64  N   UNL     1      -2.636  -7.883   0.691  1.00  0.00    -0.248 NA
ATOM     65  C   UNL     1      -2.627  -8.486   2.915  1.00  0.00     0.031 C 
ATOM     66  C   UNL     1      -0.269  -7.295  -1.580  1.00  0.00     0.029 A 
ATOM     67  C   UNL     1      -0.910  -8.510  -1.398  1.00  0.00     0.049 A 
ATOM     68  H   UNL     1      -1.869  -9.729  -2.819  1.00  0.00     0.167 HD
ATOM     69  C   UNL     1      -1.742  -8.918   0.807  1.00  0.00     0.074 A 
ATOM     70  C   UNL     1      -1.773  -9.257   2.219  1.00  0.00     0.031 C 
ATOM     71  C   UNL     1      -1.032  -9.405  -0.256  1.00  0.00     0.037 A 
BRANCH  58  72
ATOM     72  C   UNL     1      -1.437  -7.802  -6.182  1.00  0.00     0.064 A 
ATOM     73  C   UNL     1      -0.045  -7.633  -6.366  1.00  0.00     0.173 A 
ATOM     74  C   UNL     1      -2.178  -7.846  -7.380  1.00  0.00     0.173 A 
ATOM     75  F   UNL     1       0.802  -7.628  -5.328  1.00  0.00    -0.203 F 
ATOM     76  C   UNL     1       0.537  -7.456  -7.625  1.00  0.00     0.198 A 
ATOM     77  C   UNL     1      -1.599  -7.644  -8.638  1.00  0.00     0.198 A 
ATOM     78  F   UNL     1      -3.481  -8.127  -7.401  1.00  0.00    -0.203 F 
ATOM     79  F   UNL     1       1.863  -7.287  -7.724  1.00  0.00    -0.200 F 
ATOM     80  C   UNL     1      -0.242  -7.443  -8.761  1.00  0.00     0.200 A 
ATOM     81  F   UNL     1      -2.375  -7.651  -9.732  1.00  0.00    -0.200 F 
ATOM     82  F   UNL     1       0.311  -7.258  -9.966  1.00  0.00    -0.200 F 
ENDBRANCH  58  72
BRANCH  59  83
ATOM     83  C   UNL     1      -5.512  -6.571   2.553  1.00  0.00     0.064 A 
ATOM     84  C   UNL     1      -6.113  -5.431   3.133  1.00  0.00     0.173 A 
ATOM     85  C   UNL     1      -6.365  -7.531   1.998  1.00  0.00     0.173 A 
ATOM     86  F   UNL     1      -5.346  -4.494   3.714  1.00  0.00    -0.203 F 
ATOM     87  C   UNL     1      -7.472  -5.165   2.973  1.00  0.00     0.198 A 
ATOM     88  C   UNL     1      -7.737  -7.284   1.887  1.00  0.00     0.198 A 
ATOM     89  F   UNL     1      -5.868  -8.650   1.454  1.00  0.00    -0.203 F 
ATOM     90  F   UNL     1      -7.976  -3.987   3.368  1.00  0.00    -0.200 F 
ATOM     91  C   UNL     1      -8.277  -6.079   2.318  1.00  0.00     0.200 A 
ATOM     92  F   UNL     1      -8.524  -8.167   1.254  1.00  0.00    -0.200 F 
ATOM     93  F   UNL     1      -9.559  -5.783   2.062  1.00  0.00    -0.200 F 
ENDBRANCH  59  83
BRANCH  71  94
ATOM     94  C   UNL     1      -0.302 -10.733  -0.310  1.00  0.00     0.064 A 
ATOM     95  C   UNL     1      -0.579 -11.818   0.537  1.00  0.00     0.173 A 
ATOM     96  C   UNL     1       0.612 -11.013  -1.361  1.00  0.00     0.173 A 
ATOM     97  F   UNL     1      -1.526 -11.749   1.480  1.00  0.00    -0.203 F 
ATOM     98  C   UNL     1       0.066 -13.050   0.401  1.00  0.00     0.198 A 
ATOM     99  C   UNL     1       1.184 -12.269  -1.547  1.00  0.00     0.198 A 
ATOM    100  F   UNL     1       0.957 -10.088  -2.268  1.00  0.00    -0.203 F 
ATOM    101  F   UNL     1      -0.189 -14.028   1.281  1.00  0.00    -0.200 F 
ATOM    102  C   UNL     1       0.932 -13.281  -0.649  1.00  0.00     0.200 A 
ATOM    103  F   UNL     1       1.962 -12.493  -2.615  1.00  0.00    -0.200 F 
ATOM    104  F   UNL     1       1.503 -14.482  -0.808  1.00  0.00    -0.200 F 
ENDBRANCH  71  94
ENDBRANCH  45  46
ENDBRANCH  37  40
ENDBRANCH  35  36
ENDBRANCH  34  35
ENDBRANCH   1  34
TORSDOF 17
