REMARK SMILES CC[C@@H](C)[C@H](NC(=O)[C@H]1CCCN(S(=O)(=O)c2ccccc2)C1)C(=O)NCCCNC(=O)c1ccc(-c2c3nc(c(-c4c(F)c(F)c(F)c(F)c4F)c4ccc([nH]4)c(-c4c(F)c(F)c(F)c(F)c4F)c4nc(c(-c5c(F)c(F)c(F)c(F)c5F)c5ccc2[nH]5)C=C4)C=C3)cc1
REMARK SMILES IDX 27 1 26 2 24 3 25 4 5 6 3 7 4 8 2 9 1 10 6 11 7 12 8 14 9 15
REMARK SMILES IDX 10 16 23 17 11 18 13 19 12 20 14 21 15 22 16 23 17 24 18 25
REMARK SMILES IDX 22 26 19 27 21 28 20 29 28 30 29 31 30 32 31 33 32 35 33 36
REMARK SMILES IDX 34 37 95 38 35 39 94 40 36 41 37 42 38 43 88 44 39 45 93 46
REMARK SMILES IDX 87 47 89 48 40 49 92 50 86 51 85 52 41 54 73 55 53 56 72 57
REMARK SMILES IDX 54 58 57 59 71 60 90 61 55 62 56 63 70 65 91 66 58 67 42 68
REMARK SMILES IDX 43 69 51 70 44 71 45 72 49 73 52 74 46 75 47 76 50 77 48 78
REMARK SMILES IDX 74 79 75 80 83 81 76 82 77 83 81 84 84 85 78 86 79 87 82 88
REMARK SMILES IDX 80 89 59 90 60 91 68 92 61 93 62 94 66 95 69 96 63 97 64 98
REMARK SMILES IDX 67 99 65 100
REMARK H PARENT 26 5 6 13 30 34 89 53 57 64
REMARK Flexibility Score: inf
ROOT
ATOM      1  C   UNL     1       1.407   7.511   4.115  1.00  0.00     0.117 C 
ENDROOT
BRANCH   1   2
ATOM      2  N   UNL     1       0.978   6.141   4.317  1.00  0.00    -0.354 N 
ATOM      3  C   UNL     1       1.595   4.934   4.429  1.00  0.00     0.242 C 
ATOM      4  O   UNL     1       0.909   4.025   4.924  1.00  0.00    -0.273 OA
ATOM      5  H   UNL     1      -0.001   6.066   4.391  1.00  0.00     0.163 HD
BRANCH   3   6
ATOM      6  C   UNL     1       3.051   4.605   4.039  1.00  0.00     0.174 C 
BRANCH   6   7
ATOM      7  C   UNL     1       4.034   5.227   5.117  1.00  0.00     0.018 C 
ATOM      8  C   UNL     1       3.387   5.184   6.525  1.00  0.00     0.010 C 
BRANCH   7   9
ATOM      9  C   UNL     1       4.681   6.598   4.793  1.00  0.00     0.002 C 
ATOM     10  C   UNL     1       4.578   7.697   5.863  1.00  0.00     0.004 C 
ENDBRANCH   7   9
ENDBRANCH   6   7
BRANCH   6  11
ATOM     11  N   UNL     1       3.420   4.664   2.593  1.00  0.00    -0.344 N 
ATOM     12  C   UNL     1       2.823   3.961   1.517  1.00  0.00     0.225 C 
ATOM     13  H   UNL     1       4.167   5.262   2.360  1.00  0.00     0.164 HD
ATOM     14  O   UNL     1       3.485   3.735   0.506  1.00  0.00    -0.275 OA
BRANCH  12  15
ATOM     15  C   UNL     1       1.306   3.688   1.585  1.00  0.00     0.094 C 
ATOM     16  C   UNL     1       0.703   5.078   1.498  1.00  0.00     0.016 C 
ATOM     17  C   UNL     1       0.437   2.869   0.581  1.00  0.00     0.116 C 
ATOM     18  C   UNL     1      -0.623   5.040   2.203  1.00  0.00     0.018 C 
ATOM     19  N   UNL     1      -1.031   2.886   1.089  1.00  0.00    -0.197 NA
ATOM     20  C   UNL     1      -1.565   4.242   1.383  1.00  0.00     0.102 C 
BRANCH  19  21
ATOM     21  S   UNL     1      -2.219   1.969   0.236  1.00  0.00     0.243 S 
ATOM     22  O   UNL     1      -2.796   2.821  -0.780  1.00  0.00    -0.207 OA
ATOM     23  O   UNL     1      -1.638   0.682  -0.096  1.00  0.00    -0.207 OA
BRANCH  21  24
ATOM     24  C   UNL     1      -3.488   1.702   1.496  1.00  0.00     0.082 A 
ATOM     25  C   UNL     1      -3.648   0.432   2.048  1.00  0.00     0.022 A 
ATOM     26  C   UNL     1      -4.293   2.759   1.957  1.00  0.00     0.022 A 
ATOM     27  C   UNL     1      -4.522   0.249   3.126  1.00  0.00     0.001 A 
ATOM     28  C   UNL     1      -5.095   2.592   3.090  1.00  0.00     0.001 A 
ATOM     29  C   UNL     1      -5.205   1.335   3.676  1.00  0.00     0.000 A 
ENDBRANCH  21  24
ENDBRANCH  19  21
ENDBRANCH  12  15
ENDBRANCH   6  11
ENDBRANCH   3   6
ENDBRANCH   1   2
BRANCH   1  30
ATOM     30  C   UNL     1       1.543   8.139   2.723  1.00  0.00     0.042 C 
BRANCH  30  31
ATOM     31  C   UNL     1       0.321   8.351   1.822  1.00  0.00     0.118 C 
BRANCH  31  32
ATOM     32  N   UNL     1      -0.895   8.786   2.473  1.00  0.00    -0.352 N 
ATOM     33  C   UNL     1      -2.000   9.339   1.866  1.00  0.00     0.251 C 
ATOM     34  H   UNL     1      -0.937   8.675   3.451  1.00  0.00     0.163 HD
ATOM     35  O   UNL     1      -2.974   9.683   2.525  1.00  0.00    -0.269 OA
BRANCH  33  36
ATOM     36  C   UNL     1      -1.988   9.549   0.402  1.00  0.00     0.039 A 
ATOM     37  C   UNL     1      -1.965  10.857  -0.085  1.00  0.00     0.014 A 
ATOM     38  C   UNL     1      -1.997   8.464  -0.479  1.00  0.00     0.014 A 
ATOM     39  C   UNL     1      -1.910  11.081  -1.463  1.00  0.00     0.010 A 
ATOM     40  C   UNL     1      -1.905   8.692  -1.857  1.00  0.00     0.010 A 
ATOM     41  C   UNL     1      -1.856  10.002  -2.362  1.00  0.00    -0.014 A 
BRANCH  41  42
ATOM     42  C   UNL     1      -1.726  10.247  -3.826  1.00  0.00     0.031 A 
ATOM     43  C   UNL     1      -2.844   9.899  -4.768  1.00  0.00     0.074 A 
ATOM     44  C   UNL     1      -0.580  10.761  -4.316  1.00  0.00     0.049 A 
ATOM     45  N   UNL     1      -2.902  10.028  -6.071  1.00  0.00    -0.248 NA
ATOM     46  C   UNL     1      -4.051   9.314  -4.168  1.00  0.00     0.031 C 
ATOM     47  C   UNL     1       0.594  11.110  -3.516  1.00  0.00     0.029 A 
ATOM     48  N   UNL     1      -0.208  11.067  -5.603  1.00  0.00    -0.354 N 
ATOM     49  C   UNL     1      -4.146   9.538  -6.446  1.00  0.00     0.074 A 
ATOM     50  C   UNL     1      -4.790   9.062  -5.239  1.00  0.00     0.031 C 
ATOM     51  C   UNL     1       1.550  11.590  -4.326  1.00  0.00     0.029 A 
ATOM     52  C   UNL     1       1.075  11.546  -5.707  1.00  0.00     0.049 A 
ATOM     53  H   UNL     1      -0.805  10.953  -6.378  1.00  0.00     0.167 HD
ATOM     54  C   UNL     1      -4.708   9.503  -7.680  1.00  0.00     0.037 A 
ATOM     55  C   UNL     1       1.798  11.894  -6.790  1.00  0.00     0.037 A 
ATOM     56  C   UNL     1      -4.063   9.973  -8.880  1.00  0.00     0.049 A 
ATOM     57  C   UNL     1       1.168  11.813  -8.155  1.00  0.00     0.074 A 
ATOM     58  C   UNL     1      -4.569  10.027 -10.168  1.00  0.00     0.029 A 
ATOM     59  N   UNL     1      -2.761  10.450  -8.945  1.00  0.00    -0.354 N 
ATOM     60  N   UNL     1      -0.039  11.425  -8.487  1.00  0.00    -0.248 NA
ATOM     61  C   UNL     1       1.997  12.227  -9.296  1.00  0.00     0.031 C 
ATOM     62  C   UNL     1      -3.554  10.473 -11.020  1.00  0.00     0.029 A 
ATOM     63  C   UNL     1      -2.437  10.767 -10.255  1.00  0.00     0.049 A 
ATOM     64  H   UNL     1      -2.157  10.550  -8.174  1.00  0.00     0.167 HD
ATOM     65  C   UNL     1      -0.124  11.571  -9.866  1.00  0.00     0.074 A 
ATOM     66  C   UNL     1       1.150  12.098 -10.308  1.00  0.00     0.031 C 
ATOM     67  C   UNL     1      -1.166  11.295 -10.688  1.00  0.00     0.037 A 
BRANCH  54  68
ATOM     68  C   UNL     1      -6.089   8.917  -7.797  1.00  0.00     0.064 A 
ATOM     69  C   UNL     1      -7.210   9.550  -7.237  1.00  0.00     0.173 A 
ATOM     70  C   UNL     1      -6.298   7.719  -8.498  1.00  0.00     0.173 A 
ATOM     71  F   UNL     1      -7.068  10.697  -6.555  1.00  0.00    -0.203 F 
ATOM     72  C   UNL     1      -8.479   8.983  -7.335  1.00  0.00     0.198 A 
ATOM     73  C   UNL     1      -7.574   7.174  -8.625  1.00  0.00     0.198 A 
ATOM     74  F   UNL     1      -5.267   7.078  -9.067  1.00  0.00    -0.203 F 
ATOM     75  F   UNL     1      -9.522   9.575  -6.737  1.00  0.00    -0.200 F 
ATOM     76  C   UNL     1      -8.660   7.799  -8.033  1.00  0.00     0.200 A 
ATOM     77  F   UNL     1      -7.750   6.041  -9.318  1.00  0.00    -0.200 F 
ATOM     78  F   UNL     1      -9.882   7.256  -8.128  1.00  0.00    -0.200 F 
ENDBRANCH  54  68
BRANCH  55  79
ATOM     79  C   UNL     1       3.204  12.349  -6.622  1.00  0.00     0.064 A 
ATOM     80  C   UNL     1       3.575  13.676  -6.878  1.00  0.00     0.173 A 
ATOM     81  C   UNL     1       4.206  11.464  -6.194  1.00  0.00     0.173 A 
ATOM     82  F   UNL     1       2.659  14.556  -7.309  1.00  0.00    -0.203 F 
ATOM     83  C   UNL     1       4.895  14.097  -6.728  1.00  0.00     0.198 A 
ATOM     84  C   UNL     1       5.518  11.894  -6.013  1.00  0.00     0.198 A 
ATOM     85  F   UNL     1       3.904  10.185  -5.930  1.00  0.00    -0.203 F 
ATOM     86  F   UNL     1       5.231  15.361  -7.021  1.00  0.00    -0.200 F 
ATOM     87  C   UNL     1       5.864  13.208  -6.288  1.00  0.00     0.200 A 
ATOM     88  F   UNL     1       6.447  11.036  -5.568  1.00  0.00    -0.200 F 
ATOM     89  F   UNL     1       7.131  13.616  -6.132  1.00  0.00    -0.200 F 
ENDBRANCH  55  79
BRANCH  67  90
ATOM     90  C   UNL     1      -0.995  11.589 -12.153  1.00  0.00     0.064 A 
ATOM     91  C   UNL     1      -0.152  10.821 -12.969  1.00  0.00     0.173 A 
ATOM     92  C   UNL     1      -1.733  12.618 -12.759  1.00  0.00     0.173 A 
ATOM     93  F   UNL     1       0.588   9.836 -12.439  1.00  0.00    -0.203 F 
ATOM     94  C   UNL     1      -0.041  11.084 -14.333  1.00  0.00     0.198 A 
ATOM     95  C   UNL     1      -1.645  12.857 -14.127  1.00  0.00     0.198 A 
ATOM     96  F   UNL     1      -2.558  13.381 -12.025  1.00  0.00    -0.203 F 
ATOM     97  F   UNL     1       0.803  10.365 -15.086  1.00  0.00    -0.200 F 
ATOM     98  C   UNL     1      -0.795  12.094 -14.912  1.00  0.00     0.200 A 
ATOM     99  F   UNL     1      -2.387  13.822 -14.687  1.00  0.00    -0.200 F 
ATOM    100  F   UNL     1      -0.698  12.334 -16.227  1.00  0.00    -0.200 F 
ENDBRANCH  67  90
ENDBRANCH  41  42
ENDBRANCH  33  36
ENDBRANCH  31  32
ENDBRANCH  30  31
ENDBRANCH   1  30
TORSDOF 16
