REMARK SMILES CSCC[C@@H](NC1=[NH+]S(=O)(=O)c2ccccc21)C(=O)NCCCNC(=O)c1ccc(-c2c3nc(c(-c4c(F)c(F)c(F)c(F)c4F)c4ccc([nH]4)c(-c4c(F)c(F)c(F)c(F)c4F)c4nc(c(-c5c(F)c(F)c(F)c(F)c5F)c5ccc2[nH]5)C=C4)C=C3)cc1
REMARK SMILES IDX 21 1 20 2 18 3 19 4 5 6 4 7 3 8 2 9 1 10 6 11 7 12 8 14
REMARK SMILES IDX 17 15 9 16 12 18 16 19 10 20 11 21 13 22 15 23 14 24 22 25
REMARK SMILES IDX 23 26 24 27 25 28 26 30 27 31 28 32 89 33 29 34 88 35 30 36
REMARK SMILES IDX 31 37 32 38 82 39 33 40 87 41 81 42 83 43 34 44 86 45 80 46
REMARK SMILES IDX 79 47 35 49 67 50 47 51 66 52 48 53 51 54 65 55 84 56 49 57
REMARK SMILES IDX 50 58 64 60 85 61 52 62 36 63 37 64 45 65 38 66 39 67 43 68
REMARK SMILES IDX 46 69 40 70 41 71 44 72 42 73 68 74 69 75 77 76 70 77 71 78
REMARK SMILES IDX 75 79 78 80 72 81 73 82 76 83 74 84 53 85 54 86 62 87 55 88
REMARK SMILES IDX 56 89 60 90 63 91 57 92 58 93 61 94 59 95
REMARK H PARENT 20 5 6 13 8 17 24 29 83 48 51 59
REMARK Flexibility Score: inf
ROOT
ATOM      1  C   UNL     1       1.706   4.593   3.296  1.00  0.00     0.118 C 
ENDROOT
BRANCH   1   2
ATOM      2  N   UNL     1       0.775   3.541   3.658  1.00  0.00    -0.352 N 
ATOM      3  C   UNL     1       0.565   2.310   3.099  1.00  0.00     0.264 C 
ATOM      4  O   UNL     1      -0.288   1.589   3.627  1.00  0.00    -0.270 OA
ATOM      5  H   UNL     1       0.201   3.746   4.431  1.00  0.00     0.163 HD
BRANCH   3   6
ATOM      6  C   UNL     1       1.267   1.874   1.789  1.00  0.00     0.262 C 
BRANCH   6   7
ATOM      7  C   UNL     1       0.580   2.630   0.637  1.00  0.00     0.071 C 
BRANCH   7   8
ATOM      8  C   UNL     1       0.980   2.228  -0.780  1.00  0.00     0.074 C 
BRANCH   8   9
ATOM      9  S   UNL     1       0.110   0.771  -1.435  1.00  0.00    -0.165 SA
ATOM     10  C   UNL     1       1.075  -0.562  -0.686  1.00  0.00     0.085 C 
ENDBRANCH   8   9
ENDBRANCH   7   8
ENDBRANCH   6   7
BRANCH   6  11
ATOM     11  N   UNL     1       2.724   2.103   1.792  1.00  0.00    -0.261 N 
ATOM     12  C   UNL     1       3.509   2.064   2.920  1.00  0.00     0.292 C 
ATOM     13  H   UNL     1       3.162   2.296   0.932  1.00  0.00     0.306 HD
ATOM     14  N   UNL     1       3.190   1.444   4.016  1.00  0.00    -0.162 N 
ATOM     15  C   UNL     1       4.745   2.880   2.989  1.00  0.00     0.087 A 
ATOM     16  S   UNL     1       4.236   1.803   5.228  1.00  0.00     0.329 S 
ATOM     17  H   UNL     1       2.420   0.836   4.107  1.00  0.00     0.327 HD
ATOM     18  C   UNL     1       5.236   2.864   4.279  1.00  0.00     0.124 A 
ATOM     19  C   UNL     1       5.305   3.713   2.035  1.00  0.00     0.018 A 
ATOM     20  O   UNL     1       5.037   0.656   5.576  1.00  0.00    -0.179 OA
ATOM     21  O   UNL     1       3.574   2.639   6.213  1.00  0.00    -0.179 OA
ATOM     22  C   UNL     1       6.266   3.677   4.707  1.00  0.00     0.025 A 
ATOM     23  C   UNL     1       6.367   4.536   2.429  1.00  0.00     0.001 A 
ATOM     24  C   UNL     1       6.838   4.524   3.756  1.00  0.00     0.002 A 
ENDBRANCH   6  11
ENDBRANCH   3   6
ENDBRANCH   1   2
BRANCH   1  25
ATOM     25  C   UNL     1       1.046   5.956   3.213  1.00  0.00     0.042 C 
BRANCH  25  26
ATOM     26  C   UNL     1       0.527   6.465   4.549  1.00  0.00     0.118 C 
BRANCH  26  27
ATOM     27  N   UNL     1       1.594   6.732   5.506  1.00  0.00    -0.352 N 
ATOM     28  C   UNL     1       1.964   7.914   6.101  1.00  0.00     0.251 C 
ATOM     29  H   UNL     1       2.128   5.947   5.766  1.00  0.00     0.163 HD
ATOM     30  O   UNL     1       3.010   7.984   6.739  1.00  0.00    -0.269 OA
BRANCH  28  31
ATOM     31  C   UNL     1       1.117   9.116   5.946  1.00  0.00     0.039 A 
ATOM     32  C   UNL     1       1.727  10.347   5.689  1.00  0.00     0.014 A 
ATOM     33  C   UNL     1      -0.273   9.031   6.050  1.00  0.00     0.014 A 
ATOM     34  C   UNL     1       0.938  11.474   5.452  1.00  0.00     0.010 A 
ATOM     35  C   UNL     1      -1.059  10.132   5.728  1.00  0.00     0.010 A 
ATOM     36  C   UNL     1      -0.461  11.364   5.427  1.00  0.00    -0.014 A 
BRANCH  36  37
ATOM     37  C   UNL     1      -1.326  12.523   5.096  1.00  0.00     0.031 A 
ATOM     38  C   UNL     1      -2.289  13.055   6.120  1.00  0.00     0.074 A 
ATOM     39  C   UNL     1      -1.309  13.035   3.851  1.00  0.00     0.049 A 
ATOM     40  N   UNL     1      -3.210  13.976   5.990  1.00  0.00    -0.248 NA
ATOM     41  C   UNL     1      -2.234  12.445   7.457  1.00  0.00     0.031 C 
ATOM     42  C   UNL     1      -0.462  12.567   2.753  1.00  0.00     0.029 A 
ATOM     43  N   UNL     1      -2.040  14.054   3.295  1.00  0.00    -0.354 N 
ATOM     44  C   UNL     1      -3.862  14.030   7.214  1.00  0.00     0.074 A 
ATOM     45  C   UNL     1      -3.260  13.024   8.062  1.00  0.00     0.031 C 
ATOM     46  C   UNL     1      -0.705  13.310   1.662  1.00  0.00     0.029 A 
ATOM     47  C   UNL     1      -1.747  14.283   1.973  1.00  0.00     0.049 A 
ATOM     48  H   UNL     1      -2.710  14.573   3.796  1.00  0.00     0.167 HD
ATOM     49  C   UNL     1      -4.861  14.857   7.602  1.00  0.00     0.037 A 
ATOM     50  C   UNL     1      -2.266  15.176   1.109  1.00  0.00     0.037 A 
ATOM     51  C   UNL     1      -5.422  15.892   6.777  1.00  0.00     0.049 A 
ATOM     52  C   UNL     1      -3.340  16.116   1.580  1.00  0.00     0.074 A 
ATOM     53  C   UNL     1      -6.381  16.835   7.104  1.00  0.00     0.029 A 
ATOM     54  N   UNL     1      -5.064  16.126   5.457  1.00  0.00    -0.354 N 
ATOM     55  N   UNL     1      -3.910  16.195   2.757  1.00  0.00    -0.248 NA
ATOM     56  C   UNL     1      -3.839  17.094   0.603  1.00  0.00     0.031 C 
ATOM     57  C   UNL     1      -6.620  17.625   5.974  1.00  0.00     0.029 A 
ATOM     58  C   UNL     1      -5.789  17.193   4.954  1.00  0.00     0.049 A 
ATOM     59  H   UNL     1      -4.394  15.610   4.954  1.00  0.00     0.167 HD
ATOM     60  C   UNL     1      -4.819  17.239   2.670  1.00  0.00     0.074 A 
ATOM     61  C   UNL     1      -4.716  17.774   1.328  1.00  0.00     0.031 C 
ATOM     62  C   UNL     1      -5.665  17.712   3.617  1.00  0.00     0.037 A 
BRANCH  49  63
ATOM     63  C   UNL     1      -5.403  14.681   8.989  1.00  0.00     0.064 A 
ATOM     64  C   UNL     1      -4.667  15.070  10.118  1.00  0.00     0.173 A 
ATOM     65  C   UNL     1      -6.681  14.139   9.190  1.00  0.00     0.173 A 
ATOM     66  F   UNL     1      -3.433  15.579   9.976  1.00  0.00    -0.203 F 
ATOM     67  C   UNL     1      -5.180  14.898  11.400  1.00  0.00     0.198 A 
ATOM     68  C   UNL     1      -7.201  13.992  10.473  1.00  0.00     0.198 A 
ATOM     69  F   UNL     1      -7.425  13.754   8.143  1.00  0.00    -0.203 F 
ATOM     70  F   UNL     1      -4.440  15.235  12.466  1.00  0.00    -0.200 F 
ATOM     71  C   UNL     1      -6.448  14.365  11.577  1.00  0.00     0.200 A 
ATOM     72  F   UNL     1      -8.429  13.484  10.643  1.00  0.00    -0.200 F 
ATOM     73  F   UNL     1      -6.941  14.203  12.812  1.00  0.00    -0.200 F 
ENDBRANCH  49  63
BRANCH  50  74
ATOM     74  C   UNL     1      -1.750  15.244  -0.280  1.00  0.00     0.064 A 
ATOM     75  C   UNL     1      -0.924  16.302  -0.684  1.00  0.00     0.173 A 
ATOM     76  C   UNL     1      -2.058  14.255  -1.225  1.00  0.00     0.173 A 
ATOM     77  F   UNL     1      -0.620  17.280   0.182  1.00  0.00    -0.203 F 
ATOM     78  C   UNL     1      -0.436  16.376  -1.986  1.00  0.00     0.198 A 
ATOM     79  C   UNL     1      -1.551  14.319  -2.521  1.00  0.00     0.198 A 
ATOM     80  F   UNL     1      -2.838  13.220  -0.883  1.00  0.00    -0.203 F 
ATOM     81  F   UNL     1       0.326  17.415  -2.355  1.00  0.00    -0.200 F 
ATOM     82  C   UNL     1      -0.745  15.382  -2.902  1.00  0.00     0.200 A 
ATOM     83  F   UNL     1      -1.842  13.351  -3.401  1.00  0.00    -0.200 F 
ATOM     84  F   UNL     1      -0.270  15.450  -4.153  1.00  0.00    -0.200 F 
ENDBRANCH  50  74
BRANCH  62  85
ATOM     85  C   UNL     1      -6.527  18.878   3.241  1.00  0.00     0.064 A 
ATOM     86  C   UNL     1      -7.655  18.718   2.425  1.00  0.00     0.173 A 
ATOM     87  C   UNL     1      -6.243  20.159   3.736  1.00  0.00     0.173 A 
ATOM     88  F   UNL     1      -7.955  17.513   1.917  1.00  0.00    -0.203 F 
ATOM     89  C   UNL     1      -8.462  19.805   2.104  1.00  0.00     0.198 A 
ATOM     90  C   UNL     1      -7.064  21.240   3.429  1.00  0.00     0.198 A 
ATOM     91  F   UNL     1      -5.175  20.359   4.522  1.00  0.00    -0.203 F 
ATOM     92  F   UNL     1      -9.516  19.639   1.294  1.00  0.00    -0.200 F 
ATOM     93  C   UNL     1      -8.169  21.063   2.610  1.00  0.00     0.200 A 
ATOM     94  F   UNL     1      -6.784  22.454   3.924  1.00  0.00    -0.200 F 
ATOM     95  F   UNL     1      -8.950  22.108   2.303  1.00  0.00    -0.200 F 
ENDBRANCH  62  85
ENDBRANCH  36  37
ENDBRANCH  28  31
ENDBRANCH  26  27
ENDBRANCH  25  26
ENDBRANCH   1  25
TORSDOF 14
