REMARK SMILES CC1(C)S[C@H](c2ccc(-c3ccccc3)o2)[NH2+][C@H]1C(=O)NCCCNC(=O)c1ccc(-c2c3nc(c(-c4c(F)c(F)c(F)c(F)c4F)c4ccc([nH]4)c(-c4c(F)c(F)c(F)c(F)c4F)c4nc(c(-c5c(F)c(F)c(F)c(F)c5F)c5ccc2[nH]5)C=C4)C=C3)cc1
REMARK SMILES IDX 23 1 22 2 21 3 19 4 20 5 18 7 1 8 2 9 3 10 4 11 5 12 17 13
REMARK SMILES IDX 6 16 7 17 16 18 8 19 9 20 10 21 11 22 15 23 12 24 14 25
REMARK SMILES IDX 13 26 24 27 25 28 26 29 27 31 28 32 29 33 90 34 30 35 89 36
REMARK SMILES IDX 31 37 32 38 33 39 83 40 34 41 88 42 82 43 84 44 35 45 87 46
REMARK SMILES IDX 81 47 80 48 36 50 68 51 48 52 67 53 49 54 52 55 66 56 85 57
REMARK SMILES IDX 50 58 51 59 65 61 86 62 53 63 37 64 38 65 46 66 39 67 40 68
REMARK SMILES IDX 44 69 47 70 41 71 42 72 45 73 43 74 69 75 70 76 78 77 71 78
REMARK SMILES IDX 72 79 76 80 79 81 73 82 74 83 77 84 75 85 54 86 55 87 63 88
REMARK SMILES IDX 56 89 57 90 61 91 64 92 58 93 59 94 62 95 60 96
REMARK H PARENT 21 6 17 14 17 15 25 30 84 49 52 60
REMARK Flexibility Score: inf
ROOT
ATOM      1  C   UNL     1       1.125   2.227   3.413  1.00  0.00     0.042 C 
ENDROOT
BRANCH   1   2
ATOM      2  C   UNL     1      -0.003   2.419   2.399  1.00  0.00     0.118 C 
BRANCH   2   3
ATOM      3  N   UNL     1       0.466   2.932   1.118  1.00  0.00    -0.351 N 
ATOM      4  C   UNL     1       0.498   2.468  -0.162  1.00  0.00     0.279 C 
ATOM      5  O   UNL     1       1.087   3.200  -0.969  1.00  0.00    -0.268 OA
ATOM      6  H   UNL     1       0.856   3.832   1.198  1.00  0.00     0.163 HD
BRANCH   4   7
ATOM      7  C   UNL     1      -0.061   1.110  -0.638  1.00  0.00     0.289 C 
ATOM      8  C   UNL     1       1.654  -0.140   0.896  1.00  0.00     0.030 C 
ATOM      9  C   UNL     1       0.906  -0.075  -0.432  1.00  0.00     0.078 C 
ATOM     10  C   UNL     1       1.912  -0.178  -1.584  1.00  0.00     0.030 C 
ATOM     11  S   UNL     1      -0.190  -1.529  -0.475  1.00  0.00    -0.078 SA
ATOM     12  C   UNL     1      -1.723  -0.577  -0.319  1.00  0.00     0.311 C 
ATOM     13  N   UNL     1      -1.425   0.842  -0.135  1.00  0.00    -0.317 N 
ATOM     14  H   UNL     1      -1.477   1.078   0.856  1.00  0.00     0.348 HD
ATOM     15  H   UNL     1      -2.101   1.409  -0.647  1.00  0.00     0.348 HD
BRANCH  12  16
ATOM     16  C   UNL     1      -2.637  -0.897  -1.456  1.00  0.00     0.172 A 
ATOM     17  C   UNL     1      -3.415  -2.016  -1.694  1.00  0.00     0.054 A 
ATOM     18  O   UNL     1      -2.780  -0.008  -2.488  1.00  0.00    -0.454 OA
ATOM     19  C   UNL     1      -4.083  -1.792  -2.915  1.00  0.00     0.051 A 
ATOM     20  C   UNL     1      -3.678  -0.552  -3.363  1.00  0.00     0.134 A 
BRANCH  20  21
ATOM     21  C   UNL     1      -4.035   0.236  -4.532  1.00  0.00     0.017 A 
ATOM     22  C   UNL     1      -3.066   0.931  -5.266  1.00  0.00     0.012 A 
ATOM     23  C   UNL     1      -5.367   0.266  -4.972  1.00  0.00     0.012 A 
ATOM     24  C   UNL     1      -3.421   1.623  -6.428  1.00  0.00     0.001 A 
ATOM     25  C   UNL     1      -5.723   0.968  -6.125  1.00  0.00     0.001 A 
ATOM     26  C   UNL     1      -4.748   1.640  -6.857  1.00  0.00     0.000 A 
ENDBRANCH  20  21
ENDBRANCH  12  16
ENDBRANCH   4   7
ENDBRANCH   2   3
ENDBRANCH   1   2
BRANCH   1  27
ATOM     27  C   UNL     1       1.838   3.506   3.825  1.00  0.00     0.118 C 
BRANCH  27  28
ATOM     28  N   UNL     1       1.124   4.226   4.865  1.00  0.00    -0.352 N 
ATOM     29  C   UNL     1       1.400   4.352   6.207  1.00  0.00     0.251 C 
ATOM     30  H   UNL     1       0.315   4.698   4.562  1.00  0.00     0.163 HD
ATOM     31  O   UNL     1       0.548   4.827   6.952  1.00  0.00    -0.269 OA
BRANCH  29  32
ATOM     32  C   UNL     1       2.698   3.909   6.773  1.00  0.00     0.039 A 
ATOM     33  C   UNL     1       2.706   3.298   8.032  1.00  0.00     0.014 A 
ATOM     34  C   UNL     1       3.909   4.144   6.117  1.00  0.00     0.014 A 
ATOM     35  C   UNL     1       3.914   2.881   8.603  1.00  0.00     0.010 A 
ATOM     36  C   UNL     1       5.102   3.652   6.645  1.00  0.00     0.010 A 
ATOM     37  C   UNL     1       5.121   3.030   7.903  1.00  0.00    -0.014 A 
BRANCH  37  38
ATOM     38  C   UNL     1       6.414   2.582   8.485  1.00  0.00     0.031 A 
ATOM     39  C   UNL     1       7.492   3.586   8.796  1.00  0.00     0.074 A 
ATOM     40  C   UNL     1       6.643   1.270   8.690  1.00  0.00     0.049 A 
ATOM     41  N   UNL     1       8.709   3.388   9.239  1.00  0.00    -0.248 NA
ATOM     42  C   UNL     1       7.168   5.001   8.551  1.00  0.00     0.031 C 
ATOM     43  C   UNL     1       5.701   0.191   8.394  1.00  0.00     0.029 A 
ATOM     44  N   UNL     1       7.745   0.622   9.190  1.00  0.00    -0.354 N 
ATOM     45  C   UNL     1       9.299   4.644   9.302  1.00  0.00     0.074 A 
ATOM     46  C   UNL     1       8.325   5.593   8.807  1.00  0.00     0.031 C 
ATOM     47  C   UNL     1       6.254  -0.983   8.740  1.00  0.00     0.029 A 
ATOM     48  C   UNL     1       7.601  -0.743   9.251  1.00  0.00     0.049 A 
ATOM     49  H   UNL     1       8.562   1.091   9.477  1.00  0.00     0.167 HD
ATOM     50  C   UNL     1      10.530   4.981   9.754  1.00  0.00     0.037 A 
ATOM     51  C   UNL     1       8.459  -1.693   9.670  1.00  0.00     0.037 A 
ATOM     52  C   UNL     1      11.485   4.046  10.285  1.00  0.00     0.049 A 
ATOM     53  C   UNL     1       9.815  -1.291  10.181  1.00  0.00     0.074 A 
ATOM     54  C   UNL     1      12.736   4.298  10.823  1.00  0.00     0.029 A 
ATOM     55  N   UNL     1      11.291   2.674  10.352  1.00  0.00    -0.354 N 
ATOM     56  N   UNL     1      10.340  -0.095  10.284  1.00  0.00    -0.248 NA
ATOM     57  C   UNL     1      10.697  -2.374  10.639  1.00  0.00     0.031 C 
ATOM     58  C   UNL     1      13.312   3.076  11.186  1.00  0.00     0.029 A 
ATOM     59  C   UNL     1      12.405   2.066  10.910  1.00  0.00     0.049 A 
ATOM     60  H   UNL     1      10.483   2.203  10.048  1.00  0.00     0.167 HD
ATOM     61  C   UNL     1      11.598  -0.277  10.841  1.00  0.00     0.074 A 
ATOM     62  C   UNL     1      11.755  -1.699  11.066  1.00  0.00     0.031 C 
ATOM     63  C   UNL     1      12.540   0.651  11.137  1.00  0.00     0.037 A 
BRANCH  50  64
ATOM     64  C   UNL     1      10.913   6.432   9.703  1.00  0.00     0.064 A 
ATOM     65  C   UNL     1      10.336   7.374  10.568  1.00  0.00     0.173 A 
ATOM     66  C   UNL     1      11.892   6.880   8.803  1.00  0.00     0.173 A 
ATOM     67  F   UNL     1       9.386   6.998  11.438  1.00  0.00    -0.203 F 
ATOM     68  C   UNL     1      10.703   8.716  10.513  1.00  0.00     0.198 A 
ATOM     69  C   UNL     1      12.277   8.218   8.771  1.00  0.00     0.198 A 
ATOM     70  F   UNL     1      12.479   6.019   7.958  1.00  0.00    -0.203 F 
ATOM     71  F   UNL     1      10.103   9.605  11.316  1.00  0.00    -0.200 F 
ATOM     72  C   UNL     1      11.677   9.136   9.620  1.00  0.00     0.200 A 
ATOM     73  F   UNL     1      13.226   8.620   7.915  1.00  0.00    -0.200 F 
ATOM     74  F   UNL     1      12.033  10.427   9.573  1.00  0.00    -0.200 F 
ENDBRANCH  50  64
BRANCH  51  75
ATOM     75  C   UNL     1       8.046  -3.120   9.656  1.00  0.00     0.064 A 
ATOM     76  C   UNL     1       7.785  -3.801  10.853  1.00  0.00     0.173 A 
ATOM     77  C   UNL     1       7.907  -3.830   8.456  1.00  0.00     0.173 A 
ATOM     78  F   UNL     1       7.926  -3.168  12.027  1.00  0.00    -0.203 F 
ATOM     79  C   UNL     1       7.415  -5.144  10.851  1.00  0.00     0.198 A 
ATOM     80  C   UNL     1       7.513  -5.166   8.453  1.00  0.00     0.198 A 
ATOM     81  F   UNL     1       8.143  -3.221   7.284  1.00  0.00    -0.203 F 
ATOM     82  F   UNL     1       7.209  -5.782  12.011  1.00  0.00    -0.200 F 
ATOM     83  C   UNL     1       7.274  -5.824   9.651  1.00  0.00     0.200 A 
ATOM     84  F   UNL     1       7.367  -5.817   7.291  1.00  0.00    -0.200 F 
ATOM     85  F   UNL     1       6.914  -7.115   9.649  1.00  0.00    -0.200 F 
ENDBRANCH  51  75
BRANCH  63  86
ATOM     86  C   UNL     1      13.811   0.163  11.767  1.00  0.00     0.064 A 
ATOM     87  C   UNL     1      14.781  -0.524  11.024  1.00  0.00     0.173 A 
ATOM     88  C   UNL     1      14.076   0.420  13.120  1.00  0.00     0.173 A 
ATOM     89  F   UNL     1      14.566  -0.806   9.730  1.00  0.00    -0.203 F 
ATOM     90  C   UNL     1      15.963  -0.956  11.620  1.00  0.00     0.198 A 
ATOM     91  C   UNL     1      15.270   0.009  13.706  1.00  0.00     0.198 A 
ATOM     92  F   UNL     1      13.181   1.079  13.872  1.00  0.00    -0.203 F 
ATOM     93  F   UNL     1      16.859  -1.648  10.902  1.00  0.00    -0.200 F 
ATOM     94  C   UNL     1      16.209  -0.684  12.957  1.00  0.00     0.200 A 
ATOM     95  F   UNL     1      15.511   0.281  14.996  1.00  0.00    -0.200 F 
ATOM     96  F   UNL     1      17.350  -1.097  13.527  1.00  0.00    -0.200 F 
ENDBRANCH  63  86
ENDBRANCH  37  38
ENDBRANCH  29  32
ENDBRANCH  27  28
ENDBRANCH   1  27
TORSDOF 12
