REMARK SMILES CC(C)C[C@H](NC(=O)[C@@H](NC(=O)[C@H](C)NC(=O)CNC(=O)OCc1ccccc1)C(C)C)C(=O)NCCCNC(=O)c1ccc(-c2c3nc(c(-c4c(F)c(F)c(F)c(F)c4F)c4ccc([nH]4)c(-c4c(F)c(F)c(F)c(F)c4F)c4nc(c(-c5c(F)c(F)c(F)c(F)c5F)c5ccc2[nH]5)C=C4)C=C3)cc1
REMARK SMILES IDX 6 1 7 2 8 3 5 5 4 6 2 7 1 8 3 9 33 10 34 11 35 12 36 14
REMARK SMILES IDX 37 15 38 16 39 17 40 18 41 20 42 21 43 22 104 23 44 24
REMARK SMILES IDX 103 25 45 26 46 27 47 28 97 29 48 30 102 31 96 32 98 33
REMARK SMILES IDX 49 34 101 35 95 36 94 37 50 39 82 40 62 41 81 42 63 43 66 44
REMARK SMILES IDX 80 45 99 46 64 47 65 48 79 50 100 51 67 52 51 53 52 54 60 55
REMARK SMILES IDX 53 56 54 57 58 58 61 59 55 60 56 61 59 62 57 63 83 64 84 65
REMARK SMILES IDX 92 66 85 67 86 68 90 69 93 70 87 71 88 72 91 73 89 74 68 75
REMARK SMILES IDX 69 76 77 77 70 78 71 79 75 80 78 81 72 82 73 83 76 84 74 85
REMARK SMILES IDX 9 86 10 87 11 88 12 90 13 91 14 92 15 93 16 94 17 96 18 97
REMARK SMILES IDX 19 98 20 99 21 101 22 102 23 103 24 104 25 105 29 106 26 107
REMARK SMILES IDX 28 108 27 109 30 110 31 111 32 112
REMARK H PARENT 6 4 35 13 39 19 98 38 66 49 10 89 15 95 19 100
REMARK Flexibility Score: inf
ROOT
ATOM      1  N   UNL     1       0.084   0.437   2.517  1.00  0.00    -0.343 N 
ATOM      2  C   UNL     1       0.379  -0.313   1.425  1.00  0.00     0.243 C 
ATOM      3  O   UNL     1       0.662  -1.499   1.630  1.00  0.00    -0.273 OA
ATOM      4  H   UNL     1       0.197  -0.016   3.383  1.00  0.00     0.164 HD
ENDROOT
BRANCH   1   5
ATOM      5  C   UNL     1      -0.376   1.814   2.589  1.00  0.00     0.171 C 
BRANCH   5   6
ATOM      6  C   UNL     1      -1.900   1.897   2.384  1.00  0.00     0.038 C 
BRANCH   6   7
ATOM      7  C   UNL     1      -2.548   3.278   2.591  1.00  0.00    -0.015 C 
ATOM      8  C   UNL     1      -1.680   4.418   2.102  1.00  0.00     0.007 C 
ATOM      9  C   UNL     1      -3.907   3.306   1.892  1.00  0.00     0.007 C 
ENDBRANCH   6   7
ENDBRANCH   5   6
BRANCH   5  10
ATOM     10  C   UNL     1       0.124   2.466   3.887  1.00  0.00     0.242 C 
ATOM     11  O   UNL     1       1.142   3.161   3.910  1.00  0.00    -0.273 OA
ATOM     12  N   UNL     1      -0.511   2.249   5.067  1.00  0.00    -0.354 N 
ATOM     13  H   UNL     1      -0.184   2.781   5.827  1.00  0.00     0.163 HD
BRANCH  12  14
ATOM     14  C   UNL     1      -1.602   1.345   5.364  1.00  0.00     0.117 C 
BRANCH  14  15
ATOM     15  C   UNL     1      -1.551   0.855   6.789  1.00  0.00     0.042 C 
BRANCH  15  16
ATOM     16  C   UNL     1      -1.704   1.985   7.787  1.00  0.00     0.118 C 
BRANCH  16  17
ATOM     17  N   UNL     1      -3.030   2.595   7.761  1.00  0.00    -0.352 N 
ATOM     18  C   UNL     1      -4.049   2.489   8.680  1.00  0.00     0.251 C 
ATOM     19  H   UNL     1      -3.222   3.159   6.978  1.00  0.00     0.163 HD
ATOM     20  O   UNL     1      -5.174   2.901   8.428  1.00  0.00    -0.269 OA
BRANCH  18  21
ATOM     21  C   UNL     1      -3.758   1.830   9.965  1.00  0.00     0.039 A 
ATOM     22  C   UNL     1      -4.600   0.823  10.435  1.00  0.00     0.014 A 
ATOM     23  C   UNL     1      -2.573   2.138  10.633  1.00  0.00     0.014 A 
ATOM     24  C   UNL     1      -4.196   0.059  11.530  1.00  0.00     0.010 A 
ATOM     25  C   UNL     1      -2.101   1.274  11.603  1.00  0.00     0.010 A 
ATOM     26  C   UNL     1      -2.919   0.244  12.087  1.00  0.00    -0.014 A 
BRANCH  26  27
ATOM     27  C   UNL     1      -2.426  -0.581  13.216  1.00  0.00     0.031 A 
ATOM     28  C   UNL     1      -2.010   0.100  14.493  1.00  0.00     0.074 A 
ATOM     29  C   UNL     1      -2.281  -1.912  13.071  1.00  0.00     0.049 A 
ATOM     30  N   UNL     1      -1.460  -0.411  15.565  1.00  0.00    -0.248 NA
ATOM     31  C   UNL     1      -2.190   1.561  14.557  1.00  0.00     0.031 C 
ATOM     32  C   UNL     1      -2.590  -2.676  11.860  1.00  0.00     0.029 A 
ATOM     33  N   UNL     1      -1.829  -2.861  13.953  1.00  0.00    -0.354 N 
ATOM     34  C   UNL     1      -1.213   0.666  16.406  1.00  0.00     0.074 A 
ATOM     35  C   UNL     1      -1.585   1.864  15.693  1.00  0.00     0.031 C 
ATOM     36  C   UNL     1      -2.357  -3.978  12.089  1.00  0.00     0.029 A 
ATOM     37  C   UNL     1      -1.838  -4.137  13.443  1.00  0.00     0.049 A 
ATOM     38  H   UNL     1      -1.526  -2.648  14.865  1.00  0.00     0.167 HD
ATOM     39  C   UNL     1      -0.756   0.655  17.680  1.00  0.00     0.037 A 
ATOM     40  C   UNL     1      -1.462  -5.300  14.009  1.00  0.00     0.037 A 
ATOM     41  C   UNL     1      -0.427  -0.545  18.397  1.00  0.00     0.049 A 
ATOM     42  C   UNL     1      -0.952  -5.286  15.426  1.00  0.00     0.074 A 
ATOM     43  C   UNL     1      -0.018  -0.679  19.711  1.00  0.00     0.029 A 
ATOM     44  N   UNL     1      -0.470  -1.821  17.855  1.00  0.00    -0.354 N 
ATOM     45  N   UNL     1      -0.797  -4.271  16.242  1.00  0.00    -0.248 NA
ATOM     46  C   UNL     1      -0.571  -6.582  16.004  1.00  0.00     0.031 C 
ATOM     47  C   UNL     1       0.243  -2.032  19.947  1.00  0.00     0.029 A 
ATOM     48  C   UNL     1      -0.067  -2.748  18.801  1.00  0.00     0.049 A 
ATOM     49  H   UNL     1      -0.745  -2.036  16.934  1.00  0.00     0.167 HD
ATOM     50  C   UNL     1      -0.332  -4.806  17.435  1.00  0.00     0.074 A 
ATOM     51  C   UNL     1      -0.248  -6.239  17.242  1.00  0.00     0.031 C 
ATOM     52  C   UNL     1      -0.002  -4.172  18.588  1.00  0.00     0.037 A 
BRANCH  39  53
ATOM     53  C   UNL     1      -0.598   1.979  18.372  1.00  0.00     0.064 A 
ATOM     54  C   UNL     1      -1.704   2.780  18.700  1.00  0.00     0.173 A 
ATOM     55  C   UNL     1       0.676   2.447  18.728  1.00  0.00     0.173 A 
ATOM     56  F   UNL     1      -2.944   2.389  18.366  1.00  0.00    -0.203 F 
ATOM     57  C   UNL     1      -1.538   4.013  19.324  1.00  0.00     0.198 A 
ATOM     58  C   UNL     1       0.835   3.663  19.387  1.00  0.00     0.198 A 
ATOM     59  F   UNL     1       1.768   1.723  18.439  1.00  0.00    -0.203 F 
ATOM     60  F   UNL     1      -2.604   4.787  19.567  1.00  0.00    -0.200 F 
ATOM     61  C   UNL     1      -0.270   4.449  19.675  1.00  0.00     0.200 A 
ATOM     62  F   UNL     1       2.060   4.077  19.737  1.00  0.00    -0.200 F 
ATOM     63  F   UNL     1      -0.112   5.633  20.283  1.00  0.00    -0.200 F 
ENDBRANCH  39  53
BRANCH  40  64
ATOM     64  C   UNL     1      -1.579  -6.574  13.250  1.00  0.00     0.064 A 
ATOM     65  C   UNL     1      -2.497  -7.562  13.635  1.00  0.00     0.173 A 
ATOM     66  C   UNL     1      -0.771  -6.839  12.134  1.00  0.00     0.173 A 
ATOM     67  F   UNL     1      -3.281  -7.366  14.706  1.00  0.00    -0.203 F 
ATOM     68  C   UNL     1      -2.582  -8.774  12.953  1.00  0.00     0.198 A 
ATOM     69  C   UNL     1      -0.879  -8.038  11.433  1.00  0.00     0.198 A 
ATOM     70  F   UNL     1       0.119  -5.926  11.717  1.00  0.00    -0.203 F 
ATOM     71  F   UNL     1      -3.430  -9.721  13.378  1.00  0.00    -0.200 F 
ATOM     72  C   UNL     1      -1.777  -9.009  11.849  1.00  0.00     0.200 A 
ATOM     73  F   UNL     1      -0.112  -8.253  10.355  1.00  0.00    -0.200 F 
ATOM     74  F   UNL     1      -1.860 -10.174  11.192  1.00  0.00    -0.200 F 
ENDBRANCH  40  64
BRANCH  52  75
ATOM     75  C   UNL     1       0.438  -5.024  19.742  1.00  0.00     0.064 A 
ATOM     76  C   UNL     1       1.671  -5.692  19.740  1.00  0.00     0.173 A 
ATOM     77  C   UNL     1      -0.367  -5.135  20.887  1.00  0.00     0.173 A 
ATOM     78  F   UNL     1       2.472  -5.629  18.666  1.00  0.00    -0.203 F 
ATOM     79  C   UNL     1       2.068  -6.464  20.829  1.00  0.00     0.198 A 
ATOM     80  C   UNL     1       0.049  -5.876  21.988  1.00  0.00     0.198 A 
ATOM     81  F   UNL     1      -1.551  -4.506  20.944  1.00  0.00    -0.203 F 
ATOM     82  F   UNL     1       3.225  -7.138  20.783  1.00  0.00    -0.200 F 
ATOM     83  C   UNL     1       1.261  -6.548  21.954  1.00  0.00     0.200 A 
ATOM     84  F   UNL     1      -0.722  -5.938  23.082  1.00  0.00    -0.200 F 
ATOM     85  F   UNL     1       1.650  -7.282  23.006  1.00  0.00    -0.200 F 
ENDBRANCH  52  75
ENDBRANCH  26  27
ENDBRANCH  18  21
ENDBRANCH  16  17
ENDBRANCH  15  16
ENDBRANCH  14  15
ENDBRANCH  12  14
ENDBRANCH   5  10
ENDBRANCH   1   5
BRANCH   2  86
ATOM     86  C   UNL     1       0.534   0.294  -0.004  1.00  0.00     0.174 C 
BRANCH  86  87
ATOM     87  N   UNL     1      -0.634   1.083  -0.469  1.00  0.00    -0.342 N 
ATOM     88  C   UNL     1      -1.044   2.291  -0.908  1.00  0.00     0.242 C 
ATOM     89  H   UNL     1      -1.421   0.490  -0.450  1.00  0.00     0.164 HD
ATOM     90  O   UNL     1      -2.256   2.290  -1.204  1.00  0.00    -0.273 OA
BRANCH  88  91
ATOM     91  C   UNL     1      -0.259   3.605  -1.233  1.00  0.00     0.168 C 
ATOM     92  C   UNL     1      -0.060   3.725  -2.746  1.00  0.00     0.041 C 
BRANCH  91  93
ATOM     93  N   UNL     1       0.958   4.005  -0.538  1.00  0.00    -0.343 N 
ATOM     94  C   UNL     1       1.324   5.133   0.132  1.00  0.00     0.240 C 
ATOM     95  H   UNL     1       1.661   3.316  -0.556  1.00  0.00     0.164 HD
ATOM     96  O   UNL     1       2.407   5.077   0.726  1.00  0.00    -0.273 OA
BRANCH  94  97
ATOM     97  C   UNL     1       0.448   6.388   0.266  1.00  0.00     0.219 C 
BRANCH  97  98
ATOM     98  N   UNL     1      -0.107   6.857  -0.986  1.00  0.00    -0.312 N 
ATOM     99  C   UNL     1      -1.411   6.850  -1.368  1.00  0.00     0.407 C 
ATOM    100  H   UNL     1       0.535   7.222  -1.636  1.00  0.00     0.167 HD
ATOM    101  O   UNL     1      -1.724   7.125  -2.521  1.00  0.00    -0.225 OA
BRANCH  99 102
ATOM    102  O   UNL     1      -2.257   6.458  -0.389  1.00  0.00    -0.445 OA
BRANCH 102 103
ATOM    103  C   UNL     1      -3.621   6.253  -0.796  1.00  0.00     0.270 C 
BRANCH 103 104
ATOM    104  C   UNL     1      -4.354   7.546  -1.049  1.00  0.00    -0.011 A 
ATOM    105  C   UNL     1      -4.185   8.651  -0.204  1.00  0.00     0.007 A 
ATOM    106  C   UNL     1      -5.214   7.654  -2.150  1.00  0.00     0.007 A 
ATOM    107  C   UNL     1      -4.820   9.860  -0.490  1.00  0.00     0.000 A 
ATOM    108  C   UNL     1      -5.851   8.862  -2.432  1.00  0.00     0.000 A 
ATOM    109  C   UNL     1      -5.645   9.967  -1.608  1.00  0.00     0.000 A 
ENDBRANCH 103 104
ENDBRANCH 102 103
ENDBRANCH  99 102
ENDBRANCH  97  98
ENDBRANCH  94  97
ENDBRANCH  91  93
ENDBRANCH  88  91
ENDBRANCH  86  87
BRANCH  86 110
ATOM    110  C   UNL     1       1.918   0.901  -0.238  1.00  0.00     0.015 C 
ATOM    111  C   UNL     1       3.075   0.086   0.351  1.00  0.00     0.010 C 
ATOM    112  C   UNL     1       2.161   1.049  -1.744  1.00  0.00     0.010 C 
ENDBRANCH  86 110
ENDBRANCH   2  86
TORSDOF 23
