REMARK SMILES O=C(NCCCNC(=O)[C@@H](Cc1ccccc1)NC(=O)c1ccccc1[N+](=O)[O-])c1ccc(-c2c3nc(c(-c4c(F)c(F)c(F)c(F)c4F)c4ccc([nH]4)c(-c4c(F)c(F)c(F)c(F)c4F)c4nc(c(-c5c(F)c(F)c(F)c(F)c5F)c5ccc2[nH]5)C=C4)C=C3)cc1
REMARK SMILES IDX 5 1 4 2 3 3 1 4 2 5 30 7 31 8 92 9 32 10 91 11 33 12 34 13
REMARK SMILES IDX 35 14 85 15 36 16 90 17 84 18 86 19 37 20 89 21 83 22 82 23
REMARK SMILES IDX 38 25 70 26 50 27 69 28 51 29 54 30 68 31 87 32 52 33 53 34
REMARK SMILES IDX 67 36 88 37 55 38 39 39 40 40 48 41 41 42 42 43 46 44 49 45
REMARK SMILES IDX 43 46 44 47 47 48 45 49 71 50 72 51 80 52 73 53 74 54 78 55
REMARK SMILES IDX 81 56 75 57 76 58 79 59 77 60 56 61 57 62 65 63 58 64 59 65
REMARK SMILES IDX 63 66 66 67 60 68 61 69 64 70 62 71 6 72 7 73 8 74 9 76
REMARK SMILES IDX 10 77 11 78 12 79 13 80 17 81 14 82 16 83 15 84 18 85 19 86
REMARK SMILES IDX 20 88 21 89 22 90 26 91 23 92 25 93 24 94 27 95 28 96 29 97
REMARK H PARENT 3 6 86 24 54 35 7 75 18 87
REMARK Flexibility Score: inf
ROOT
ATOM      1  C   UNL     1       4.057   1.163  -2.124  1.00  0.00     0.042 C 
ENDROOT
BRANCH   1   2
ATOM      2  C   UNL     1       3.461   1.950  -0.964  1.00  0.00     0.118 C 
BRANCH   2   3
ATOM      3  N   UNL     1       2.268   1.324  -0.427  1.00  0.00    -0.352 N 
ATOM      4  O   UNL     1       0.853  -0.100   0.504  1.00  0.00    -0.269 OA
ATOM      5  C   UNL     1       2.034   0.230   0.367  1.00  0.00     0.251 C 
ATOM      6  H   UNL     1       1.441   1.788  -0.691  1.00  0.00     0.163 HD
BRANCH   5   7
ATOM      7  C   UNL     1       3.078  -0.582   1.067  1.00  0.00     0.039 A 
ATOM      8  C   UNL     1       4.339  -0.121   1.442  1.00  0.00     0.014 A 
ATOM      9  C   UNL     1       2.696  -1.865   1.503  1.00  0.00     0.014 A 
ATOM     10  C   UNL     1       5.199  -0.924   2.211  1.00  0.00     0.010 A 
ATOM     11  C   UNL     1       3.525  -2.643   2.327  1.00  0.00     0.010 A 
ATOM     12  C   UNL     1       4.789  -2.175   2.700  1.00  0.00    -0.014 A 
BRANCH  12  13
ATOM     13  C   UNL     1       5.639  -2.905   3.686  1.00  0.00     0.031 A 
ATOM     14  C   UNL     1       6.248  -4.246   3.376  1.00  0.00     0.074 A 
ATOM     15  C   UNL     1       5.868  -2.344   4.892  1.00  0.00     0.049 A 
ATOM     16  N   UNL     1       7.062  -4.971   4.107  1.00  0.00    -0.248 NA
ATOM     17  C   UNL     1       5.892  -4.860   2.091  1.00  0.00     0.031 C 
ATOM     18  C   UNL     1       5.284  -1.085   5.358  1.00  0.00     0.029 A 
ATOM     19  N   UNL     1       6.658  -2.748   5.942  1.00  0.00    -0.354 N 
ATOM     20  C   UNL     1       7.316  -6.122   3.372  1.00  0.00     0.074 A 
ATOM     21  C   UNL     1       6.537  -6.018   2.155  1.00  0.00     0.031 C 
ATOM     22  C   UNL     1       5.772  -0.794   6.573  1.00  0.00     0.029 A 
ATOM     23  C   UNL     1       6.673  -1.863   6.993  1.00  0.00     0.049 A 
ATOM     24  H   UNL     1       7.166  -3.591   5.941  1.00  0.00     0.167 HD
ATOM     25  C   UNL     1       8.136  -7.159   3.673  1.00  0.00     0.037 A 
ATOM     26  C   UNL     1       7.335  -1.899   8.166  1.00  0.00     0.037 A 
ATOM     27  C   UNL     1       8.915  -7.271   4.882  1.00  0.00     0.049 A 
ATOM     28  C   UNL     1       8.254  -3.051   8.463  1.00  0.00     0.074 A 
ATOM     29  C   UNL     1       9.791  -8.278   5.255  1.00  0.00     0.029 A 
ATOM     30  N   UNL     1       8.911  -6.348   5.916  1.00  0.00    -0.354 N 
ATOM     31  N   UNL     1       8.530  -4.099   7.728  1.00  0.00    -0.248 NA
ATOM     32  C   UNL     1       8.959  -3.019   9.753  1.00  0.00     0.031 C 
ATOM     33  C   UNL     1      10.291  -7.980   6.528  1.00  0.00     0.029 A 
ATOM     34  C   UNL     1       9.760  -6.767   6.930  1.00  0.00     0.049 A 
ATOM     35  H   UNL     1       8.383  -5.517   5.929  1.00  0.00     0.167 HD
ATOM     36  C   UNL     1       9.443  -4.846   8.458  1.00  0.00     0.074 A 
ATOM     37  C   UNL     1       9.701  -4.115   9.681  1.00  0.00     0.031 C 
ATOM     38  C   UNL     1      10.008  -6.037   8.146  1.00  0.00     0.037 A 
BRANCH  25  39
ATOM     39  C   UNL     1       8.251  -8.269   2.667  1.00  0.00     0.064 A 
ATOM     40  C   UNL     1       8.953  -8.091   1.466  1.00  0.00     0.173 A 
ATOM     41  C   UNL     1       7.719  -9.539   2.935  1.00  0.00     0.173 A 
ATOM     42  F   UNL     1       9.476  -6.894   1.160  1.00  0.00    -0.203 F 
ATOM     43  C   UNL     1       9.102  -9.139   0.560  1.00  0.00     0.198 A 
ATOM     44  C   UNL     1       7.891 -10.591   2.039  1.00  0.00     0.198 A 
ATOM     45  F   UNL     1       7.048  -9.765   4.074  1.00  0.00    -0.203 F 
ATOM     46  F   UNL     1       9.749  -8.937  -0.596  1.00  0.00    -0.200 F 
ATOM     47  C   UNL     1       8.578 -10.390   0.851  1.00  0.00     0.200 A 
ATOM     48  F   UNL     1       7.397 -11.803   2.327  1.00  0.00    -0.200 F 
ATOM     49  F   UNL     1       8.733 -11.400  -0.015  1.00  0.00    -0.200 F 
ENDBRANCH  25  39
BRANCH  26  50
ATOM     50  C   UNL     1       7.165  -0.795   9.146  1.00  0.00     0.064 A 
ATOM     51  C   UNL     1       8.209   0.101   9.415  1.00  0.00     0.173 A 
ATOM     52  C   UNL     1       5.958  -0.617   9.837  1.00  0.00     0.173 A 
ATOM     53  F   UNL     1       9.390  -0.042   8.796  1.00  0.00    -0.203 F 
ATOM     54  C   UNL     1       8.059   1.120  10.353  1.00  0.00     0.198 A 
ATOM     55  C   UNL     1       5.798   0.420  10.752  1.00  0.00     0.198 A 
ATOM     56  F   UNL     1       4.928  -1.446   9.612  1.00  0.00    -0.203 F 
ATOM     57  F   UNL     1       9.088   1.933  10.626  1.00  0.00    -0.200 F 
ATOM     58  C   UNL     1       6.852   1.283  11.016  1.00  0.00     0.200 A 
ATOM     59  F   UNL     1       4.626   0.583  11.380  1.00  0.00    -0.200 F 
ATOM     60  F   UNL     1       6.706   2.266  11.915  1.00  0.00    -0.200 F 
ENDBRANCH  26  50
BRANCH  38  61
ATOM     61  C   UNL     1      10.970  -6.617   9.142  1.00  0.00     0.064 A 
ATOM     62  C   UNL     1      10.529  -7.148  10.364  1.00  0.00     0.173 A 
ATOM     63  C   UNL     1      12.346  -6.649   8.870  1.00  0.00     0.173 A 
ATOM     64  F   UNL     1       9.225  -7.125  10.678  1.00  0.00    -0.203 F 
ATOM     65  C   UNL     1      11.434  -7.660  11.290  1.00  0.00     0.198 A 
ATOM     66  C   UNL     1      13.245  -7.187   9.788  1.00  0.00     0.198 A 
ATOM     67  F   UNL     1      12.819  -6.158   7.715  1.00  0.00    -0.203 F 
ATOM     68  F   UNL     1      10.995  -8.112  12.473  1.00  0.00    -0.200 F 
ATOM     69  C   UNL     1      12.789  -7.683  11.000  1.00  0.00     0.200 A 
ATOM     70  F   UNL     1      14.554  -7.216   9.503  1.00  0.00    -0.200 F 
ATOM     71  F   UNL     1      13.659  -8.173  11.895  1.00  0.00    -0.200 F 
ENDBRANCH  38  61
ENDBRANCH  12  13
ENDBRANCH   5   7
ENDBRANCH   2   3
ENDBRANCH   1   2
BRANCH   1  72
ATOM     72  C   UNL     1       3.826   1.802  -3.496  1.00  0.00     0.117 C 
BRANCH  72  73
ATOM     73  N   UNL     1       4.753   2.901  -3.711  1.00  0.00    -0.354 N 
ATOM     74  C   UNL     1       5.924   2.987  -4.395  1.00  0.00     0.242 C 
ATOM     75  H   UNL     1       4.481   3.743  -3.279  1.00  0.00     0.163 HD
ATOM     76  O   UNL     1       6.665   3.927  -4.074  1.00  0.00    -0.273 OA
BRANCH  74  77
ATOM     77  C   UNL     1       6.417   1.962  -5.444  1.00  0.00     0.176 C 
BRANCH  77  78
ATOM     78  C   UNL     1       7.347   0.876  -4.867  1.00  0.00     0.070 C 
BRANCH  78  79
ATOM     79  C   UNL     1       6.758  -0.296  -4.119  1.00  0.00    -0.045 A 
ATOM     80  C   UNL     1       6.966  -0.423  -2.738  1.00  0.00     0.004 A 
ATOM     81  C   UNL     1       6.098  -1.331  -4.795  1.00  0.00     0.004 A 
ATOM     82  C   UNL     1       6.473  -1.527  -2.038  1.00  0.00     0.000 A 
ATOM     83  C   UNL     1       5.619  -2.443  -4.097  1.00  0.00     0.000 A 
ATOM     84  C   UNL     1       5.796  -2.535  -2.718  1.00  0.00     0.000 A 
ENDBRANCH  78  79
ENDBRANCH  77  78
BRANCH  77  85
ATOM     85  N   UNL     1       5.396   1.471  -6.375  1.00  0.00    -0.340 N 
ATOM     86  C   UNL     1       5.085   1.909  -7.636  1.00  0.00     0.258 C 
ATOM     87  H   UNL     1       4.856   0.716  -6.047  1.00  0.00     0.164 HD
ATOM     88  O   UNL     1       4.010   1.601  -8.148  1.00  0.00    -0.269 OA
BRANCH  86  89
ATOM     89  C   UNL     1       6.008   2.775  -8.397  1.00  0.00     0.117 A 
ATOM     90  C   UNL     1       5.527   4.022  -8.820  1.00  0.00     0.021 A 
ATOM     91  C   UNL     1       7.302   2.396  -8.766  1.00  0.00     0.282 A 
ATOM     92  C   UNL     1       6.352   4.889  -9.546  1.00  0.00     0.001 A 
ATOM     93  C   UNL     1       8.143   3.271  -9.472  1.00  0.00     0.086 A 
ATOM     94  C   UNL     1       7.662   4.522  -9.857  1.00  0.00     0.007 A 
BRANCH  91  95
ATOM     95  N   UNL     1       7.815   1.074  -8.461  1.00  0.00     0.063 N 
ATOM     96  O   UNL     1       8.967   1.014  -8.009  1.00  0.00    -0.258 OA
ATOM     97  O   UNL     1       7.084   0.101  -8.678  1.00  0.00    -0.258 OA
ENDBRANCH  91  95
ENDBRANCH  86  89
ENDBRANCH  77  85
ENDBRANCH  74  77
ENDBRANCH  72  73
ENDBRANCH   1  72
TORSDOF 15
