REMARK SMILES [N-]=[N+]=NC[C@H](NC=O)C(=O)NCCCNC(=O)c1ccc(-c2c3nc(c(-c4c(F)c(F)c(F)c(F)c4F)c4ccc([nH]4)c(-c4c(F)c(F)c(F)c(F)c4F)c4nc(c(-c5c(F)c(F)c(F)c(F)c5F)c5ccc2[nH]5)C=C4)C=C3)cc1
REMARK SMILES IDX 13 1 12 2 11 3 9 4 10 5 5 7 4 8 3 9 1 10 2 11 6 12 7 13 8 15
REMARK SMILES IDX 14 16 15 17 16 18 17 20 18 21 19 22 80 23 20 24 79 25 21 26
REMARK SMILES IDX 22 27 23 28 73 29 24 30 78 31 72 32 74 33 25 34 77 35 71 36
REMARK SMILES IDX 70 37 26 39 58 40 38 41 57 42 39 43 42 44 56 45 75 46 40 47
REMARK SMILES IDX 41 48 55 50 76 51 43 52 27 53 28 54 36 55 29 56 30 57 34 58
REMARK SMILES IDX 37 59 31 60 32 61 35 62 33 63 59 64 60 65 68 66 61 67 62 68
REMARK SMILES IDX 66 69 69 70 63 71 64 72 67 73 65 74 44 75 45 76 53 77 46 78
REMARK SMILES IDX 47 79 51 80 54 81 48 82 49 83 52 84 50 85
REMARK H PARENT 11 6 6 14 15 19 74 38 42 49
REMARK Flexibility Score: inf
ROOT
ATOM      1  C   UNL     1       4.232  -3.517  -3.028  1.00  0.00     0.042 C 
ENDROOT
BRANCH   1   2
ATOM      2  C   UNL     1       3.513  -3.704  -1.704  1.00  0.00     0.117 C 
BRANCH   2   3
ATOM      3  N   UNL     1       4.440  -3.982  -0.618  1.00  0.00    -0.354 N 
ATOM      4  C   UNL     1       4.633  -3.347   0.574  1.00  0.00     0.242 C 
ATOM      5  O   UNL     1       5.440  -3.846   1.361  1.00  0.00    -0.273 OA
ATOM      6  H   UNL     1       5.027  -4.758  -0.769  1.00  0.00     0.163 HD
BRANCH   4   7
ATOM      7  C   UNL     1       3.806  -2.110   0.953  1.00  0.00     0.176 C 
BRANCH   7   8
ATOM      8  C   UNL     1       2.318  -2.457   1.163  1.00  0.00     0.125 C 
BRANCH   8   9
ATOM      9  N   UNL     1       2.133  -3.559   2.124  1.00  0.00    -0.091 NA
ATOM     10  N   UNL     1       2.001  -5.738   1.157  1.00  0.00    -0.003 NA
ATOM     11  N   UNL     1       2.059  -4.703   1.635  1.00  0.00     0.001 N 
ENDBRANCH   8   9
ENDBRANCH   7   8
BRANCH   7  12
ATOM     12  N   UNL     1       4.029  -1.082  -0.063  1.00  0.00    -0.347 N 
ATOM     13  C   UNL     1       3.598   0.205   0.011  1.00  0.00     0.337 C 
ATOM     14  H   UNL     1       4.534  -1.343  -0.867  1.00  0.00     0.164 HD
ATOM     15  O   UNL     1       3.860   1.029  -0.853  1.00  0.00    -0.279 OA
ENDBRANCH   7  12
ENDBRANCH   4   7
ENDBRANCH   2   3
ENDBRANCH   1   2
BRANCH   1  16
ATOM     16  C   UNL     1       4.945  -4.770  -3.513  1.00  0.00     0.118 C 
BRANCH  16  17
ATOM     17  N   UNL     1       4.025  -5.850  -3.845  1.00  0.00    -0.352 N 
ATOM     18  C   UNL     1       3.805  -6.473  -5.050  1.00  0.00     0.251 C 
ATOM     19  H   UNL     1       3.481  -6.183  -3.095  1.00  0.00     0.163 HD
ATOM     20  O   UNL     1       2.858  -7.240  -5.185  1.00  0.00    -0.269 OA
BRANCH  18  21
ATOM     21  C   UNL     1       4.698  -6.191  -6.193  1.00  0.00     0.039 A 
ATOM     22  C   UNL     1       4.140  -5.962  -7.452  1.00  0.00     0.014 A 
ATOM     23  C   UNL     1       6.082  -6.129  -6.014  1.00  0.00     0.014 A 
ATOM     24  C   UNL     1       4.966  -5.588  -8.514  1.00  0.00     0.010 A 
ATOM     25  C   UNL     1       6.888  -5.657  -7.043  1.00  0.00     0.010 A 
ATOM     26  C   UNL     1       6.340  -5.385  -8.305  1.00  0.00    -0.014 A 
BRANCH  26  27
ATOM     27  C   UNL     1       7.230  -4.897  -9.389  1.00  0.00     0.031 A 
ATOM     28  C   UNL     1       8.384  -5.744  -9.849  1.00  0.00     0.074 A 
ATOM     29  C   UNL     1       7.052  -3.662  -9.898  1.00  0.00     0.049 A 
ATOM     30  N   UNL     1       9.338  -5.456 -10.697  1.00  0.00    -0.248 NA
ATOM     31  C   UNL     1       8.498  -7.085  -9.251  1.00  0.00     0.031 C 
ATOM     32  C   UNL     1       5.997  -2.728  -9.504  1.00  0.00     0.029 A 
ATOM     33  N   UNL     1       7.767  -2.972 -10.846  1.00  0.00    -0.354 N 
ATOM     34  C   UNL     1      10.171  -6.567 -10.719  1.00  0.00     0.074 A 
ATOM     35  C   UNL     1       9.646  -7.510  -9.756  1.00  0.00     0.031 C 
ATOM     36  C   UNL     1       6.120  -1.597 -10.218  1.00  0.00     0.029 A 
ATOM     37  C   UNL     1       7.291  -1.705 -11.082  1.00  0.00     0.049 A 
ATOM     38  H   UNL     1       8.547  -3.350 -11.312  1.00  0.00     0.167 HD
ATOM     39  C   UNL     1      11.261  -6.790 -11.490  1.00  0.00     0.037 A 
ATOM     40  C   UNL     1       7.758  -0.734 -11.890  1.00  0.00     0.037 A 
ATOM     41  C   UNL     1      11.766  -5.856 -12.461  1.00  0.00     0.049 A 
ATOM     42  C   UNL     1       8.988  -0.997 -12.717  1.00  0.00     0.074 A 
ATOM     43  C   UNL     1      12.828  -6.011 -13.334  1.00  0.00     0.029 A 
ATOM     44  N   UNL     1      11.248  -4.588 -12.681  1.00  0.00    -0.354 N 
ATOM     45  N   UNL     1       9.728  -2.078 -12.781  1.00  0.00    -0.248 NA
ATOM     46  C   UNL     1       9.447   0.094 -13.588  1.00  0.00     0.031 C 
ATOM     47  C   UNL     1      12.993  -4.814 -14.037  1.00  0.00     0.029 A 
ATOM     48  C   UNL     1      11.989  -3.938 -13.655  1.00  0.00     0.049 A 
ATOM     49  H   UNL     1      10.469  -4.206 -12.215  1.00  0.00     0.167 HD
ATOM     50  C   UNL     1      10.714  -1.812 -13.722  1.00  0.00     0.074 A 
ATOM     51  C   UNL     1      10.473  -0.471 -14.210  1.00  0.00     0.031 C 
ATOM     52  C   UNL     1      11.727  -2.608 -14.143  1.00  0.00     0.037 A 
BRANCH  39  53
ATOM     53  C   UNL     1      11.986  -8.094 -11.312  1.00  0.00     0.064 A 
ATOM     54  C   UNL     1      11.409  -9.318 -11.685  1.00  0.00     0.173 A 
ATOM     55  C   UNL     1      13.292  -8.117 -10.797  1.00  0.00     0.173 A 
ATOM     56  F   UNL     1      10.160  -9.356 -12.172  1.00  0.00    -0.203 F 
ATOM     57  C   UNL     1      12.098 -10.517 -11.518  1.00  0.00     0.198 A 
ATOM     58  C   UNL     1      13.991  -9.313 -10.666  1.00  0.00     0.198 A 
ATOM     59  F   UNL     1      13.895  -6.976 -10.431  1.00  0.00    -0.203 F 
ATOM     60  F   UNL     1      11.504 -11.677 -11.829  1.00  0.00    -0.200 F 
ATOM     61  C   UNL     1      13.391 -10.513 -11.018  1.00  0.00     0.200 A 
ATOM     62  F   UNL     1      15.247  -9.306 -10.198  1.00  0.00    -0.200 F 
ATOM     63  F   UNL     1      14.056 -11.666 -10.867  1.00  0.00    -0.200 F 
ENDBRANCH  39  53
BRANCH  40  64
ATOM     64  C   UNL     1       7.054   0.575 -11.966  1.00  0.00     0.064 A 
ATOM     65  C   UNL     1       6.395   0.973 -13.137  1.00  0.00     0.173 A 
ATOM     66  C   UNL     1       7.036   1.460 -10.877  1.00  0.00     0.173 A 
ATOM     67  F   UNL     1       6.400   0.171 -14.213  1.00  0.00    -0.203 F 
ATOM     68  C   UNL     1       5.768   2.214 -13.226  1.00  0.00     0.198 A 
ATOM     69  C   UNL     1       6.379   2.686 -10.956  1.00  0.00     0.198 A 
ATOM     70  F   UNL     1       7.646   1.127  -9.730  1.00  0.00    -0.203 F 
ATOM     71  F   UNL     1       5.192   2.590 -14.377  1.00  0.00    -0.200 F 
ATOM     72  C   UNL     1       5.755   3.067 -12.134  1.00  0.00     0.200 A 
ATOM     73  F   UNL     1       6.355   3.500  -9.892  1.00  0.00    -0.200 F 
ATOM     74  F   UNL     1       5.149   4.259 -12.219  1.00  0.00    -0.200 F 
ENDBRANCH  40  64
BRANCH  52  75
ATOM     75  C   UNL     1      12.626  -2.076 -15.224  1.00  0.00     0.064 A 
ATOM     76  C   UNL     1      13.541  -1.041 -14.985  1.00  0.00     0.173 A 
ATOM     77  C   UNL     1      12.609  -2.656 -16.503  1.00  0.00     0.173 A 
ATOM     78  F   UNL     1      13.588  -0.444 -13.785  1.00  0.00    -0.203 F 
ATOM     79  C   UNL     1      14.391  -0.591 -15.993  1.00  0.00     0.198 A 
ATOM     80  C   UNL     1      13.484  -2.228 -17.496  1.00  0.00     0.198 A 
ATOM     81  F   UNL     1      11.758  -3.655 -16.782  1.00  0.00    -0.203 F 
ATOM     82  F   UNL     1      15.225   0.430 -15.756  1.00  0.00    -0.200 F 
ATOM     83  C   UNL     1      14.369  -1.192 -17.243  1.00  0.00     0.200 A 
ATOM     84  F   UNL     1      13.474  -2.823 -18.697  1.00  0.00    -0.200 F 
ATOM     85  F   UNL     1      15.199  -0.768 -18.206  1.00  0.00    -0.200 F 
ENDBRANCH  52  75
ENDBRANCH  26  27
ENDBRANCH  18  21
ENDBRANCH  16  17
ENDBRANCH   1  16
TORSDOF 13
