REMARK SMILES CC1=C[C@H](C)[C@@H](C(=O)NCCCNC(=O)c2ccc(-c3c4nc(c(-c5c(F)c(F)c(F)c(F)c5F)c5ccc([nH]5)c(-c5c(F)c(F)c(F)c(F)c5F)c5nc(c(-c6c(F)c(F)c(F)c(F)c6F)c6ccc3[nH]6)C=C5)C=C4)cc2)[C@H](C(=O)Nc2cccnc2)C1
REMARK SMILES IDX 11 1 10 2 9 3 7 4 8 5 6 7 1 8 2 9 3 10 89 11 4 12 79 13 5 14
REMARK SMILES IDX 80 15 81 16 82 17 83 19 84 20 88 21 85 22 87 23 86 24 12 25
REMARK SMILES IDX 13 26 14 27 15 29 16 30 17 31 78 32 18 33 77 34 19 35 20 36
REMARK SMILES IDX 21 37 71 38 22 39 76 40 70 41 72 42 23 43 75 44 69 45 68 46
REMARK SMILES IDX 24 48 56 49 36 50 55 51 37 52 40 53 54 54 73 55 38 56 39 57
REMARK SMILES IDX 53 59 74 60 41 61 25 62 26 63 34 64 27 65 28 66 32 67 35 68
REMARK SMILES IDX 29 69 30 70 33 71 31 72 57 73 58 74 66 75 59 76 60 77 64 78
REMARK SMILES IDX 67 79 61 80 62 81 65 82 63 83 42 84 43 85 51 86 44 87 45 88
REMARK SMILES IDX 49 89 52 90 46 91 47 92 50 93 48 94
REMARK H PARENT 9 6 82 18 13 28 72 47 40 58
REMARK Flexibility Score: inf
ROOT
ATOM      1  C   UNL     1       0.295  -1.677   4.053  1.00  0.00     0.042 C 
ENDROOT
BRANCH   1   2
ATOM      2  C   UNL     1       0.875  -2.797   3.221  1.00  0.00     0.117 C 
BRANCH   2   3
ATOM      3  N   UNL     1       0.035  -3.976   3.162  1.00  0.00    -0.356 N 
ATOM      4  C   UNL     1      -0.455  -4.655   2.082  1.00  0.00     0.224 C 
ATOM      5  O   UNL     1      -1.028  -5.724   2.302  1.00  0.00    -0.275 OA
ATOM      6  H   UNL     1      -0.223  -4.346   4.037  1.00  0.00     0.163 HD
BRANCH   4   7
ATOM      7  C   UNL     1      -0.316  -4.120   0.645  1.00  0.00     0.098 C 
ATOM      8  C   UNL     1       1.330  -0.074  -0.276  1.00  0.00     0.039 C 
ATOM      9  C   UNL     1       0.810  -1.466  -0.039  1.00  0.00    -0.076 C 
ATOM     10  C   UNL     1       1.598  -2.555  -0.126  1.00  0.00    -0.024 C 
ATOM     11  C   UNL     1      -0.630  -1.520   0.398  1.00  0.00     0.044 C 
ATOM     12  C   UNL     1       1.194  -3.942   0.319  1.00  0.00     0.022 C 
ATOM     13  C   UNL     1      -1.264  -2.913   0.451  1.00  0.00     0.096 C 
ATOM     14  C   UNL     1       1.746  -5.074  -0.559  1.00  0.00     0.013 C 
BRANCH  13  15
ATOM     15  C   UNL     1      -2.381  -3.121  -0.601  1.00  0.00     0.228 C 
ATOM     16  O   UNL     1      -3.430  -3.684  -0.270  1.00  0.00    -0.274 OA
ATOM     17  N   UNL     1      -2.331  -2.577  -1.857  1.00  0.00    -0.324 N 
ATOM     18  H   UNL     1      -3.205  -2.407  -2.278  1.00  0.00     0.169 HD
BRANCH  17  19
ATOM     19  C   UNL     1      -1.219  -2.230  -2.627  1.00  0.00     0.059 A 
ATOM     20  C   UNL     1      -0.138  -3.086  -2.746  1.00  0.00     0.029 A 
ATOM     21  C   UNL     1      -1.172  -1.037  -3.337  1.00  0.00     0.137 A 
ATOM     22  C   UNL     1       1.003  -2.676  -3.430  1.00  0.00     0.022 A 
ATOM     23  N   UNL     1      -0.078  -0.603  -4.010  1.00  0.00    -0.263 NA
ATOM     24  C   UNL     1       0.997  -1.422  -4.014  1.00  0.00     0.111 A 
ENDBRANCH  17  19
ENDBRANCH  13  15
ENDBRANCH   4   7
ENDBRANCH   2   3
ENDBRANCH   1   2
BRANCH   1  25
ATOM     25  C   UNL     1       0.631  -1.831   5.518  1.00  0.00     0.118 C 
BRANCH  25  26
ATOM     26  N   UNL     1       2.065  -1.708   5.772  1.00  0.00    -0.352 N 
ATOM     27  C   UNL     1       2.745  -0.855   6.600  1.00  0.00     0.251 C 
ATOM     28  H   UNL     1       2.631  -2.337   5.269  1.00  0.00     0.163 HD
ATOM     29  O   UNL     1       3.970  -0.777   6.526  1.00  0.00    -0.269 OA
BRANCH  27  30
ATOM     30  C   UNL     1       2.006  -0.012   7.558  1.00  0.00     0.039 A 
ATOM     31  C   UNL     1       2.449   1.289   7.799  1.00  0.00     0.014 A 
ATOM     32  C   UNL     1       0.868  -0.498   8.207  1.00  0.00     0.014 A 
ATOM     33  C   UNL     1       1.710   2.118   8.640  1.00  0.00     0.010 A 
ATOM     34  C   UNL     1       0.064   0.367   8.931  1.00  0.00     0.010 A 
ATOM     35  C   UNL     1       0.489   1.677   9.177  1.00  0.00    -0.014 A 
BRANCH  35  36
ATOM     36  C   UNL     1      -0.345   2.575  10.008  1.00  0.00     0.031 A 
ATOM     37  C   UNL     1      -0.653   2.218  11.435  1.00  0.00     0.074 A 
ATOM     38  C   UNL     1      -0.855   3.692   9.456  1.00  0.00     0.049 A 
ATOM     39  N   UNL     1      -1.334   2.893  12.327  1.00  0.00    -0.248 NA
ATOM     40  C   UNL     1      -0.163   0.917  11.919  1.00  0.00     0.031 C 
ATOM     41  C   UNL     1      -0.686   4.097   8.059  1.00  0.00     0.029 A 
ATOM     42  N   UNL     1      -1.607   4.698  10.005  1.00  0.00    -0.354 N 
ATOM     43  C   UNL     1      -1.363   2.094  13.462  1.00  0.00     0.074 A 
ATOM     44  C   UNL     1      -0.698   0.855  13.128  1.00  0.00     0.031 C 
ATOM     45  C   UNL     1      -1.262   5.296   7.876  1.00  0.00     0.029 A 
ATOM     46  C   UNL     1      -1.872   5.722   9.130  1.00  0.00     0.049 A 
ATOM     47  H   UNL     1      -1.926   4.686  10.936  1.00  0.00     0.167 HD
ATOM     48  C   UNL     1      -1.873   2.381  14.683  1.00  0.00     0.037 A 
ATOM     49  C   UNL     1      -2.523   6.883   9.328  1.00  0.00     0.037 A 
ATOM     50  C   UNL     1      -2.512   3.628  15.010  1.00  0.00     0.049 A 
ATOM     51  C   UNL     1      -3.067   7.183  10.697  1.00  0.00     0.074 A 
ATOM     52  C   UNL     1      -2.993   4.058  16.233  1.00  0.00     0.029 A 
ATOM     53  N   UNL     1      -2.768   4.644  14.099  1.00  0.00    -0.354 N 
ATOM     54  N   UNL     1      -3.001   6.466  11.793  1.00  0.00    -0.248 NA
ATOM     55  C   UNL     1      -3.769   8.462  10.856  1.00  0.00     0.031 C 
ATOM     56  C   UNL     1      -3.598   5.306  16.049  1.00  0.00     0.029 A 
ATOM     57  C   UNL     1      -3.434   5.685  14.725  1.00  0.00     0.049 A 
ATOM     58  H   UNL     1      -2.515   4.626  13.148  1.00  0.00     0.167 HD
ATOM     59  C   UNL     1      -3.628   7.215  12.778  1.00  0.00     0.074 A 
ATOM     60  C   UNL     1      -4.041   8.456  12.153  1.00  0.00     0.031 C 
ATOM     61  C   UNL     1      -3.848   6.907  14.081  1.00  0.00     0.037 A 
BRANCH  48  62
ATOM     62  C   UNL     1      -1.764   1.323  15.747  1.00  0.00     0.064 A 
ATOM     63  C   UNL     1      -0.526   0.928  16.279  1.00  0.00     0.173 A 
ATOM     64  C   UNL     1      -2.917   0.703  16.251  1.00  0.00     0.173 A 
ATOM     65  F   UNL     1       0.611   1.477  15.825  1.00  0.00    -0.203 F 
ATOM     66  C   UNL     1      -0.444  -0.073  17.243  1.00  0.00     0.198 A 
ATOM     67  C   UNL     1      -2.835  -0.272  17.242  1.00  0.00     0.198 A 
ATOM     68  F   UNL     1      -4.128   1.042  15.782  1.00  0.00    -0.203 F 
ATOM     69  F   UNL     1       0.754  -0.478  17.687  1.00  0.00    -0.200 F 
ATOM     70  C   UNL     1      -1.599  -0.667  17.729  1.00  0.00     0.200 A 
ATOM     71  F   UNL     1      -3.953  -0.835  17.720  1.00  0.00    -0.200 F 
ATOM     72  F   UNL     1      -1.519  -1.628  18.660  1.00  0.00    -0.200 F 
ENDBRANCH  48  62
BRANCH  49  73
ATOM     73  C   UNL     1      -2.646   7.865   8.219  1.00  0.00     0.064 A 
ATOM     74  C   UNL     1      -1.966   9.091   8.269  1.00  0.00     0.173 A 
ATOM     75  C   UNL     1      -3.436   7.604   7.091  1.00  0.00     0.173 A 
ATOM     76  F   UNL     1      -1.210   9.395   9.334  1.00  0.00    -0.203 F 
ATOM     77  C   UNL     1      -2.090  10.027   7.244  1.00  0.00     0.198 A 
ATOM     78  C   UNL     1      -3.534   8.527   6.052  1.00  0.00     0.198 A 
ATOM     79  F   UNL     1      -4.099   6.443   6.989  1.00  0.00    -0.203 F 
ATOM     80  F   UNL     1      -1.468  11.209   7.340  1.00  0.00    -0.200 F 
ATOM     81  C   UNL     1      -2.869   9.741   6.133  1.00  0.00     0.200 A 
ATOM     82  F   UNL     1      -4.273   8.240   4.971  1.00  0.00    -0.200 F 
ATOM     83  F   UNL     1      -2.984  10.638   5.145  1.00  0.00    -0.200 F 
ENDBRANCH  49  73
BRANCH  61  84
ATOM     84  C   UNL     1      -4.549   7.944  14.913  1.00  0.00     0.064 A 
ATOM     85  C   UNL     1      -5.895   8.277  14.698  1.00  0.00     0.173 A 
ATOM     86  C   UNL     1      -3.862   8.616  15.936  1.00  0.00     0.173 A 
ATOM     87  F   UNL     1      -6.593   7.673  13.725  1.00  0.00    -0.203 F 
ATOM     88  C   UNL     1      -6.512   9.280  15.441  1.00  0.00     0.198 A 
ATOM     89  C   UNL     1      -4.495   9.590  16.704  1.00  0.00     0.198 A 
ATOM     90  F   UNL     1      -2.577   8.329  16.192  1.00  0.00    -0.203 F 
ATOM     91  F   UNL     1      -7.774   9.634  15.164  1.00  0.00    -0.200 F 
ATOM     92  C   UNL     1      -5.813   9.932  16.445  1.00  0.00     0.200 A 
ATOM     93  F   UNL     1      -3.823  10.206  17.686  1.00  0.00    -0.200 F 
ATOM     94  F   UNL     1      -6.407  10.900  17.156  1.00  0.00    -0.200 F 
ENDBRANCH  61  84
ENDBRANCH  35  36
ENDBRANCH  27  30
ENDBRANCH  25  26
ENDBRANCH   1  25
TORSDOF 12
