REMARK SMILES Cc1ccc(NC(=O)C[N@H+]2CCC[C@@H](C(=O)NCCCNC(=O)c3ccc(-c4c5nc(c(-c6c(F)c(F)c(F)c(F)c6F)c6ccc([nH]6)c(-c6c(F)c(F)c(F)c(F)c6F)c6nc(c(-c7c(F)c(F)c(F)c(F)c7F)c7ccc4[nH]7)C=C6)C=C5)cc3)C2)cc1Cl
REMARK SMILES IDX 18 1 17 2 15 3 16 4 14 6 10 7 11 8 87 9 12 11 13 12 9 13
REMARK SMILES IDX 7 14 6 15 8 17 5 18 1 19 2 20 3 21 89 22 4 23 88 24 90 25
REMARK SMILES IDX 19 26 20 27 21 28 22 29 23 31 24 32 25 33 86 34 26 35 85 36
REMARK SMILES IDX 27 37 28 38 29 39 79 40 30 41 84 42 78 43 80 44 31 45 83 46
REMARK SMILES IDX 77 47 76 48 32 50 64 51 44 52 63 53 45 54 48 55 62 56 81 57
REMARK SMILES IDX 46 58 47 59 61 61 82 62 49 63 33 64 34 65 42 66 35 67 36 68
REMARK SMILES IDX 40 69 43 70 37 71 38 72 41 73 39 74 65 75 66 76 74 77 67 78
REMARK SMILES IDX 68 79 72 80 75 81 69 82 70 83 73 84 71 85 50 86 51 87 59 88
REMARK SMILES IDX 52 89 53 90 57 91 60 92 54 93 55 94 58 95 56 96
REMARK H PARENT 17 5 10 10 6 16 21 30 80 49 48 60
REMARK Flexibility Score: inf
ROOT
ATOM      1  C   UNL     1       1.829   0.881  -2.443  1.00  0.00     0.117 C 
ENDROOT
BRANCH   1   2
ATOM      2  N   UNL     1       0.398   0.865  -2.689  1.00  0.00    -0.356 N 
ATOM      3  C   UNL     1      -0.390  -0.118  -3.208  1.00  0.00     0.228 C 
ATOM      4  O   UNL     1      -1.528   0.195  -3.560  1.00  0.00    -0.275 OA
ATOM      5  H   UNL     1      -0.076   1.692  -2.443  1.00  0.00     0.163 HD
BRANCH   3   6
ATOM      6  C   UNL     1       0.093  -1.563  -3.192  1.00  0.00     0.133 C 
ATOM      7  N   UNL     1      -0.134  -3.526  -1.595  1.00  0.00    -0.326 N 
ATOM      8  C   UNL     1      -0.813  -4.307  -2.635  1.00  0.00     0.262 C 
ATOM      9  C   UNL     1      -0.293  -2.086  -1.805  1.00  0.00     0.276 C 
ATOM     10  H   UNL     1       0.862  -3.730  -1.679  1.00  0.00     0.348 HD
ATOM     11  C   UNL     1      -0.328  -3.889  -4.028  1.00  0.00     0.062 C 
ATOM     12  C   UNL     1      -0.580  -2.404  -4.278  1.00  0.00     0.025 C 
BRANCH   7  13
ATOM     13  C   UNL     1      -0.529  -3.944  -0.220  1.00  0.00     0.363 C 
BRANCH  13  14
ATOM     14  C   UNL     1      -1.998  -3.684   0.162  1.00  0.00     0.279 C 
ATOM     15  N   UNL     1      -2.468  -2.477   0.613  1.00  0.00    -0.321 N 
ATOM     16  H   UNL     1      -3.437  -2.471   0.790  1.00  0.00     0.170 HD
ATOM     17  O   UNL     1      -2.843  -4.575  -0.008  1.00  0.00    -0.268 OA
BRANCH  15  18
ATOM     18  C   UNL     1      -1.839  -1.247   0.872  1.00  0.00     0.042 A 
ATOM     19  C   UNL     1       0.070   2.634   0.819  1.00  0.00     0.046 C 
ATOM     20  C   UNL     1      -0.597   1.293   0.942  1.00  0.00    -0.032 A 
ATOM     21  C   UNL     1      -1.933   1.160   0.544  1.00  0.00     0.007 A 
ATOM     22  C   UNL     1       0.084   0.143   1.365  1.00  0.00     0.046 A 
ATOM     23  C   UNL     1      -2.554  -0.093   0.531  1.00  0.00     0.026 A 
ATOM     24  C   UNL     1      -0.544  -1.111   1.362  1.00  0.00     0.047 A 
ATOM     25  Cl  UNL     1       1.746   0.198   1.838  1.00  0.00    -0.084 Cl
ENDBRANCH  15  18
ENDBRANCH  13  14
ENDBRANCH   7  13
ENDBRANCH   3   6
ENDBRANCH   1   2
BRANCH   1  26
ATOM     26  C   UNL     1       2.556   1.623  -3.562  1.00  0.00     0.042 C 
BRANCH  26  27
ATOM     27  C   UNL     1       2.153   3.092  -3.692  1.00  0.00     0.118 C 
BRANCH  27  28
ATOM     28  N   UNL     1       2.607   3.913  -2.576  1.00  0.00    -0.352 N 
ATOM     29  C   UNL     1       3.448   5.000  -2.567  1.00  0.00     0.251 C 
ATOM     30  H   UNL     1       2.258   3.648  -1.695  1.00  0.00     0.163 HD
ATOM     31  O   UNL     1       3.819   5.481  -1.499  1.00  0.00    -0.269 OA
BRANCH  29  32
ATOM     32  C   UNL     1       3.941   5.569  -3.838  1.00  0.00     0.039 A 
ATOM     33  C   UNL     1       5.308   5.821  -3.978  1.00  0.00     0.014 A 
ATOM     34  C   UNL     1       3.067   5.830  -4.896  1.00  0.00     0.014 A 
ATOM     35  C   UNL     1       5.813   6.240  -5.212  1.00  0.00     0.010 A 
ATOM     36  C   UNL     1       3.579   6.176  -6.144  1.00  0.00     0.010 A 
ATOM     37  C   UNL     1       4.959   6.367  -6.319  1.00  0.00    -0.014 A 
BRANCH  37  38
ATOM     38  C   UNL     1       5.488   6.653  -7.678  1.00  0.00     0.031 A 
ATOM     39  C   UNL     1       5.095   7.913  -8.396  1.00  0.00     0.074 A 
ATOM     40  C   UNL     1       6.247   5.731  -8.302  1.00  0.00     0.049 A 
ATOM     41  N   UNL     1       5.354   8.280  -9.626  1.00  0.00    -0.248 NA
ATOM     42  C   UNL     1       4.281   8.876  -7.640  1.00  0.00     0.031 C 
ATOM     43  C   UNL     1       6.663   4.449  -7.729  1.00  0.00     0.029 A 
ATOM     44  N   UNL     1       6.790   5.720  -9.563  1.00  0.00    -0.354 N 
ATOM     45  C   UNL     1       4.722   9.504  -9.796  1.00  0.00     0.074 A 
ATOM     46  C   UNL     1       4.030   9.797  -8.559  1.00  0.00     0.031 C 
ATOM     47  C   UNL     1       7.404   3.784  -8.628  1.00  0.00     0.029 A 
ATOM     48  C   UNL     1       7.479   4.568  -9.857  1.00  0.00     0.049 A 
ATOM     49  H   UNL     1       6.693   6.467 -10.198  1.00  0.00     0.167 HD
ATOM     50  C   UNL     1       4.734  10.318 -10.879  1.00  0.00     0.037 A 
ATOM     51  C   UNL     1       8.086   4.178 -10.994  1.00  0.00     0.037 A 
ATOM     52  C   UNL     1       5.443  10.034 -12.099  1.00  0.00     0.049 A 
ATOM     53  C   UNL     1       8.066   5.091 -12.189  1.00  0.00     0.074 A 
ATOM     54  C   UNL     1       5.572  10.827 -13.226  1.00  0.00     0.029 A 
ATOM     55  N   UNL     1       6.140   8.862 -12.354  1.00  0.00    -0.354 N 
ATOM     56  N   UNL     1       7.521   6.277 -12.315  1.00  0.00    -0.248 NA
ATOM     57  C   UNL     1       8.744   4.612 -13.402  1.00  0.00     0.031 C 
ATOM     58  C   UNL     1       6.306  10.116 -14.181  1.00  0.00     0.029 A 
ATOM     59  C   UNL     1       6.676   8.899 -13.631  1.00  0.00     0.049 A 
ATOM     60  H   UNL     1       6.238   8.114 -11.721  1.00  0.00     0.167 HD
ATOM     61  C   UNL     1       7.810   6.694 -13.607  1.00  0.00     0.074 A 
ATOM     62  C   UNL     1       8.592   5.642 -14.222  1.00  0.00     0.031 C 
ATOM     63  C   UNL     1       7.457   7.846 -14.229  1.00  0.00     0.037 A 
BRANCH  50  64
ATOM     64  C   UNL     1       3.956  11.598 -10.794  1.00  0.00     0.064 A 
ATOM     65  C   UNL     1       4.372  12.659  -9.974  1.00  0.00     0.173 A 
ATOM     66  C   UNL     1       2.804  11.785 -11.573  1.00  0.00     0.173 A 
ATOM     67  F   UNL     1       5.461  12.528  -9.202  1.00  0.00    -0.203 F 
ATOM     68  C   UNL     1       3.647  13.846  -9.915  1.00  0.00     0.198 A 
ATOM     69  C   UNL     1       2.099  12.985 -11.534  1.00  0.00     0.198 A 
ATOM     70  F   UNL     1       2.366  10.806 -12.379  1.00  0.00    -0.203 F 
ATOM     71  F   UNL     1       4.037  14.827  -9.089  1.00  0.00    -0.200 F 
ATOM     72  C   UNL     1       2.516  14.011 -10.700  1.00  0.00     0.200 A 
ATOM     73  F   UNL     1       1.013  13.148 -12.303  1.00  0.00    -0.200 F 
ATOM     74  F   UNL     1       1.824  15.158 -10.648  1.00  0.00    -0.200 F 
ENDBRANCH  50  64
BRANCH  51  75
ATOM     75  C   UNL     1       8.773   2.861 -11.056  1.00  0.00     0.064 A 
ATOM     76  C   UNL     1      10.170   2.784 -11.141  1.00  0.00     0.173 A 
ATOM     77  C   UNL     1       8.052   1.658 -11.036  1.00  0.00     0.173 A 
ATOM     78  F   UNL     1      10.900   3.907 -11.185  1.00  0.00    -0.203 F 
ATOM     79  C   UNL     1      10.819   1.553 -11.222  1.00  0.00     0.198 A 
ATOM     80  C   UNL     1       8.704   0.428 -11.089  1.00  0.00     0.198 A 
ATOM     81  F   UNL     1       6.714   1.678 -10.951  1.00  0.00    -0.203 F 
ATOM     82  F   UNL     1      12.152   1.509 -11.348  1.00  0.00    -0.200 F 
ATOM     83  C   UNL     1      10.086   0.377 -11.190  1.00  0.00     0.200 A 
ATOM     84  F   UNL     1       7.993  -0.707 -11.043  1.00  0.00    -0.200 F 
ATOM     85  F   UNL     1      10.711  -0.806 -11.264  1.00  0.00    -0.200 F 
ENDBRANCH  51  75
BRANCH  63  86
ATOM     86  C   UNL     1       7.934   8.043 -15.637  1.00  0.00     0.064 A 
ATOM     87  C   UNL     1       7.379   7.326 -16.708  1.00  0.00     0.173 A 
ATOM     88  C   UNL     1       8.924   8.995 -15.925  1.00  0.00     0.173 A 
ATOM     89  F   UNL     1       6.442   6.393 -16.482  1.00  0.00    -0.203 F 
ATOM     90  C   UNL     1       7.812   7.542 -18.013  1.00  0.00     0.198 A 
ATOM     91  C   UNL     1       9.334   9.228 -17.235  1.00  0.00     0.198 A 
ATOM     92  F   UNL     1       9.483   9.710 -14.938  1.00  0.00    -0.203 F 
ATOM     93  F   UNL     1       7.298   6.817 -19.016  1.00  0.00    -0.200 F 
ATOM     94  C   UNL     1       8.782   8.499 -18.277  1.00  0.00     0.200 A 
ATOM     95  F   UNL     1      10.261  10.162 -17.489  1.00  0.00    -0.200 F 
ATOM     96  F   UNL     1       9.189   8.713 -19.536  1.00  0.00    -0.200 F 
ENDBRANCH  63  86
ENDBRANCH  37  38
ENDBRANCH  29  32
ENDBRANCH  27  28
ENDBRANCH  26  27
ENDBRANCH   1  26
TORSDOF 13
