REMARK SMILES Cc1ccc(S(=O)(=O)n2cc(C(=O)C(=O)NCC(=O)NCCCNC(=O)c3ccc(-c4c5nc(c(-c6c(F)c(F)c(F)c(F)c6F)c6ccc([nH]6)c(-c6c(F)c(F)c(F)c(F)c6F)c6nc(c(-c7c(F)c(F)c(F)c(F)c7F)c7ccc4[nH]7)C=C6)C=C5)cc3)c3ccccc32)cc1
REMARK SMILES IDX 18 1 19 2 20 3 17 5 16 6 14 7 15 8 12 10 13 11 11 12 9 13
REMARK SMILES IDX 10 14 95 15 90 16 94 17 91 18 93 19 92 20 6 21 7 22 8 23
REMARK SMILES IDX 5 24 1 25 2 26 3 27 97 28 4 29 96 30 21 31 22 32 23 33 24 34
REMARK SMILES IDX 25 35 26 37 27 38 28 39 89 40 29 41 88 42 30 43 31 44 32 45
REMARK SMILES IDX 82 46 33 47 87 48 81 49 83 50 34 51 86 52 80 53 79 54 35 56
REMARK SMILES IDX 67 57 47 58 66 59 48 60 51 61 65 62 84 63 49 64 50 65 64 67
REMARK SMILES IDX 85 68 52 69 36 70 37 71 45 72 38 73 39 74 43 75 46 76 40 77
REMARK SMILES IDX 41 78 44 79 42 80 68 81 69 82 77 83 70 84 71 85 75 86 78 87
REMARK SMILES IDX 72 88 73 89 76 90 74 91 53 92 54 93 62 94 55 95 56 96 60 97
REMARK SMILES IDX 63 98 57 99 58 100 61 101 59 102
REMARK H PARENT 20 4 16 9 24 36 83 55 51 66
REMARK Flexibility Score: inf
ROOT
ATOM      1  C   UNL     1      -9.238   6.557   2.825  1.00  0.00     0.239 C 
ATOM      2  O   UNL     1      -9.945   7.250   3.558  1.00  0.00    -0.273 OA
ATOM      3  N   UNL     1      -9.811   5.980   1.725  1.00  0.00    -0.355 N 
ATOM      4  H   UNL     1     -10.771   6.159   1.600  1.00  0.00     0.163 HD
ENDROOT
BRANCH   1   5
ATOM      5  C   UNL     1      -7.740   6.374   3.095  1.00  0.00     0.216 C 
BRANCH   5   6
ATOM      6  N   UNL     1      -7.395   4.993   3.418  1.00  0.00    -0.340 N 
ATOM      7  C   UNL     1      -6.507   4.113   2.836  1.00  0.00     0.292 C 
ATOM      8  O   UNL     1      -6.419   2.982   3.306  1.00  0.00    -0.265 OA
ATOM      9  H   UNL     1      -7.884   4.624   4.189  1.00  0.00     0.164 HD
BRANCH   7  10
ATOM     10  C   UNL     1      -5.665   4.515   1.598  1.00  0.00     0.252 C 
ATOM     11  O   UNL     1      -5.530   5.710   1.355  1.00  0.00    -0.283 OA
BRANCH  10  12
ATOM     12  C   UNL     1      -5.047   3.511   0.714  1.00  0.00     0.054 A 
ATOM     13  N   UNL     1      -4.171   1.615  -0.086  1.00  0.00    -0.240 N 
ATOM     14  C   UNL     1      -4.846   2.166   0.974  1.00  0.00     0.117 A 
ATOM     15  C   UNL     1      -3.943   2.550  -1.073  1.00  0.00     0.065 A 
ATOM     16  C   UNL     1      -4.483   3.752  -0.593  1.00  0.00     0.012 A 
ATOM     17  C   UNL     1      -3.285   2.472  -2.315  1.00  0.00     0.028 A 
ATOM     18  C   UNL     1      -4.373   4.903  -1.406  1.00  0.00     0.011 A 
ATOM     19  C   UNL     1      -3.170   3.636  -3.079  1.00  0.00     0.002 A 
ATOM     20  C   UNL     1      -3.712   4.835  -2.636  1.00  0.00     0.001 A 
BRANCH  13  21
ATOM     21  S   UNL     1      -3.587   0.014  -0.106  1.00  0.00     0.268 S 
ATOM     22  O   UNL     1      -3.928  -0.501  -1.413  1.00  0.00    -0.201 OA
ATOM     23  O   UNL     1      -4.082  -0.598   1.117  1.00  0.00    -0.201 OA
BRANCH  21  24
ATOM     24  C   UNL     1      -1.817   0.069   0.014  1.00  0.00     0.088 A 
ATOM     25  C   UNL     1       2.485  -0.043   0.021  1.00  0.00     0.044 C 
ATOM     26  C   UNL     1       0.985   0.001   0.040  1.00  0.00    -0.051 A 
ATOM     27  C   UNL     1       0.251  -1.188  -0.037  1.00  0.00     0.005 A 
ATOM     28  C   UNL     1       0.303   1.220   0.134  1.00  0.00     0.005 A 
ATOM     29  C   UNL     1      -1.144  -1.157  -0.056  1.00  0.00     0.022 A 
ATOM     30  C   UNL     1      -1.095   1.258   0.134  1.00  0.00     0.022 A 
ENDBRANCH  21  24
ENDBRANCH  13  21
ENDBRANCH  10  12
ENDBRANCH   7  10
ENDBRANCH   5   6
ENDBRANCH   1   5
BRANCH   3  31
ATOM     31  C   UNL     1      -9.189   5.140   0.720  1.00  0.00     0.117 C 
BRANCH  31  32
ATOM     32  C   UNL     1      -9.352   3.663   1.049  1.00  0.00     0.042 C 
BRANCH  32  33
ATOM     33  C   UNL     1     -10.687   3.105   0.588  1.00  0.00     0.118 C 
BRANCH  33  34
ATOM     34  N   UNL     1     -10.675   2.675  -0.811  1.00  0.00    -0.352 N 
ATOM     35  C   UNL     1     -11.590   1.933  -1.536  1.00  0.00     0.251 C 
ATOM     36  H   UNL     1      -9.883   2.962  -1.321  1.00  0.00     0.163 HD
ATOM     37  O   UNL     1     -11.347   1.623  -2.697  1.00  0.00    -0.269 OA
BRANCH  35  38
ATOM     38  C   UNL     1     -12.941   1.698  -0.981  1.00  0.00     0.039 A 
ATOM     39  C   UNL     1     -14.012   2.101  -1.791  1.00  0.00     0.014 A 
ATOM     40  C   UNL     1     -13.104   1.542   0.387  1.00  0.00     0.014 A 
ATOM     41  C   UNL     1     -15.116   2.685  -1.195  1.00  0.00     0.010 A 
ATOM     42  C   UNL     1     -14.102   2.270   0.978  1.00  0.00     0.010 A 
ATOM     43  C   UNL     1     -15.057   2.899   0.173  1.00  0.00    -0.014 A 
BRANCH  43  44
ATOM     44  C   UNL     1     -16.001   3.701   0.910  1.00  0.00     0.031 A 
ATOM     45  C   UNL     1     -17.090   2.977   1.573  1.00  0.00     0.074 A 
ATOM     46  C   UNL     1     -15.718   5.003   1.127  1.00  0.00     0.049 A 
ATOM     47  N   UNL     1     -18.120   3.550   2.073  1.00  0.00    -0.248 NA
ATOM     48  C   UNL     1     -17.139   1.516   1.670  1.00  0.00     0.031 C 
ATOM     49  C   UNL     1     -16.285   5.896   2.132  1.00  0.00     0.029 A 
ATOM     50  N   UNL     1     -14.944   5.853   0.317  1.00  0.00    -0.354 N 
ATOM     51  C   UNL     1     -18.763   2.612   2.843  1.00  0.00     0.074 A 
ATOM     52  C   UNL     1     -18.235   1.345   2.414  1.00  0.00     0.031 C 
ATOM     53  C   UNL     1     -16.120   7.168   1.724  1.00  0.00     0.029 A 
ATOM     54  C   UNL     1     -15.603   7.110   0.369  1.00  0.00     0.049 A 
ATOM     55  H   UNL     1     -14.123   5.625  -0.178  1.00  0.00     0.167 HD
ATOM     56  C   UNL     1     -19.541   3.069   3.860  1.00  0.00     0.037 A 
ATOM     57  C   UNL     1     -16.250   7.585  -0.741  1.00  0.00     0.037 A 
ATOM     58  C   UNL     1     -19.722   4.518   3.736  1.00  0.00     0.049 A 
ATOM     59  C   UNL     1     -17.756   7.695  -0.568  1.00  0.00     0.074 A 
ATOM     60  C   UNL     1     -19.205   5.633   4.368  1.00  0.00     0.029 A 
ATOM     61  N   UNL     1     -20.313   4.982   2.576  1.00  0.00    -0.354 N 
ATOM     62  N   UNL     1     -18.409   7.219   0.458  1.00  0.00    -0.248 NA
ATOM     63  C   UNL     1     -18.652   8.282  -1.562  1.00  0.00     0.031 C 
ATOM     64  C   UNL     1     -19.455   6.766   3.526  1.00  0.00     0.029 A 
ATOM     65  C   UNL     1     -20.158   6.339   2.412  1.00  0.00     0.049 A 
ATOM     66  H   UNL     1     -20.791   4.406   1.937  1.00  0.00     0.167 HD
ATOM     67  C   UNL     1     -19.754   7.385   0.278  1.00  0.00     0.074 A 
ATOM     68  C   UNL     1     -19.858   8.039  -1.017  1.00  0.00     0.031 C 
ATOM     69  C   UNL     1     -20.674   6.947   1.191  1.00  0.00     0.037 A 
BRANCH  56  70
ATOM     70  C   UNL     1     -20.019   2.277   5.051  1.00  0.00     0.064 A 
ATOM     71  C   UNL     1     -20.851   2.904   6.002  1.00  0.00     0.173 A 
ATOM     72  C   UNL     1     -19.628   0.963   5.386  1.00  0.00     0.173 A 
ATOM     73  F   UNL     1     -21.312   4.148   5.809  1.00  0.00    -0.203 F 
ATOM     74  C   UNL     1     -21.228   2.284   7.196  1.00  0.00     0.198 A 
ATOM     75  C   UNL     1     -20.044   0.327   6.559  1.00  0.00     0.198 A 
ATOM     76  F   UNL     1     -18.789   0.246   4.633  1.00  0.00    -0.203 F 
ATOM     77  F   UNL     1     -21.971   2.956   8.086  1.00  0.00    -0.200 F 
ATOM     78  C   UNL     1     -20.829   0.993   7.472  1.00  0.00     0.200 A 
ATOM     79  F   UNL     1     -19.648  -0.931   6.805  1.00  0.00    -0.200 F 
ATOM     80  F   UNL     1     -21.187   0.398   8.617  1.00  0.00    -0.200 F 
ENDBRANCH  56  70
BRANCH  57  81
ATOM     81  C   UNL     1     -15.533   7.185  -1.992  1.00  0.00     0.064 A 
ATOM     82  C   UNL     1     -14.185   7.590  -2.120  1.00  0.00     0.173 A 
ATOM     83  C   UNL     1     -15.943   6.070  -2.732  1.00  0.00     0.173 A 
ATOM     84  F   UNL     1     -13.743   8.668  -1.451  1.00  0.00    -0.203 F 
ATOM     85  C   UNL     1     -13.252   6.791  -2.776  1.00  0.00     0.198 A 
ATOM     86  C   UNL     1     -15.009   5.299  -3.429  1.00  0.00     0.198 A 
ATOM     87  F   UNL     1     -17.212   5.642  -2.670  1.00  0.00    -0.203 F 
ATOM     88  F   UNL     1     -11.947   7.096  -2.711  1.00  0.00    -0.200 F 
ATOM     89  C   UNL     1     -13.660   5.624  -3.397  1.00  0.00     0.200 A 
ATOM     90  F   UNL     1     -15.402   4.172  -4.041  1.00  0.00    -0.200 F 
ATOM     91  F   UNL     1     -12.750   4.790  -3.920  1.00  0.00    -0.200 F 
ENDBRANCH  57  81
BRANCH  69  92
ATOM     92  C   UNL     1     -22.167   7.029   0.995  1.00  0.00     0.064 A 
ATOM     93  C   UNL     1     -22.802   8.175   0.500  1.00  0.00     0.173 A 
ATOM     94  C   UNL     1     -23.029   5.980   1.400  1.00  0.00     0.173 A 
ATOM     95  F   UNL     1     -22.093   9.263   0.166  1.00  0.00    -0.203 F 
ATOM     96  C   UNL     1     -24.192   8.241   0.359  1.00  0.00     0.198 A 
ATOM     97  C   UNL     1     -24.415   6.078   1.331  1.00  0.00     0.198 A 
ATOM     98  F   UNL     1     -22.561   4.804   1.842  1.00  0.00    -0.203 F 
ATOM     99  F   UNL     1     -24.751   9.327  -0.192  1.00  0.00    -0.200 F 
ATOM    100  C   UNL     1     -24.997   7.200   0.786  1.00  0.00     0.200 A 
ATOM    101  F   UNL     1     -25.174   5.068   1.780  1.00  0.00    -0.200 F 
ATOM    102  F   UNL     1     -26.329   7.274   0.668  1.00  0.00    -0.200 F 
ENDBRANCH  69  92
ENDBRANCH  43  44
ENDBRANCH  35  38
ENDBRANCH  33  34
ENDBRANCH  32  33
ENDBRANCH  31  32
ENDBRANCH   3  31
TORSDOF 15
