REMARK SMILES COc1ccc(C)cc1[C@@H](C)NC(=O)CC1(C(=O)NCCCNC(=O)c2ccc(-c3c4nc(c(-c5c(F)c(F)c(F)c(F)c5F)c5ccc([nH]5)c(-c5c(F)c(F)c(F)c(F)c5F)c5nc(c(-c6c(F)c(F)c(F)c(F)c6F)c6ccc3[nH]6)C=C5)C=C4)cc2)CCCC1
REMARK SMILES IDX 17 1 18 2 19 3 16 5 89 6 92 7 90 8 91 9 15 10 13 11 12 12
REMARK SMILES IDX 14 14 10 15 11 16 9 17 3 18 4 19 5 20 8 21 6 22 7 23 2 24
REMARK SMILES IDX 1 25 20 26 21 27 22 28 23 29 24 30 25 32 26 33 27 34 88 35
REMARK SMILES IDX 28 36 87 37 29 38 30 39 31 40 81 41 32 42 86 43 80 44 82 45
REMARK SMILES IDX 33 46 85 47 79 48 78 49 34 51 66 52 46 53 65 54 47 55 50 56
REMARK SMILES IDX 64 57 83 58 48 59 49 60 63 62 84 63 51 64 35 65 36 66 44 67
REMARK SMILES IDX 37 68 38 69 42 70 45 71 39 72 40 73 43 74 41 75 67 76 68 77
REMARK SMILES IDX 76 78 69 79 70 80 74 81 77 82 71 83 72 84 75 85 73 86 52 87
REMARK SMILES IDX 53 88 61 89 54 90 55 91 59 92 62 93 56 94 57 95 60 96 58 97
REMARK H PARENT 19 4 12 13 23 31 82 50 50 61
REMARK Flexibility Score: inf
ROOT
ATOM      1  C   UNL     1      -0.598  -0.092  -2.253  1.00  0.00     0.226 C 
ATOM      2  O   UNL     1      -1.568  -0.232  -1.491  1.00  0.00    -0.274 OA
ATOM      3  N   UNL     1       0.540  -0.618  -1.740  1.00  0.00    -0.356 N 
ATOM      4  H   UNL     1       0.500  -0.694  -0.759  1.00  0.00     0.163 HD
ENDROOT
BRANCH   1   5
ATOM      5  C   UNL     1      -0.806   0.544  -3.661  1.00  0.00     0.058 C 
ATOM      6  C   UNL     1      -0.952  -0.592  -4.703  1.00  0.00     0.017 C 
ATOM      7  C   UNL     1       0.341   1.399  -4.216  1.00  0.00     0.017 C 
ATOM      8  C   UNL     1       0.364  -0.714  -5.458  1.00  0.00     0.001 C 
ATOM      9  C   UNL     1       1.160   0.546  -5.177  1.00  0.00     0.001 C 
BRANCH   5  10
ATOM     10  C   UNL     1      -2.159   1.367  -3.608  1.00  0.00     0.117 C 
BRANCH  10  11
ATOM     11  C   UNL     1      -2.073   2.886  -3.666  1.00  0.00     0.221 C 
ATOM     12  N   UNL     1      -1.846   3.639  -2.561  1.00  0.00    -0.349 N 
ATOM     13  H   UNL     1      -1.823   4.610  -2.721  1.00  0.00     0.164 HD
ATOM     14  O   UNL     1      -2.221   3.480  -4.738  1.00  0.00    -0.275 OA
BRANCH  12  15
ATOM     15  C   UNL     1      -1.632   3.243  -1.176  1.00  0.00     0.113 C 
ATOM     16  C   UNL     1      -2.737   3.794  -0.276  1.00  0.00     0.036 C 
BRANCH  15  17
ATOM     17  C   UNL     1      -0.261   3.691  -0.692  1.00  0.00     0.016 A 
ATOM     18  C   UNL     1       0.569   2.803   0.007  1.00  0.00     0.124 A 
ATOM     19  C   UNL     1       1.854   3.186   0.391  1.00  0.00     0.047 A 
ATOM     20  C   UNL     1       2.301   4.486   0.173  1.00  0.00     0.007 A 
ATOM     21  C   UNL     1       0.193   5.011  -0.879  1.00  0.00     0.013 A 
ATOM     22  C   UNL     1       1.466   5.416  -0.448  1.00  0.00    -0.051 A 
ATOM     23  C   UNL     1       1.899   6.845  -0.596  1.00  0.00     0.044 C 
BRANCH  18  24
ATOM     24  O   UNL     1       0.073   1.557   0.264  1.00  0.00    -0.496 OA
ATOM     25  C   UNL     1       0.417   1.022   1.533  1.00  0.00     0.278 C 
ENDBRANCH  18  24
ENDBRANCH  15  17
ENDBRANCH  12  15
ENDBRANCH  10  11
ENDBRANCH   5  10
ENDBRANCH   1   5
BRANCH   3  26
ATOM     26  C   UNL     1       1.804  -1.096  -2.269  1.00  0.00     0.117 C 
BRANCH  26  27
ATOM     27  C   UNL     1       2.921  -0.062  -2.287  1.00  0.00     0.042 C 
BRANCH  27  28
ATOM     28  C   UNL     1       3.740   0.021  -1.007  1.00  0.00     0.118 C 
BRANCH  28  29
ATOM     29  N   UNL     1       4.891  -0.877  -0.971  1.00  0.00    -0.352 N 
ATOM     30  C   UNL     1       5.832  -1.062   0.034  1.00  0.00     0.251 C 
ATOM     31  H   UNL     1       5.019  -1.431  -1.774  1.00  0.00     0.163 HD
ATOM     32  O   UNL     1       6.725  -1.873  -0.093  1.00  0.00    -0.269 OA
BRANCH  30  33
ATOM     33  C   UNL     1       5.659  -0.335   1.317  1.00  0.00     0.039 A 
ATOM     34  C   UNL     1       5.689  -1.072   2.506  1.00  0.00     0.014 A 
ATOM     35  C   UNL     1       5.301   1.008   1.334  1.00  0.00     0.014 A 
ATOM     36  C   UNL     1       5.109  -0.535   3.655  1.00  0.00     0.010 A 
ATOM     37  C   UNL     1       4.655   1.509   2.447  1.00  0.00     0.010 A 
ATOM     38  C   UNL     1       4.479   0.707   3.578  1.00  0.00    -0.014 A 
BRANCH  38  39
ATOM     39  C   UNL     1       3.458   1.141   4.531  1.00  0.00     0.031 A 
ATOM     40  C   UNL     1       3.646   2.319   5.402  1.00  0.00     0.074 A 
ATOM     41  C   UNL     1       2.256   0.519   4.518  1.00  0.00     0.049 A 
ATOM     42  N   UNL     1       3.007   2.505   6.510  1.00  0.00    -0.248 NA
ATOM     43  C   UNL     1       4.595   3.381   5.106  1.00  0.00     0.031 C 
ATOM     44  C   UNL     1       1.007   0.989   5.114  1.00  0.00     0.029 A 
ATOM     45  N   UNL     1       1.958  -0.770   4.064  1.00  0.00    -0.354 N 
ATOM     46  C   UNL     1       3.235   3.800   6.919  1.00  0.00     0.074 A 
ATOM     47  C   UNL     1       4.282   4.279   6.046  1.00  0.00     0.031 C 
ATOM     48  C   UNL     1       0.155  -0.042   5.215  1.00  0.00     0.029 A 
ATOM     49  C   UNL     1       0.876  -1.241   4.832  1.00  0.00     0.049 A 
ATOM     50  H   UNL     1       2.420  -1.257   3.344  1.00  0.00     0.167 HD
ATOM     51  C   UNL     1       2.414   4.360   7.859  1.00  0.00     0.037 A 
ATOM     52  C   UNL     1       1.005  -2.357   5.607  1.00  0.00     0.037 A 
ATOM     53  C   UNL     1       1.405   3.405   8.319  1.00  0.00     0.049 A 
ATOM     54  C   UNL     1       0.836  -2.090   7.084  1.00  0.00     0.074 A 
ATOM     55  C   UNL     1       0.072   3.227   7.986  1.00  0.00     0.029 A 
ATOM     56  N   UNL     1       1.786   2.271   9.031  1.00  0.00    -0.354 N 
ATOM     57  N   UNL     1       0.883  -0.901   7.614  1.00  0.00    -0.248 NA
ATOM     58  C   UNL     1       0.653  -3.140   8.082  1.00  0.00     0.031 C 
ATOM     59  C   UNL     1      -0.339   1.961   8.466  1.00  0.00     0.029 A 
ATOM     60  C   UNL     1       0.739   1.371   9.103  1.00  0.00     0.049 A 
ATOM     61  H   UNL     1       2.676   2.130   9.428  1.00  0.00     0.167 HD
ATOM     62  C   UNL     1       0.789  -1.004   8.976  1.00  0.00     0.074 A 
ATOM     63  C   UNL     1       0.621  -2.424   9.219  1.00  0.00     0.031 C 
ATOM     64  C   UNL     1       0.882   0.093   9.783  1.00  0.00     0.037 A 
BRANCH  51  65
ATOM     65  C   UNL     1       2.319   5.853   8.129  1.00  0.00     0.064 A 
ATOM     66  C   UNL     1       1.118   6.433   8.597  1.00  0.00     0.173 A 
ATOM     67  C   UNL     1       3.354   6.777   7.895  1.00  0.00     0.173 A 
ATOM     68  F   UNL     1       0.088   5.683   9.008  1.00  0.00    -0.203 F 
ATOM     69  C   UNL     1       0.924   7.817   8.669  1.00  0.00     0.198 A 
ATOM     70  C   UNL     1       3.147   8.161   7.913  1.00  0.00     0.198 A 
ATOM     71  F   UNL     1       4.616   6.375   7.709  1.00  0.00    -0.203 F 
ATOM     72  F   UNL     1      -0.246   8.303   9.105  1.00  0.00    -0.200 F 
ATOM     73  C   UNL     1       1.925   8.682   8.283  1.00  0.00     0.200 A 
ATOM     74  F   UNL     1       4.147   8.986   7.571  1.00  0.00    -0.200 F 
ATOM     75  F   UNL     1       1.725  10.006   8.302  1.00  0.00    -0.200 F 
ENDBRANCH  51  65
BRANCH  52  76
ATOM     76  C   UNL     1       1.936  -3.357   5.022  1.00  0.00     0.064 A 
ATOM     77  C   UNL     1       1.572  -3.964   3.804  1.00  0.00     0.173 A 
ATOM     78  C   UNL     1       3.286  -3.404   5.393  1.00  0.00     0.173 A 
ATOM     79  F   UNL     1       0.293  -3.930   3.397  1.00  0.00    -0.203 F 
ATOM     80  C   UNL     1       2.532  -4.481   2.938  1.00  0.00     0.198 A 
ATOM     81  C   UNL     1       4.243  -3.936   4.527  1.00  0.00     0.198 A 
ATOM     82  F   UNL     1       3.699  -2.814   6.523  1.00  0.00    -0.203 F 
ATOM     83  F   UNL     1       2.167  -4.932   1.729  1.00  0.00    -0.200 F 
ATOM     84  C   UNL     1       3.870  -4.441   3.288  1.00  0.00     0.200 A 
ATOM     85  F   UNL     1       5.544  -3.859   4.844  1.00  0.00    -0.200 F 
ATOM     86  F   UNL     1       4.805  -4.834   2.412  1.00  0.00    -0.200 F 
ENDBRANCH  52  76
BRANCH  64  87
ATOM     87  C   UNL     1       1.013   0.070  11.284  1.00  0.00     0.064 A 
ATOM     88  C   UNL     1       1.652  -0.958  11.996  1.00  0.00     0.173 A 
ATOM     89  C   UNL     1       0.610   1.188  12.053  1.00  0.00     0.173 A 
ATOM     90  F   UNL     1       2.183  -2.015  11.366  1.00  0.00    -0.203 F 
ATOM     91  C   UNL     1       1.817  -0.903  13.383  1.00  0.00     0.198 A 
ATOM     92  C   UNL     1       0.827   1.264  13.428  1.00  0.00     0.198 A 
ATOM     93  F   UNL     1       0.017   2.249  11.488  1.00  0.00    -0.203 F 
ATOM     94  F   UNL     1       2.396  -1.930  14.022  1.00  0.00    -0.200 F 
ATOM     95  C   UNL     1       1.416   0.210  14.096  1.00  0.00     0.200 A 
ATOM     96  F   UNL     1       0.479   2.372  14.098  1.00  0.00    -0.200 F 
ATOM     97  F   UNL     1       1.616   0.277  15.419  1.00  0.00    -0.200 F 
ENDBRANCH  64  87
ENDBRANCH  38  39
ENDBRANCH  30  33
ENDBRANCH  28  29
ENDBRANCH  27  28
ENDBRANCH  26  27
ENDBRANCH   3  26
TORSDOF 15
