REMARK SMILES Cc1ccccc1/[NH+]=C1\S[C@@H](CC(=O)Nc2ccc(C(=O)NCCCNC(=O)c3ccc(-c4c5nc(c(-c6c(F)c(F)c(F)c(F)c6F)c6ccc([nH]6)c(-c6c(F)c(F)c(F)c(F)c6F)c6nc(c(-c7c(F)c(F)c(F)c(F)c7F)c7ccc4[nH]7)C=C6)C=C5)cc3)cc2)C(=O)N1C
REMARK SMILES IDX 23 1 22 2 20 3 21 4 19 6 16 7 17 8 93 9 18 10 92 11 15 12
REMARK SMILES IDX 13 13 14 14 12 16 11 17 8 18 9 19 10 21 96 22 94 23 97 24
REMARK SMILES IDX 95 25 7 26 1 27 2 28 3 29 4 30 6 31 5 32 24 33 25 34 26 35
REMARK SMILES IDX 27 36 28 38 29 39 30 40 91 41 31 42 90 43 32 44 33 45 34 46
REMARK SMILES IDX 84 47 35 48 89 49 83 50 85 51 36 52 88 53 82 54 81 55 37 57
REMARK SMILES IDX 69 58 49 59 68 60 50 61 53 62 67 63 86 64 51 65 52 66 66 68
REMARK SMILES IDX 87 69 54 70 38 71 39 72 47 73 40 74 41 75 45 76 48 77 42 78
REMARK SMILES IDX 43 79 46 80 44 81 70 82 71 83 79 84 72 85 73 86 77 87 80 88
REMARK SMILES IDX 74 89 75 90 78 91 76 92 55 93 56 94 64 95 57 96 58 97 62 98
REMARK SMILES IDX 65 99 59 100 60 101 63 102 61 103
REMARK H PARENT 22 5 15 15 8 20 26 37 85 56 53 67
REMARK Flexibility Score: inf
ROOT
ATOM      1  C   UNL     1       3.195   4.928  -2.996  1.00  0.00     0.118 C 
ENDROOT
BRANCH   1   2
ATOM      2  N   UNL     1       4.137   5.919  -3.514  1.00  0.00    -0.352 N 
ATOM      3  C   UNL     1       5.472   6.125  -3.229  1.00  0.00     0.251 C 
ATOM      4  O   UNL     1       6.136   6.851  -3.966  1.00  0.00    -0.269 OA
ATOM      5  H   UNL     1       3.756   6.543  -4.173  1.00  0.00     0.163 HD
BRANCH   3   6
ATOM      6  C   UNL     1       6.136   5.483  -2.067  1.00  0.00     0.039 A 
ATOM      7  C   UNL     1       7.364   4.143   0.060  1.00  0.00     0.041 A 
ATOM      8  C   UNL     1       6.117   4.738   0.219  1.00  0.00     0.027 A 
ATOM      9  C   UNL     1       8.088   4.374  -1.103  1.00  0.00     0.027 A 
ATOM     10  C   UNL     1       5.505   5.403  -0.834  1.00  0.00     0.016 A 
ATOM     11  C   UNL     1       7.464   5.034  -2.175  1.00  0.00     0.016 A 
BRANCH   7  12
ATOM     12  N   UNL     1       7.848   3.292   1.060  1.00  0.00    -0.326 N 
ATOM     13  C   UNL     1       7.174   2.195   1.562  1.00  0.00     0.226 C 
ATOM     14  O   UNL     1       7.518   1.667   2.618  1.00  0.00    -0.275 OA
ATOM     15  H   UNL     1       8.737   3.490   1.435  1.00  0.00     0.169 HD
BRANCH  13  16
ATOM     16  C   UNL     1       6.141   1.539   0.654  1.00  0.00     0.128 C 
BRANCH  16  17
ATOM     17  C   UNL     1       4.717   1.498   1.164  1.00  0.00     0.183 C 
ATOM     18  N   UNL     1       1.044   1.839   0.679  1.00  0.00    -0.234 N 
ATOM     19  C   UNL     1       2.309   2.042   0.616  1.00  0.00     0.319 C 
ATOM     20  H   UNL     1       0.532   2.525   1.166  1.00  0.00     0.313 HD
ATOM     21  S   UNL     1       3.562   1.205  -0.236  1.00  0.00    -0.022 SA
ATOM     22  N   UNL     1       2.886   3.034   1.353  1.00  0.00    -0.193 N 
ATOM     23  C   UNL     1       4.154   2.749   1.815  1.00  0.00     0.324 C 
ATOM     24  C   UNL     1       2.164   4.195   1.832  1.00  0.00     0.301 C 
ATOM     25  O   UNL     1       4.706   3.361   2.723  1.00  0.00    -0.245 OA
BRANCH  18  26
ATOM     26  C   UNL     1       0.284   0.782   0.156  1.00  0.00     0.128 A 
ATOM     27  C   UNL     1       1.828  -1.201   0.782  1.00  0.00     0.049 C 
ATOM     28  C   UNL     1       0.554  -0.601   0.258  1.00  0.00    -0.004 A 
ATOM     29  C   UNL     1      -0.432  -1.531  -0.137  1.00  0.00     0.008 A 
ATOM     30  C   UNL     1      -1.698  -1.119  -0.541  1.00  0.00     0.001 A 
ATOM     31  C   UNL     1      -1.000   1.167  -0.274  1.00  0.00     0.052 A 
ATOM     32  C   UNL     1      -1.986   0.234  -0.604  1.00  0.00     0.004 A 
ENDBRANCH  18  26
ENDBRANCH  16  17
ENDBRANCH  13  16
ENDBRANCH   7  12
ENDBRANCH   3   6
ENDBRANCH   1   2
BRANCH   1  33
ATOM     33  C   UNL     1       2.237   5.497  -1.949  1.00  0.00     0.042 C 
BRANCH  33  34
ATOM     34  C   UNL     1       0.982   6.148  -2.518  1.00  0.00     0.118 C 
BRANCH  34  35
ATOM     35  N   UNL     1      -0.245   5.383  -2.295  1.00  0.00    -0.352 N 
ATOM     36  C   UNL     1      -1.559   5.726  -2.597  1.00  0.00     0.251 C 
ATOM     37  H   UNL     1      -0.124   4.502  -1.872  1.00  0.00     0.163 HD
ATOM     38  O   UNL     1      -2.473   4.957  -2.380  1.00  0.00    -0.269 OA
BRANCH  36  39
ATOM     39  C   UNL     1      -1.804   7.002  -3.314  1.00  0.00     0.039 A 
ATOM     40  C   UNL     1      -2.478   6.955  -4.539  1.00  0.00     0.014 A 
ATOM     41  C   UNL     1      -1.142   8.156  -2.915  1.00  0.00     0.014 A 
ATOM     42  C   UNL     1      -2.247   7.960  -5.476  1.00  0.00     0.010 A 
ATOM     43  C   UNL     1      -0.808   9.079  -3.883  1.00  0.00     0.010 A 
ATOM     44  C   UNL     1      -1.302   8.943  -5.188  1.00  0.00    -0.014 A 
BRANCH  44  45
ATOM     45  C   UNL     1      -0.653   9.776  -6.199  1.00  0.00     0.031 A 
ATOM     46  C   UNL     1      -0.821  11.247  -6.191  1.00  0.00     0.074 A 
ATOM     47  C   UNL     1       0.255   9.214  -7.031  1.00  0.00     0.049 A 
ATOM     48  N   UNL     1      -0.464  12.020  -7.161  1.00  0.00    -0.248 NA
ATOM     49  C   UNL     1      -1.437  11.970  -5.085  1.00  0.00     0.031 C 
ATOM     50  C   UNL     1       1.287   9.901  -7.807  1.00  0.00     0.029 A 
ATOM     51  N   UNL     1       0.313   7.885  -7.488  1.00  0.00    -0.354 N 
ATOM     52  C   UNL     1      -0.566  13.321  -6.731  1.00  0.00     0.074 A 
ATOM     53  C   UNL     1      -1.200  13.238  -5.436  1.00  0.00     0.031 C 
ATOM     54  C   UNL     1       1.661   9.115  -8.827  1.00  0.00     0.029 A 
ATOM     55  C   UNL     1       0.775   7.968  -8.828  1.00  0.00     0.049 A 
ATOM     56  H   UNL     1       0.081   7.071  -6.986  1.00  0.00     0.167 HD
ATOM     57  C   UNL     1      -0.019  14.317  -7.485  1.00  0.00     0.037 A 
ATOM     58  C   UNL     1      -0.012   7.584  -9.875  1.00  0.00     0.037 A 
ATOM     59  C   UNL     1       0.526  13.810  -8.739  1.00  0.00     0.049 A 
ATOM     60  C   UNL     1      -0.326   8.678 -10.876  1.00  0.00     0.074 A 
ATOM     61  C   UNL     1       1.788  13.443  -9.177  1.00  0.00     0.029 A 
ATOM     62  N   UNL     1      -0.359  13.336  -9.686  1.00  0.00    -0.354 N 
ATOM     63  N   UNL     1       0.028   9.925 -10.736  1.00  0.00    -0.248 NA
ATOM     64  C   UNL     1      -1.166   8.469 -12.057  1.00  0.00     0.031 C 
ATOM     65  C   UNL     1       1.641  12.731 -10.402  1.00  0.00     0.029 A 
ATOM     66  C   UNL     1       0.293  12.670 -10.702  1.00  0.00     0.049 A 
ATOM     67  H   UNL     1      -1.335  13.458  -9.641  1.00  0.00     0.167 HD
ATOM     68  C   UNL     1      -0.579  10.676 -11.705  1.00  0.00     0.074 A 
ATOM     69  C   UNL     1      -1.304   9.723 -12.520  1.00  0.00     0.031 C 
ATOM     70  C   UNL     1      -0.497  12.035 -11.739  1.00  0.00     0.037 A 
BRANCH  57  71
ATOM     71  C   UNL     1       0.176  15.735  -7.016  1.00  0.00     0.064 A 
ATOM     72  C   UNL     1       1.258  16.507  -7.493  1.00  0.00     0.173 A 
ATOM     73  C   UNL     1      -0.652  16.387  -6.085  1.00  0.00     0.173 A 
ATOM     74  F   UNL     1       2.079  16.048  -8.446  1.00  0.00    -0.203 F 
ATOM     75  C   UNL     1       1.542  17.783  -7.002  1.00  0.00     0.198 A 
ATOM     76  C   UNL     1      -0.334  17.638  -5.547  1.00  0.00     0.198 A 
ATOM     77  F   UNL     1      -1.824  15.860  -5.708  1.00  0.00    -0.203 F 
ATOM     78  F   UNL     1       2.580  18.470  -7.499  1.00  0.00    -0.200 F 
ATOM     79  C   UNL     1       0.768  18.333  -6.001  1.00  0.00     0.200 A 
ATOM     80  F   UNL     1      -1.108  18.166  -4.588  1.00  0.00    -0.200 F 
ATOM     81  F   UNL     1       1.068  19.537  -5.496  1.00  0.00    -0.200 F 
ENDBRANCH  57  71
BRANCH  58  82
ATOM     82  C   UNL     1      -0.942   6.484  -9.510  1.00  0.00     0.064 A 
ATOM     83  C   UNL     1      -0.393   5.256  -9.093  1.00  0.00     0.173 A 
ATOM     84  C   UNL     1      -2.277   6.746  -9.183  1.00  0.00     0.173 A 
ATOM     85  F   UNL     1       0.885   4.960  -9.381  1.00  0.00    -0.203 F 
ATOM     86  C   UNL     1      -1.105   4.393  -8.265  1.00  0.00     0.198 A 
ATOM     87  C   UNL     1      -2.994   5.868  -8.371  1.00  0.00     0.198 A 
ATOM     88  F   UNL     1      -2.849   7.906  -9.537  1.00  0.00    -0.203 F 
ATOM     89  F   UNL     1      -0.511   3.298  -7.771  1.00  0.00    -0.200 F 
ATOM     90  C   UNL     1      -2.395   4.716  -7.880  1.00  0.00     0.200 A 
ATOM     91  F   UNL     1      -4.232   6.194  -7.973  1.00  0.00    -0.200 F 
ATOM     92  F   UNL     1      -3.045   3.947  -6.996  1.00  0.00    -0.200 F 
ENDBRANCH  58  82
BRANCH  70  93
ATOM     93  C   UNL     1      -1.183  12.875 -12.769  1.00  0.00     0.064 A 
ATOM     94  C   UNL     1      -1.033  12.633 -14.142  1.00  0.00     0.173 A 
ATOM     95  C   UNL     1      -1.908  14.028 -12.407  1.00  0.00     0.173 A 
ATOM     96  F   UNL     1      -0.336  11.572 -14.575  1.00  0.00    -0.203 F 
ATOM     97  C   UNL     1      -1.588  13.489 -15.095  1.00  0.00     0.198 A 
ATOM     98  C   UNL     1      -2.417  14.907 -13.359  1.00  0.00     0.198 A 
ATOM     99  F   UNL     1      -2.159  14.316 -11.120  1.00  0.00    -0.203 F 
ATOM    100  F   UNL     1      -1.458  13.206 -16.398  1.00  0.00    -0.200 F 
ATOM    101  C   UNL     1      -2.263  14.634 -14.704  1.00  0.00     0.200 A 
ATOM    102  F   UNL     1      -3.058  16.016 -12.964  1.00  0.00    -0.200 F 
ATOM    103  F   UNL     1      -2.770  15.468 -15.621  1.00  0.00    -0.200 F 
ENDBRANCH  70  93
ENDBRANCH  44  45
ENDBRANCH  36  39
ENDBRANCH  34  35
ENDBRANCH  33  34
ENDBRANCH   1  33
TORSDOF 14
