REMARK SMILES CC/C(C)=N/[NH+]=C1/NC(=O)[C@H](CC(=O)NCCCNC(=O)c2ccc(-c3c4nc(c(-c5c(F)c(F)c(F)c(F)c5F)c5ccc([nH]5)c(-c5c(F)c(F)c(F)c(F)c5F)c5nc(c(-c6c(F)c(F)c(F)c(F)c6F)c6ccc3[nH]6)C=C5)C=C4)cc2)S1
REMARK SMILES IDX 16 1 15 2 13 3 14 4 12 6 11 7 6 8 7 9 8 11 85 12 9 13 10 15
REMARK SMILES IDX 5 16 3 17 4 18 2 19 1 20 17 21 18 22 19 23 20 24 21 26 22 27
REMARK SMILES IDX 23 28 84 29 24 30 83 31 25 32 26 33 27 34 77 35 28 36 82 37
REMARK SMILES IDX 76 38 78 39 29 40 81 41 75 42 74 43 30 45 62 46 42 47 61 48
REMARK SMILES IDX 43 49 46 50 60 51 79 52 44 53 45 54 59 56 80 57 47 58 31 59
REMARK SMILES IDX 32 60 40 61 33 62 34 63 38 64 41 65 35 66 36 67 39 68 37 69
REMARK SMILES IDX 63 70 64 71 72 72 65 73 66 74 70 75 73 76 67 77 68 78 71 79
REMARK SMILES IDX 69 80 48 81 49 82 57 83 50 84 51 85 55 86 58 87 52 88 53 89
REMARK SMILES IDX 56 90 54 91
REMARK H PARENT 15 5 6 10 8 14 19 25 78 44 46 55
REMARK Flexibility Score: inf
ROOT
ATOM      1  C   UNL     1       3.181   7.350  -6.017  1.00  0.00     0.117 C 
ENDROOT
BRANCH   1   2
ATOM      2  N   UNL     1       1.903   8.047  -5.949  1.00  0.00    -0.356 N 
ATOM      3  C   UNL     1       0.977   8.109  -4.952  1.00  0.00     0.221 C 
ATOM      4  O   UNL     1      -0.076   8.713  -5.148  1.00  0.00    -0.275 OA
ATOM      5  H   UNL     1       1.671   8.559  -6.757  1.00  0.00     0.163 HD
BRANCH   3   6
ATOM      6  C   UNL     1       1.252   7.434  -3.634  1.00  0.00     0.127 C 
BRANCH   6   7
ATOM      7  C   UNL     1       0.638   6.049  -3.575  1.00  0.00     0.183 C 
ATOM      8  N   UNL     1       2.305   2.657  -2.933  1.00  0.00    -0.142 N 
ATOM      9  C   UNL     1       1.950   3.862  -3.221  1.00  0.00     0.337 C 
ATOM     10  H   UNL     1       2.719   2.054  -3.592  1.00  0.00     0.343 HD
ATOM     11  N   UNL     1       1.837   4.208  -4.517  1.00  0.00    -0.202 N 
ATOM     12  S   UNL     1       1.357   5.122  -2.177  1.00  0.00    -0.020 SA
ATOM     13  C   UNL     1       0.931   5.185  -4.784  1.00  0.00     0.322 C 
ATOM     14  H   UNL     1       2.374   3.782  -5.223  1.00  0.00     0.316 HD
ATOM     15  O   UNL     1       0.360   5.279  -5.863  1.00  0.00    -0.246 OA
BRANCH   8  16
ATOM     16  N   UNL     1       2.059   2.274  -1.617  1.00  0.00    -0.095 NA
ATOM     17  C   UNL     1       0.850   1.818  -1.429  1.00  0.00     0.058 C 
ATOM     18  C   UNL     1      -0.212   1.738  -2.511  1.00  0.00     0.066 C 
BRANCH  17  19
ATOM     19  C   UNL     1       0.469   1.351  -0.046  1.00  0.00     0.052 C 
ATOM     20  C   UNL     1       0.892  -0.094   0.125  1.00  0.00     0.010 C 
ENDBRANCH  17  19
ENDBRANCH   8  16
ENDBRANCH   6   7
ENDBRANCH   3   6
ENDBRANCH   1   2
BRANCH   1  21
ATOM     21  C   UNL     1       3.212   6.300  -7.123  1.00  0.00     0.042 C 
BRANCH  21  22
ATOM     22  C   UNL     1       3.060   6.880  -8.519  1.00  0.00     0.118 C 
BRANCH  22  23
ATOM     23  N   UNL     1       4.317   7.417  -9.013  1.00  0.00    -0.352 N 
ATOM     24  C   UNL     1       5.100   6.954 -10.044  1.00  0.00     0.251 C 
ATOM     25  H   UNL     1       4.652   8.218  -8.548  1.00  0.00     0.163 HD
ATOM     26  O   UNL     1       6.248   7.355 -10.179  1.00  0.00    -0.269 OA
BRANCH  24  27
ATOM     27  C   UNL     1       4.548   5.949 -10.980  1.00  0.00     0.039 A 
ATOM     28  C   UNL     1       5.330   4.852 -11.350  1.00  0.00     0.014 A 
ATOM     29  C   UNL     1       3.255   6.093 -11.489  1.00  0.00     0.014 A 
ATOM     30  C   UNL     1       4.792   3.868 -12.184  1.00  0.00     0.010 A 
ATOM     31  C   UNL     1       2.691   5.070 -12.241  1.00  0.00     0.010 A 
ATOM     32  C   UNL     1       3.457   3.953 -12.611  1.00  0.00    -0.014 A 
BRANCH  32  33
ATOM     33  C   UNL     1       2.837   2.929 -13.491  1.00  0.00     0.031 A 
ATOM     34  C   UNL     1       2.332   3.338 -14.848  1.00  0.00     0.074 A 
ATOM     35  C   UNL     1       2.644   1.671 -13.048  1.00  0.00     0.049 A 
ATOM     36  N   UNL     1       1.591   2.671 -15.696  1.00  0.00    -0.248 NA
ATOM     37  C   UNL     1       2.679   4.697 -15.294  1.00  0.00     0.031 C 
ATOM     38  C   UNL     1       3.069   1.155 -11.747  1.00  0.00     0.029 A 
ATOM     39  N   UNL     1       2.010   0.604 -13.638  1.00  0.00    -0.354 N 
ATOM     40  C   UNL     1       1.368   3.536 -16.760  1.00  0.00     0.074 A 
ATOM     41  C   UNL     1       1.998   4.793 -16.426  1.00  0.00     0.031 C 
ATOM     42  C   UNL     1       2.683  -0.127 -11.635  1.00  0.00     0.029 A 
ATOM     43  C   UNL     1       1.939  -0.508 -12.833  1.00  0.00     0.049 A 
ATOM     44  H   UNL     1       1.642   0.633 -14.550  1.00  0.00     0.167 HD
ATOM     45  C   UNL     1       0.719   3.294 -17.923  1.00  0.00     0.037 A 
ATOM     46  C   UNL     1       1.316  -1.687 -13.026  1.00  0.00     0.037 A 
ATOM     47  C   UNL     1       0.113   2.035 -18.260  1.00  0.00     0.049 A 
ATOM     48  C   UNL     1       0.569  -1.921 -14.315  1.00  0.00     0.074 A 
ATOM     49  C   UNL     1      -0.547   1.679 -19.422  1.00  0.00     0.029 A 
ATOM     50  N   UNL     1       0.097   0.922 -17.432  1.00  0.00    -0.354 N 
ATOM     51  N   UNL     1       0.394  -1.109 -15.330  1.00  0.00    -0.248 NA
ATOM     52  C   UNL     1      -0.064  -3.237 -14.490  1.00  0.00     0.031 C 
ATOM     53  C   UNL     1      -1.004   0.365 -19.280  1.00  0.00     0.029 A 
ATOM     54  C   UNL     1      -0.571  -0.118 -18.055  1.00  0.00     0.049 A 
ATOM     55  H   UNL     1       0.500   0.878 -16.535  1.00  0.00     0.167 HD
ATOM     56  C   UNL     1      -0.327  -1.827 -16.275  1.00  0.00     0.074 A 
ATOM     57  C   UNL     1      -0.557  -3.142 -15.716  1.00  0.00     0.031 C 
ATOM     58  C   UNL     1      -0.757  -1.433 -17.498  1.00  0.00     0.037 A 
BRANCH  45  59
ATOM     59  C   UNL     1       0.639   4.413 -18.922  1.00  0.00     0.064 A 
ATOM     60  C   UNL     1       1.778   4.874 -19.600  1.00  0.00     0.173 A 
ATOM     61  C   UNL     1      -0.594   5.003 -19.236  1.00  0.00     0.173 A 
ATOM     62  F   UNL     1       2.984   4.352 -19.328  1.00  0.00    -0.203 F 
ATOM     63  C   UNL     1       1.690   5.904 -20.532  1.00  0.00     0.198 A 
ATOM     64  C   UNL     1      -0.684   6.009 -20.195  1.00  0.00     0.198 A 
ATOM     65  F   UNL     1      -1.716   4.596 -18.623  1.00  0.00    -0.203 F 
ATOM     66  F   UNL     1       2.799   6.363 -21.128  1.00  0.00    -0.200 F 
ATOM     67  C   UNL     1       0.458   6.464 -20.836  1.00  0.00     0.200 A 
ATOM     68  F   UNL     1      -1.878   6.537 -20.500  1.00  0.00    -0.200 F 
ATOM     69  F   UNL     1       0.373   7.447 -21.742  1.00  0.00    -0.200 F 
ENDBRANCH  45  59
BRANCH  46  70
ATOM     70  C   UNL     1       1.360  -2.739 -11.974  1.00  0.00     0.064 A 
ATOM     71  C   UNL     1       2.034  -3.950 -12.189  1.00  0.00     0.173 A 
ATOM     72  C   UNL     1       0.705  -2.569 -10.745  1.00  0.00     0.173 A 
ATOM     73  F   UNL     1       2.659  -4.170 -13.354  1.00  0.00    -0.203 F 
ATOM     74  C   UNL     1       2.022  -4.962 -11.231  1.00  0.00     0.198 A 
ATOM     75  C   UNL     1       0.723  -3.568  -9.774  1.00  0.00     0.198 A 
ATOM     76  F   UNL     1       0.051  -1.428 -10.484  1.00  0.00    -0.203 F 
ATOM     77  F   UNL     1       2.620  -6.133 -11.489  1.00  0.00    -0.200 F 
ATOM     78  C   UNL     1       1.370  -4.769 -10.022  1.00  0.00     0.200 A 
ATOM     79  F   UNL     1       0.106  -3.370  -8.601  1.00  0.00    -0.200 F 
ATOM     80  F   UNL     1       1.356  -5.743  -9.102  1.00  0.00    -0.200 F 
ENDBRANCH  46  70
BRANCH  58  81
ATOM     81  C   UNL     1      -1.453  -2.448 -18.358  1.00  0.00     0.064 A 
ATOM     82  C   UNL     1      -2.759  -2.880 -18.089  1.00  0.00     0.173 A 
ATOM     83  C   UNL     1      -0.828  -2.927 -19.521  1.00  0.00     0.173 A 
ATOM     84  F   UNL     1      -3.394  -2.462 -16.984  1.00  0.00    -0.203 F 
ATOM     85  C   UNL     1      -3.409  -3.765 -18.946  1.00  0.00     0.198 A 
ATOM     86  C   UNL     1      -1.493  -3.785 -20.391  1.00  0.00     0.198 A 
ATOM     87  F   UNL     1       0.419  -2.538 -19.827  1.00  0.00    -0.203 F 
ATOM     88  F   UNL     1      -4.646  -4.191 -18.653  1.00  0.00    -0.200 F 
ATOM     89  C   UNL     1      -2.781  -4.206 -20.102  1.00  0.00     0.200 A 
ATOM     90  F   UNL     1      -0.890  -4.195 -21.516  1.00  0.00    -0.200 F 
ATOM     91  F   UNL     1      -3.418  -5.039 -20.936  1.00  0.00    -0.200 F 
ENDBRANCH  58  81
ENDBRANCH  32  33
ENDBRANCH  24  27
ENDBRANCH  22  23
ENDBRANCH  21  22
ENDBRANCH   1  21
TORSDOF 13
