REMARK SMILES CCOC(=O)[C@H](c1ccccc1)N1C(=O)/C(=C/c2ccc(C(=O)NCCCNC(=O)c3ccc(-c4c5nc(c(-c6c(F)c(F)c(F)c(F)c6F)c6ccc([nH]6)c(-c6c(F)c(F)c(F)c(F)c6F)c6nc(c(-c7c(F)c(F)c(F)c(F)c7F)c7ccc4[nH]7)C=C6)C=C5)cc3)cc2)SC1=S
REMARK SMILES IDX 22 1 23 2 24 3 21 5 18 6 19 7 95 8 20 9 94 10 17 11 13 12
REMARK SMILES IDX 14 13 97 14 15 15 16 16 96 17 98 18 6 19 4 20 5 21 3 22 2 23
REMARK SMILES IDX 1 24 7 25 8 26 12 27 9 28 11 29 10 30 25 31 26 32 27 33
REMARK SMILES IDX 28 34 29 35 30 37 31 38 32 39 93 40 33 41 92 42 34 43 35 44
REMARK SMILES IDX 36 45 86 46 37 47 91 48 85 49 87 50 38 51 90 52 84 53 83 54
REMARK SMILES IDX 39 56 71 57 51 58 70 59 52 60 55 61 69 62 88 63 53 64 54 65
REMARK SMILES IDX 68 67 89 68 56 69 40 70 41 71 49 72 42 73 43 74 47 75 50 76
REMARK SMILES IDX 44 77 45 78 48 79 46 80 72 81 73 82 81 83 74 84 75 85 79 86
REMARK SMILES IDX 82 87 76 88 77 89 80 90 78 91 57 92 58 93 66 94 59 95 60 96
REMARK SMILES IDX 64 97 67 98 61 99 62 100 65 101 63 102
REMARK H PARENT 24 4 28 36 87 55 55 66
REMARK Flexibility Score: inf
ROOT
ATOM      1  C   UNL     1       1.048 -12.789  -3.340  1.00  0.00     0.251 C 
ATOM      2  O   UNL     1       0.462 -13.796  -2.945  1.00  0.00    -0.269 OA
ATOM      3  N   UNL     1       1.121 -12.582  -4.695  1.00  0.00    -0.352 N 
ATOM      4  H   UNL     1       0.739 -13.314  -5.231  1.00  0.00     0.163 HD
ENDROOT
BRANCH   1   5
ATOM      5  C   UNL     1       1.594 -11.831  -2.340  1.00  0.00     0.039 A 
ATOM      6  C   UNL     1       2.420  -9.958  -0.406  1.00  0.00    -0.024 A 
ATOM      7  C   UNL     1       1.330 -10.790  -0.146  1.00  0.00     0.009 A 
ATOM      8  C   UNL     1       3.137 -10.118  -1.599  1.00  0.00     0.009 A 
ATOM      9  C   UNL     1       0.923 -11.723  -1.109  1.00  0.00     0.014 A 
ATOM     10  C   UNL     1       2.738 -11.061  -2.548  1.00  0.00     0.014 A 
BRANCH   6  11
ATOM     11  C   UNL     1       2.760  -8.816   0.452  1.00  0.00     0.029 C 
ATOM     12  N   UNL     1       2.195  -5.212   0.256  1.00  0.00    -0.274 N 
ATOM     13  C   UNL     1       2.796  -6.336   0.819  1.00  0.00     0.267 C 
ATOM     14  C   UNL     1       1.582  -5.493  -0.953  1.00  0.00     0.149 C 
ATOM     15  O   UNL     1       3.729  -6.329   1.619  1.00  0.00    -0.268 OA
ATOM     16  C   UNL     1       2.283  -7.587   0.197  1.00  0.00     0.081 C 
ATOM     17  S   UNL     1       1.122  -7.188  -0.996  1.00  0.00    -0.054 SA
ATOM     18  S   UNL     1       1.333  -4.601  -2.340  1.00  0.00    -0.052 S 
BRANCH  12  19
ATOM     19  C   UNL     1       2.551  -3.881   0.849  1.00  0.00     0.232 C 
BRANCH  19  20
ATOM     20  C   UNL     1       2.155  -3.686   2.358  1.00  0.00     0.333 C 
ATOM     21  O   UNL     1       2.092  -2.589   2.906  1.00  0.00    -0.249 OA
BRANCH  20  22
ATOM     22  O   UNL     1       1.972  -4.856   3.027  1.00  0.00    -0.464 OA
BRANCH  22  23
ATOM     23  C   UNL     1       1.675  -4.789   4.435  1.00  0.00     0.229 C 
ATOM     24  C   UNL     1       2.759  -4.136   5.285  1.00  0.00     0.049 C 
ENDBRANCH  22  23
ENDBRANCH  20  22
ENDBRANCH  19  20
BRANCH  19  25
ATOM     25  C   UNL     1       2.040  -2.663   0.083  1.00  0.00    -0.014 A 
ATOM     26  C   UNL     1       0.671  -2.327   0.088  1.00  0.00     0.006 A 
ATOM     27  C   UNL     1       2.928  -1.872  -0.666  1.00  0.00     0.006 A 
ATOM     28  C   UNL     1       0.199  -1.269  -0.688  1.00  0.00     0.000 A 
ATOM     29  C   UNL     1       2.448  -0.811  -1.437  1.00  0.00     0.000 A 
ATOM     30  C   UNL     1       1.085  -0.520  -1.458  1.00  0.00     0.000 A 
ENDBRANCH  19  25
ENDBRANCH  12  19
ENDBRANCH   6  11
ENDBRANCH   1   5
BRANCH   3  31
ATOM     31  C   UNL     1       1.654 -11.488  -5.489  1.00  0.00     0.118 C 
BRANCH  31  32
ATOM     32  C   UNL     1       3.014 -11.851  -6.088  1.00  0.00     0.042 C 
BRANCH  32  33
ATOM     33  C   UNL     1       2.926 -12.853  -7.238  1.00  0.00     0.118 C 
BRANCH  33  34
ATOM     34  N   UNL     1       2.316 -12.272  -8.425  1.00  0.00    -0.352 N 
ATOM     35  C   UNL     1       2.813 -12.123  -9.695  1.00  0.00     0.251 C 
ATOM     36  H   UNL     1       1.401 -11.932  -8.296  1.00  0.00     0.163 HD
ATOM     37  O   UNL     1       2.222 -11.403 -10.494  1.00  0.00    -0.269 OA
BRANCH  35  38
ATOM     38  C   UNL     1       4.057 -12.809 -10.111  1.00  0.00     0.039 A 
ATOM     39  C   UNL     1       4.955 -12.124 -10.935  1.00  0.00     0.014 A 
ATOM     40  C   UNL     1       4.319 -14.131  -9.743  1.00  0.00     0.014 A 
ATOM     41  C   UNL     1       6.139 -12.743 -11.343  1.00  0.00     0.010 A 
ATOM     42  C   UNL     1       5.533 -14.723 -10.090  1.00  0.00     0.010 A 
ATOM     43  C   UNL     1       6.454 -14.036 -10.896  1.00  0.00    -0.014 A 
BRANCH  43  44
ATOM     44  C   UNL     1       7.748 -14.675 -11.251  1.00  0.00     0.031 A 
ATOM     45  C   UNL     1       7.777 -15.931 -12.079  1.00  0.00     0.074 A 
ATOM     46  C   UNL     1       8.895 -14.159 -10.767  1.00  0.00     0.049 A 
ATOM     47  N   UNL     1       8.801 -16.669 -12.428  1.00  0.00    -0.248 NA
ATOM     48  C   UNL     1       6.483 -16.440 -12.560  1.00  0.00     0.031 C 
ATOM     49  C   UNL     1       8.992 -12.976  -9.909  1.00  0.00     0.029 A 
ATOM     50  N   UNL     1      10.197 -14.570 -10.910  1.00  0.00    -0.354 N 
ATOM     51  C   UNL     1       8.275 -17.735 -13.146  1.00  0.00     0.074 A 
ATOM     52  C   UNL     1       6.837 -17.572 -13.152  1.00  0.00     0.031 C 
ATOM     53  C   UNL     1      10.281 -12.751  -9.611  1.00  0.00     0.029 A 
ATOM     54  C   UNL     1      11.099 -13.796 -10.219  1.00  0.00     0.049 A 
ATOM     55  H   UNL     1      10.460 -15.346 -11.455  1.00  0.00     0.167 HD
ATOM     56  C   UNL     1       8.935 -18.748 -13.757  1.00  0.00     0.037 A 
ATOM     57  C   UNL     1      12.432 -13.925 -10.076  1.00  0.00     0.037 A 
ATOM     58  C   UNL     1      10.368 -18.884 -13.776  1.00  0.00     0.049 A 
ATOM     59  C   UNL     1      13.137 -15.057 -10.775  1.00  0.00     0.074 A 
ATOM     60  C   UNL     1      11.134 -19.825 -14.443  1.00  0.00     0.029 A 
ATOM     61  N   UNL     1      11.251 -18.063 -13.091  1.00  0.00    -0.354 N 
ATOM     62  N   UNL     1      12.636 -16.006 -11.528  1.00  0.00    -0.248 NA
ATOM     63  C   UNL     1      14.596 -15.132 -10.611  1.00  0.00     0.031 C 
ATOM     64  C   UNL     1      12.475 -19.612 -14.112  1.00  0.00     0.029 A 
ATOM     65  C   UNL     1      12.551 -18.498 -13.292  1.00  0.00     0.049 A 
ATOM     66  H   UNL     1      10.992 -17.286 -12.544  1.00  0.00     0.167 HD
ATOM     67  C   UNL     1      13.715 -16.770 -11.949  1.00  0.00     0.074 A 
ATOM     68  C   UNL     1      14.902 -16.162 -11.386  1.00  0.00     0.031 C 
ATOM     69  C   UNL     1      13.724 -17.877 -12.731  1.00  0.00     0.037 A 
BRANCH  56  70
ATOM     70  C   UNL     1       8.125 -19.800 -14.458  1.00  0.00     0.064 A 
ATOM     71  C   UNL     1       7.441 -19.533 -15.653  1.00  0.00     0.173 A 
ATOM     72  C   UNL     1       8.101 -21.116 -13.969  1.00  0.00     0.173 A 
ATOM     73  F   UNL     1       7.425 -18.291 -16.160  1.00  0.00    -0.203 F 
ATOM     74  C   UNL     1       6.752 -20.541 -16.325  1.00  0.00     0.198 A 
ATOM     75  C   UNL     1       7.437 -22.126 -14.659  1.00  0.00     0.198 A 
ATOM     76  F   UNL     1       8.744 -21.427 -12.833  1.00  0.00    -0.203 F 
ATOM     77  F   UNL     1       6.079 -20.256 -17.448  1.00  0.00    -0.200 F 
ATOM     78  C   UNL     1       6.760 -21.837 -15.833  1.00  0.00     0.200 A 
ATOM     79  F   UNL     1       7.459 -23.382 -14.190  1.00  0.00    -0.200 F 
ATOM     80  F   UNL     1       6.113 -22.809 -16.492  1.00  0.00    -0.200 F 
ENDBRANCH  56  70
BRANCH  57  81
ATOM     81  C   UNL     1      13.191 -12.963  -9.231  1.00  0.00     0.064 A 
ATOM     82  C   UNL     1      14.128 -12.085  -9.794  1.00  0.00     0.173 A 
ATOM     83  C   UNL     1      13.017 -12.924  -7.840  1.00  0.00     0.173 A 
ATOM     84  F   UNL     1      14.345 -12.096 -11.117  1.00  0.00    -0.203 F 
ATOM     85  C   UNL     1      14.888 -11.233  -8.995  1.00  0.00     0.198 A 
ATOM     86  C   UNL     1      13.751 -12.045  -7.045  1.00  0.00     0.198 A 
ATOM     87  F   UNL     1      12.128 -13.736  -7.249  1.00  0.00    -0.203 F 
ATOM     88  F   UNL     1      15.822 -10.451  -9.553  1.00  0.00    -0.200 F 
ATOM     89  C   UNL     1      14.696 -11.210  -7.622  1.00  0.00     0.200 A 
ATOM     90  F   UNL     1      13.549 -12.014  -5.721  1.00  0.00    -0.200 F 
ATOM     91  F   UNL     1      15.428 -10.392  -6.854  1.00  0.00    -0.200 F 
ENDBRANCH  57  81
BRANCH  69  92
ATOM     92  C   UNL     1      15.059 -18.483 -13.055  1.00  0.00     0.064 A 
ATOM     93  C   UNL     1      15.824 -19.147 -12.084  1.00  0.00     0.173 A 
ATOM     94  C   UNL     1      15.562 -18.432 -14.364  1.00  0.00     0.173 A 
ATOM     95  F   UNL     1      15.396 -19.211 -10.814  1.00  0.00    -0.203 F 
ATOM     96  C   UNL     1      17.055 -19.712 -12.406  1.00  0.00     0.198 A 
ATOM     97  C   UNL     1      16.776 -19.029 -14.690  1.00  0.00     0.198 A 
ATOM     98  F   UNL     1      14.867 -17.817 -15.332  1.00  0.00    -0.203 F 
ATOM     99  F   UNL     1      17.793 -20.294 -11.451  1.00  0.00    -0.200 F 
ATOM    100  C   UNL     1      17.526 -19.660 -13.710  1.00  0.00     0.200 A 
ATOM    101  F   UNL     1      17.221 -18.992 -15.954  1.00  0.00    -0.200 F 
ATOM    102  F   UNL     1      18.707 -20.212 -14.020  1.00  0.00    -0.200 F 
ENDBRANCH  69  92
ENDBRANCH  43  44
ENDBRANCH  35  38
ENDBRANCH  33  34
ENDBRANCH  32  33
ENDBRANCH  31  32
ENDBRANCH   3  31
TORSDOF 16
