REMARK SMILES O=C(Cn1c(-c2nc(-c3ccc(C(F)(F)F)cc3)no2)cc2ccccc21)NCCCNC(=O)c1ccc(-c2c3nc(c(-c4c(F)c(F)c(F)c(F)c4F)c4ccc([nH]4)c(-c4c(F)c(F)c(F)c(F)c4F)c4nc(c(-c5c(F)c(F)c(F)c(F)c5F)c5ccc2[nH]5)C=C4)C=C3)cc1
REMARK SMILES IDX 29 1 28 2 1 3 2 4 3 6 4 7 5 8 27 9 21 10 22 11 26 12 23 13
REMARK SMILES IDX 25 14 24 15 6 16 7 17 20 18 8 19 19 20 9 21 10 22 18 23
REMARK SMILES IDX 11 24 17 25 12 26 13 27 14 28 15 29 16 30 30 31 31 32 32 33
REMARK SMILES IDX 33 34 34 36 35 37 36 38 97 39 37 40 96 41 38 42 39 43 40 44
REMARK SMILES IDX 90 45 41 46 95 47 89 48 91 49 42 50 94 51 88 52 87 53 43 55
REMARK SMILES IDX 75 56 55 57 74 58 56 59 59 60 73 61 92 62 57 63 58 64 72 66
REMARK SMILES IDX 93 67 60 68 44 69 45 70 53 71 46 72 47 73 51 74 54 75 48 76
REMARK SMILES IDX 49 77 52 78 50 79 76 80 77 81 85 82 78 83 79 84 83 85 86 86
REMARK SMILES IDX 80 87 81 88 84 89 82 90 61 91 62 92 70 93 63 94 64 95 68 96
REMARK SMILES IDX 71 97 65 98 66 99 69 100 67 101
REMARK H PARENT 28 5 32 35 91 54 59 65
REMARK Flexibility Score: inf
ROOT
ATOM      1  C   UNL     1       2.187  -1.886   1.403  1.00  0.00     0.117 C 
ENDROOT
BRANCH   1   2
ATOM      2  N   UNL     1       2.812  -0.932   0.506  1.00  0.00    -0.354 N 
ATOM      3  O   UNL     1       1.054   0.522   0.261  1.00  0.00    -0.273 OA
ATOM      4  C   UNL     1       2.225   0.220   0.031  1.00  0.00     0.239 C 
ATOM      5  H   UNL     1       3.731  -1.124   0.212  1.00  0.00     0.163 HD
BRANCH   4   6
ATOM      6  C   UNL     1       3.144   1.079  -0.832  1.00  0.00     0.222 C 
BRANCH   6   7
ATOM      7  N   UNL     1       3.893   2.063  -0.053  1.00  0.00    -0.327 N 
ATOM      8  C   UNL     1       3.649   3.425  -0.004  1.00  0.00     0.109 A 
ATOM      9  C   UNL     1       4.971   1.749   0.771  1.00  0.00     0.049 A 
ATOM     10  C   UNL     1       4.495   3.955   0.952  1.00  0.00     0.042 A 
ATOM     11  C   UNL     1       5.260   2.898   1.510  1.00  0.00     0.000 A 
ATOM     12  C   UNL     1       5.698   0.560   0.968  1.00  0.00     0.027 A 
ATOM     13  C   UNL     1       6.191   2.817   2.565  1.00  0.00     0.010 A 
ATOM     14  C   UNL     1       6.592   0.491   2.039  1.00  0.00     0.002 A 
ATOM     15  C   UNL     1       6.818   1.599   2.845  1.00  0.00     0.001 A 
BRANCH   8  16
ATOM     16  C   UNL     1       2.621   4.111  -0.729  1.00  0.00     0.274 A 
ATOM     17  N   UNL     1       2.790   5.199  -1.460  1.00  0.00    -0.185 NA
ATOM     18  O   UNL     1       1.312   3.713  -0.681  1.00  0.00    -0.332 OA
ATOM     19  C   UNL     1       1.504   5.497  -1.857  1.00  0.00     0.202 A 
ATOM     20  N   UNL     1       0.580   4.632  -1.414  1.00  0.00    -0.057 NA
BRANCH  19  21
ATOM     21  C   UNL     1       1.120   6.615  -2.708  1.00  0.00     0.023 A 
ATOM     22  C   UNL     1       0.164   7.531  -2.244  1.00  0.00     0.013 A 
ATOM     23  C   UNL     1       1.536   6.685  -4.042  1.00  0.00     0.013 A 
ATOM     24  C   UNL     1      -0.429   8.447  -3.117  1.00  0.00     0.014 A 
ATOM     25  C   UNL     1       0.931   7.596  -4.922  1.00  0.00     0.014 A 
ATOM     26  C   UNL     1      -0.084   8.459  -4.476  1.00  0.00     0.056 A 
BRANCH  26  27
ATOM     27  C   UNL     1      -0.857   9.338  -5.434  1.00  0.00     0.416 C 
ATOM     28  F   UNL     1      -2.178   9.004  -5.484  1.00  0.00    -0.166 F 
ATOM     29  F   UNL     1      -0.821  10.655  -5.089  1.00  0.00    -0.166 F 
ATOM     30  F   UNL     1      -0.412   9.273  -6.719  1.00  0.00    -0.166 F 
ENDBRANCH  26  27
ENDBRANCH  19  21
ENDBRANCH   8  16
ENDBRANCH   6   7
ENDBRANCH   4   6
ENDBRANCH   1   2
BRANCH   1  31
ATOM     31  C   UNL     1       2.627  -3.324   1.103  1.00  0.00     0.042 C 
BRANCH  31  32
ATOM     32  C   UNL     1       4.143  -3.558   1.112  1.00  0.00     0.118 C 
BRANCH  32  33
ATOM     33  N   UNL     1       4.791  -3.329   2.386  1.00  0.00    -0.352 N 
ATOM     34  C   UNL     1       5.205  -4.155   3.397  1.00  0.00     0.251 C 
ATOM     35  H   UNL     1       4.973  -2.378   2.564  1.00  0.00     0.163 HD
ATOM     36  O   UNL     1       6.035  -3.688   4.179  1.00  0.00    -0.269 OA
BRANCH  34  37
ATOM     37  C   UNL     1       4.646  -5.507   3.671  1.00  0.00     0.039 A 
ATOM     38  C   UNL     1       3.767  -6.201   2.842  1.00  0.00     0.014 A 
ATOM     39  C   UNL     1       4.962  -6.058   4.929  1.00  0.00     0.014 A 
ATOM     40  C   UNL     1       3.117  -7.336   3.310  1.00  0.00     0.010 A 
ATOM     41  C   UNL     1       4.330  -7.205   5.395  1.00  0.00     0.010 A 
ATOM     42  C   UNL     1       3.360  -7.806   4.605  1.00  0.00    -0.014 A 
BRANCH  42  43
ATOM     43  C   UNL     1       2.648  -9.010   5.027  1.00  0.00     0.031 A 
ATOM     44  C   UNL     1       2.915 -10.188   4.158  1.00  0.00     0.074 A 
ATOM     45  C   UNL     1       1.873  -9.076   6.131  1.00  0.00     0.049 A 
ATOM     46  N   UNL     1       2.068 -10.847   3.438  1.00  0.00    -0.248 NA
ATOM     47  C   UNL     1       4.316 -10.597   3.952  1.00  0.00     0.031 C 
ATOM     48  C   UNL     1       1.744  -8.068   7.188  1.00  0.00     0.029 A 
ATOM     49  N   UNL     1       1.095 -10.101   6.595  1.00  0.00    -0.354 N 
ATOM     50  C   UNL     1       2.795 -11.870   2.833  1.00  0.00     0.074 A 
ATOM     51  C   UNL     1       4.185 -11.586   3.066  1.00  0.00     0.031 C 
ATOM     52  C   UNL     1       1.142  -8.621   8.266  1.00  0.00     0.029 A 
ATOM     53  C   UNL     1       0.711  -9.965   7.925  1.00  0.00     0.049 A 
ATOM     54  H   UNL     1       0.831 -10.868   6.036  1.00  0.00     0.167 HD
ATOM     55  C   UNL     1       2.178 -13.008   2.415  1.00  0.00     0.037 A 
ATOM     56  C   UNL     1       0.125 -10.911   8.701  1.00  0.00     0.037 A 
ATOM     57  C   UNL     1       0.758 -12.822   2.306  1.00  0.00     0.049 A 
ATOM     58  C   UNL     1      -0.528 -11.886   7.798  1.00  0.00     0.074 A 
ATOM     59  C   UNL     1      -0.109 -12.252   1.402  1.00  0.00     0.029 A 
ATOM     60  N   UNL     1       0.094 -12.947   3.493  1.00  0.00    -0.354 N 
ATOM     61  N   UNL     1      -1.559 -11.602   7.053  1.00  0.00    -0.248 NA
ATOM     62  C   UNL     1       0.163 -13.129   7.470  1.00  0.00     0.031 C 
ATOM     63  C   UNL     1      -1.271 -11.884   2.145  1.00  0.00     0.029 A 
ATOM     64  C   UNL     1      -1.098 -12.277   3.470  1.00  0.00     0.049 A 
ATOM     65  H   UNL     1       0.430 -13.456   4.267  1.00  0.00     0.167 HD
ATOM     66  C   UNL     1      -1.383 -12.379   5.927  1.00  0.00     0.074 A 
ATOM     67  C   UNL     1      -0.436 -13.416   6.311  1.00  0.00     0.031 C 
ATOM     68  C   UNL     1      -1.759 -11.917   4.702  1.00  0.00     0.037 A 
BRANCH  55  69
ATOM     69  C   UNL     1       2.769 -14.389   2.582  1.00  0.00     0.064 A 
ATOM     70  C   UNL     1       2.144 -15.498   1.979  1.00  0.00     0.173 A 
ATOM     71  C   UNL     1       3.734 -14.697   3.567  1.00  0.00     0.173 A 
ATOM     72  F   UNL     1       1.173 -15.323   1.070  1.00  0.00    -0.203 F 
ATOM     73  C   UNL     1       2.446 -16.812   2.356  1.00  0.00     0.198 A 
ATOM     74  C   UNL     1       4.068 -16.007   3.904  1.00  0.00     0.198 A 
ATOM     75  F   UNL     1       4.300 -13.748   4.323  1.00  0.00    -0.203 F 
ATOM     76  F   UNL     1       1.756 -17.834   1.829  1.00  0.00    -0.200 F 
ATOM     77  C   UNL     1       3.410 -17.065   3.316  1.00  0.00     0.200 A 
ATOM     78  F   UNL     1       4.979 -16.227   4.863  1.00  0.00    -0.200 F 
ATOM     79  F   UNL     1       3.670 -18.318   3.710  1.00  0.00    -0.200 F 
ENDBRANCH  55  69
BRANCH  56  80
ATOM     80  C   UNL     1       0.341 -11.213  10.139  1.00  0.00     0.064 A 
ATOM     81  C   UNL     1      -0.510 -12.102  10.822  1.00  0.00     0.173 A 
ATOM     82  C   UNL     1       1.559 -10.905  10.775  1.00  0.00     0.173 A 
ATOM     83  F   UNL     1      -1.679 -12.470  10.278  1.00  0.00    -0.203 F 
ATOM     84  C   UNL     1      -0.134 -12.700  12.030  1.00  0.00     0.198 A 
ATOM     85  C   UNL     1       1.929 -11.497  11.984  1.00  0.00     0.198 A 
ATOM     86  F   UNL     1       2.460 -10.107  10.186  1.00  0.00    -0.203 F 
ATOM     87  F   UNL     1      -0.933 -13.611  12.603  1.00  0.00    -0.200 F 
ATOM     88  C   UNL     1       1.095 -12.412  12.599  1.00  0.00     0.200 A 
ATOM     89  F   UNL     1       3.135 -11.235  12.509  1.00  0.00    -0.200 F 
ATOM     90  F   UNL     1       1.493 -13.047  13.710  1.00  0.00    -0.200 F 
ENDBRANCH  56  80
BRANCH  68  91
ATOM     91  C   UNL     1      -2.803 -10.848   4.657  1.00  0.00     0.064 A 
ATOM     92  C   UNL     1      -2.620  -9.534   5.118  1.00  0.00     0.173 A 
ATOM     93  C   UNL     1      -4.018 -11.155   4.031  1.00  0.00     0.173 A 
ATOM     94  F   UNL     1      -1.458  -9.149   5.662  1.00  0.00    -0.203 F 
ATOM     95  C   UNL     1      -3.627  -8.581   4.980  1.00  0.00     0.198 A 
ATOM     96  C   UNL     1      -5.006 -10.193   3.861  1.00  0.00     0.198 A 
ATOM     97  F   UNL     1      -4.228 -12.387   3.542  1.00  0.00    -0.203 F 
ATOM     98  F   UNL     1      -3.439  -7.333   5.436  1.00  0.00    -0.200 F 
ATOM     99  C   UNL     1      -4.814  -8.908   4.342  1.00  0.00     0.200 A 
ATOM    100  F   UNL     1      -6.132 -10.505   3.206  1.00  0.00    -0.200 F 
ATOM    101  F   UNL     1      -5.765  -7.979   4.170  1.00  0.00    -0.200 F 
ENDBRANCH  68  91
ENDBRANCH  42  43
ENDBRANCH  34  37
ENDBRANCH  32  33
ENDBRANCH  31  32
ENDBRANCH   1  31
TORSDOF 14
