REMARK SMILES CC(C)[C@@H](CC(=O)NCCCNC(=O)c1ccc(-c2c3nc(c(-c4c(F)c(F)c(F)c(F)c4F)c4ccc([nH]4)c(-c4c(F)c(F)c(F)c(F)c4F)c4nc(c(-c5c(F)c(F)c(F)c(F)c5F)c5ccc2[nH]5)C=C4)C=C3)cc1)NC(=O)OCc1ccccc1
REMARK SMILES IDX 6 1 7 2 8 3 5 5 4 6 2 7 1 8 3 9 78 10 79 11 80 13 81 14
REMARK SMILES IDX 82 15 83 16 84 17 88 18 85 19 87 20 86 21 9 22 10 23 11 24
REMARK SMILES IDX 12 25 13 26 14 28 15 29 16 30 77 31 17 32 76 33 18 34 19 35
REMARK SMILES IDX 20 36 70 37 21 38 75 39 69 40 71 41 22 42 74 43 68 44 67 45
REMARK SMILES IDX 23 47 55 48 35 49 54 50 36 51 39 52 53 53 72 54 37 55 38 56
REMARK SMILES IDX 52 58 73 59 40 60 24 61 25 62 33 63 26 64 27 65 31 66 34 67
REMARK SMILES IDX 28 68 29 69 32 70 30 71 56 72 57 73 65 74 58 75 59 76 63 77
REMARK SMILES IDX 66 78 60 79 61 80 64 81 62 82 41 83 42 84 50 85 43 86 44 87
REMARK SMILES IDX 48 88 51 89 45 90 46 91 49 92 47 93
REMARK H PARENT 8 4 78 12 12 27 71 46 39 57
REMARK Flexibility Score: inf
ROOT
ATOM      1  C   UNL     1      -1.000   2.636  -1.178  1.00  0.00     0.222 C 
ATOM      2  O   UNL     1      -1.844   3.239  -1.845  1.00  0.00    -0.275 OA
ATOM      3  N   UNL     1       0.231   3.206  -1.078  1.00  0.00    -0.356 N 
ATOM      4  H   UNL     1       0.298   4.106  -1.470  1.00  0.00     0.163 HD
ENDROOT
BRANCH   1   5
ATOM      5  C   UNL     1      -1.346   1.327  -0.488  1.00  0.00     0.125 C 
BRANCH   5   6
ATOM      6  C   UNL     1      -1.069   0.023  -1.271  1.00  0.00     0.097 C 
BRANCH   6   7
ATOM      7  C   UNL     1       0.378  -0.517  -1.138  1.00  0.00     0.006 C 
ATOM      8  C   UNL     1       0.739  -0.960   0.281  1.00  0.00     0.009 C 
ATOM      9  C   UNL     1       0.748  -1.634  -2.121  1.00  0.00     0.009 C 
ENDBRANCH   6   7
BRANCH   6  10
ATOM     10  N   UNL     1      -1.428   0.168  -2.679  1.00  0.00    -0.318 N 
ATOM     11  C   UNL     1      -2.098  -0.740  -3.444  1.00  0.00     0.407 C 
ATOM     12  H   UNL     1      -1.159   1.006  -3.120  1.00  0.00     0.167 HD
ATOM     13  O   UNL     1      -2.157  -0.626  -4.658  1.00  0.00    -0.225 OA
BRANCH  11  14
ATOM     14  O   UNL     1      -2.699  -1.702  -2.705  1.00  0.00    -0.445 OA
BRANCH  14  15
ATOM     15  C   UNL     1      -3.548  -2.596  -3.434  1.00  0.00     0.270 C 
BRANCH  15  16
ATOM     16  C   UNL     1      -4.966  -2.085  -3.587  1.00  0.00    -0.011 A 
ATOM     17  C   UNL     1      -5.281  -0.717  -3.592  1.00  0.00     0.007 A 
ATOM     18  C   UNL     1      -6.002  -3.003  -3.814  1.00  0.00     0.007 A 
ATOM     19  C   UNL     1      -6.585  -0.278  -3.819  1.00  0.00     0.000 A 
ATOM     20  C   UNL     1      -7.309  -2.564  -4.035  1.00  0.00     0.000 A 
ATOM     21  C   UNL     1      -7.599  -1.202  -4.042  1.00  0.00     0.000 A 
ENDBRANCH  15  16
ENDBRANCH  14  15
ENDBRANCH  11  14
ENDBRANCH   6  10
ENDBRANCH   5   6
ENDBRANCH   1   5
BRANCH   3  22
ATOM     22  C   UNL     1       1.460   2.712  -0.490  1.00  0.00     0.117 C 
BRANCH  22  23
ATOM     23  C   UNL     1       2.421   2.226  -1.576  1.00  0.00     0.042 C 
BRANCH  23  24
ATOM     24  C   UNL     1       3.228   3.326  -2.236  1.00  0.00     0.118 C 
BRANCH  24  25
ATOM     25  N   UNL     1       4.301   3.805  -1.383  1.00  0.00    -0.352 N 
ATOM     26  C   UNL     1       5.662   3.666  -1.510  1.00  0.00     0.251 C 
ATOM     27  H   UNL     1       4.007   4.307  -0.589  1.00  0.00     0.163 HD
ATOM     28  O   UNL     1       6.385   3.946  -0.557  1.00  0.00    -0.269 OA
BRANCH  26  29
ATOM     29  C   UNL     1       6.265   3.160  -2.766  1.00  0.00     0.039 A 
ATOM     30  C   UNL     1       7.383   2.323  -2.687  1.00  0.00     0.014 A 
ATOM     31  C   UNL     1       5.764   3.523  -4.018  1.00  0.00     0.014 A 
ATOM     32  C   UNL     1       7.947   1.798  -3.853  1.00  0.00     0.010 A 
ATOM     33  C   UNL     1       6.260   2.921  -5.171  1.00  0.00     0.010 A 
ATOM     34  C   UNL     1       7.363   2.057  -5.103  1.00  0.00    -0.014 A 
BRANCH  34  35
ATOM     35  C   UNL     1       7.886   1.439  -6.350  1.00  0.00     0.031 A 
ATOM     36  C   UNL     1       8.404   2.309  -7.463  1.00  0.00     0.074 A 
ATOM     37  C   UNL     1       7.821   0.102  -6.510  1.00  0.00     0.049 A 
ATOM     38  N   UNL     1       8.806   1.969  -8.662  1.00  0.00    -0.248 NA
ATOM     39  C   UNL     1       8.453   3.758  -7.207  1.00  0.00     0.031 C 
ATOM     40  C   UNL     1       7.300  -0.843  -5.521  1.00  0.00     0.029 A 
ATOM     41  N   UNL     1       8.176  -0.694  -7.571  1.00  0.00    -0.354 N 
ATOM     42  C   UNL     1       9.127   3.157  -9.306  1.00  0.00     0.074 A 
ATOM     43  C   UNL     1       8.836   4.232  -8.384  1.00  0.00     0.031 C 
ATOM     44  C   UNL     1       7.384  -2.089  -6.014  1.00  0.00     0.029 A 
ATOM     45  C   UNL     1       7.913  -2.029  -7.372  1.00  0.00     0.049 A 
ATOM     46  H   UNL     1       8.582  -0.342  -8.396  1.00  0.00     0.167 HD
ATOM     47  C   UNL     1       9.634   3.332 -10.549  1.00  0.00     0.037 A 
ATOM     48  C   UNL     1       8.058  -3.082  -8.201  1.00  0.00     0.037 A 
ATOM     49  C   UNL     1       9.956   2.254 -11.447  1.00  0.00     0.049 A 
ATOM     50  C   UNL     1       8.605  -2.851  -9.586  1.00  0.00     0.074 A 
ATOM     51  C   UNL     1      10.563   2.322 -12.689  1.00  0.00     0.029 A 
ATOM     52  N   UNL     1       9.686   0.916 -11.205  1.00  0.00    -0.354 N 
ATOM     53  N   UNL     1       8.998  -1.733 -10.145  1.00  0.00    -0.248 NA
ATOM     54  C   UNL     1       8.727  -4.030 -10.456  1.00  0.00     0.031 C 
ATOM     55  C   UNL     1      10.594   1.034 -13.229  1.00  0.00     0.029 A 
ATOM     56  C   UNL     1      10.070   0.154 -12.296  1.00  0.00     0.049 A 
ATOM     57  H   UNL     1       9.281   0.560 -10.381  1.00  0.00     0.167 HD
ATOM     58  C   UNL     1       9.437  -2.076 -11.417  1.00  0.00     0.074 A 
ATOM     59  C   UNL     1       9.283  -3.510 -11.540  1.00  0.00     0.031 C 
ATOM     60  C   UNL     1       9.920  -1.275 -12.398  1.00  0.00     0.037 A 
BRANCH  47  61
ATOM     61  C   UNL     1       9.870   4.735 -11.029  1.00  0.00     0.064 A 
ATOM     62  C   UNL     1      10.888   5.540 -10.496  1.00  0.00     0.173 A 
ATOM     63  C   UNL     1       9.114   5.253 -12.092  1.00  0.00     0.173 A 
ATOM     64  F   UNL     1      11.635   5.096  -9.474  1.00  0.00    -0.203 F 
ATOM     65  C   UNL     1      11.127   6.817 -10.997  1.00  0.00     0.198 A 
ATOM     66  C   UNL     1       9.376   6.518 -12.611  1.00  0.00     0.198 A 
ATOM     67  F   UNL     1       8.132   4.523 -12.643  1.00  0.00    -0.203 F 
ATOM     68  F   UNL     1      12.080   7.583 -10.447  1.00  0.00    -0.200 F 
ATOM     69  C   UNL     1      10.379   7.301 -12.060  1.00  0.00     0.200 A 
ATOM     70  F   UNL     1       8.664   6.976 -13.650  1.00  0.00    -0.200 F 
ATOM     71  F   UNL     1      10.624   8.523 -12.553  1.00  0.00    -0.200 F 
ENDBRANCH  47  61
BRANCH  48  72
ATOM     72  C   UNL     1       7.668  -4.448  -7.758  1.00  0.00     0.064 A 
ATOM     73  C   UNL     1       8.625  -5.463  -7.613  1.00  0.00     0.173 A 
ATOM     74  C   UNL     1       6.327  -4.781  -7.507  1.00  0.00     0.173 A 
ATOM     75  F   UNL     1       9.918  -5.203  -7.859  1.00  0.00    -0.203 F 
ATOM     76  C   UNL     1       8.254  -6.762  -7.272  1.00  0.00     0.198 A 
ATOM     77  C   UNL     1       5.962  -6.071  -7.130  1.00  0.00     0.198 A 
ATOM     78  F   UNL     1       5.370  -3.849  -7.625  1.00  0.00    -0.203 F 
ATOM     79  F   UNL     1       9.182  -7.726  -7.207  1.00  0.00    -0.200 F 
ATOM     80  C   UNL     1       6.923  -7.064  -7.026  1.00  0.00     0.200 A 
ATOM     81  F   UNL     1       4.677  -6.354  -6.875  1.00  0.00    -0.200 F 
ATOM     82  F   UNL     1       6.566  -8.314  -6.702  1.00  0.00    -0.200 F 
ENDBRANCH  48  72
BRANCH  60  83
ATOM     83  C   UNL     1      10.348  -1.928 -13.680  1.00  0.00     0.064 A 
ATOM     84  C   UNL     1       9.415  -2.460 -14.582  1.00  0.00     0.173 A 
ATOM     85  C   UNL     1      11.704  -1.962 -14.041  1.00  0.00     0.173 A 
ATOM     86  F   UNL     1       8.108  -2.466 -14.276  1.00  0.00    -0.203 F 
ATOM     87  C   UNL     1       9.825  -3.019 -15.789  1.00  0.00     0.198 A 
ATOM     88  C   UNL     1      12.107  -2.489 -15.265  1.00  0.00     0.198 A 
ATOM     89  F   UNL     1      12.636  -1.460 -13.218  1.00  0.00    -0.203 F 
ATOM     90  F   UNL     1       8.919  -3.560 -16.616  1.00  0.00    -0.200 F 
ATOM     91  C   UNL     1      11.168  -3.022 -16.135  1.00  0.00     0.200 A 
ATOM     92  F   UNL     1      13.403  -2.475 -15.604  1.00  0.00    -0.200 F 
ATOM     93  F   UNL     1      11.559  -3.544 -17.306  1.00  0.00    -0.200 F 
ENDBRANCH  60  83
ENDBRANCH  34  35
ENDBRANCH  26  29
ENDBRANCH  24  25
ENDBRANCH  23  24
ENDBRANCH  22  23
ENDBRANCH   3  22
TORSDOF 16
