REMARK SMILES C[C@]1(C(=O)Nc2ccc(C(=O)NCCCNC(=O)c3ccc(-c4c5nc(c(-c6c(F)c(F)c(F)c(F)c6F)c6ccc([nH]6)c(-c6c(F)c(F)c(F)c(F)c6F)c6nc(c(-c7c(F)c(F)c(F)c(F)c7F)c7ccc4[nH]7)C=C6)C=C5)cc3)c(O)c2)CCCO1
REMARK SMILES IDX 14 1 13 2 12 3 10 4 11 5 9 7 6 8 7 9 84 10 8 11 82 12 5 13
REMARK SMILES IDX 3 14 4 15 2 17 1 18 85 19 88 20 86 21 87 22 83 23 15 25
REMARK SMILES IDX 16 26 17 27 18 29 19 30 20 31 81 32 21 33 80 34 22 35 23 36
REMARK SMILES IDX 24 37 74 38 25 39 79 40 73 41 75 42 26 43 78 44 72 45 71 46
REMARK SMILES IDX 27 48 59 49 39 50 58 51 40 52 43 53 57 54 76 55 41 56 42 57
REMARK SMILES IDX 56 59 77 60 44 61 28 62 29 63 37 64 30 65 31 66 35 67 38 68
REMARK SMILES IDX 32 69 33 70 36 71 34 72 60 73 61 74 69 75 62 76 63 77 67 78
REMARK SMILES IDX 70 79 64 80 65 81 68 82 66 83 45 84 46 85 54 86 47 87 48 88
REMARK SMILES IDX 52 89 55 90 49 91 50 92 53 93 51 94
REMARK H PARENT 12 6 5 16 83 24 16 28 75 47 43 58
REMARK Flexibility Score: inf
ROOT
ATOM      1  C   UNL     1       7.863  -1.833  -4.207  1.00  0.00     0.042 C 
ENDROOT
BRANCH   1   2
ATOM      2  C   UNL     1       7.498  -0.770  -3.183  1.00  0.00     0.118 C 
BRANCH   2   3
ATOM      3  N   UNL     1       7.255   0.552  -3.738  1.00  0.00    -0.352 N 
ATOM      4  C   UNL     1       6.388   1.550  -3.368  1.00  0.00     0.255 C 
ATOM      5  O   UNL     1       6.404   2.593  -4.020  1.00  0.00    -0.269 OA
ATOM      6  H   UNL     1       7.812   0.771  -4.520  1.00  0.00     0.163 HD
BRANCH   4   7
ATOM      7  C   UNL     1       5.389   1.387  -2.281  1.00  0.00     0.081 A 
ATOM      8  C   UNL     1       3.207   0.842  -0.597  1.00  0.00     0.045 A 
ATOM      9  C   UNL     1       3.074   1.748  -1.640  1.00  0.00     0.027 A 
ATOM     10  C   UNL     1       4.484   0.383  -0.267  1.00  0.00     0.073 A 
ATOM     11  C   UNL     1       4.145   1.992  -2.501  1.00  0.00     0.020 A 
ATOM     12  C   UNL     1       5.574   0.688  -1.087  1.00  0.00     0.130 A 
BRANCH   8  13
ATOM     13  N   UNL     1       2.128   0.368   0.158  1.00  0.00    -0.323 N 
ATOM     14  C   UNL     1       0.827   0.091  -0.174  1.00  0.00     0.256 C 
ATOM     15  O   UNL     1       0.103  -0.263   0.767  1.00  0.00    -0.271 OA
ATOM     16  H   UNL     1       2.344   0.204   1.105  1.00  0.00     0.170 HD
BRANCH  14  17
ATOM     17  C   UNL     1       0.291   0.096  -1.647  1.00  0.00     0.144 C 
ATOM     18  C   UNL     1       1.222  -0.673  -2.605  1.00  0.00     0.053 C 
ATOM     19  C   UNL     1      -1.113  -0.542  -1.706  1.00  0.00     0.048 C 
ATOM     20  O   UNL     1       0.103   1.430  -2.158  1.00  0.00    -0.365 OA
ATOM     21  C   UNL     1      -1.771   0.188  -2.852  1.00  0.00     0.032 C 
ATOM     22  C   UNL     1      -1.230   1.581  -2.657  1.00  0.00     0.162 C 
ENDBRANCH  14  17
ENDBRANCH   8  13
BRANCH  12  23
ATOM     23  O   UNL     1       6.793   0.281  -0.623  1.00  0.00    -0.507 OA
ATOM     24  H   UNL     1       7.566   0.453  -1.124  1.00  0.00     0.293 HD
ENDBRANCH  12  23
ENDBRANCH   4   7
ENDBRANCH   2   3
ENDBRANCH   1   2
BRANCH   1  25
ATOM     25  C   UNL     1       9.051  -1.504  -5.099  1.00  0.00     0.118 C 
BRANCH  25  26
ATOM     26  N   UNL     1      10.312  -1.351  -4.384  1.00  0.00    -0.352 N 
ATOM     27  C   UNL     1      11.428  -2.154  -4.324  1.00  0.00     0.251 C 
ATOM     28  H   UNL     1      10.377  -0.528  -3.849  1.00  0.00     0.163 HD
ATOM     29  O   UNL     1      12.340  -1.861  -3.553  1.00  0.00    -0.269 OA
BRANCH  27  30
ATOM     30  C   UNL     1      11.532  -3.384  -5.140  1.00  0.00     0.039 A 
ATOM     31  C   UNL     1      12.105  -4.529  -4.577  1.00  0.00     0.014 A 
ATOM     32  C   UNL     1      11.077  -3.424  -6.457  1.00  0.00     0.014 A 
ATOM     33  C   UNL     1      12.132  -5.726  -5.300  1.00  0.00     0.010 A 
ATOM     34  C   UNL     1      10.982  -4.639  -7.123  1.00  0.00     0.010 A 
ATOM     35  C   UNL     1      11.521  -5.805  -6.562  1.00  0.00    -0.014 A 
BRANCH  35  36
ATOM     36  C   UNL     1      11.464  -7.076  -7.333  1.00  0.00     0.031 A 
ATOM     37  C   UNL     1      12.075  -7.145  -8.709  1.00  0.00     0.074 A 
ATOM     38  C   UNL     1      10.799  -8.139  -6.839  1.00  0.00     0.049 A 
ATOM     39  N   UNL     1      12.033  -8.113  -9.591  1.00  0.00    -0.248 NA
ATOM     40  C   UNL     1      12.795  -5.948  -9.174  1.00  0.00     0.031 C 
ATOM     41  C   UNL     1      10.118  -8.188  -5.544  1.00  0.00     0.029 A 
ATOM     42  N   UNL     1      10.575  -9.383  -7.375  1.00  0.00    -0.354 N 
ATOM     43  C   UNL     1      12.695  -7.630 -10.713  1.00  0.00     0.074 A 
ATOM     44  C   UNL     1      13.064  -6.261 -10.432  1.00  0.00     0.031 C 
ATOM     45  C   UNL     1       9.583  -9.407  -5.372  1.00  0.00     0.029 A 
ATOM     46  C   UNL     1       9.841 -10.212  -6.562  1.00  0.00     0.049 A 
ATOM     47  H   UNL     1      10.910  -9.656  -8.260  1.00  0.00     0.167 HD
ATOM     48  C   UNL     1      13.002  -8.279 -11.861  1.00  0.00     0.037 A 
ATOM     49  C   UNL     1       9.417 -11.476  -6.757  1.00  0.00     0.037 A 
ATOM     50  C   UNL     1      12.669  -9.653 -12.123  1.00  0.00     0.049 A 
ATOM     51  C   UNL     1       9.768 -12.175  -8.045  1.00  0.00     0.074 A 
ATOM     52  C   UNL     1      12.982 -10.422 -13.230  1.00  0.00     0.029 A 
ATOM     53  N   UNL     1      11.949 -10.467 -11.261  1.00  0.00    -0.354 N 
ATOM     54  N   UNL     1      10.450 -11.728  -9.072  1.00  0.00    -0.248 NA
ATOM     55  C   UNL     1       9.295 -13.558  -8.197  1.00  0.00     0.031 C 
ATOM     56  C   UNL     1      12.410 -11.686 -13.059  1.00  0.00     0.029 A 
ATOM     57  C   UNL     1      11.792 -11.725 -11.820  1.00  0.00     0.049 A 
ATOM     58  H   UNL     1      11.601 -10.192 -10.382  1.00  0.00     0.167 HD
ATOM     59  C   UNL     1      10.521 -12.784  -9.972  1.00  0.00     0.074 A 
ATOM     60  C   UNL     1       9.822 -13.897  -9.364  1.00  0.00     0.031 C 
ATOM     61  C   UNL     1      11.111 -12.828 -11.191  1.00  0.00     0.037 A 
BRANCH  48  62
ATOM     62  C   UNL     1      13.747  -7.510 -12.916  1.00  0.00     0.064 A 
ATOM     63  C   UNL     1      15.075  -7.096 -12.726  1.00  0.00     0.173 A 
ATOM     64  C   UNL     1      13.137  -7.205 -14.142  1.00  0.00     0.173 A 
ATOM     65  F   UNL     1      15.703  -7.350 -11.567  1.00  0.00    -0.203 F 
ATOM     66  C   UNL     1      15.751  -6.375 -13.707  1.00  0.00     0.198 A 
ATOM     67  C   UNL     1      13.828  -6.516 -15.136  1.00  0.00     0.198 A 
ATOM     68  F   UNL     1      11.872  -7.580 -14.381  1.00  0.00    -0.203 F 
ATOM     69  F   UNL     1      16.997  -5.939 -13.476  1.00  0.00    -0.200 F 
ATOM     70  C   UNL     1      15.130  -6.093 -14.914  1.00  0.00     0.200 A 
ATOM     71  F   UNL     1      13.232  -6.256 -16.307  1.00  0.00    -0.200 F 
ATOM     72  F   UNL     1      15.784  -5.405 -15.860  1.00  0.00    -0.200 F 
ENDBRANCH  48  62
BRANCH  49  73
ATOM     73  C   UNL     1       8.642 -12.178  -5.700  1.00  0.00     0.064 A 
ATOM     74  C   UNL     1       9.193 -13.267  -5.008  1.00  0.00     0.173 A 
ATOM     75  C   UNL     1       7.334 -11.794  -5.370  1.00  0.00     0.173 A 
ATOM     76  F   UNL     1      10.433 -13.687  -5.301  1.00  0.00    -0.203 F 
ATOM     77  C   UNL     1       8.457 -13.961  -4.050  1.00  0.00     0.198 A 
ATOM     78  C   UNL     1       6.611 -12.469  -4.388  1.00  0.00     0.198 A 
ATOM     79  F   UNL     1       6.761 -10.755  -5.995  1.00  0.00    -0.203 F 
ATOM     80  F   UNL     1       8.990 -15.032  -3.446  1.00  0.00    -0.200 F 
ATOM     81  C   UNL     1       7.168 -13.558  -3.737  1.00  0.00     0.200 A 
ATOM     82  F   UNL     1       5.371 -12.066  -4.077  1.00  0.00    -0.200 F 
ATOM     83  F   UNL     1       6.461 -14.226  -2.815  1.00  0.00    -0.200 F 
ENDBRANCH  49  73
BRANCH  61  84
ATOM     84  C   UNL     1      11.079 -14.136 -11.928  1.00  0.00     0.064 A 
ATOM     85  C   UNL     1       9.896 -14.645 -12.482  1.00  0.00     0.173 A 
ATOM     86  C   UNL     1      12.262 -14.867 -12.120  1.00  0.00     0.173 A 
ATOM     87  F   UNL     1       8.736 -13.992 -12.316  1.00  0.00    -0.203 F 
ATOM     88  C   UNL     1       9.893 -15.853 -13.176  1.00  0.00     0.198 A 
ATOM     89  C   UNL     1      12.261 -16.056 -12.843  1.00  0.00     0.198 A 
ATOM     90  F   UNL     1      13.423 -14.419 -11.618  1.00  0.00    -0.203 F 
ATOM     91  F   UNL     1       8.741 -16.346 -13.652  1.00  0.00    -0.200 F 
ATOM     92  C   UNL     1      11.076 -16.552 -13.363  1.00  0.00     0.200 A 
ATOM     93  F   UNL     1      13.408 -16.721 -13.037  1.00  0.00    -0.200 F 
ATOM     94  F   UNL     1      11.072 -17.709 -14.039  1.00  0.00    -0.200 F 
ENDBRANCH  61  84
ENDBRANCH  35  36
ENDBRANCH  27  30
ENDBRANCH  25  26
ENDBRANCH   1  25
TORSDOF 13
