REMARK SMILES CC(C)[C@H](NC(=O)Cn1ccc2c(Br)cccc21)C(=O)NCCCNC(=O)c1ccc(-c2c3nc(c(-c4c(F)c(F)c(F)c(F)c4F)c4ccc([nH]4)c(-c4c(F)c(F)c(F)c(F)c4F)c4nc(c(-c5c(F)c(F)c(F)c(F)c5F)c5ccc2[nH]5)C=C4)C=C3)cc1
REMARK SMILES IDX 22 1 21 2 19 3 20 4 4 6 2 7 1 8 3 9 5 10 6 11 7 13 8 14 9 15
REMARK SMILES IDX 10 16 18 17 11 18 12 19 17 20 13 21 16 22 14 23 15 24 23 25
REMARK SMILES IDX 24 26 25 27 26 28 27 30 28 31 29 32 90 33 30 34 89 35 31 36
REMARK SMILES IDX 32 37 33 38 83 39 34 40 88 41 82 42 84 43 35 44 87 45 81 46
REMARK SMILES IDX 80 47 36 49 68 50 48 51 67 52 49 53 52 54 66 55 85 56 50 57
REMARK SMILES IDX 51 58 65 60 86 61 53 62 37 63 38 64 46 65 39 66 40 67 44 68
REMARK SMILES IDX 47 69 41 70 42 71 45 72 43 73 69 74 70 75 78 76 71 77 72 78
REMARK SMILES IDX 76 79 79 80 73 81 74 82 77 83 75 84 54 85 55 86 63 87 56 88
REMARK SMILES IDX 57 89 61 90 64 91 58 92 59 93 62 94 60 95
REMARK H PARENT 21 5 5 12 25 29 84 48 52 59
REMARK Flexibility Score: inf
ROOT
ATOM      1  C   UNL     1      -0.606  -2.567   3.690  1.00  0.00     0.117 C 
ENDROOT
BRANCH   1   2
ATOM      2  N   UNL     1      -1.663  -1.575   3.539  1.00  0.00    -0.354 N 
ATOM      3  C   UNL     1      -2.075  -0.771   2.523  1.00  0.00     0.242 C 
ATOM      4  O   UNL     1      -3.243  -0.364   2.614  1.00  0.00    -0.273 OA
ATOM      5  H   UNL     1      -2.200  -1.461   4.357  1.00  0.00     0.163 HD
BRANCH   3   6
ATOM      6  C   UNL     1      -1.275  -0.417   1.250  1.00  0.00     0.173 C 
BRANCH   6   7
ATOM      7  C   UNL     1      -1.613  -1.504   0.179  1.00  0.00     0.015 C 
ATOM      8  C   UNL     1      -1.340  -1.059  -1.258  1.00  0.00     0.010 C 
ATOM      9  C   UNL     1      -0.932  -2.849   0.421  1.00  0.00     0.010 C 
ENDBRANCH   6   7
BRANCH   6  10
ATOM     10  N   UNL     1       0.158  -0.068   1.312  1.00  0.00    -0.343 N 
ATOM     11  C   UNL     1       0.693   0.979   2.047  1.00  0.00     0.240 C 
ATOM     12  H   UNL     1       0.783  -0.622   0.792  1.00  0.00     0.164 HD
ATOM     13  O   UNL     1       1.417   1.793   1.473  1.00  0.00    -0.273 OA
BRANCH  11  14
ATOM     14  C   UNL     1       0.588   0.923   3.549  1.00  0.00     0.222 C 
BRANCH  14  15
ATOM     15  N   UNL     1      -0.187   1.937   4.244  1.00  0.00    -0.338 N 
ATOM     16  C   UNL     1      -1.517   1.792   4.548  1.00  0.00     0.087 A 
ATOM     17  C   UNL     1       0.332   2.961   5.014  1.00  0.00     0.050 A 
ATOM     18  C   UNL     1      -1.915   2.848   5.321  1.00  0.00     0.029 A 
ATOM     19  C   UNL     1      -0.753   3.591   5.641  1.00  0.00     0.014 A 
ATOM     20  C   UNL     1       1.653   3.383   5.234  1.00  0.00     0.027 A 
ATOM     21  C   UNL     1      -0.513   4.716   6.448  1.00  0.00     0.027 A 
ATOM     22  C   UNL     1       1.863   4.463   6.098  1.00  0.00     0.003 A 
ATOM     23  Br  UNL     1      -1.953   5.659   7.221  1.00  0.00    -0.050 Br
ATOM     24  C   UNL     1       0.795   5.134   6.687  1.00  0.00     0.016 A 
ENDBRANCH  14  15
ENDBRANCH  11  14
ENDBRANCH   6  10
ENDBRANCH   3   6
ENDBRANCH   1   2
BRANCH   1  25
ATOM     25  C   UNL     1       0.506  -2.284   4.697  1.00  0.00     0.042 C 
BRANCH  25  26
ATOM     26  C   UNL     1       0.037  -1.699   6.010  1.00  0.00     0.118 C 
BRANCH  26  27
ATOM     27  N   UNL     1      -0.413  -2.736   6.917  1.00  0.00    -0.352 N 
ATOM     28  C   UNL     1      -0.129  -2.861   8.257  1.00  0.00     0.251 C 
ATOM     29  H   UNL     1      -0.990  -3.433   6.528  1.00  0.00     0.163 HD
ATOM     30  O   UNL     1      -0.214  -3.950   8.799  1.00  0.00    -0.269 OA
BRANCH  28  31
ATOM     31  C   UNL     1       0.220  -1.657   9.043  1.00  0.00     0.039 A 
ATOM     32  C   UNL     1       0.907  -1.800  10.255  1.00  0.00     0.014 A 
ATOM     33  C   UNL     1      -0.245  -0.401   8.637  1.00  0.00     0.014 A 
ATOM     34  C   UNL     1       1.067  -0.690  11.074  1.00  0.00     0.010 A 
ATOM     35  C   UNL     1       0.017   0.715   9.382  1.00  0.00     0.010 A 
ATOM     36  C   UNL     1       0.577   0.545  10.637  1.00  0.00    -0.014 A 
BRANCH  36  37
ATOM     37  C   UNL     1       0.662   1.724  11.470  1.00  0.00     0.031 A 
ATOM     38  C   UNL     1       2.036   2.246  11.630  1.00  0.00     0.074 A 
ATOM     39  C   UNL     1      -0.444   2.397  11.845  1.00  0.00     0.049 A 
ATOM     40  N   UNL     1       2.746   2.264  12.707  1.00  0.00    -0.248 NA
ATOM     41  C   UNL     1       2.768   2.650  10.419  1.00  0.00     0.031 C 
ATOM     42  C   UNL     1      -1.838   2.156  11.459  1.00  0.00     0.029 A 
ATOM     43  N   UNL     1      -0.531   3.527  12.592  1.00  0.00    -0.354 N 
ATOM     44  C   UNL     1       3.944   2.873  12.355  1.00  0.00     0.074 A 
ATOM     45  C   UNL     1       3.983   2.891  10.916  1.00  0.00     0.031 C 
ATOM     46  C   UNL     1      -2.591   3.228  11.794  1.00  0.00     0.029 A 
ATOM     47  C   UNL     1      -1.768   4.161  12.541  1.00  0.00     0.049 A 
ATOM     48  H   UNL     1       0.221   3.871  13.126  1.00  0.00     0.167 HD
ATOM     49  C   UNL     1       4.676   3.553  13.279  1.00  0.00     0.037 A 
ATOM     50  C   UNL     1      -2.041   5.398  13.028  1.00  0.00     0.037 A 
ATOM     51  C   UNL     1       4.267   3.208  14.619  1.00  0.00     0.049 A 
ATOM     52  C   UNL     1      -0.978   5.706  14.027  1.00  0.00     0.074 A 
ATOM     53  C   UNL     1       4.215   2.024  15.331  1.00  0.00     0.029 A 
ATOM     54  N   UNL     1       3.437   4.077  15.287  1.00  0.00    -0.354 N 
ATOM     55  N   UNL     1      -0.833   5.050  15.149  1.00  0.00    -0.248 NA
ATOM     56  C   UNL     1       0.216   6.386  13.543  1.00  0.00     0.031 C 
ATOM     57  C   UNL     1       2.992   2.089  16.060  1.00  0.00     0.029 A 
ATOM     58  C   UNL     1       2.413   3.336  15.820  1.00  0.00     0.049 A 
ATOM     59  H   UNL     1       3.556   5.051  15.367  1.00  0.00     0.167 HD
ATOM     60  C   UNL     1       0.538   4.885  15.292  1.00  0.00     0.074 A 
ATOM     61  C   UNL     1       1.135   5.778  14.300  1.00  0.00     0.031 C 
ATOM     62  C   UNL     1       1.061   3.825  15.977  1.00  0.00     0.037 A 
BRANCH  49  63
ATOM     63  C   UNL     1       5.489   4.785  12.977  1.00  0.00     0.064 A 
ATOM     64  C   UNL     1       6.324   5.314  13.982  1.00  0.00     0.173 A 
ATOM     65  C   UNL     1       5.275   5.624  11.862  1.00  0.00     0.173 A 
ATOM     66  F   UNL     1       6.578   4.615  15.098  1.00  0.00    -0.203 F 
ATOM     67  C   UNL     1       6.840   6.610  13.904  1.00  0.00     0.198 A 
ATOM     68  C   UNL     1       5.841   6.892  11.761  1.00  0.00     0.198 A 
ATOM     69  F   UNL     1       4.425   5.308  10.879  1.00  0.00    -0.203 F 
ATOM     70  F   UNL     1       7.522   7.115  14.941  1.00  0.00    -0.200 F 
ATOM     71  C   UNL     1       6.596   7.399  12.796  1.00  0.00     0.200 A 
ATOM     72  F   UNL     1       5.574   7.647  10.686  1.00  0.00    -0.200 F 
ATOM     73  F   UNL     1       7.043   8.660  12.744  1.00  0.00    -0.200 F 
ENDBRANCH  49  63
BRANCH  50  74
ATOM     74  C   UNL     1      -2.907   6.439  12.412  1.00  0.00     0.064 A 
ATOM     75  C   UNL     1      -3.284   7.594  13.117  1.00  0.00     0.173 A 
ATOM     76  C   UNL     1      -3.174   6.448  11.028  1.00  0.00     0.173 A 
ATOM     77  F   UNL     1      -3.029   7.693  14.430  1.00  0.00    -0.203 F 
ATOM     78  C   UNL     1      -3.870   8.693  12.474  1.00  0.00     0.198 A 
ATOM     79  C   UNL     1      -3.763   7.541  10.388  1.00  0.00     0.198 A 
ATOM     80  F   UNL     1      -2.792   5.426  10.254  1.00  0.00    -0.203 F 
ATOM     81  F   UNL     1      -4.168   9.797  13.173  1.00  0.00    -0.200 F 
ATOM     82  C   UNL     1      -4.099   8.669  11.109  1.00  0.00     0.200 A 
ATOM     83  F   UNL     1      -3.957   7.517   9.063  1.00  0.00    -0.200 F 
ATOM     84  F   UNL     1      -4.608   9.740  10.483  1.00  0.00    -0.200 F 
ENDBRANCH  50  74
BRANCH  62  85
ATOM     85  C   UNL     1       0.130   2.936  16.759  1.00  0.00     0.064 A 
ATOM     86  C   UNL     1      -0.851   2.120  16.168  1.00  0.00     0.173 A 
ATOM     87  C   UNL     1       0.402   2.727  18.118  1.00  0.00     0.173 A 
ATOM     88  F   UNL     1      -1.109   2.193  14.858  1.00  0.00    -0.203 F 
ATOM     89  C   UNL     1      -1.528   1.148  16.904  1.00  0.00     0.198 A 
ATOM     90  C   UNL     1      -0.251   1.733  18.843  1.00  0.00     0.198 A 
ATOM     91  F   UNL     1       1.364   3.439  18.726  1.00  0.00    -0.203 F 
ATOM     92  F   UNL     1      -2.445   0.370  16.308  1.00  0.00    -0.200 F 
ATOM     93  C   UNL     1      -1.216   0.945  18.237  1.00  0.00     0.200 A 
ATOM     94  F   UNL     1       0.091   1.507  20.119  1.00  0.00    -0.200 F 
ATOM     95  F   UNL     1      -1.818  -0.033  18.928  1.00  0.00    -0.200 F 
ENDBRANCH  62  85
ENDBRANCH  36  37
ENDBRANCH  28  31
ENDBRANCH  26  27
ENDBRANCH  25  26
ENDBRANCH   1  25
TORSDOF 14
