REMARK SMILES Cc1noc(C)c1[C@@H](C)NC(=O)N[C@H](CO)C(=O)NCCCNC(=O)c1ccc(-c2c3nc(c(-c4c(F)c(F)c(F)c(F)c4F)c4ccc([nH]4)c(-c4c(F)c(F)c(F)c(F)c4F)c4nc(c(-c5c(F)c(F)c(F)c(F)c5F)c5ccc2[nH]5)C=C4)C=C3)cc1
REMARK SMILES IDX 20 1 19 2 17 3 18 4 14 6 13 7 10 8 11 9 12 11 8 13 9 14 7 15
REMARK SMILES IDX 1 16 2 17 3 18 4 19 5 20 6 21 15 22 16 23 21 25 22 26 23 27
REMARK SMILES IDX 24 28 25 30 26 31 27 32 88 33 28 34 87 35 29 36 30 37 31 38
REMARK SMILES IDX 81 39 32 40 86 41 80 42 82 43 33 44 85 45 79 46 78 47 34 49
REMARK SMILES IDX 66 50 46 51 65 52 47 53 50 54 64 55 83 56 48 57 49 58 63 60
REMARK SMILES IDX 84 61 51 62 35 63 36 64 44 65 37 66 38 67 42 68 45 69 39 70
REMARK SMILES IDX 40 71 43 72 41 73 67 74 68 75 76 76 69 77 70 78 74 79 77 80
REMARK SMILES IDX 71 81 72 82 75 83 73 84 52 85 53 86 61 87 54 88 55 89 59 90
REMARK SMILES IDX 62 91 56 92 57 93 60 94 58 95
REMARK H PARENT 19 5 10 10 13 12 16 24 23 29 82 48 50 59
REMARK Flexibility Score: inf
ROOT
ATOM      1  C   UNL     1       5.604   4.743   1.187  1.00  0.00     0.117 C 
ENDROOT
BRANCH   1   2
ATOM      2  N   UNL     1       4.813   3.531   1.333  1.00  0.00    -0.354 N 
ATOM      3  C   UNL     1       3.523   3.229   1.018  1.00  0.00     0.245 C 
ATOM      4  O   UNL     1       3.237   2.025   1.040  1.00  0.00    -0.273 OA
ATOM      5  H   UNL     1       5.307   2.783   1.739  1.00  0.00     0.163 HD
BRANCH   3   6
ATOM      6  C   UNL     1       2.503   4.252   0.466  1.00  0.00     0.198 C 
BRANCH   6   7
ATOM      7  N   UNL     1       2.673   5.669   0.777  1.00  0.00    -0.324 N 
ATOM      8  N   UNL     1       2.491   5.990   3.118  1.00  0.00    -0.331 N 
ATOM      9  C   UNL     1       2.680   6.420   1.874  1.00  0.00     0.315 C 
ATOM     10  H   UNL     1       2.805   6.641   3.786  1.00  0.00     0.165 HD
ATOM     11  O   UNL     1       2.943   7.615   1.720  1.00  0.00    -0.249 OA
ATOM     12  H   UNL     1       2.819   6.206  -0.034  1.00  0.00     0.166 HD
BRANCH   8  13
ATOM     13  C   UNL     1       1.936   4.798   3.735  1.00  0.00     0.116 C 
ATOM     14  C   UNL     1       0.632   5.172   4.442  1.00  0.00     0.036 C 
BRANCH  13  15
ATOM     15  C   UNL     1       2.922   4.189   4.687  1.00  0.00     0.040 A 
ATOM     16  C   UNL     1       3.718   6.193   6.210  1.00  0.00     0.071 C 
ATOM     17  C   UNL     1       3.658   4.782   5.759  1.00  0.00     0.086 A 
ATOM     18  N   UNL     1       4.386   3.871   6.413  1.00  0.00    -0.085 NA
ATOM     19  O   UNL     1       4.167   2.676   5.780  1.00  0.00    -0.361 OA
ATOM     20  C   UNL     1       3.286   2.854   4.766  1.00  0.00     0.139 A 
ATOM     21  C   UNL     1       2.936   1.621   4.035  1.00  0.00     0.091 C 
ENDBRANCH  13  15
ENDBRANCH   8  13
ENDBRANCH   6   7
BRANCH   6  22
ATOM     22  C   UNL     1       1.040   3.746   0.565  1.00  0.00     0.191 C 
BRANCH  22  23
ATOM     23  O   UNL     1       0.134   4.719   1.088  1.00  0.00    -0.394 OA
ATOM     24  H   UNL     1       0.395   4.951   1.993  1.00  0.00     0.210 HD
ENDBRANCH  22  23
ENDBRANCH   6  22
ENDBRANCH   3   6
ENDBRANCH   1   2
BRANCH   1  25
ATOM     25  C   UNL     1       5.924   5.439   2.515  1.00  0.00     0.042 C 
BRANCH  25  26
ATOM     26  C   UNL     1       6.790   4.621   3.483  1.00  0.00     0.118 C 
BRANCH  26  27
ATOM     27  N   UNL     1       8.077   5.260   3.706  1.00  0.00    -0.352 N 
ATOM     28  C   UNL     1       8.623   5.889   4.797  1.00  0.00     0.251 C 
ATOM     29  H   UNL     1       8.673   5.236   2.923  1.00  0.00     0.163 HD
ATOM     30  O   UNL     1       9.636   6.565   4.611  1.00  0.00    -0.269 OA
BRANCH  28  31
ATOM     31  C   UNL     1       8.082   5.794   6.182  1.00  0.00     0.039 A 
ATOM     32  C   UNL     1       8.304   6.883   7.040  1.00  0.00     0.014 A 
ATOM     33  C   UNL     1       7.521   4.634   6.716  1.00  0.00     0.014 A 
ATOM     34  C   UNL     1       7.976   6.812   8.401  1.00  0.00     0.010 A 
ATOM     35  C   UNL     1       7.144   4.581   8.071  1.00  0.00     0.010 A 
ATOM     36  C   UNL     1       7.392   5.657   8.938  1.00  0.00    -0.014 A 
BRANCH  36  37
ATOM     37  C   UNL     1       7.101   5.563  10.401  1.00  0.00     0.031 A 
ATOM     38  C   UNL     1       7.884   4.621  11.284  1.00  0.00     0.074 A 
ATOM     39  C   UNL     1       6.146   6.330  10.963  1.00  0.00     0.049 A 
ATOM     40  N   UNL     1       7.800   4.435  12.581  1.00  0.00    -0.248 NA
ATOM     41  C   UNL     1       8.889   3.775  10.625  1.00  0.00     0.031 C 
ATOM     42  C   UNL     1       5.291   7.274  10.246  1.00  0.00     0.029 A 
ATOM     43  N   UNL     1       5.736   6.438  12.272  1.00  0.00    -0.354 N 
ATOM     44  C   UNL     1       8.731   3.450  12.887  1.00  0.00     0.074 A 
ATOM     45  C   UNL     1       9.342   3.049  11.637  1.00  0.00     0.031 C 
ATOM     46  C   UNL     1       4.470   7.875  11.123  1.00  0.00     0.029 A 
ATOM     47  C   UNL     1       4.724   7.347  12.462  1.00  0.00     0.049 A 
ATOM     48  H   UNL     1       6.131   5.912  13.005  1.00  0.00     0.167 HD
ATOM     49  C   UNL     1       9.065   2.938  14.097  1.00  0.00     0.037 A 
ATOM     50  C   UNL     1       4.074   7.718  13.582  1.00  0.00     0.037 A 
ATOM     51  C   UNL     1       8.491   3.340  15.355  1.00  0.00     0.049 A 
ATOM     52  C   UNL     1       4.452   7.122  14.912  1.00  0.00     0.074 A 
ATOM     53  C   UNL     1       8.825   2.914  16.631  1.00  0.00     0.029 A 
ATOM     54  N   UNL     1       7.462   4.255  15.498  1.00  0.00    -0.354 N 
ATOM     55  N   UNL     1       5.383   6.246  15.192  1.00  0.00    -0.248 NA
ATOM     56  C   UNL     1       3.688   7.578  16.085  1.00  0.00     0.031 C 
ATOM     57  C   UNL     1       7.971   3.543  17.543  1.00  0.00     0.029 A 
ATOM     58  C   UNL     1       7.132   4.389  16.839  1.00  0.00     0.049 A 
ATOM     59  H   UNL     1       7.028   4.739  14.758  1.00  0.00     0.167 HD
ATOM     60  C   UNL     1       5.337   6.066  16.569  1.00  0.00     0.074 A 
ATOM     61  C   UNL     1       4.293   6.931  17.072  1.00  0.00     0.031 C 
ATOM     62  C   UNL     1       6.098   5.255  17.342  1.00  0.00     0.037 A 
BRANCH  49  63
ATOM     63  C   UNL     1      10.122   1.873  14.129  1.00  0.00     0.064 A 
ATOM     64  C   UNL     1      11.477   2.183  13.940  1.00  0.00     0.173 A 
ATOM     65  C   UNL     1       9.784   0.542  14.411  1.00  0.00     0.173 A 
ATOM     66  F   UNL     1      11.849   3.442  13.664  1.00  0.00    -0.203 F 
ATOM     67  C   UNL     1      12.454   1.194  14.013  1.00  0.00     0.198 A 
ATOM     68  C   UNL     1      10.765  -0.441  14.506  1.00  0.00     0.198 A 
ATOM     69  F   UNL     1       8.503   0.197  14.612  1.00  0.00    -0.203 F 
ATOM     70  F   UNL     1      13.739   1.506  13.797  1.00  0.00    -0.200 F 
ATOM     71  C   UNL     1      12.098  -0.116  14.301  1.00  0.00     0.200 A 
ATOM     72  F   UNL     1      10.422  -1.704  14.798  1.00  0.00    -0.200 F 
ATOM     73  F   UNL     1      13.040  -1.065  14.380  1.00  0.00    -0.200 F 
ENDBRANCH  49  63
BRANCH  50  74
ATOM     74  C   UNL     1       2.995   8.737  13.504  1.00  0.00     0.064 A 
ATOM     75  C   UNL     1       3.190  10.030  14.009  1.00  0.00     0.173 A 
ATOM     76  C   UNL     1       1.748   8.431  12.944  1.00  0.00     0.173 A 
ATOM     77  F   UNL     1       4.358  10.357  14.580  1.00  0.00    -0.203 F 
ATOM     78  C   UNL     1       2.169  10.977  13.968  1.00  0.00     0.198 A 
ATOM     79  C   UNL     1       0.736   9.387  12.883  1.00  0.00     0.198 A 
ATOM     80  F   UNL     1       1.513   7.206  12.452  1.00  0.00    -0.203 F 
ATOM     81  F   UNL     1       2.366  12.193  14.495  1.00  0.00    -0.200 F 
ATOM     82  C   UNL     1       0.945  10.656  13.401  1.00  0.00     0.200 A 
ATOM     83  F   UNL     1      -0.444   9.076  12.328  1.00  0.00    -0.200 F 
ATOM     84  F   UNL     1      -0.036  11.568  13.362  1.00  0.00    -0.200 F 
ENDBRANCH  50  74
BRANCH  62  85
ATOM     85  C   UNL     1       5.855   5.279  18.823  1.00  0.00     0.064 A 
ATOM     86  C   UNL     1       4.724   4.675  19.390  1.00  0.00     0.173 A 
ATOM     87  C   UNL     1       6.783   5.879  19.687  1.00  0.00     0.173 A 
ATOM     88  F   UNL     1       3.799   4.102  18.605  1.00  0.00    -0.203 F 
ATOM     89  C   UNL     1       4.521   4.689  20.768  1.00  0.00     0.198 A 
ATOM     90  C   UNL     1       6.588   5.871  21.066  1.00  0.00     0.198 A 
ATOM     91  F   UNL     1       7.884   6.467  19.195  1.00  0.00    -0.203 F 
ATOM     92  F   UNL     1       3.413   4.139  21.286  1.00  0.00    -0.200 F 
ATOM     93  C   UNL     1       5.455   5.280  21.605  1.00  0.00     0.200 A 
ATOM     94  F   UNL     1       7.497   6.436  21.874  1.00  0.00    -0.200 F 
ATOM     95  F   UNL     1       5.260   5.288  22.931  1.00  0.00    -0.200 F 
ENDBRANCH  62  85
ENDBRANCH  36  37
ENDBRANCH  28  31
ENDBRANCH  26  27
ENDBRANCH  25  26
ENDBRANCH   1  25
TORSDOF 15
