REMARK SMILES Cc1onc(-c2cccc(Br)c2)c1C(=O)NCCCNC(=O)c1ccc(-c2c3nc(c(-c4c(F)c(F)c(F)c(F)c4F)c4ccc([nH]4)c(-c4c(F)c(F)c(F)c(F)c4F)c4nc(c(-c5c(F)c(F)c(F)c(F)c5F)c5ccc2[nH]5)C=C4)C=C3)cc1
REMARK SMILES IDX 18 1 17 2 16 3 14 4 15 5 13 7 1 8 2 9 3 10 4 11 5 12 6 13
REMARK SMILES IDX 7 14 12 15 8 16 10 17 9 18 11 19 19 20 20 21 21 22 22 24
REMARK SMILES IDX 23 25 24 26 85 27 25 28 84 29 26 30 27 31 28 32 78 33 29 34
REMARK SMILES IDX 83 35 77 36 79 37 30 38 82 39 76 40 75 41 31 43 63 44 43 45
REMARK SMILES IDX 62 46 44 47 47 48 61 49 80 50 45 51 46 52 60 54 81 55 48 56
REMARK SMILES IDX 32 57 33 58 41 59 34 60 35 61 39 62 42 63 36 64 37 65 40 66
REMARK SMILES IDX 38 67 64 68 65 69 73 70 66 71 67 72 71 73 74 74 68 75 69 76
REMARK SMILES IDX 72 77 70 78 49 79 50 80 58 81 51 82 52 83 56 84 59 85 53 86
REMARK SMILES IDX 54 87 57 88 55 89
REMARK H PARENT 16 6 20 23 79 42 47 53
REMARK Flexibility Score: inf
ROOT
ATOM      1  C   UNL     1       3.744  -2.198   0.622  1.00  0.00     0.042 C 
ENDROOT
BRANCH   1   2
ATOM      2  C   UNL     1       2.826  -2.259  -0.599  1.00  0.00     0.118 C 
BRANCH   2   3
ATOM      3  N   UNL     1       1.575  -2.892  -0.262  1.00  0.00    -0.352 N 
ATOM      4  C   UNL     1       0.321  -2.456   0.049  1.00  0.00     0.257 C 
ATOM      5  O   UNL     1      -0.455  -3.386   0.299  1.00  0.00    -0.269 OA
ATOM      6  H   UNL     1       1.642  -3.874  -0.254  1.00  0.00     0.163 HD
BRANCH   4   7
ATOM      7  C   UNL     1      -0.134  -1.070   0.064  1.00  0.00     0.110 A 
ATOM      8  C   UNL     1       1.868   0.710   0.277  1.00  0.00     0.092 C 
ATOM      9  C   UNL     1       0.507   0.161   0.134  1.00  0.00     0.147 A 
ATOM     10  O   UNL     1      -0.416   1.158   0.071  1.00  0.00    -0.360 OA
ATOM     11  N   UNL     1      -1.675   0.643   0.012  1.00  0.00    -0.079 NA
ATOM     12  C   UNL     1      -1.534  -0.686   0.045  1.00  0.00     0.126 A 
BRANCH  12  13
ATOM     13  C   UNL     1      -2.735  -1.515   0.042  1.00  0.00     0.006 A 
ATOM     14  C   UNL     1      -3.024  -2.361   1.123  1.00  0.00     0.010 A 
ATOM     15  C   UNL     1      -3.633  -1.438  -1.030  1.00  0.00     0.026 A 
ATOM     16  C   UNL     1      -4.174  -3.152   1.114  1.00  0.00     0.002 A 
ATOM     17  C   UNL     1      -4.784  -2.225  -1.027  1.00  0.00     0.018 A 
ATOM     18  C   UNL     1      -5.055  -3.086   0.035  1.00  0.00     0.016 A 
ATOM     19  Br  UNL     1      -5.989  -2.124  -2.481  1.00  0.00    -0.051 Br
ENDBRANCH  12  13
ENDBRANCH   4   7
ENDBRANCH   2   3
ENDBRANCH   1   2
BRANCH   1  20
ATOM     20  C   UNL     1       4.380  -3.537   0.985  1.00  0.00     0.118 C 
BRANCH  20  21
ATOM     21  N   UNL     1       5.358  -3.962  -0.005  1.00  0.00    -0.352 N 
ATOM     22  C   UNL     1       6.705  -4.182   0.122  1.00  0.00     0.251 C 
ATOM     23  H   UNL     1       4.996  -4.114  -0.907  1.00  0.00     0.163 HD
ATOM     24  O   UNL     1       7.393  -4.297  -0.892  1.00  0.00    -0.269 OA
BRANCH  22  25
ATOM     25  C   UNL     1       7.344  -4.280   1.452  1.00  0.00     0.039 A 
ATOM     26  C   UNL     1       8.619  -3.734   1.627  1.00  0.00     0.014 A 
ATOM     27  C   UNL     1       6.728  -4.961   2.507  1.00  0.00     0.014 A 
ATOM     28  C   UNL     1       9.255  -3.828   2.867  1.00  0.00     0.010 A 
ATOM     29  C   UNL     1       7.331  -4.990   3.763  1.00  0.00     0.010 A 
ATOM     30  C   UNL     1       8.604  -4.434   3.953  1.00  0.00    -0.014 A 
BRANCH  30  31
ATOM     31  C   UNL     1       9.245  -4.503   5.291  1.00  0.00     0.031 A 
ATOM     32  C   UNL     1       9.602  -5.834   5.892  1.00  0.00     0.074 A 
ATOM     33  C   UNL     1       9.447  -3.369   5.988  1.00  0.00     0.049 A 
ATOM     34  N   UNL     1      10.099  -6.104   7.073  1.00  0.00    -0.248 NA
ATOM     35  C   UNL     1       9.339  -7.024   5.068  1.00  0.00     0.031 C 
ATOM     36  C   UNL     1       9.102  -2.022   5.529  1.00  0.00     0.029 A 
ATOM     37  N   UNL     1       9.981  -3.167   7.236  1.00  0.00    -0.354 N 
ATOM     38  C   UNL     1      10.191  -7.488   7.138  1.00  0.00     0.074 A 
ATOM     39  C   UNL     1       9.652  -8.006   5.900  1.00  0.00     0.031 C 
ATOM     40  C   UNL     1       9.454  -1.133   6.471  1.00  0.00     0.029 A 
ATOM     41  C   UNL     1      10.012  -1.847   7.615  1.00  0.00     0.049 A 
ATOM     42  H   UNL     1      10.312  -3.899   7.806  1.00  0.00     0.167 HD
ATOM     43  C   UNL     1      10.698  -8.255   8.133  1.00  0.00     0.037 A 
ATOM     44  C   UNL     1      10.436  -1.279   8.759  1.00  0.00     0.037 A 
ATOM     45  C   UNL     1      11.260  -7.731   9.351  1.00  0.00     0.049 A 
ATOM     46  C   UNL     1      10.995  -2.154   9.848  1.00  0.00     0.074 A 
ATOM     47  C   UNL     1      11.858  -8.419  10.392  1.00  0.00     0.029 A 
ATOM     48  N   UNL     1      11.290  -6.386   9.691  1.00  0.00    -0.354 N 
ATOM     49  N   UNL     1      11.139  -3.457   9.871  1.00  0.00    -0.248 NA
ATOM     50  C   UNL     1      11.458  -1.478  11.068  1.00  0.00     0.031 C 
ATOM     51  C   UNL     1      12.209  -7.496  11.383  1.00  0.00     0.029 A 
ATOM     52  C   UNL     1      11.877  -6.227  10.937  1.00  0.00     0.049 A 
ATOM     53  H   UNL     1      10.945  -5.654   9.131  1.00  0.00     0.167 HD
ATOM     54  C   UNL     1      11.733  -3.754  11.089  1.00  0.00     0.074 A 
ATOM     55  C   UNL     1      11.937  -2.493  11.772  1.00  0.00     0.031 C 
ATOM     56  C   UNL     1      12.079  -4.963  11.598  1.00  0.00     0.037 A 
BRANCH  43  57
ATOM     57  C   UNL     1      10.670  -9.745   7.947  1.00  0.00     0.064 A 
ATOM     58  C   UNL     1      11.486 -10.386   7.003  1.00  0.00     0.173 A 
ATOM     59  C   UNL     1       9.844 -10.548   8.749  1.00  0.00     0.173 A 
ATOM     60  F   UNL     1      12.287  -9.666   6.203  1.00  0.00    -0.203 F 
ATOM     61  C   UNL     1      11.454 -11.770   6.847  1.00  0.00     0.198 A 
ATOM     62  C   UNL     1       9.838 -11.934   8.613  1.00  0.00     0.198 A 
ATOM     63  F   UNL     1       9.047  -9.988   9.673  1.00  0.00    -0.203 F 
ATOM     64  F   UNL     1      12.206 -12.354   5.904  1.00  0.00    -0.200 F 
ATOM     65  C   UNL     1      10.636 -12.543   7.657  1.00  0.00     0.200 A 
ATOM     66  F   UNL     1       9.056 -12.680   9.405  1.00  0.00    -0.200 F 
ATOM     67  F   UNL     1      10.612 -13.875   7.511  1.00  0.00    -0.200 F 
ENDBRANCH  43  57
BRANCH  44  68
ATOM     68  C   UNL     1      10.374   0.197   8.922  1.00  0.00     0.064 A 
ATOM     69  C   UNL     1      11.546   0.966   8.953  1.00  0.00     0.173 A 
ATOM     70  C   UNL     1       9.149   0.869   9.049  1.00  0.00     0.173 A 
ATOM     71  F   UNL     1      12.742   0.366   8.855  1.00  0.00    -0.203 F 
ATOM     72  C   UNL     1      11.497   2.347   9.125  1.00  0.00     0.198 A 
ATOM     73  C   UNL     1       9.100   2.254   9.192  1.00  0.00     0.198 A 
ATOM     74  F   UNL     1       7.999   0.180   9.018  1.00  0.00    -0.203 F 
ATOM     75  F   UNL     1      12.634   3.052   9.195  1.00  0.00    -0.200 F 
ATOM     76  C   UNL     1      10.274   2.991   9.238  1.00  0.00     0.200 A 
ATOM     77  F   UNL     1       7.916   2.874   9.284  1.00  0.00    -0.200 F 
ATOM     78  F   UNL     1      10.227   4.321   9.398  1.00  0.00    -0.200 F 
ENDBRANCH  44  68
BRANCH  56  79
ATOM     79  C   UNL     1      12.747  -4.976  12.942  1.00  0.00     0.064 A 
ATOM     80  C   UNL     1      12.040  -4.693  14.119  1.00  0.00     0.173 A 
ATOM     81  C   UNL     1      14.104  -5.314  13.055  1.00  0.00     0.173 A 
ATOM     82  F   UNL     1      10.744  -4.349  14.062  1.00  0.00    -0.203 F 
ATOM     83  C   UNL     1      12.674  -4.723  15.358  1.00  0.00     0.198 A 
ATOM     84  C   UNL     1      14.727  -5.373  14.298  1.00  0.00     0.198 A 
ATOM     85  F   UNL     1      14.823  -5.600  11.959  1.00  0.00    -0.203 F 
ATOM     86  F   UNL     1      11.991  -4.401  16.466  1.00  0.00    -0.200 F 
ATOM     87  C   UNL     1      14.013  -5.070  15.447  1.00  0.00     0.200 A 
ATOM     88  F   UNL     1      16.018  -5.723  14.383  1.00  0.00    -0.200 F 
ATOM     89  F   UNL     1      14.620  -5.105  16.642  1.00  0.00    -0.200 F 
ENDBRANCH  56  79
ENDBRANCH  30  31
ENDBRANCH  22  25
ENDBRANCH  20  21
ENDBRANCH   1  20
TORSDOF 11
