REMARK SMILES CC(C)(C)N(CC(=O)NCCCNC(=O)c1ccc(-c2c3nc(c(-c4c(F)c(F)c(F)c(F)c4F)c4ccc([nH]4)c(-c4c(F)c(F)c(F)c(F)c4F)c4nc(c(-c5c(F)c(F)c(F)c(F)c5F)c5ccc2[nH]5)C=C4)C=C3)cc1)C(=O)C1(c2ccccc2)CCC1
REMARK SMILES IDX 10 1 9 2 7 3 8 4 6 6 5 7 2 8 1 9 3 10 4 11 79 12 80 13 81 14
REMARK SMILES IDX 88 15 90 16 89 17 82 18 83 19 87 20 84 21 86 22 85 23 11 24
REMARK SMILES IDX 12 25 13 26 14 27 15 29 16 30 17 31 78 32 18 33 77 34 19 35
REMARK SMILES IDX 20 36 21 37 71 38 22 39 76 40 70 41 72 42 23 43 75 44 69 45
REMARK SMILES IDX 68 46 24 48 56 49 36 50 55 51 37 52 40 53 54 54 73 55 38 56
REMARK SMILES IDX 39 57 53 59 74 60 41 61 25 62 26 63 34 64 27 65 28 66 32 67
REMARK SMILES IDX 35 68 29 69 30 70 33 71 31 72 57 73 58 74 66 75 59 76 60 77
REMARK SMILES IDX 64 78 67 79 61 80 62 81 65 82 63 83 42 84 43 85 51 86 44 87
REMARK SMILES IDX 45 88 49 89 52 90 46 91 47 92 50 93 48 94
REMARK H PARENT 9 5 13 28 72 47 40 58
REMARK Flexibility Score: inf
ROOT
ATOM      1  C   UNL     1       3.761   1.046   0.685  1.00  0.00     0.117 C 
ENDROOT
BRANCH   1   2
ATOM      2  N   UNL     1       4.028  -0.019   1.623  1.00  0.00    -0.354 N 
ATOM      3  C   UNL     1       3.195  -0.912   2.214  1.00  0.00     0.239 C 
ATOM      4  O   UNL     1       3.736  -1.896   2.737  1.00  0.00    -0.273 OA
ATOM      5  H   UNL     1       4.975  -0.113   1.877  1.00  0.00     0.163 HD
BRANCH   3   6
ATOM      6  C   UNL     1       1.661  -0.871   2.111  1.00  0.00     0.220 C 
BRANCH   6   7
ATOM      7  N   UNL     1       0.895   0.387   2.153  1.00  0.00    -0.328 N 
BRANCH   7   8
ATOM      8  C   UNL     1       0.030   0.783   0.959  1.00  0.00     0.035 C 
ATOM      9  C   UNL     1       0.220  -0.108  -0.302  1.00  0.00     0.034 C 
ATOM     10  C   UNL     1       0.286   2.236   0.488  1.00  0.00     0.034 C 
ATOM     11  C   UNL     1      -1.466   0.634   1.330  1.00  0.00     0.034 C 
ENDBRANCH   7   8
BRANCH   7  12
ATOM     12  C   UNL     1       0.698   1.090   3.387  1.00  0.00     0.234 C 
ATOM     13  O   UNL     1       0.086   2.175   3.371  1.00  0.00    -0.274 OA
BRANCH  12  14
ATOM     14  C   UNL     1       1.184   0.541   4.804  1.00  0.00     0.074 C 
ATOM     15  C   UNL     1       0.088   0.851   5.947  1.00  0.00     0.022 C 
ATOM     16  C   UNL     1       0.916  -0.955   5.226  1.00  0.00     0.022 C 
ATOM     17  C   UNL     1       0.503  -0.460   6.622  1.00  0.00     0.003 C 
BRANCH  14  18
ATOM     18  C   UNL     1       2.640   1.197   5.124  1.00  0.00    -0.032 A 
ATOM     19  C   UNL     1       2.771   2.549   5.512  1.00  0.00     0.005 A 
ATOM     20  C   UNL     1       3.842   0.469   5.054  1.00  0.00     0.005 A 
ATOM     21  C   UNL     1       4.011   3.138   5.780  1.00  0.00     0.000 A 
ATOM     22  C   UNL     1       5.091   1.055   5.281  1.00  0.00     0.000 A 
ATOM     23  C   UNL     1       5.176   2.393   5.645  1.00  0.00     0.000 A 
ENDBRANCH  14  18
ENDBRANCH  12  14
ENDBRANCH   7  12
ENDBRANCH   6   7
ENDBRANCH   3   6
ENDBRANCH   1   2
BRANCH   1  24
ATOM     24  C   UNL     1       3.745   2.433   1.310  1.00  0.00     0.042 C 
BRANCH  24  25
ATOM     25  C   UNL     1       5.094   2.903   1.842  1.00  0.00     0.118 C 
BRANCH  25  26
ATOM     26  N   UNL     1       6.118   2.989   0.809  1.00  0.00    -0.352 N 
ATOM     27  C   UNL     1       6.715   4.044   0.170  1.00  0.00     0.251 C 
ATOM     28  H   UNL     1       6.447   2.111   0.509  1.00  0.00     0.163 HD
ATOM     29  O   UNL     1       7.436   3.803  -0.797  1.00  0.00    -0.269 OA
BRANCH  27  30
ATOM     30  C   UNL     1       6.516   5.454   0.584  1.00  0.00     0.039 A 
ATOM     31  C   UNL     1       6.564   6.441  -0.409  1.00  0.00     0.014 A 
ATOM     32  C   UNL     1       6.376   5.842   1.917  1.00  0.00     0.014 A 
ATOM     33  C   UNL     1       6.422   7.791  -0.075  1.00  0.00     0.010 A 
ATOM     34  C   UNL     1       6.142   7.180   2.243  1.00  0.00     0.010 A 
ATOM     35  C   UNL     1       6.175   8.172   1.253  1.00  0.00    -0.014 A 
BRANCH  35  36
ATOM     36  C   UNL     1       5.961   9.601   1.607  1.00  0.00     0.031 A 
ATOM     37  C   UNL     1       6.916  10.319   2.524  1.00  0.00     0.074 A 
ATOM     38  C   UNL     1       4.880  10.248   1.129  1.00  0.00     0.049 A 
ATOM     39  N   UNL     1       6.881  11.556   2.953  1.00  0.00    -0.248 NA
ATOM     40  C   UNL     1       8.046   9.538   3.049  1.00  0.00     0.031 C 
ATOM     41  C   UNL     1       3.849   9.652   0.277  1.00  0.00     0.029 A 
ATOM     42  N   UNL     1       4.465  11.546   1.292  1.00  0.00    -0.354 N 
ATOM     43  C   UNL     1       7.970  11.696   3.803  1.00  0.00     0.074 A 
ATOM     44  C   UNL     1       8.617  10.404   3.874  1.00  0.00     0.031 C 
ATOM     45  C   UNL     1       2.940  10.589  -0.034  1.00  0.00     0.029 A 
ATOM     46  C   UNL     1       3.302  11.841   0.623  1.00  0.00     0.049 A 
ATOM     47  H   UNL     1       4.954  12.204   1.837  1.00  0.00     0.167 HD
ATOM     48  C   UNL     1       8.406  12.806   4.447  1.00  0.00     0.037 A 
ATOM     49  C   UNL     1       2.605  12.991   0.546  1.00  0.00     0.037 A 
ATOM     50  C   UNL     1       7.779  14.098   4.354  1.00  0.00     0.049 A 
ATOM     51  C   UNL     1       3.118  14.211   1.261  1.00  0.00     0.074 A 
ATOM     52  C   UNL     1       8.180  15.296   4.920  1.00  0.00     0.029 A 
ATOM     53  N   UNL     1       6.613  14.361   3.650  1.00  0.00    -0.354 N 
ATOM     54  N   UNL     1       4.191  14.347   2.001  1.00  0.00    -0.248 NA
ATOM     55  C   UNL     1       2.327  15.442   1.119  1.00  0.00     0.031 C 
ATOM     56  C   UNL     1       7.234  16.274   4.595  1.00  0.00     0.029 A 
ATOM     57  C   UNL     1       6.271  15.698   3.783  1.00  0.00     0.049 A 
ATOM     58  H   UNL     1       6.104  13.697   3.131  1.00  0.00     0.167 HD
ATOM     59  C   UNL     1       4.221  15.680   2.389  1.00  0.00     0.074 A 
ATOM     60  C   UNL     1       3.067  16.315   1.788  1.00  0.00     0.031 C 
ATOM     61  C   UNL     1       5.124  16.319   3.172  1.00  0.00     0.037 A 
BRANCH  48  62
ATOM     62  C   UNL     1       9.631  12.674   5.308  1.00  0.00     0.064 A 
ATOM     63  C   UNL     1      10.903  12.468   4.752  1.00  0.00     0.173 A 
ATOM     64  C   UNL     1       9.539  12.797   6.703  1.00  0.00     0.173 A 
ATOM     65  F   UNL     1      11.046  12.334   3.425  1.00  0.00    -0.203 F 
ATOM     66  C   UNL     1      12.031  12.360   5.561  1.00  0.00     0.198 A 
ATOM     67  C   UNL     1      10.674  12.720   7.506  1.00  0.00     0.198 A 
ATOM     68  F   UNL     1       8.349  13.003   7.287  1.00  0.00    -0.203 F 
ATOM     69  F   UNL     1      13.228  12.114   5.009  1.00  0.00    -0.200 F 
ATOM     70  C   UNL     1      11.917  12.494   6.936  1.00  0.00     0.200 A 
ATOM     71  F   UNL     1      10.564  12.864   8.835  1.00  0.00    -0.200 F 
ATOM     72  F   UNL     1      13.005  12.398   7.713  1.00  0.00    -0.200 F 
ENDBRANCH  48  62
BRANCH  49  73
ATOM     73  C   UNL     1       1.364  13.052  -0.269  1.00  0.00     0.064 A 
ATOM     74  C   UNL     1       1.324  13.784  -1.464  1.00  0.00     0.173 A 
ATOM     75  C   UNL     1       0.197  12.382   0.126  1.00  0.00     0.173 A 
ATOM     76  F   UNL     1       2.409  14.458  -1.872  1.00  0.00    -0.203 F 
ATOM     77  C   UNL     1       0.157  13.862  -2.221  1.00  0.00     0.198 A 
ATOM     78  C   UNL     1      -0.960  12.437  -0.648  1.00  0.00     0.198 A 
ATOM     79  F   UNL     1       0.185  11.663   1.258  1.00  0.00    -0.203 F 
ATOM     80  F   UNL     1       0.133  14.607  -3.335  1.00  0.00    -0.200 F 
ATOM     81  C   UNL     1      -0.982  13.183  -1.816  1.00  0.00     0.200 A 
ATOM     82  F   UNL     1      -2.055  11.768  -0.260  1.00  0.00    -0.200 F 
ATOM     83  F   UNL     1      -2.102  13.255  -2.548  1.00  0.00    -0.200 F 
ENDBRANCH  49  73
BRANCH  61  84
ATOM     84  C   UNL     1       4.921  17.791   3.393  1.00  0.00     0.064 A 
ATOM     85  C   UNL     1       3.882  18.279   4.199  1.00  0.00     0.173 A 
ATOM     86  C   UNL     1       5.799  18.721   2.816  1.00  0.00     0.173 A 
ATOM     87  F   UNL     1       3.008  17.432   4.761  1.00  0.00    -0.203 F 
ATOM     88  C   UNL     1       3.712  19.648   4.393  1.00  0.00     0.198 A 
ATOM     89  C   UNL     1       5.644  20.086   3.038  1.00  0.00     0.198 A 
ATOM     90  F   UNL     1       6.814  18.305   2.043  1.00  0.00    -0.203 F 
ATOM     91  F   UNL     1       2.681  20.095   5.125  1.00  0.00    -0.200 F 
ATOM     92  C   UNL     1       4.596  20.549   3.819  1.00  0.00     0.200 A 
ATOM     93  F   UNL     1       6.507  20.955   2.493  1.00  0.00    -0.200 F 
ATOM     94  F   UNL     1       4.432  21.865   4.012  1.00  0.00    -0.200 F 
ENDBRANCH  61  84
ENDBRANCH  35  36
ENDBRANCH  27  30
ENDBRANCH  25  26
ENDBRANCH  24  25
ENDBRANCH   1  24
TORSDOF 15
