REMARK SMILES C[NH2+][C@@]1(C(=O)NCCCNC(=O)c2ccc(-c3c4nc(c(-c5c(F)c(F)c(F)c(F)c5F)c5ccc([nH]5)c(-c5c(F)c(F)c(F)c(F)c5F)c5nc(c(-c6c(F)c(F)c(F)c(F)c6F)c6ccc3[nH]6)C=C5)C=C4)cc2)CC[C@H](SC2CCOCC2)C1
REMARK SMILES IDX 8 1 7 2 6 3 4 4 5 5 3 7 76 8 86 9 77 10 78 11 2 12 1 13
REMARK SMILES IDX 79 16 80 17 81 18 85 19 82 20 84 21 83 22 9 23 10 24 11 25
REMARK SMILES IDX 12 27 13 28 14 29 75 30 15 31 74 32 16 33 17 34 18 35 68 36
REMARK SMILES IDX 19 37 73 38 67 39 69 40 20 41 72 42 66 43 65 44 21 46 53 47
REMARK SMILES IDX 33 48 52 49 34 50 37 51 51 52 70 53 35 54 36 55 50 57 71 58
REMARK SMILES IDX 38 59 22 60 23 61 31 62 24 63 25 64 29 65 32 66 26 67 27 68
REMARK SMILES IDX 30 69 28 70 54 71 55 72 63 73 56 74 57 75 61 76 64 77 58 78
REMARK SMILES IDX 59 79 62 80 60 81 39 82 40 83 48 84 41 85 42 86 46 87 49 88
REMARK SMILES IDX 43 89 44 90 47 91 45 92
REMARK H PARENT 6 6 2 14 2 15 10 26 69 45 37 56
REMARK Flexibility Score: inf
ROOT
ATOM      1  C   UNL     1      -4.545  -1.751   0.895  1.00  0.00     0.042 C 
ENDROOT
BRANCH   1   2
ATOM      2  C   UNL     1      -3.721  -0.531   0.501  1.00  0.00     0.118 C 
BRANCH   2   3
ATOM      3  N   UNL     1      -2.373  -0.618   0.997  1.00  0.00    -0.351 N 
ATOM      4  C   UNL     1      -1.210  -0.965   0.384  1.00  0.00     0.281 C 
ATOM      5  O   UNL     1      -0.365  -1.404   1.177  1.00  0.00    -0.268 OA
ATOM      6  H   UNL     1      -2.275  -0.384   1.948  1.00  0.00     0.163 HD
BRANCH   4   7
ATOM      7  C   UNL     1      -0.924  -0.835  -1.179  1.00  0.00     0.176 C 
ATOM      8  C   UNL     1      -1.456   0.424  -1.879  1.00  0.00     0.080 C 
ATOM      9  C   UNL     1      -1.538  -2.008  -1.972  1.00  0.00     0.093 C 
ATOM     10  C   UNL     1      -2.687   0.038  -2.697  1.00  0.00     0.022 C 
ATOM     11  C   UNL     1      -2.702  -1.479  -2.856  1.00  0.00     0.054 C 
BRANCH   7  12
ATOM     12  N   UNL     1       0.562  -0.892  -1.389  1.00  0.00    -0.336 N 
ATOM     13  C   UNL     1       1.326   0.119  -0.661  1.00  0.00     0.331 C 
ATOM     14  H   UNL     1       0.889  -1.811  -1.092  1.00  0.00     0.346 HD
ATOM     15  H   UNL     1       0.719  -0.709  -2.381  1.00  0.00     0.346 HD
ENDBRANCH   7  12
BRANCH  11  16
ATOM     16  S   UNL     1      -4.167  -2.529  -2.457  1.00  0.00    -0.155 SA
BRANCH  16  17
ATOM     17  C   UNL     1      -5.740  -1.677  -2.880  1.00  0.00     0.051 C 
ATOM     18  C   UNL     1      -6.228  -2.004  -4.290  1.00  0.00     0.043 C 
ATOM     19  C   UNL     1      -5.917  -0.192  -2.588  1.00  0.00     0.043 C 
ATOM     20  C   UNL     1      -7.658  -1.489  -4.456  1.00  0.00     0.161 C 
ATOM     21  C   UNL     1      -7.368   0.210  -2.826  1.00  0.00     0.161 C 
ATOM     22  O   UNL     1      -7.741  -0.093  -4.170  1.00  0.00    -0.381 OA
ENDBRANCH  16  17
ENDBRANCH  11  16
ENDBRANCH   4   7
ENDBRANCH   2   3
ENDBRANCH   1   2
BRANCH   1  23
ATOM     23  C   UNL     1      -5.155  -1.615   2.278  1.00  0.00     0.118 C 
BRANCH  23  24
ATOM     24  N   UNL     1      -6.279  -0.684   2.273  1.00  0.00    -0.352 N 
ATOM     25  C   UNL     1      -7.626  -0.862   2.072  1.00  0.00     0.251 C 
ATOM     26  H   UNL     1      -6.022   0.251   2.447  1.00  0.00     0.163 HD
ATOM     27  O   UNL     1      -8.307   0.124   1.799  1.00  0.00    -0.269 OA
BRANCH  25  28
ATOM     28  C   UNL     1      -8.281  -2.193   2.158  1.00  0.00     0.039 A 
ATOM     29  C   UNL     1      -9.479  -2.401   1.459  1.00  0.00     0.014 A 
ATOM     30  C   UNL     1      -7.803  -3.210   2.981  1.00  0.00     0.014 A 
ATOM     31  C   UNL     1     -10.155  -3.624   1.554  1.00  0.00     0.010 A 
ATOM     32  C   UNL     1      -8.402  -4.468   2.975  1.00  0.00     0.010 A 
ATOM     33  C   UNL     1      -9.603  -4.684   2.288  1.00  0.00    -0.014 A 
BRANCH  33  34
ATOM     34  C   UNL     1     -10.274  -6.008   2.406  1.00  0.00     0.031 A 
ATOM     35  C   UNL     1     -10.633  -6.552   3.767  1.00  0.00     0.074 A 
ATOM     36  C   UNL     1     -10.478  -6.762   1.309  1.00  0.00     0.049 A 
ATOM     37  N   UNL     1     -11.070  -7.741   4.100  1.00  0.00    -0.248 NA
ATOM     38  C   UNL     1     -10.432  -5.650   4.913  1.00  0.00     0.031 C 
ATOM     39  C   UNL     1     -10.134  -6.378  -0.061  1.00  0.00     0.029 A 
ATOM     40  N   UNL     1     -11.011  -8.021   1.176  1.00  0.00    -0.354 N 
ATOM     41  C   UNL     1     -11.146  -7.742   5.488  1.00  0.00     0.074 A 
ATOM     42  C   UNL     1     -10.665  -6.455   5.938  1.00  0.00     0.031 C 
ATOM     43  C   UNL     1     -10.487  -7.367  -0.897  1.00  0.00     0.029 A 
ATOM     44  C   UNL     1     -11.037  -8.473  -0.121  1.00  0.00     0.049 A 
ATOM     45  H   UNL     1     -11.342  -8.549   1.938  1.00  0.00     0.167 HD
ATOM     46  C   UNL     1     -11.599  -8.717   6.312  1.00  0.00     0.037 A 
ATOM     47  C   UNL     1     -11.448  -9.652  -0.625  1.00  0.00     0.037 A 
ATOM     48  C   UNL     1     -12.139  -9.971   5.858  1.00  0.00     0.049 A 
ATOM     49  C   UNL     1     -11.982 -10.705   0.307  1.00  0.00     0.074 A 
ATOM     50  C   UNL     1     -12.704 -10.989   6.605  1.00  0.00     0.029 A 
ATOM     51  N   UNL     1     -12.192 -10.370   4.531  1.00  0.00    -0.354 N 
ATOM     52  N   UNL     1     -12.100 -10.673   1.612  1.00  0.00    -0.248 NA
ATOM     53  C   UNL     1     -12.443 -11.959  -0.306  1.00  0.00     0.031 C 
ATOM     54  C   UNL     1     -13.066 -12.022   5.733  1.00  0.00     0.029 A 
ATOM     55  C   UNL     1     -12.767 -11.627   4.439  1.00  0.00     0.049 A 
ATOM     56  H   UNL     1     -11.868  -9.839   3.768  1.00  0.00     0.167 HD
ATOM     57  C   UNL     1     -12.673 -11.884   1.973  1.00  0.00     0.074 A 
ATOM     58  C   UNL     1     -12.891 -12.625   0.748  1.00  0.00     0.031 C 
ATOM     59  C   UNL     1     -12.989 -12.343   3.209  1.00  0.00     0.037 A 
BRANCH  46  60
ATOM     60  C   UNL     1     -11.540  -8.462   7.792  1.00  0.00     0.064 A 
ATOM     61  C   UNL     1     -12.363  -7.510   8.412  1.00  0.00     0.173 A 
ATOM     62  C   UNL     1     -10.667  -9.201   8.607  1.00  0.00     0.173 A 
ATOM     63  F   UNL     1     -13.208  -6.769   7.679  1.00  0.00    -0.203 F 
ATOM     64  C   UNL     1     -12.288  -7.279   9.784  1.00  0.00     0.198 A 
ATOM     65  C   UNL     1     -10.619  -8.991   9.983  1.00  0.00     0.198 A 
ATOM     66  F   UNL     1      -9.863 -10.131   8.069  1.00  0.00    -0.203 F 
ATOM     67  F   UNL     1     -13.043  -6.323  10.342  1.00  0.00    -0.200 F 
ATOM     68  C   UNL     1     -11.422  -8.024  10.569  1.00  0.00     0.200 A 
ATOM     69  F   UNL     1      -9.791  -9.722  10.742  1.00  0.00    -0.200 F 
ATOM     70  F   UNL     1     -11.355  -7.804  11.889  1.00  0.00    -0.200 F 
ENDBRANCH  46  60
BRANCH  47  71
ATOM     71  C   UNL     1     -11.403  -9.886  -2.092  1.00  0.00     0.064 A 
ATOM     72  C   UNL     1     -12.585  -9.946  -2.843  1.00  0.00     0.173 A 
ATOM     73  C   UNL     1     -10.188 -10.047  -2.773  1.00  0.00     0.173 A 
ATOM     74  F   UNL     1     -13.772  -9.817  -2.232  1.00  0.00    -0.203 F 
ATOM     75  C   UNL     1     -12.556 -10.176  -4.216  1.00  0.00     0.198 A 
ATOM     76  C   UNL     1     -10.158 -10.250  -4.152  1.00  0.00     0.198 A 
ATOM     77  F   UNL     1      -9.029  -9.991  -2.102  1.00  0.00    -0.203 F 
ATOM     78  F   UNL     1     -13.703 -10.270  -4.902  1.00  0.00    -0.200 F 
ATOM     79  C   UNL     1     -11.342 -10.322  -4.871  1.00  0.00     0.200 A 
ATOM     80  F   UNL     1      -8.983 -10.375  -4.783  1.00  0.00    -0.200 F 
ATOM     81  F   UNL     1     -11.313 -10.537  -6.193  1.00  0.00    -0.200 F 
ENDBRANCH  47  71
BRANCH  59  82
ATOM     82  C   UNL     1     -13.642 -13.691   3.296  1.00  0.00     0.064 A 
ATOM     83  C   UNL     1     -12.922 -14.873   3.073  1.00  0.00     0.173 A 
ATOM     84  C   UNL     1     -14.996 -13.800   3.647  1.00  0.00     0.173 A 
ATOM     85  F   UNL     1     -11.629 -14.819   2.720  1.00  0.00    -0.203 F 
ATOM     86  C   UNL     1     -13.540 -16.116   3.177  1.00  0.00     0.198 A 
ATOM     87  C   UNL     1     -15.603 -15.045   3.778  1.00  0.00     0.198 A 
ATOM     88  F   UNL     1     -15.726 -12.698   3.877  1.00  0.00    -0.203 F 
ATOM     89  F   UNL     1     -12.845 -17.232   2.917  1.00  0.00    -0.200 F 
ATOM     90  C   UNL     1     -14.877 -16.201   3.537  1.00  0.00     0.200 A 
ATOM     91  F   UNL     1     -16.892 -15.126   4.138  1.00  0.00    -0.200 F 
ATOM     92  F   UNL     1     -15.468 -17.399   3.644  1.00  0.00    -0.200 F 
ENDBRANCH  59  82
ENDBRANCH  33  34
ENDBRANCH  25  28
ENDBRANCH  23  24
ENDBRANCH   1  23
TORSDOF 13
