REMARK SMILES Cc1c[nH]c(C[N@@H+](C)[C@@H](C(=O)NCCCNC(=O)c2ccc(-c3c4nc(c(-c5c(F)c(F)c(F)c(F)c5F)c5ccc([nH]5)c(-c5c(F)c(F)c(F)c(F)c5F)c5nc(c(-c6c(F)c(F)c(F)c(F)c6F)c6ccc3[nH]6)C=C5)C=C4)cc2)c2ccc(NC(=O)N3CCCC3)cc2)n1
REMARK SMILES IDX 13 1 12 2 10 3 11 4 9 6 7 7 8 8 6 10 5 11 1 12 2 13 3 14
REMARK SMILES IDX 96 15 4 16 82 18 83 19 95 20 84 21 94 22 85 23 86 24 87 25
REMARK SMILES IDX 88 27 89 28 90 29 93 30 91 31 92 32 14 33 15 34 16 35 17 36
REMARK SMILES IDX 18 38 19 39 20 40 81 41 21 42 80 43 22 44 23 45 24 46 74 47
REMARK SMILES IDX 25 48 79 49 73 50 75 51 26 52 78 53 72 54 71 55 27 57 59 58
REMARK SMILES IDX 39 59 58 60 40 61 43 62 57 63 76 64 41 65 42 66 56 68 77 69
REMARK SMILES IDX 44 70 28 71 29 72 37 73 30 74 31 75 35 76 38 77 32 78 33 79
REMARK SMILES IDX 36 80 34 81 60 82 61 83 69 84 62 85 63 86 67 87 70 88 64 89
REMARK SMILES IDX 65 90 68 91 66 92 45 93 46 94 54 95 47 96 48 97 52 98 55 99
REMARK SMILES IDX 49 100 50 101 53 102 51 103
REMARK H PARENT 12 5 7 9 4 17 86 26 16 37 75 56 43 67
REMARK Flexibility Score: inf
ROOT
ATOM      1  C   UNL     1      -5.277   3.032   2.889  1.00  0.00     0.118 C 
ENDROOT
BRANCH   1   2
ATOM      2  N   UNL     1      -4.942   1.651   2.597  1.00  0.00    -0.351 N 
ATOM      3  C   UNL     1      -3.777   1.112   2.128  1.00  0.00     0.283 C 
ATOM      4  O   UNL     1      -3.871  -0.007   1.606  1.00  0.00    -0.268 OA
ATOM      5  H   UNL     1      -5.665   1.003   2.762  1.00  0.00     0.163 HD
BRANCH   3   6
ATOM      6  C   UNL     1      -2.416   1.865   2.287  1.00  0.00     0.305 C 
BRANCH   6   7
ATOM      7  N   UNL     1      -2.017   2.544   1.024  1.00  0.00    -0.317 N 
ATOM      8  C   UNL     1      -2.477   3.908   0.877  1.00  0.00     0.334 C 
ATOM      9  H   UNL     1      -1.010   2.592   1.184  1.00  0.00     0.349 HD
BRANCH   7  10
ATOM     10  C   UNL     1      -2.123   1.780  -0.230  1.00  0.00     0.339 C 
BRANCH  10  11
ATOM     11  C   UNL     1      -0.978   0.845  -0.462  1.00  0.00     0.161 A 
ATOM     12  C   UNL     1       2.451  -0.045  -0.738  1.00  0.00     0.068 C 
ATOM     13  C   UNL     1       0.974  -0.023  -0.726  1.00  0.00     0.056 A 
ATOM     14  C   UNL     1       0.084  -1.072  -0.783  1.00  0.00     0.107 A 
ATOM     15  N   UNL     1       0.296   1.165  -0.599  1.00  0.00    -0.233 NA
ATOM     16  N   UNL     1      -1.147  -0.512  -0.577  1.00  0.00    -0.344 N 
ATOM     17  H   UNL     1      -2.002  -0.997  -0.521  1.00  0.00     0.167 HD
ENDBRANCH  10  11
ENDBRANCH   7  10
ENDBRANCH   6   7
BRANCH   6  18
ATOM     18  C   UNL     1      -1.302   0.943   2.816  1.00  0.00     0.019 A 
ATOM     19  C   UNL     1      -1.578  -0.242   3.511  1.00  0.00     0.012 A 
ATOM     20  C   UNL     1       0.048   1.258   2.595  1.00  0.00     0.012 A 
ATOM     21  C   UNL     1      -0.574  -1.190   3.717  1.00  0.00     0.027 A 
ATOM     22  C   UNL     1       1.046   0.298   2.779  1.00  0.00     0.027 A 
ATOM     23  C   UNL     1       0.704  -0.980   3.209  1.00  0.00     0.042 A 
BRANCH  23  24
ATOM     24  N   UNL     1       1.660  -2.001   3.077  1.00  0.00    -0.308 N 
ATOM     25  C   UNL     1       1.531  -3.356   3.132  1.00  0.00     0.321 C 
ATOM     26  H   UNL     1       2.578  -1.683   2.917  1.00  0.00     0.171 HD
ATOM     27  O   UNL     1       2.521  -4.027   3.434  1.00  0.00    -0.248 OA
ATOM     28  N   UNL     1       0.334  -3.946   2.841  1.00  0.00    -0.325 N 
ATOM     29  C   UNL     1      -0.584  -3.604   1.770  1.00  0.00     0.121 C 
ATOM     30  C   UNL     1       0.011  -5.261   3.344  1.00  0.00     0.121 C 
ATOM     31  C   UNL     1      -1.893  -4.213   2.236  1.00  0.00     0.023 C 
ATOM     32  C   UNL     1      -1.464  -5.468   3.001  1.00  0.00     0.023 C 
ENDBRANCH  23  24
ENDBRANCH   6  18
ENDBRANCH   3   6
ENDBRANCH   1   2
BRANCH   1  33
ATOM     33  C   UNL     1      -6.042   3.653   1.721  1.00  0.00     0.042 C 
BRANCH  33  34
ATOM     34  C   UNL     1      -7.423   3.051   1.489  1.00  0.00     0.118 C 
BRANCH  34  35
ATOM     35  N   UNL     1      -8.400   3.498   2.466  1.00  0.00    -0.352 N 
ATOM     36  C   UNL     1      -9.517   4.280   2.298  1.00  0.00     0.251 C 
ATOM     37  H   UNL     1      -8.237   3.195   3.388  1.00  0.00     0.163 HD
ATOM     38  O   UNL     1     -10.112   4.706   3.283  1.00  0.00    -0.269 OA
BRANCH  36  39
ATOM     39  C   UNL     1      -9.996   4.636   0.942  1.00  0.00     0.039 A 
ATOM     40  C   UNL     1     -10.425   5.946   0.705  1.00  0.00     0.014 A 
ATOM     41  C   UNL     1     -10.054   3.690  -0.084  1.00  0.00     0.014 A 
ATOM     42  C   UNL     1     -10.849   6.320  -0.574  1.00  0.00     0.010 A 
ATOM     43  C   UNL     1     -10.400   4.083  -1.376  1.00  0.00     0.010 A 
ATOM     44  C   UNL     1     -10.806   5.401  -1.634  1.00  0.00    -0.014 A 
BRANCH  44  45
ATOM     45  C   UNL     1     -11.186   5.793  -3.016  1.00  0.00     0.031 A 
ATOM     46  C   UNL     1     -12.366   5.147  -3.688  1.00  0.00     0.074 A 
ATOM     47  C   UNL     1     -10.430   6.680  -3.693  1.00  0.00     0.049 A 
ATOM     48  N   UNL     1     -12.795   5.278  -4.919  1.00  0.00    -0.248 NA
ATOM     49  C   UNL     1     -13.153   4.206  -2.877  1.00  0.00     0.031 C 
ATOM     50  C   UNL     1      -9.240   7.351  -3.168  1.00  0.00     0.029 A 
ATOM     51  N   UNL     1     -10.541   7.158  -4.976  1.00  0.00    -0.354 N 
ATOM     52  C   UNL     1     -13.886   4.427  -5.032  1.00  0.00     0.074 A 
ATOM     53  C   UNL     1     -14.025   3.746  -3.763  1.00  0.00     0.031 C 
ATOM     54  C   UNL     1      -8.741   8.165  -4.112  1.00  0.00     0.029 A 
ATOM     55  C   UNL     1      -9.548   8.042  -5.322  1.00  0.00     0.049 A 
ATOM     56  H   UNL     1     -11.264   6.892  -5.589  1.00  0.00     0.167 HD
ATOM     57  C   UNL     1     -14.710   4.245  -6.092  1.00  0.00     0.037 A 
ATOM     58  C   UNL     1      -9.307   8.671  -6.489  1.00  0.00     0.037 A 
ATOM     59  C   UNL     1     -14.589   4.945  -7.343  1.00  0.00     0.049 A 
ATOM     60  C   UNL     1     -10.228   8.438  -7.656  1.00  0.00     0.074 A 
ATOM     61  C   UNL     1     -15.415   4.879  -8.452  1.00  0.00     0.029 A 
ATOM     62  N   UNL     1     -13.576   5.841  -7.652  1.00  0.00    -0.354 N 
ATOM     63  N   UNL     1     -11.292   7.677  -7.731  1.00  0.00    -0.248 NA
ATOM     64  C   UNL     1      -9.913   9.153  -8.901  1.00  0.00     0.031 C 
ATOM     65  C   UNL     1     -14.875   5.699  -9.448  1.00  0.00     0.029 A 
ATOM     66  C   UNL     1     -13.741   6.314  -8.944  1.00  0.00     0.049 A 
ATOM     67  H   UNL     1     -12.848   6.102  -7.043  1.00  0.00     0.167 HD
ATOM     68  C   UNL     1     -11.788   7.840  -9.017  1.00  0.00     0.074 A 
ATOM     69  C   UNL     1     -10.916   8.783  -9.685  1.00  0.00     0.031 C 
ATOM     70  C   UNL     1     -12.869   7.258  -9.593  1.00  0.00     0.037 A 
BRANCH  57  71
ATOM     71  C   UNL     1     -15.823   3.247  -5.944  1.00  0.00     0.064 A 
ATOM     72  C   UNL     1     -16.925   3.491  -5.110  1.00  0.00     0.173 A 
ATOM     73  C   UNL     1     -15.808   2.050  -6.676  1.00  0.00     0.173 A 
ATOM     74  F   UNL     1     -16.983   4.615  -4.380  1.00  0.00    -0.203 F 
ATOM     75  C   UNL     1     -17.955   2.562  -4.993  1.00  0.00     0.198 A 
ATOM     76  C   UNL     1     -16.855   1.137  -6.580  1.00  0.00     0.198 A 
ATOM     77  F   UNL     1     -14.781   1.770  -7.493  1.00  0.00    -0.203 F 
ATOM     78  F   UNL     1     -18.973   2.796  -4.154  1.00  0.00    -0.200 F 
ATOM     79  C   UNL     1     -17.923   1.390  -5.733  1.00  0.00     0.200 A 
ATOM     80  F   UNL     1     -16.828   0.011  -7.306  1.00  0.00    -0.200 F 
ATOM     81  F   UNL     1     -18.919   0.500  -5.625  1.00  0.00    -0.200 F 
ENDBRANCH  57  71
BRANCH  58  82
ATOM     82  C   UNL     1      -8.148   9.594  -6.608  1.00  0.00     0.064 A 
ATOM     83  C   UNL     1      -8.340  10.976  -6.736  1.00  0.00     0.173 A 
ATOM     84  C   UNL     1      -6.829   9.116  -6.599  1.00  0.00     0.173 A 
ATOM     85  F   UNL     1      -9.583  11.479  -6.771  1.00  0.00    -0.203 F 
ATOM     86  C   UNL     1      -7.258  11.845  -6.868  1.00  0.00     0.198 A 
ATOM     87  C   UNL     1      -5.747   9.988  -6.703  1.00  0.00     0.198 A 
ATOM     88  F   UNL     1      -6.591   7.802  -6.474  1.00  0.00    -0.203 F 
ATOM     89  F   UNL     1      -7.472  13.157  -7.033  1.00  0.00    -0.200 F 
ATOM     90  C   UNL     1      -5.963  11.351  -6.846  1.00  0.00     0.200 A 
ATOM     91  F   UNL     1      -4.497   9.508  -6.667  1.00  0.00    -0.200 F 
ATOM     92  F   UNL     1      -4.922  12.186  -6.968  1.00  0.00    -0.200 F 
ENDBRANCH  58  82
BRANCH  70  93
ATOM     93  C   UNL     1     -13.189   7.646 -11.006  1.00  0.00     0.064 A 
ATOM     94  C   UNL     1     -12.413   7.197 -12.085  1.00  0.00     0.173 A 
ATOM     95  C   UNL     1     -14.317   8.431 -11.289  1.00  0.00     0.173 A 
ATOM     96  F   UNL     1     -11.316   6.456 -11.865  1.00  0.00    -0.203 F 
ATOM     97  C   UNL     1     -12.744   7.537 -13.394  1.00  0.00     0.198 A 
ATOM     98  C   UNL     1     -14.661   8.745 -12.601  1.00  0.00     0.198 A 
ATOM     99  F   UNL     1     -15.095   8.881 -10.293  1.00  0.00    -0.203 F 
ATOM    100  F   UNL     1     -11.966   7.130 -14.406  1.00  0.00    -0.200 F 
ATOM    101  C   UNL     1     -13.872   8.303 -13.651  1.00  0.00     0.200 A 
ATOM    102  F   UNL     1     -15.758   9.474 -12.848  1.00  0.00    -0.200 F 
ATOM    103  F   UNL     1     -14.195   8.618 -14.913  1.00  0.00    -0.200 F 
ENDBRANCH  70  93
ENDBRANCH  44  45
ENDBRANCH  36  39
ENDBRANCH  34  35
ENDBRANCH  33  34
ENDBRANCH   1  33
TORSDOF 15
