REMARK SMILES CCOc1cc(N2CCC[C@@H](C(=O)NCCCNC(=O)c3ccc(-c4c5nc(c(-c6c(F)c(F)c(F)c(F)c6F)c6ccc([nH]6)c(-c6c(F)c(F)c(F)c(F)c6F)c6nc(c(-c7c(F)c(F)c(F)c(F)c7F)c7ccc4[nH]7)C=C6)C=C5)cc3)C2)nc(SC)n1
REMARK SMILES IDX 15 1 14 2 12 3 13 4 11 6 7 7 8 8 84 9 9 10 10 11 6 12 4 13
REMARK SMILES IDX 5 14 89 15 86 16 85 17 3 18 2 19 1 20 87 21 88 22 16 23
REMARK SMILES IDX 17 24 18 25 19 26 20 28 21 29 22 30 83 31 23 32 82 33 24 34
REMARK SMILES IDX 25 35 26 36 76 37 27 38 81 39 75 40 77 41 28 42 80 43 74 44
REMARK SMILES IDX 73 45 29 47 61 48 41 49 60 50 42 51 45 52 59 53 78 54 43 55
REMARK SMILES IDX 44 56 58 58 79 59 46 60 30 61 31 62 39 63 32 64 33 65 37 66
REMARK SMILES IDX 40 67 34 68 35 69 38 70 36 71 62 72 63 73 71 74 64 75 65 76
REMARK SMILES IDX 69 77 72 78 66 79 67 80 70 81 68 82 47 83 48 84 56 85 49 86
REMARK SMILES IDX 50 87 54 88 57 89 51 90 52 91 55 92 53 93
REMARK H PARENT 14 5 18 27 77 46 45 57
REMARK Flexibility Score: inf
ROOT
ATOM      1  C   UNL     1       4.542   3.899  -1.540  1.00  0.00     0.117 C 
ENDROOT
BRANCH   1   2
ATOM      2  N   UNL     1       5.658   4.586  -0.918  1.00  0.00    -0.356 N 
ATOM      3  C   UNL     1       6.615   4.227  -0.029  1.00  0.00     0.224 C 
ATOM      4  O   UNL     1       7.438   5.111   0.244  1.00  0.00    -0.275 OA
ATOM      5  H   UNL     1       5.738   5.524  -1.206  1.00  0.00     0.163 HD
BRANCH   3   6
ATOM      6  C   UNL     1       6.782   2.848   0.599  1.00  0.00     0.098 C 
ATOM      7  N   UNL     1       5.862   0.740   1.426  1.00  0.00    -0.356 N 
ATOM      8  C   UNL     1       6.980  -0.072   0.947  1.00  0.00     0.118 C 
ATOM      9  C   UNL     1       5.556   1.962   0.693  1.00  0.00     0.131 C 
ATOM     10  C   UNL     1       8.227   0.795   0.754  1.00  0.00     0.022 C 
ATOM     11  C   UNL     1       7.943   2.078  -0.036  1.00  0.00     0.017 C 
BRANCH   7  12
ATOM     12  C   UNL     1       4.857   0.090   2.123  1.00  0.00     0.137 A 
ATOM     13  C   UNL     1       2.610  -0.357   2.622  1.00  0.00     0.219 A 
ATOM     14  C   UNL     1       3.526   0.274   1.821  1.00  0.00     0.115 A 
ATOM     15  N   UNL     1       2.929  -1.072   3.704  1.00  0.00    -0.187 NA
ATOM     16  C   UNL     1       4.244  -1.181   3.939  1.00  0.00     0.192 A 
ATOM     17  N   UNL     1       5.215  -0.673   3.162  1.00  0.00    -0.205 NA
BRANCH  13  18
ATOM     18  O   UNL     1       1.273  -0.125   2.406  1.00  0.00    -0.478 OA
BRANCH  18  19
ATOM     19  C   UNL     1       0.753  -0.957   1.365  1.00  0.00     0.228 C 
ATOM     20  C   UNL     1       0.702  -0.199   0.044  1.00  0.00     0.049 C 
ENDBRANCH  18  19
ENDBRANCH  13  18
BRANCH  16  21
ATOM     21  S   UNL     1       4.734  -1.990   5.444  1.00  0.00    -0.089 SA
ATOM     22  C   UNL     1       6.382  -1.259   5.649  1.00  0.00     0.094 C 
ENDBRANCH  16  21
ENDBRANCH   7  12
ENDBRANCH   3   6
ENDBRANCH   1   2
BRANCH   1  23
ATOM     23  C   UNL     1       3.242   4.073  -0.753  1.00  0.00     0.042 C 
BRANCH  23  24
ATOM     24  C   UNL     1       2.528   5.389  -1.059  1.00  0.00     0.118 C 
BRANCH  24  25
ATOM     25  N   UNL     1       2.031   5.426  -2.428  1.00  0.00    -0.352 N 
ATOM     26  C   UNL     1       0.751   5.500  -2.914  1.00  0.00     0.251 C 
ATOM     27  H   UNL     1       2.731   5.392  -3.119  1.00  0.00     0.163 HD
ATOM     28  O   UNL     1       0.544   5.243  -4.096  1.00  0.00    -0.269 OA
BRANCH  26  29
ATOM     29  C   UNL     1      -0.377   5.888  -2.041  1.00  0.00     0.039 A 
ATOM     30  C   UNL     1      -1.625   5.290  -2.248  1.00  0.00     0.014 A 
ATOM     31  C   UNL     1      -0.237   6.890  -1.078  1.00  0.00     0.014 A 
ATOM     32  C   UNL     1      -2.717   5.665  -1.463  1.00  0.00     0.010 A 
ATOM     33  C   UNL     1      -1.306   7.211  -0.246  1.00  0.00     0.010 A 
ATOM     34  C   UNL     1      -2.559   6.612  -0.440  1.00  0.00    -0.014 A 
BRANCH  34  35
ATOM     35  C   UNL     1      -3.696   7.009   0.427  1.00  0.00     0.031 A 
ATOM     36  C   UNL     1      -4.205   8.423   0.400  1.00  0.00     0.074 A 
ATOM     37  C   UNL     1      -4.214   6.117   1.292  1.00  0.00     0.049 A 
ATOM     38  N   UNL     1      -5.112   8.993   1.152  1.00  0.00    -0.248 NA
ATOM     39  C   UNL     1      -3.589   9.326  -0.585  1.00  0.00     0.031 C 
ATOM     40  C   UNL     1      -3.768   4.731   1.445  1.00  0.00     0.029 A 
ATOM     41  N   UNL     1      -5.218   6.248   2.217  1.00  0.00    -0.354 N 
ATOM     42  C   UNL     1      -5.156  10.322   0.750  1.00  0.00     0.074 A 
ATOM     43  C   UNL     1      -4.152  10.486  -0.279  1.00  0.00     0.031 C 
ATOM     44  C   UNL     1      -4.504   4.136   2.397  1.00  0.00     0.029 A 
ATOM     45  C   UNL     1      -5.447   5.106   2.944  1.00  0.00     0.049 A 
ATOM     46  H   UNL     1      -5.726   7.081   2.348  1.00  0.00     0.167 HD
ATOM     47  C   UNL     1      -5.975  11.309   1.185  1.00  0.00     0.037 A 
ATOM     48  C   UNL     1      -6.316   4.872   3.945  1.00  0.00     0.037 A 
ATOM     49  C   UNL     1      -6.994  11.130   2.184  1.00  0.00     0.049 A 
ATOM     50  C   UNL     1      -7.231   5.977   4.393  1.00  0.00     0.074 A 
ATOM     51  C   UNL     1      -7.917  12.048   2.653  1.00  0.00     0.029 A 
ATOM     52  N   UNL     1      -7.226   9.945   2.868  1.00  0.00    -0.354 N 
ATOM     53  N   UNL     1      -7.304   7.214   3.966  1.00  0.00    -0.248 NA
ATOM     54  C   UNL     1      -8.190   5.652   5.458  1.00  0.00     0.031 C 
ATOM     55  C   UNL     1      -8.685  11.428   3.645  1.00  0.00     0.029 A 
ATOM     56  C   UNL     1      -8.269  10.112   3.764  1.00  0.00     0.049 A 
ATOM     57  H   UNL     1      -6.723   9.109   2.736  1.00  0.00     0.167 HD
ATOM     58  C   UNL     1      -8.327   7.809   4.690  1.00  0.00     0.074 A 
ATOM     59  C   UNL     1      -8.858   6.791   5.574  1.00  0.00     0.031 C 
ATOM     60  C   UNL     1      -8.786   9.083   4.630  1.00  0.00     0.037 A 
BRANCH  47  61
ATOM     61  C   UNL     1      -5.803  12.670   0.574  1.00  0.00     0.064 A 
ATOM     62  C   UNL     1      -6.156  12.927  -0.760  1.00  0.00     0.173 A 
ATOM     63  C   UNL     1      -5.301  13.737   1.335  1.00  0.00     0.173 A 
ATOM     64  F   UNL     1      -6.629  11.939  -1.535  1.00  0.00    -0.203 F 
ATOM     65  C   UNL     1      -5.981  14.191  -1.319  1.00  0.00     0.198 A 
ATOM     66  C   UNL     1      -5.155  15.007   0.782  1.00  0.00     0.198 A 
ATOM     67  F   UNL     1      -4.953  13.549   2.617  1.00  0.00    -0.203 F 
ATOM     68  F   UNL     1      -6.273  14.397  -2.610  1.00  0.00    -0.200 F 
ATOM     69  C   UNL     1      -5.487  15.230  -0.546  1.00  0.00     0.200 A 
ATOM     70  F   UNL     1      -4.689  16.014   1.533  1.00  0.00    -0.200 F 
ATOM     71  F   UNL     1      -5.321  16.447  -1.084  1.00  0.00    -0.200 F 
ENDBRANCH  47  61
BRANCH  48  72
ATOM     72  C   UNL     1      -6.379   3.524   4.566  1.00  0.00     0.064 A 
ATOM     73  C   UNL     1      -7.471   2.678   4.333  1.00  0.00     0.173 A 
ATOM     74  C   UNL     1      -5.346   3.049   5.386  1.00  0.00     0.173 A 
ATOM     75  F   UNL     1      -8.491   3.096   3.570  1.00  0.00    -0.203 F 
ATOM     76  C   UNL     1      -7.535   1.411   4.910  1.00  0.00     0.198 A 
ATOM     77  C   UNL     1      -5.399   1.772   5.942  1.00  0.00     0.198 A 
ATOM     78  F   UNL     1      -4.276   3.818   5.633  1.00  0.00    -0.203 F 
ATOM     79  F   UNL     1      -8.608   0.636   4.700  1.00  0.00    -0.200 F 
ATOM     80  C   UNL     1      -6.497   0.957   5.708  1.00  0.00     0.200 A 
ATOM     81  F   UNL     1      -4.388   1.331   6.702  1.00  0.00    -0.200 F 
ATOM     82  F   UNL     1      -6.556  -0.265   6.256  1.00  0.00    -0.200 F 
ENDBRANCH  48  72
BRANCH  60  83
ATOM     83  C   UNL     1      -9.936   9.439   5.524  1.00  0.00     0.064 A 
ATOM     84  C   UNL     1      -9.768   9.600   6.907  1.00  0.00     0.173 A 
ATOM     85  C   UNL     1     -11.211   9.662   4.984  1.00  0.00     0.173 A 
ATOM     86  F   UNL     1      -8.571   9.382   7.471  1.00  0.00    -0.203 F 
ATOM     87  C   UNL     1     -10.842   9.949   7.721  1.00  0.00     0.198 A 
ATOM     88  C   UNL     1     -12.277  10.037   5.797  1.00  0.00     0.198 A 
ATOM     89  F   UNL     1     -11.421   9.526   3.666  1.00  0.00    -0.203 F 
ATOM     90  F   UNL     1     -10.670  10.056   9.045  1.00  0.00    -0.200 F 
ATOM     91  C   UNL     1     -12.093  10.175   7.165  1.00  0.00     0.200 A 
ATOM     92  F   UNL     1     -13.481  10.266   5.257  1.00  0.00    -0.200 F 
ATOM     93  F   UNL     1     -13.124  10.518   7.949  1.00  0.00    -0.200 F 
ENDBRANCH  60  83
ENDBRANCH  34  35
ENDBRANCH  26  29
ENDBRANCH  24  25
ENDBRANCH  23  24
ENDBRANCH   1  23
TORSDOF 14
