REMARK SMILES CCc1c(C(=O)NCC(=O)NCCCNC(=O)c2ccc(-c3c4nc(c(-c5c(F)c(F)c(F)c(F)c5F)c5ccc([nH]5)c(-c5c(F)c(F)c(F)c(F)c5F)c5nc(c(-c6c(F)c(F)c(F)c(F)c6F)c6ccc3[nH]6)C=C5)C=C4)cc2)nnn1-c1ccc(Cl)cc1
REMARK SMILES IDX 12 1 11 2 9 3 10 4 8 6 7 7 5 8 6 9 4 11 3 12 83 13 81 14
REMARK SMILES IDX 82 15 2 16 1 17 84 18 85 19 90 20 86 21 89 22 87 23 88 24
REMARK SMILES IDX 13 25 14 26 15 27 16 28 17 30 18 31 19 32 80 33 20 34 79 35
REMARK SMILES IDX 21 36 22 37 23 38 73 39 24 40 78 41 72 42 74 43 25 44 77 45
REMARK SMILES IDX 71 46 70 47 26 49 58 50 38 51 57 52 39 53 42 54 56 55 75 56
REMARK SMILES IDX 40 57 41 58 55 60 76 61 43 62 27 63 28 64 36 65 29 66 30 67
REMARK SMILES IDX 34 68 37 69 31 70 32 71 35 72 33 73 59 74 60 75 68 76 61 77
REMARK SMILES IDX 62 78 66 79 69 80 63 81 64 82 67 83 65 84 44 85 45 86 53 87
REMARK SMILES IDX 46 88 47 89 51 90 54 91 48 92 49 93 52 94 50 95
REMARK H PARENT 11 5 7 10 15 29 74 48 42 59
REMARK Flexibility Score: inf
ROOT
ATOM      1  C   UNL     1       4.035   1.200  -1.889  1.00  0.00     0.117 C 
ENDROOT
BRANCH   1   2
ATOM      2  N   UNL     1       3.839   2.523  -1.331  1.00  0.00    -0.355 N 
ATOM      3  C   UNL     1       2.863   3.440  -1.561  1.00  0.00     0.239 C 
ATOM      4  O   UNL     1       2.868   4.455  -0.858  1.00  0.00    -0.273 OA
ATOM      5  H   UNL     1       4.523   2.802  -0.680  1.00  0.00     0.163 HD
BRANCH   3   6
ATOM      6  C   UNL     1       1.666   3.146  -2.467  1.00  0.00     0.216 C 
BRANCH   6   7
ATOM      7  N   UNL     1       1.844   2.539  -3.764  1.00  0.00    -0.342 N 
ATOM      8  C   UNL     1       1.575   1.325  -4.333  1.00  0.00     0.274 C 
ATOM      9  O   UNL     1       1.808   1.300  -5.548  1.00  0.00    -0.267 OA
ATOM     10  H   UNL     1       2.268   3.157  -4.402  1.00  0.00     0.164 HD
BRANCH   8  11
ATOM     11  C   UNL     1       1.171   0.087  -3.644  1.00  0.00     0.174 A 
ATOM     12  C   UNL     1       0.483  -0.297  -2.485  1.00  0.00     0.077 A 
ATOM     13  N   UNL     1       0.495  -1.699  -2.548  1.00  0.00    -0.217 N 
ATOM     14  N   UNL     1       1.651  -1.068  -4.242  1.00  0.00    -0.124 NA
ATOM     15  N   UNL     1       1.343  -2.111  -3.502  1.00  0.00    -0.061 NA
BRANCH  12  16
ATOM     16  C   UNL     1      -0.090   0.397  -1.288  1.00  0.00     0.055 C 
ATOM     17  C   UNL     1       0.806   0.229  -0.058  1.00  0.00     0.011 C 
ENDBRANCH  12  16
BRANCH  13  18
ATOM     18  C   UNL     1      -0.130  -2.647  -1.699  1.00  0.00     0.067 A 
ATOM     19  C   UNL     1       0.583  -3.789  -1.309  1.00  0.00     0.030 A 
ATOM     20  C   UNL     1      -1.430  -2.441  -1.224  1.00  0.00     0.030 A 
ATOM     21  C   UNL     1       0.031  -4.658  -0.364  1.00  0.00     0.023 A 
ATOM     22  C   UNL     1      -1.976  -3.309  -0.279  1.00  0.00     0.023 A 
ATOM     23  C   UNL     1      -1.236  -4.404   0.161  1.00  0.00     0.041 A 
ATOM     24  Cl  UNL     1      -1.895  -5.447   1.357  1.00  0.00    -0.084 Cl
ENDBRANCH  13  18
ENDBRANCH   8  11
ENDBRANCH   6   7
ENDBRANCH   3   6
ENDBRANCH   1   2
BRANCH   1  25
ATOM     25  C   UNL     1       4.979   1.194  -3.088  1.00  0.00     0.042 C 
BRANCH  25  26
ATOM     26  C   UNL     1       6.429   1.349  -2.659  1.00  0.00     0.118 C 
BRANCH  26  27
ATOM     27  N   UNL     1       6.923   0.181  -1.923  1.00  0.00    -0.352 N 
ATOM     28  C   UNL     1       8.117   0.038  -1.239  1.00  0.00     0.251 C 
ATOM     29  H   UNL     1       6.328  -0.604  -1.915  1.00  0.00     0.163 HD
ATOM     30  O   UNL     1       8.567  -1.057  -0.963  1.00  0.00    -0.269 OA
BRANCH  28  31
ATOM     31  C   UNL     1       8.836   1.262  -0.848  1.00  0.00     0.039 A 
ATOM     32  C   UNL     1      10.211   1.393  -1.052  1.00  0.00     0.014 A 
ATOM     33  C   UNL     1       8.079   2.313  -0.341  1.00  0.00     0.014 A 
ATOM     34  C   UNL     1      10.802   2.633  -0.828  1.00  0.00     0.010 A 
ATOM     35  C   UNL     1       8.625   3.568  -0.293  1.00  0.00     0.010 A 
ATOM     36  C   UNL     1       9.994   3.727  -0.476  1.00  0.00    -0.014 A 
BRANCH  36  37
ATOM     37  C   UNL     1      10.544   5.077  -0.412  1.00  0.00     0.031 A 
ATOM     38  C   UNL     1      11.263   5.510  -1.643  1.00  0.00     0.074 A 
ATOM     39  C   UNL     1      10.235   5.943   0.578  1.00  0.00     0.049 A 
ATOM     40  N   UNL     1      12.515   5.804  -1.764  1.00  0.00    -0.248 NA
ATOM     41  C   UNL     1      10.532   5.495  -2.922  1.00  0.00     0.031 C 
ATOM     42  C   UNL     1       9.285   5.762   1.684  1.00  0.00     0.029 A 
ATOM     43  N   UNL     1      10.633   7.233   0.746  1.00  0.00    -0.354 N 
ATOM     44  C   UNL     1      12.694   6.202  -3.087  1.00  0.00     0.074 A 
ATOM     45  C   UNL     1      11.495   5.823  -3.787  1.00  0.00     0.031 C 
ATOM     46  C   UNL     1       9.005   6.957   2.246  1.00  0.00     0.029 A 
ATOM     47  C   UNL     1       9.886   7.954   1.671  1.00  0.00     0.049 A 
ATOM     48  H   UNL     1      11.390   7.625   0.252  1.00  0.00     0.167 HD
ATOM     49  C   UNL     1      13.713   7.039  -3.430  1.00  0.00     0.037 A 
ATOM     50  C   UNL     1       9.973   9.282   1.931  1.00  0.00     0.037 A 
ATOM     51  C   UNL     1      14.726   7.061  -2.403  1.00  0.00     0.049 A 
ATOM     52  C   UNL     1      11.286   9.742   1.416  1.00  0.00     0.074 A 
ATOM     53  C   UNL     1      15.543   6.111  -1.823  1.00  0.00     0.029 A 
ATOM     54  N   UNL     1      14.743   8.132  -1.544  1.00  0.00    -0.354 N 
ATOM     55  N   UNL     1      12.430   9.386   1.928  1.00  0.00    -0.248 NA
ATOM     56  C   UNL     1      11.335  10.229   0.048  1.00  0.00     0.031 C 
ATOM     57  C   UNL     1      15.592   6.461  -0.440  1.00  0.00     0.029 A 
ATOM     58  C   UNL     1      14.870   7.642  -0.271  1.00  0.00     0.049 A 
ATOM     59  H   UNL     1      14.677   9.081  -1.798  1.00  0.00     0.167 HD
ATOM     60  C   UNL     1      13.251   9.175   0.831  1.00  0.00     0.074 A 
ATOM     61  C   UNL     1      12.553   9.800  -0.291  1.00  0.00     0.031 C 
ATOM     62  C   UNL     1      14.268   8.265   0.884  1.00  0.00     0.037 A 
BRANCH  49  63
ATOM     63  C   UNL     1      13.608   8.132  -4.474  1.00  0.00     0.064 A 
ATOM     64  C   UNL     1      14.756   8.894  -4.778  1.00  0.00     0.173 A 
ATOM     65  C   UNL     1      12.388   8.667  -4.942  1.00  0.00     0.173 A 
ATOM     66  F   UNL     1      15.971   8.491  -4.377  1.00  0.00    -0.203 F 
ATOM     67  C   UNL     1      14.673  10.140  -5.407  1.00  0.00     0.198 A 
ATOM     68  C   UNL     1      12.316   9.885  -5.617  1.00  0.00     0.198 A 
ATOM     69  F   UNL     1      11.206   8.103  -4.672  1.00  0.00    -0.203 F 
ATOM     70  F   UNL     1      15.774  10.890  -5.545  1.00  0.00    -0.200 F 
ATOM     71  C   UNL     1      13.451  10.639  -5.817  1.00  0.00     0.200 A 
ATOM     72  F   UNL     1      11.118  10.358  -5.991  1.00  0.00    -0.200 F 
ATOM     73  F   UNL     1      13.359  11.862  -6.355  1.00  0.00    -0.200 F 
ENDBRANCH  49  63
BRANCH  50  74
ATOM     74  C   UNL     1       8.903  10.230   2.317  1.00  0.00     0.064 A 
ATOM     75  C   UNL     1       9.214  11.493   2.846  1.00  0.00     0.173 A 
ATOM     76  C   UNL     1       7.572  10.037   1.898  1.00  0.00     0.173 A 
ATOM     77  F   UNL     1      10.468  11.772   3.231  1.00  0.00    -0.203 F 
ATOM     78  C   UNL     1       8.262  12.515   2.917  1.00  0.00     0.198 A 
ATOM     79  C   UNL     1       6.621  11.056   1.974  1.00  0.00     0.198 A 
ATOM     80  F   UNL     1       7.196   8.890   1.314  1.00  0.00    -0.203 F 
ATOM     81  F   UNL     1       8.615  13.729   3.362  1.00  0.00    -0.200 F 
ATOM     82  C   UNL     1       6.970  12.300   2.467  1.00  0.00     0.200 A 
ATOM     83  F   UNL     1       5.384  10.847   1.500  1.00  0.00    -0.200 F 
ATOM     84  F   UNL     1       6.075  13.298   2.469  1.00  0.00    -0.200 F 
ENDBRANCH  50  74
BRANCH  62  85
ATOM     85  C   UNL     1      14.641   7.713   2.234  1.00  0.00     0.064 A 
ATOM     86  C   UNL     1      13.778   6.966   3.056  1.00  0.00     0.173 A 
ATOM     87  C   UNL     1      15.969   7.851   2.659  1.00  0.00     0.173 A 
ATOM     88  F   UNL     1      12.523   6.698   2.680  1.00  0.00    -0.203 F 
ATOM     89  C   UNL     1      14.213   6.433   4.269  1.00  0.00     0.198 A 
ATOM     90  C   UNL     1      16.411   7.285   3.851  1.00  0.00     0.198 A 
ATOM     91  F   UNL     1      16.855   8.506   1.892  1.00  0.00    -0.203 F 
ATOM     92  F   UNL     1      13.363   5.743   5.045  1.00  0.00    -0.200 F 
ATOM     93  C   UNL     1      15.531   6.588   4.663  1.00  0.00     0.200 A 
ATOM     94  F   UNL     1      17.700   7.396   4.202  1.00  0.00    -0.200 F 
ATOM     95  F   UNL     1      15.960   6.047   5.812  1.00  0.00    -0.200 F 
ENDBRANCH  62  85
ENDBRANCH  36  37
ENDBRANCH  28  31
ENDBRANCH  26  27
ENDBRANCH  25  26
ENDBRANCH   1  25
TORSDOF 14
