REMARK SMILES Cc1ccc(C(F)(F)F)cc1/C=C/C(=O)NCCCNC(=O)c1ccc(-c2c3nc(c(-c4c(F)c(F)c(F)c(F)c4F)c4ccc([nH]4)c(-c4c(F)c(F)c(F)c(F)c4F)c4nc(c(-c5c(F)c(F)c(F)c(F)c5F)c5ccc2[nH]5)C=C4)C=C3)cc1
REMARK SMILES IDX 18 1 17 2 16 3 14 4 15 5 13 7 12 8 11 9 1 10 2 11 3 12 4 13
REMARK SMILES IDX 10 14 5 15 6 16 7 17 8 18 9 19 19 20 20 21 21 22 22 24 23 25
REMARK SMILES IDX 24 26 85 27 25 28 84 29 26 30 27 31 28 32 78 33 29 34 83 35
REMARK SMILES IDX 77 36 79 37 30 38 82 39 76 40 75 41 31 43 63 44 43 45 62 46
REMARK SMILES IDX 44 47 47 48 61 49 80 50 45 51 46 52 60 54 81 55 48 56 32 57
REMARK SMILES IDX 33 58 41 59 34 60 35 61 39 62 42 63 36 64 37 65 40 66 38 67
REMARK SMILES IDX 64 68 65 69 73 70 66 71 67 72 71 73 74 74 68 75 69 76 72 77
REMARK SMILES IDX 70 78 49 79 50 80 58 81 51 82 52 83 56 84 59 85 53 86 54 87
REMARK SMILES IDX 57 88 55 89
REMARK H PARENT 16 6 20 23 79 42 47 53
REMARK Flexibility Score: inf
ROOT
ATOM      1  C   UNL     1       4.012   2.910  -0.934  1.00  0.00     0.042 C 
ENDROOT
BRANCH   1   2
ATOM      2  C   UNL     1       3.521   3.651   0.310  1.00  0.00     0.118 C 
BRANCH   2   3
ATOM      3  N   UNL     1       2.574   4.706  -0.029  1.00  0.00    -0.352 N 
ATOM      4  C   UNL     1       1.210   4.684  -0.028  1.00  0.00     0.244 C 
ATOM      5  O   UNL     1       0.582   5.722  -0.223  1.00  0.00    -0.270 OA
ATOM      6  H   UNL     1       2.979   5.561  -0.299  1.00  0.00     0.163 HD
BRANCH   4   7
ATOM      7  C   UNL     1       0.479   3.433   0.281  1.00  0.00     0.072 C 
ATOM      8  C   UNL     1       0.687   2.287  -0.383  1.00  0.00     0.014 C 
BRANCH   8   9
ATOM      9  C   UNL     1      -0.027   1.027  -0.135  1.00  0.00    -0.022 A 
ATOM     10  C   UNL     1       2.172  -0.279   0.040  1.00  0.00     0.045 C 
ATOM     11  C   UNL     1       0.670  -0.190   0.019  1.00  0.00    -0.044 A 
ATOM     12  C   UNL     1      -0.053  -1.388   0.116  1.00  0.00     0.004 A 
ATOM     13  C   UNL     1      -1.446  -1.384   0.099  1.00  0.00     0.013 A 
ATOM     14  C   UNL     1      -1.431   1.019  -0.145  1.00  0.00     0.021 A 
ATOM     15  C   UNL     1      -2.150  -0.179  -0.019  1.00  0.00     0.056 A 
BRANCH  15  16
ATOM     16  C   UNL     1      -3.658  -0.192  -0.038  1.00  0.00     0.416 C 
ATOM     17  F   UNL     1      -4.156  -0.816  -1.141  1.00  0.00    -0.166 F 
ATOM     18  F   UNL     1      -4.186  -0.846   1.033  1.00  0.00    -0.166 F 
ATOM     19  F   UNL     1      -4.214   1.051  -0.028  1.00  0.00    -0.166 F 
ENDBRANCH  15  16
ENDBRANCH   8   9
ENDBRANCH   4   7
ENDBRANCH   2   3
ENDBRANCH   1   2
BRANCH   1  20
ATOM     20  C   UNL     1       5.293   3.481  -1.516  1.00  0.00     0.118 C 
BRANCH  20  21
ATOM     21  N   UNL     1       6.489   2.690  -1.233  1.00  0.00    -0.352 N 
ATOM     22  C   UNL     1       7.799   2.990  -1.566  1.00  0.00     0.251 C 
ATOM     23  H   UNL     1       6.347   1.845  -0.749  1.00  0.00     0.163 HD
ATOM     24  O   UNL     1       8.720   2.228  -1.286  1.00  0.00    -0.269 OA
BRANCH  22  25
ATOM     25  C   UNL     1       8.072   4.320  -2.150  1.00  0.00     0.039 A 
ATOM     26  C   UNL     1       8.861   5.196  -1.401  1.00  0.00     0.014 A 
ATOM     27  C   UNL     1       7.281   4.784  -3.198  1.00  0.00     0.014 A 
ATOM     28  C   UNL     1       8.639   6.564  -1.516  1.00  0.00     0.010 A 
ATOM     29  C   UNL     1       6.988   6.133  -3.243  1.00  0.00     0.010 A 
ATOM     30  C   UNL     1       7.611   7.012  -2.347  1.00  0.00    -0.014 A 
BRANCH  30  31
ATOM     31  C   UNL     1       7.072   8.365  -2.275  1.00  0.00     0.031 A 
ATOM     32  C   UNL     1       7.429   9.357  -3.306  1.00  0.00     0.074 A 
ATOM     33  C   UNL     1       6.222   8.724  -1.286  1.00  0.00     0.049 A 
ATOM     34  N   UNL     1       7.439  10.632  -3.107  1.00  0.00    -0.248 NA
ATOM     35  C   UNL     1       7.843   8.976  -4.648  1.00  0.00     0.031 C 
ATOM     36  C   UNL     1       5.441   9.956  -1.204  1.00  0.00     0.029 A 
ATOM     37  N   UNL     1       6.046   8.120  -0.030  1.00  0.00    -0.354 N 
ATOM     38  C   UNL     1       7.590  11.245  -4.327  1.00  0.00     0.074 A 
ATOM     39  C   UNL     1       7.900  10.171  -5.245  1.00  0.00     0.031 C 
ATOM     40  C   UNL     1       5.143  10.195   0.082  1.00  0.00     0.029 A 
ATOM     41  C   UNL     1       5.811   9.186   0.878  1.00  0.00     0.049 A 
ATOM     42  H   UNL     1       6.078   7.158   0.177  1.00  0.00     0.167 HD
ATOM     43  C   UNL     1       7.315  12.577  -4.445  1.00  0.00     0.037 A 
ATOM     44  C   UNL     1       6.655   9.422   1.923  1.00  0.00     0.037 A 
ATOM     45  C   UNL     1       6.946  13.174  -3.160  1.00  0.00     0.049 A 
ATOM     46  C   UNL     1       7.360  10.759   1.871  1.00  0.00     0.074 A 
ATOM     47  C   UNL     1       5.745  13.521  -2.562  1.00  0.00     0.029 A 
ATOM     48  N   UNL     1       7.896  13.235  -2.155  1.00  0.00    -0.354 N 
ATOM     49  N   UNL     1       7.172  11.659   0.946  1.00  0.00    -0.248 NA
ATOM     50  C   UNL     1       8.428  11.131   2.800  1.00  0.00     0.031 C 
ATOM     51  C   UNL     1       5.993  13.812  -1.190  1.00  0.00     0.029 A 
ATOM     52  C   UNL     1       7.343  13.639  -0.953  1.00  0.00     0.049 A 
ATOM     53  H   UNL     1       8.848  13.018  -2.280  1.00  0.00     0.167 HD
ATOM     54  C   UNL     1       8.093  12.662   1.095  1.00  0.00     0.074 A 
ATOM     55  C   UNL     1       8.861  12.284   2.267  1.00  0.00     0.031 C 
ATOM     56  C   UNL     1       8.196  13.706   0.222  1.00  0.00     0.037 A 
BRANCH  43  57
ATOM     57  C   UNL     1       7.137  13.277  -5.774  1.00  0.00     0.064 A 
ATOM     58  C   UNL     1       6.263  14.376  -5.904  1.00  0.00     0.173 A 
ATOM     59  C   UNL     1       7.761  12.881  -6.972  1.00  0.00     0.173 A 
ATOM     60  F   UNL     1       5.698  14.953  -4.836  1.00  0.00    -0.203 F 
ATOM     61  C   UNL     1       5.931  14.930  -7.143  1.00  0.00     0.198 A 
ATOM     62  C   UNL     1       7.382  13.388  -8.219  1.00  0.00     0.198 A 
ATOM     63  F   UNL     1       8.800  12.037  -6.969  1.00  0.00    -0.203 F 
ATOM     64  F   UNL     1       5.086  15.969  -7.202  1.00  0.00    -0.200 F 
ATOM     65  C   UNL     1       6.454  14.404  -8.306  1.00  0.00     0.200 A 
ATOM     66  F   UNL     1       7.927  12.884  -9.336  1.00  0.00    -0.200 F 
ATOM     67  F   UNL     1       6.091  14.895  -9.498  1.00  0.00    -0.200 F 
ENDBRANCH  43  57
BRANCH  44  68
ATOM     68  C   UNL     1       7.226   8.160   2.464  1.00  0.00     0.064 A 
ATOM     69  C   UNL     1       6.318   7.212   2.978  1.00  0.00     0.173 A 
ATOM     70  C   UNL     1       8.487   7.708   2.065  1.00  0.00     0.173 A 
ATOM     71  F   UNL     1       5.103   7.603   3.396  1.00  0.00    -0.203 F 
ATOM     72  C   UNL     1       6.588   5.850   2.900  1.00  0.00     0.198 A 
ATOM     73  C   UNL     1       8.768   6.344   2.031  1.00  0.00     0.198 A 
ATOM     74  F   UNL     1       9.394   8.565   1.576  1.00  0.00    -0.203 F 
ATOM     75  F   UNL     1       5.637   4.961   3.219  1.00  0.00    -0.200 F 
ATOM     76  C   UNL     1       7.799   5.417   2.388  1.00  0.00     0.200 A 
ATOM     77  F   UNL     1       9.944   5.923   1.545  1.00  0.00    -0.200 F 
ATOM     78  F   UNL     1       8.010   4.109   2.188  1.00  0.00    -0.200 F 
ENDBRANCH  44  68
BRANCH  56  79
ATOM     79  C   UNL     1       9.144  14.862   0.409  1.00  0.00     0.064 A 
ATOM     80  C   UNL     1       9.404  15.429   1.668  1.00  0.00     0.173 A 
ATOM     81  C   UNL     1       9.750  15.511  -0.690  1.00  0.00     0.173 A 
ATOM     82  F   UNL     1       8.792  14.972   2.770  1.00  0.00    -0.203 F 
ATOM     83  C   UNL     1      10.283  16.503   1.828  1.00  0.00     0.198 A 
ATOM     84  C   UNL     1      10.583  16.618  -0.533  1.00  0.00     0.198 A 
ATOM     85  F   UNL     1       9.570  15.083  -1.947  1.00  0.00    -0.203 F 
ATOM     86  F   UNL     1      10.556  16.960   3.058  1.00  0.00    -0.200 F 
ATOM     87  C   UNL     1      10.869  17.099   0.727  1.00  0.00     0.200 A 
ATOM     88  F   UNL     1      11.112  17.208  -1.614  1.00  0.00    -0.200 F 
ATOM     89  F   UNL     1      11.703  18.137   0.880  1.00  0.00    -0.200 F 
ENDBRANCH  56  79
ENDBRANCH  30  31
ENDBRANCH  22  25
ENDBRANCH  20  21
ENDBRANCH   1  20
TORSDOF 12
