REMARK SMILES Cc1ccc(S(=O)(=O)N[C@@H](Cc2cccc(F)c2)C(=O)NCCCNC(=O)c2ccc(-c3c4nc(c(-c5c(F)c(F)c(F)c(F)c5F)c5ccc([nH]5)c(-c5c(F)c(F)c(F)c(F)c5F)c5nc(c(-c6c(F)c(F)c(F)c(F)c6F)c6ccc3[nH]6)C=C5)C=C4)cc2)cc1
REMARK SMILES IDX 22 1 21 2 19 3 20 4 10 6 9 7 6 9 7 10 8 11 5 12 1 13 2 14
REMARK SMILES IDX 3 15 92 16 4 17 91 18 11 19 12 20 13 21 18 22 14 23 16 24
REMARK SMILES IDX 15 25 17 26 23 27 24 28 25 29 26 30 27 32 28 33 29 34 90 35
REMARK SMILES IDX 30 36 89 37 31 38 32 39 33 40 83 41 34 42 88 43 82 44 84 45
REMARK SMILES IDX 35 46 87 47 81 48 80 49 36 51 68 52 48 53 67 54 49 55 52 56
REMARK SMILES IDX 66 57 85 58 50 59 51 60 65 62 86 63 53 64 37 65 38 66 46 67
REMARK SMILES IDX 39 68 40 69 44 70 47 71 41 72 42 73 45 74 43 75 69 76 70 77
REMARK SMILES IDX 78 78 71 79 72 80 76 81 79 82 73 83 74 84 77 85 75 86 54 87
REMARK SMILES IDX 55 88 63 89 56 90 57 91 61 92 64 93 58 94 59 95 62 96 60 97
REMARK H PARENT 21 5 9 8 25 31 84 50 52 61
REMARK Flexibility Score: inf
ROOT
ATOM      1  C   UNL     1      -6.617   2.671  -1.391  1.00  0.00     0.117 C 
ENDROOT
BRANCH   1   2
ATOM      2  N   UNL     1      -5.650   3.664  -0.943  1.00  0.00    -0.355 N 
ATOM      3  C   UNL     1      -4.286   3.601  -0.969  1.00  0.00     0.238 C 
ATOM      4  O   UNL     1      -3.650   4.562  -0.528  1.00  0.00    -0.273 OA
ATOM      5  H   UNL     1      -6.031   4.492  -0.571  1.00  0.00     0.163 HD
BRANCH   3   6
ATOM      6  C   UNL     1      -3.557   2.322  -1.435  1.00  0.00     0.163 C 
BRANCH   6   7
ATOM      7  N   UNL     1      -3.902   1.379  -0.338  1.00  0.00    -0.198 NA
ATOM      8  H   UNL     1      -3.605   1.850   0.517  1.00  0.00     0.142 HD
BRANCH   7   9
ATOM      9  S   UNL     1      -3.383  -0.183  -0.166  1.00  0.00     0.241 S 
ATOM     10  O   UNL     1      -3.655  -0.871  -1.418  1.00  0.00    -0.207 OA
ATOM     11  O   UNL     1      -3.937  -0.635   1.080  1.00  0.00    -0.207 OA
BRANCH   9  12
ATOM     12  C   UNL     1      -1.628  -0.118   0.032  1.00  0.00     0.082 A 
ATOM     13  C   UNL     1       2.662  -0.065   0.066  1.00  0.00     0.044 C 
ATOM     14  C   UNL     1       1.163  -0.083   0.092  1.00  0.00    -0.051 A 
ATOM     15  C   UNL     1       0.478  -1.282  -0.140  1.00  0.00     0.005 A 
ATOM     16  C   UNL     1       0.435   1.083   0.361  1.00  0.00     0.005 A 
ATOM     17  C   UNL     1      -0.914  -1.300  -0.182  1.00  0.00     0.022 A 
ATOM     18  C   UNL     1      -0.961   1.066   0.348  1.00  0.00     0.022 A 
ENDBRANCH   9  12
ENDBRANCH   7   9
ENDBRANCH   6   7
BRANCH   6  19
ATOM     19  C   UNL     1      -3.858   1.820  -2.864  1.00  0.00     0.065 C 
BRANCH  19  20
ATOM     20  C   UNL     1      -4.433   2.751  -3.923  1.00  0.00    -0.043 A 
ATOM     21  C   UNL     1      -5.155   2.169  -4.984  1.00  0.00     0.004 A 
ATOM     22  C   UNL     1      -4.308   4.146  -3.912  1.00  0.00     0.043 A 
ATOM     23  C   UNL     1      -5.799   2.955  -5.946  1.00  0.00     0.003 A 
ATOM     24  C   UNL     1      -4.990   4.923  -4.849  1.00  0.00     0.123 A 
ATOM     25  C   UNL     1      -5.739   4.341  -5.861  1.00  0.00     0.039 A 
ATOM     26  F   UNL     1      -4.937   6.259  -4.756  1.00  0.00    -0.207 F 
ENDBRANCH  19  20
ENDBRANCH   6  19
ENDBRANCH   3   6
ENDBRANCH   1   2
BRANCH   1  27
ATOM     27  C   UNL     1      -7.544   2.230  -0.273  1.00  0.00     0.042 C 
BRANCH  27  28
ATOM     28  C   UNL     1      -8.637   3.246  -0.020  1.00  0.00     0.118 C 
BRANCH  28  29
ATOM     29  N   UNL     1      -9.790   3.133  -0.902  1.00  0.00    -0.352 N 
ATOM     30  C   UNL     1     -10.939   3.902  -0.970  1.00  0.00     0.251 C 
ATOM     31  H   UNL     1      -9.745   2.396  -1.553  1.00  0.00     0.163 HD
ATOM     32  O   UNL     1     -11.858   3.537  -1.698  1.00  0.00    -0.269 OA
BRANCH  30  33
ATOM     33  C   UNL     1     -11.003   5.238  -0.319  1.00  0.00     0.039 A 
ATOM     34  C   UNL     1     -11.737   6.252  -0.956  1.00  0.00     0.014 A 
ATOM     35  C   UNL     1     -10.156   5.569   0.726  1.00  0.00     0.014 A 
ATOM     36  C   UNL     1     -11.403   7.587  -0.738  1.00  0.00     0.010 A 
ATOM     37  C   UNL     1      -9.691   6.855   0.803  1.00  0.00     0.010 A 
ATOM     38  C   UNL     1     -10.285   7.861   0.037  1.00  0.00    -0.014 A 
BRANCH  38  39
ATOM     39  C   UNL     1      -9.633   9.149   0.186  1.00  0.00     0.031 A 
ATOM     40  C   UNL     1      -9.752   9.842   1.485  1.00  0.00     0.074 A 
ATOM     41  C   UNL     1      -8.688   9.494  -0.713  1.00  0.00     0.049 A 
ATOM     42  N   UNL     1      -9.264  11.002   1.740  1.00  0.00    -0.248 NA
ATOM     43  C   UNL     1     -10.469   9.263   2.616  1.00  0.00     0.031 C 
ATOM     44  C   UNL     1      -7.571  10.416  -0.519  1.00  0.00     0.029 A 
ATOM     45  N   UNL     1      -8.651   9.196  -2.086  1.00  0.00    -0.354 N 
ATOM     46  C   UNL     1      -9.356  11.216   3.098  1.00  0.00     0.074 A 
ATOM     47  C   UNL     1     -10.178  10.136   3.583  1.00  0.00     0.031 C 
ATOM     48  C   UNL     1      -7.152  10.848  -1.719  1.00  0.00     0.029 A 
ATOM     49  C   UNL     1      -8.106  10.358  -2.696  1.00  0.00     0.049 A 
ATOM     50  H   UNL     1      -8.940   8.365  -2.527  1.00  0.00     0.167 HD
ATOM     51  C   UNL     1      -8.629  12.238   3.636  1.00  0.00     0.037 A 
ATOM     52  C   UNL     1      -8.889  11.155  -3.486  1.00  0.00     0.037 A 
ATOM     53  C   UNL     1      -8.015  13.037   2.572  1.00  0.00     0.049 A 
ATOM     54  C   UNL     1      -9.081  12.569  -2.971  1.00  0.00     0.074 A 
ATOM     55  C   UNL     1      -6.760  13.097   1.991  1.00  0.00     0.029 A 
ATOM     56  N   UNL     1      -8.857  13.741   1.734  1.00  0.00    -0.354 N 
ATOM     57  N   UNL     1      -8.674  12.989  -1.806  1.00  0.00    -0.248 NA
ATOM     58  C   UNL     1      -9.838  13.592  -3.693  1.00  0.00     0.031 C 
ATOM     59  C   UNL     1      -6.878  13.826   0.768  1.00  0.00     0.029 A 
ATOM     60  C   UNL     1      -8.197  14.218   0.623  1.00  0.00     0.049 A 
ATOM     61  H   UNL     1      -9.815  13.884   1.910  1.00  0.00     0.167 HD
ATOM     62  C   UNL     1      -9.150  14.251  -1.583  1.00  0.00     0.074 A 
ATOM     63  C   UNL     1      -9.867  14.594  -2.797  1.00  0.00     0.031 C 
ATOM     64  C   UNL     1      -8.968  14.905  -0.400  1.00  0.00     0.037 A 
BRANCH  51  65
ATOM     65  C   UNL     1      -8.320  12.467   5.102  1.00  0.00     0.064 A 
ATOM     66  C   UNL     1      -7.303  13.379   5.468  1.00  0.00     0.173 A 
ATOM     67  C   UNL     1      -8.921  11.808   6.192  1.00  0.00     0.173 A 
ATOM     68  F   UNL     1      -6.687  14.145   4.557  1.00  0.00    -0.203 F 
ATOM     69  C   UNL     1      -6.875  13.547   6.788  1.00  0.00     0.198 A 
ATOM     70  C   UNL     1      -8.479  11.959   7.510  1.00  0.00     0.198 A 
ATOM     71  F   UNL     1      -9.988  11.023   6.054  1.00  0.00    -0.203 F 
ATOM     72  F   UNL     1      -5.892  14.416   7.061  1.00  0.00    -0.200 F 
ATOM     73  C   UNL     1      -7.447  12.819   7.808  1.00  0.00     0.200 A 
ATOM     74  F   UNL     1      -9.072  11.259   8.489  1.00  0.00    -0.200 F 
ATOM     75  F   UNL     1      -7.024  12.960   9.071  1.00  0.00    -0.200 F 
ENDBRANCH  51  65
BRANCH  52  76
ATOM     76  C   UNL     1      -9.932  10.364  -4.198  1.00  0.00     0.064 A 
ATOM     77  C   UNL     1      -9.504   9.369  -5.100  1.00  0.00     0.173 A 
ATOM     78  C   UNL     1     -11.224  10.252  -3.668  1.00  0.00     0.173 A 
ATOM     79  F   UNL     1      -8.279   9.440  -5.644  1.00  0.00    -0.203 F 
ATOM     80  C   UNL     1     -10.267   8.226  -5.322  1.00  0.00     0.198 A 
ATOM     81  C   UNL     1     -11.995   9.117  -3.918  1.00  0.00     0.198 A 
ATOM     82  F   UNL     1     -11.685  11.165  -2.802  1.00  0.00    -0.203 F 
ATOM     83  F   UNL     1      -9.772   7.225  -6.065  1.00  0.00    -0.200 F 
ATOM     84  C   UNL     1     -11.496   8.085  -4.700  1.00  0.00     0.200 A 
ATOM     85  F   UNL     1     -13.182   8.974  -3.310  1.00  0.00    -0.200 F 
ATOM     86  F   UNL     1     -12.181   6.939  -4.816  1.00  0.00    -0.200 F 
ENDBRANCH  52  76
BRANCH  64  87
ATOM     87  C   UNL     1      -9.531  16.264  -0.111  1.00  0.00     0.064 A 
ATOM     88  C   UNL     1      -9.346  17.347  -0.981  1.00  0.00     0.173 A 
ATOM     89  C   UNL     1     -10.169  16.547   1.116  1.00  0.00     0.173 A 
ATOM     90  F   UNL     1      -8.722  17.180  -2.156  1.00  0.00    -0.203 F 
ATOM     91  C   UNL     1      -9.788  18.630  -0.650  1.00  0.00     0.198 A 
ATOM     92  C   UNL     1     -10.553  17.837   1.469  1.00  0.00     0.198 A 
ATOM     93  F   UNL     1     -10.462  15.576   1.993  1.00  0.00    -0.203 F 
ATOM     94  F   UNL     1      -9.639  19.631  -1.528  1.00  0.00    -0.200 F 
ATOM     95  C   UNL     1     -10.373  18.878   0.581  1.00  0.00     0.200 A 
ATOM     96  F   UNL     1     -11.103  18.061   2.671  1.00  0.00    -0.200 F 
ATOM     97  F   UNL     1     -10.769  20.115   0.908  1.00  0.00    -0.200 F 
ENDBRANCH  64  87
ENDBRANCH  38  39
ENDBRANCH  30  33
ENDBRANCH  28  29
ENDBRANCH  27  28
ENDBRANCH   1  27
TORSDOF 15
