REMARK SMILES C[C@H]1Oc2ccccc2C=C1/C=C/C(=O)N[C@H](C(=O)NCCCNC(=O)c1ccc(-c2c3nc(c(-c4c(F)c(F)c(F)c(F)c4F)c4ccc([nH]4)c(-c4c(F)c(F)c(F)c(F)c4F)c4nc(c(-c5c(F)c(F)c(F)c(F)c5F)c5ccc2[nH]5)C=C4)C=C3)cc1)c1ccccc1
REMARK SMILES IDX 21 1 20 2 18 3 19 4 17 6 16 7 14 8 15 9 13 11 12 12 11 13
REMARK SMILES IDX 1 14 2 15 3 16 4 17 10 18 5 19 9 20 6 21 8 22 7 23 90 24
REMARK SMILES IDX 91 25 95 26 92 27 94 28 93 29 22 30 23 31 24 32 25 33 26 35
REMARK SMILES IDX 27 36 28 37 89 38 29 39 88 40 30 41 31 42 32 43 82 44 33 45
REMARK SMILES IDX 87 46 81 47 83 48 34 49 86 50 80 51 79 52 35 54 67 55 47 56
REMARK SMILES IDX 66 57 48 58 51 59 65 60 84 61 49 62 50 63 64 65 85 66 52 67
REMARK SMILES IDX 36 68 37 69 45 70 38 71 39 72 43 73 46 74 40 75 41 76 44 77
REMARK SMILES IDX 42 78 68 79 69 80 77 81 70 82 71 83 75 84 78 85 72 86 73 87
REMARK SMILES IDX 76 88 74 89 53 90 54 91 62 92 55 93 56 94 60 95 63 96 57 97
REMARK SMILES IDX 58 98 61 99 59 100
REMARK H PARENT 20 5 16 10 24 34 83 53 51 64
REMARK Flexibility Score: inf
ROOT
ATOM      1  C   UNL     1      -2.432  -3.316   1.402  1.00  0.00     0.117 C 
ENDROOT
BRANCH   1   2
ATOM      2  N   UNL     1      -2.744  -2.825   0.069  1.00  0.00    -0.354 N 
ATOM      3  C   UNL     1      -2.041  -2.913  -1.101  1.00  0.00     0.247 C 
ATOM      4  O   UNL     1      -2.565  -2.345  -2.066  1.00  0.00    -0.272 OA
ATOM      5  H   UNL     1      -3.604  -2.351  -0.004  1.00  0.00     0.163 HD
BRANCH   3   6
ATOM      6  C   UNL     1      -0.612  -3.554  -1.157  1.00  0.00     0.202 C 
BRANCH   6   7
ATOM      7  N   UNL     1      -0.454  -4.660  -0.210  1.00  0.00    -0.337 N 
ATOM      8  C   UNL     1      -1.021  -5.878  -0.072  1.00  0.00     0.244 C 
ATOM      9  O   UNL     1      -0.682  -6.543   0.910  1.00  0.00    -0.270 OA
ATOM     10  H   UNL     1       0.220  -4.473   0.483  1.00  0.00     0.164 HD
BRANCH   8  11
ATOM     11  C   UNL     1      -1.992  -6.491  -1.014  1.00  0.00     0.071 C 
ATOM     12  C   UNL     1      -2.617  -5.986  -2.086  1.00  0.00     0.013 C 
BRANCH  12  13
ATOM     13  C   UNL     1      -3.434  -6.712  -3.058  1.00  0.00    -0.007 C 
ATOM     14  C   UNL     1      -2.860  -5.380  -5.157  1.00  0.00     0.058 C 
ATOM     15  C   UNL     1      -3.970  -5.886  -4.232  1.00  0.00     0.200 C 
ATOM     16  O   UNL     1      -4.949  -6.532  -5.070  1.00  0.00    -0.485 OA
ATOM     17  C   UNL     1      -4.939  -7.896  -5.098  1.00  0.00     0.127 A 
ATOM     18  C   UNL     1      -3.660  -8.033  -2.994  1.00  0.00     0.019 C 
ATOM     19  C   UNL     1      -5.584  -8.501  -6.177  1.00  0.00     0.047 A 
ATOM     20  C   UNL     1      -4.359  -8.674  -4.098  1.00  0.00     0.017 A 
ATOM     21  C   UNL     1      -5.644  -9.891  -6.263  1.00  0.00     0.004 A 
ATOM     22  C   UNL     1      -4.439 -10.069  -4.176  1.00  0.00     0.012 A 
ATOM     23  C   UNL     1      -5.077 -10.675  -5.260  1.00  0.00     0.001 A 
ENDBRANCH  12  13
ENDBRANCH   8  11
ENDBRANCH   6   7
BRANCH   6  24
ATOM     24  C   UNL     1      -0.046  -3.837  -2.554  1.00  0.00    -0.016 A 
ATOM     25  C   UNL     1      -0.099  -2.850  -3.557  1.00  0.00     0.006 A 
ATOM     26  C   UNL     1       0.571  -5.057  -2.887  1.00  0.00     0.006 A 
ATOM     27  C   UNL     1       0.356  -3.106  -4.854  1.00  0.00     0.000 A 
ATOM     28  C   UNL     1       1.018  -5.317  -4.185  1.00  0.00     0.000 A 
ATOM     29  C   UNL     1       0.899  -4.346  -5.172  1.00  0.00     0.000 A 
ENDBRANCH   6  24
ENDBRANCH   3   6
ENDBRANCH   1   2
BRANCH   1  30
ATOM     30  C   UNL     1      -3.134  -2.511   2.485  1.00  0.00     0.042 C 
BRANCH  30  31
ATOM     31  C   UNL     1      -4.644  -2.720   2.499  1.00  0.00     0.118 C 
BRANCH  31  32
ATOM     32  N   UNL     1      -5.060  -3.891   3.261  1.00  0.00    -0.352 N 
ATOM     33  C   UNL     1      -5.627  -3.997   4.514  1.00  0.00     0.251 C 
ATOM     34  H   UNL     1      -4.912  -4.750   2.805  1.00  0.00     0.163 HD
ATOM     35  O   UNL     1      -5.785  -5.096   5.024  1.00  0.00    -0.269 OA
BRANCH  33  36
ATOM     36  C   UNL     1      -5.995  -2.777   5.272  1.00  0.00     0.039 A 
ATOM     37  C   UNL     1      -6.629  -1.707   4.648  1.00  0.00     0.014 A 
ATOM     38  C   UNL     1      -5.672  -2.695   6.630  1.00  0.00     0.014 A 
ATOM     39  C   UNL     1      -6.705  -0.481   5.296  1.00  0.00     0.010 A 
ATOM     40  C   UNL     1      -5.869  -1.495   7.322  1.00  0.00     0.010 A 
ATOM     41  C   UNL     1      -6.316  -0.353   6.640  1.00  0.00    -0.014 A 
BRANCH  41  42
ATOM     42  C   UNL     1      -6.370   0.985   7.288  1.00  0.00     0.031 A 
ATOM     43  C   UNL     1      -5.121   1.642   7.816  1.00  0.00     0.074 A 
ATOM     44  C   UNL     1      -7.542   1.647   7.337  1.00  0.00     0.049 A 
ATOM     45  N   UNL     1      -4.981   2.818   8.377  1.00  0.00    -0.248 NA
ATOM     46  C   UNL     1      -3.867   0.881   7.713  1.00  0.00     0.031 C 
ATOM     47  C   UNL     1      -8.823   1.122   6.860  1.00  0.00     0.029 A 
ATOM     48  N   UNL     1      -7.844   2.912   7.774  1.00  0.00    -0.354 N 
ATOM     49  C   UNL     1      -3.640   2.920   8.724  1.00  0.00     0.074 A 
ATOM     50  C   UNL     1      -3.008   1.680   8.331  1.00  0.00     0.031 C 
ATOM     51  C   UNL     1      -9.756   2.078   6.966  1.00  0.00     0.029 A 
ATOM     52  C   UNL     1      -9.159   3.257   7.584  1.00  0.00     0.049 A 
ATOM     53  H   UNL     1      -7.182   3.514   8.185  1.00  0.00     0.167 HD
ATOM     54  C   UNL     1      -2.992   3.958   9.306  1.00  0.00     0.037 A 
ATOM     55  C   UNL     1      -9.822   4.390   7.884  1.00  0.00     0.037 A 
ATOM     56  C   UNL     1      -3.610   5.211   9.652  1.00  0.00     0.049 A 
ATOM     57  C   UNL     1      -9.085   5.523   8.534  1.00  0.00     0.074 A 
ATOM     58  C   UNL     1      -3.021   6.344  10.187  1.00  0.00     0.029 A 
ATOM     59  N   UNL     1      -4.958   5.498   9.497  1.00  0.00    -0.354 N 
ATOM     60  N   UNL     1      -7.814   5.610   8.841  1.00  0.00    -0.248 NA
ATOM     61  C   UNL     1      -9.875   6.708   8.894  1.00  0.00     0.031 C 
ATOM     62  C   UNL     1      -4.020   7.299  10.399  1.00  0.00     0.029 A 
ATOM     63  C   UNL     1      -5.225   6.779   9.955  1.00  0.00     0.049 A 
ATOM     64  H   UNL     1      -5.627   4.883   9.118  1.00  0.00     0.167 HD
ATOM     65  C   UNL     1      -7.650   6.852   9.435  1.00  0.00     0.074 A 
ATOM     66  C   UNL     1      -8.947   7.497   9.420  1.00  0.00     0.031 C 
ATOM     67  C   UNL     1      -6.525   7.402   9.953  1.00  0.00     0.037 A 
BRANCH  54  68
ATOM     68  C   UNL     1      -1.535   3.783   9.625  1.00  0.00     0.064 A 
ATOM     69  C   UNL     1      -0.553   3.772   8.624  1.00  0.00     0.173 A 
ATOM     70  C   UNL     1      -1.112   3.675  10.959  1.00  0.00     0.173 A 
ATOM     71  F   UNL     1      -0.905   3.861   7.332  1.00  0.00    -0.203 F 
ATOM     72  C   UNL     1       0.796   3.637   8.945  1.00  0.00     0.198 A 
ATOM     73  C   UNL     1       0.239   3.566  11.278  1.00  0.00     0.198 A 
ATOM     74  F   UNL     1      -2.010   3.687  11.956  1.00  0.00    -0.203 F 
ATOM     75  F   UNL     1       1.713   3.588   7.969  1.00  0.00    -0.200 F 
ATOM     76  C   UNL     1       1.191   3.541  10.271  1.00  0.00     0.200 A 
ATOM     77  F   UNL     1       0.620   3.487  12.561  1.00  0.00    -0.200 F 
ATOM     78  F   UNL     1       2.490   3.419  10.577  1.00  0.00    -0.200 F 
ENDBRANCH  54  68
BRANCH  55  79
ATOM     79  C   UNL     1     -11.267   4.484   7.561  1.00  0.00     0.064 A 
ATOM     80  C   UNL     1     -11.719   5.286   6.505  1.00  0.00     0.173 A 
ATOM     81  C   UNL     1     -12.215   3.712   8.250  1.00  0.00     0.173 A 
ATOM     82  F   UNL     1     -10.852   6.055   5.830  1.00  0.00    -0.203 F 
ATOM     83  C   UNL     1     -13.064   5.303   6.143  1.00  0.00     0.198 A 
ATOM     84  C   UNL     1     -13.554   3.710   7.870  1.00  0.00     0.198 A 
ATOM     85  F   UNL     1     -11.828   2.923   9.263  1.00  0.00    -0.203 F 
ATOM     86  F   UNL     1     -13.474   6.087   5.136  1.00  0.00    -0.200 F 
ATOM     87  C   UNL     1     -13.978   4.506   6.816  1.00  0.00     0.200 A 
ATOM     88  F   UNL     1     -14.429   2.922   8.510  1.00  0.00    -0.200 F 
ATOM     89  F   UNL     1     -15.266   4.501   6.448  1.00  0.00    -0.200 F 
ENDBRANCH  55  79
BRANCH  67  90
ATOM     90  C   UNL     1      -6.643   8.766  10.563  1.00  0.00     0.064 A 
ATOM     91  C   UNL     1      -7.252   8.952  11.813  1.00  0.00     0.173 A 
ATOM     92  C   UNL     1      -6.086   9.886   9.927  1.00  0.00     0.173 A 
ATOM     93  F   UNL     1      -7.811   7.914  12.452  1.00  0.00    -0.203 F 
ATOM     94  C   UNL     1      -7.309  10.214  12.399  1.00  0.00     0.198 A 
ATOM     95  C   UNL     1      -6.123  11.141  10.528  1.00  0.00     0.198 A 
ATOM     96  F   UNL     1      -5.488   9.758   8.734  1.00  0.00    -0.203 F 
ATOM     97  F   UNL     1      -7.922  10.375  13.579  1.00  0.00    -0.200 F 
ATOM     98  C   UNL     1      -6.737  11.304  11.761  1.00  0.00     0.200 A 
ATOM     99  F   UNL     1      -5.559  12.192   9.916  1.00  0.00    -0.200 F 
ATOM    100  F   UNL     1      -6.781  12.515  12.333  1.00  0.00    -0.200 F 
ENDBRANCH  67  90
ENDBRANCH  41  42
ENDBRANCH  33  36
ENDBRANCH  31  32
ENDBRANCH  30  31
ENDBRANCH   1  30
TORSDOF 14
