REMARK SMILES O=C(NCCCNC(=O)c1ccc(-c2c3nc(c(-c4c(F)c(F)c(F)c(F)c4F)c4ccc([nH]4)c(-c4c(F)c(F)c(F)c(F)c4F)c4nc(c(-c5c(F)c(F)c(F)c(F)c5F)c5ccc2[nH]5)C=C4)C=C3)cc1)C1=Cc2cc(Cl)ccc2O[C@@H]1C(F)(F)F
REMARK SMILES IDX 5 1 4 2 3 3 1 4 2 5 73 7 74 8 83 9 75 10 82 11 76 12 81 13
REMARK SMILES IDX 77 14 80 15 78 16 79 17 84 18 85 19 86 20 87 21 6 22 7 23
REMARK SMILES IDX 8 24 9 26 10 27 11 28 72 29 12 30 71 31 13 32 14 33 15 34
REMARK SMILES IDX 65 35 16 36 70 37 64 38 66 39 17 40 69 41 63 42 62 43 18 45
REMARK SMILES IDX 50 46 30 47 49 48 31 49 34 50 48 51 67 52 32 53 33 54 47 56
REMARK SMILES IDX 68 57 35 58 19 59 20 60 28 61 21 62 22 63 26 64 29 65 23 66
REMARK SMILES IDX 24 67 27 68 25 69 51 70 52 71 60 72 53 73 54 74 58 75 61 76
REMARK SMILES IDX 55 77 56 78 59 79 57 80 36 81 37 82 45 83 38 84 39 85 43 86
REMARK SMILES IDX 46 87 40 88 41 89 44 90 42 91
REMARK H PARENT 3 6 7 25 66 44 34 55
REMARK Flexibility Score: inf
ROOT
ATOM      1  C   UNL     1       3.989   2.800  -0.573  1.00  0.00     0.042 C 
ENDROOT
BRANCH   1   2
ATOM      2  C   UNL     1       3.216   1.703   0.150  1.00  0.00     0.118 C 
BRANCH   2   3
ATOM      3  N   UNL     1       2.268   1.005  -0.722  1.00  0.00    -0.352 N 
ATOM      4  O   UNL     1       1.175  -0.781  -1.595  1.00  0.00    -0.270 OA
ATOM      5  C   UNL     1       2.149  -0.334  -1.008  1.00  0.00     0.251 C 
ATOM      6  H   UNL     1       1.614   1.586  -1.174  1.00  0.00     0.163 HD
BRANCH   5   7
ATOM      7  C   UNL     1       3.229  -1.212  -0.527  1.00  0.00     0.067 C 
ATOM      8  C   UNL     1       4.428  -1.037  -1.095  1.00  0.00     0.025 C 
ATOM      9  C   UNL     1       3.025  -1.895   0.789  1.00  0.00     0.314 C 
ATOM     10  C   UNL     1       5.525  -0.967  -0.126  1.00  0.00     0.019 A 
ATOM     11  O   UNL     1       4.062  -1.572   1.750  1.00  0.00    -0.475 OA
ATOM     12  C   UNL     1       6.707  -0.344  -0.538  1.00  0.00     0.032 A 
ATOM     13  C   UNL     1       5.252  -1.107   1.248  1.00  0.00     0.128 A 
ATOM     14  C   UNL     1       7.548   0.231   0.413  1.00  0.00     0.041 A 
ATOM     15  C   UNL     1       6.125  -0.569   2.193  1.00  0.00     0.048 A 
ATOM     16  Cl  UNL     1       8.883   1.182  -0.109  1.00  0.00    -0.084 Cl
ATOM     17  C   UNL     1       7.255   0.133   1.773  1.00  0.00     0.024 A 
BRANCH   9  18
ATOM     18  C   UNL     1       2.892  -3.416   0.623  1.00  0.00     0.429 C 
ATOM     19  F   UNL     1       2.570  -4.006   1.800  1.00  0.00    -0.167 F 
ATOM     20  F   UNL     1       1.918  -3.746  -0.257  1.00  0.00    -0.167 F 
ATOM     21  F   UNL     1       4.040  -3.988   0.189  1.00  0.00    -0.167 F 
ENDBRANCH   9  18
ENDBRANCH   5   7
ENDBRANCH   2   3
ENDBRANCH   1   2
BRANCH   1  22
ATOM     22  C   UNL     1       3.885   4.144   0.139  1.00  0.00     0.118 C 
BRANCH  22  23
ATOM     23  N   UNL     1       4.616   4.213   1.401  1.00  0.00    -0.352 N 
ATOM     24  C   UNL     1       5.557   5.130   1.834  1.00  0.00     0.251 C 
ATOM     25  H   UNL     1       4.407   3.497   2.043  1.00  0.00     0.163 HD
ATOM     26  O   UNL     1       6.118   4.979   2.908  1.00  0.00    -0.269 OA
BRANCH  24  27
ATOM     27  C   UNL     1       5.920   6.271   0.961  1.00  0.00     0.039 A 
ATOM     28  C   UNL     1       7.269   6.576   0.756  1.00  0.00     0.014 A 
ATOM     29  C   UNL     1       4.934   6.982   0.283  1.00  0.00     0.014 A 
ATOM     30  C   UNL     1       7.627   7.500  -0.233  1.00  0.00     0.010 A 
ATOM     31  C   UNL     1       5.293   7.798  -0.780  1.00  0.00     0.010 A 
ATOM     32  C   UNL     1       6.644   8.058  -1.063  1.00  0.00    -0.014 A 
BRANCH  32  33
ATOM     33  C   UNL     1       6.964   8.909  -2.242  1.00  0.00     0.031 A 
ATOM     34  C   UNL     1       6.325  10.267  -2.364  1.00  0.00     0.074 A 
ATOM     35  C   UNL     1       7.694   8.419  -3.264  1.00  0.00     0.049 A 
ATOM     36  N   UNL     1       6.220  11.049  -3.407  1.00  0.00    -0.248 NA
ATOM     37  C   UNL     1       5.656  10.781  -1.158  1.00  0.00     0.031 C 
ATOM     38  C   UNL     1       8.339   7.105  -3.301  1.00  0.00     0.029 A 
ATOM     39  N   UNL     1       7.995   8.966  -4.488  1.00  0.00    -0.354 N 
ATOM     40  C   UNL     1       5.422  12.111  -3.000  1.00  0.00     0.074 A 
ATOM     41  C   UNL     1       5.029  11.845  -1.633  1.00  0.00     0.031 C 
ATOM     42  C   UNL     1       8.985   6.961  -4.470  1.00  0.00     0.029 A 
ATOM     43  C   UNL     1       8.749   8.144  -5.291  1.00  0.00     0.049 A 
ATOM     44  H   UNL     1       7.699   9.863  -4.764  1.00  0.00     0.167 HD
ATOM     45  C   UNL     1       5.067  13.218  -3.694  1.00  0.00     0.037 A 
ATOM     46  C   UNL     1       9.186   8.318  -6.553  1.00  0.00     0.037 A 
ATOM     47  C   UNL     1       5.525  13.513  -5.024  1.00  0.00     0.049 A 
ATOM     48  C   UNL     1       8.815   9.575  -7.292  1.00  0.00     0.074 A 
ATOM     49  C   UNL     1       5.285  14.638  -5.793  1.00  0.00     0.029 A 
ATOM     50  N   UNL     1       6.342  12.681  -5.776  1.00  0.00    -0.354 N 
ATOM     51  N   UNL     1       8.077  10.582  -6.892  1.00  0.00    -0.248 NA
ATOM     52  C   UNL     1       9.333   9.718  -8.660  1.00  0.00     0.031 C 
ATOM     53  C   UNL     1       5.939  14.477  -7.019  1.00  0.00     0.029 A 
ATOM     54  C   UNL     1       6.616  13.269  -6.999  1.00  0.00     0.049 A 
ATOM     55  H   UNL     1       6.676  11.802  -5.484  1.00  0.00     0.167 HD
ATOM     56  C   UNL     1       8.072  11.491  -7.940  1.00  0.00     0.074 A 
ATOM     57  C   UNL     1       8.882  10.918  -8.995  1.00  0.00     0.031 C 
ATOM     58  C   UNL     1       7.452  12.694  -8.022  1.00  0.00     0.037 A 
BRANCH  45  59
ATOM     59  C   UNL     1       4.149  14.194  -3.014  1.00  0.00     0.064 A 
ATOM     60  C   UNL     1       4.567  14.953  -1.910  1.00  0.00     0.173 A 
ATOM     61  C   UNL     1       2.834  14.371  -3.471  1.00  0.00     0.173 A 
ATOM     62  F   UNL     1       5.810  14.811  -1.425  1.00  0.00    -0.203 F 
ATOM     63  C   UNL     1       3.690  15.816  -1.259  1.00  0.00     0.198 A 
ATOM     64  C   UNL     1       1.970  15.262  -2.839  1.00  0.00     0.198 A 
ATOM     65  F   UNL     1       2.384  13.677  -4.527  1.00  0.00    -0.203 F 
ATOM     66  F   UNL     1       4.091  16.474  -0.163  1.00  0.00    -0.200 F 
ATOM     67  C   UNL     1       2.394  15.974  -1.727  1.00  0.00     0.200 A 
ATOM     68  F   UNL     1       0.722  15.424  -3.300  1.00  0.00    -0.200 F 
ATOM     69  F   UNL     1       1.550  16.803  -1.098  1.00  0.00    -0.200 F 
ENDBRANCH  45  59
BRANCH  46  70
ATOM     70  C   UNL     1      10.055   7.293  -7.188  1.00  0.00     0.064 A 
ATOM     71  C   UNL     1      11.415   7.555  -7.406  1.00  0.00     0.173 A 
ATOM     72  C   UNL     1       9.560   6.043  -7.585  1.00  0.00     0.173 A 
ATOM     73  F   UNL     1      11.930   8.745  -7.063  1.00  0.00    -0.203 F 
ATOM     74  C   UNL     1      12.243   6.612  -8.012  1.00  0.00     0.198 A 
ATOM     75  C   UNL     1      10.395   5.091  -8.168  1.00  0.00     0.198 A 
ATOM     76  F   UNL     1       8.267   5.741  -7.394  1.00  0.00    -0.203 F 
ATOM     77  F   UNL     1      13.530   6.905  -8.244  1.00  0.00    -0.200 F 
ATOM     78  C   UNL     1      11.734   5.379  -8.387  1.00  0.00     0.200 A 
ATOM     79  F   UNL     1       9.902   3.896  -8.519  1.00  0.00    -0.200 F 
ATOM     80  F   UNL     1      12.531   4.471  -8.966  1.00  0.00    -0.200 F 
ENDBRANCH  46  70
BRANCH  58  81
ATOM     81  C   UNL     1       7.675  13.502  -9.264  1.00  0.00     0.064 A 
ATOM     82  C   UNL     1       7.047  13.180 -10.475  1.00  0.00     0.173 A 
ATOM     83  C   UNL     1       8.479  14.651  -9.221  1.00  0.00     0.173 A 
ATOM     84  F   UNL     1       6.282  12.082 -10.568  1.00  0.00    -0.203 F 
ATOM     85  C   UNL     1       7.226  13.975 -11.604  1.00  0.00     0.198 A 
ATOM     86  C   UNL     1       8.636  15.456 -10.345  1.00  0.00     0.198 A 
ATOM     87  F   UNL     1       9.096  15.002  -8.082  1.00  0.00    -0.203 F 
ATOM     88  F   UNL     1       6.643  13.633 -12.761  1.00  0.00    -0.200 F 
ATOM     89  C   UNL     1       8.013  15.116 -11.536  1.00  0.00     0.200 A 
ATOM     90  F   UNL     1       9.386  16.564 -10.273  1.00  0.00    -0.200 F 
ATOM     91  F   UNL     1       8.173  15.886 -12.620  1.00  0.00    -0.200 F 
ENDBRANCH  58  81
ENDBRANCH  32  33
ENDBRANCH  24  27
ENDBRANCH  22  23
ENDBRANCH   1  22
TORSDOF 11
