REMARK SMILES C[C@H](C(=O)NCCCNC(=O)c1ccc(-c2c3nc(c(-c4c(F)c(F)c(F)c(F)c4F)c4ccc([nH]4)c(-c4c(F)c(F)c(F)c(F)c4F)c4nc(c(-c5c(F)c(F)c(F)c(F)c5F)c5ccc2[nH]5)C=C4)C=C3)cc1)c1ccc(-c2ccccc2)c(F)c1
REMARK SMILES IDX 7 1 6 2 5 3 3 4 4 5 2 7 1 8 75 9 76 10 87 11 77 12 85 13
REMARK SMILES IDX 78 14 86 15 79 16 80 17 84 18 81 19 83 20 82 21 8 22 9 23
REMARK SMILES IDX 10 24 11 26 12 27 13 28 74 29 14 30 73 31 15 32 16 33 17 34
REMARK SMILES IDX 67 35 18 36 72 37 66 38 68 39 19 40 71 41 65 42 64 43 20 45
REMARK SMILES IDX 52 46 32 47 51 48 33 49 36 50 50 51 69 52 34 53 35 54 49 56
REMARK SMILES IDX 70 57 37 58 21 59 22 60 30 61 23 62 24 63 28 64 31 65 25 66
REMARK SMILES IDX 26 67 29 68 27 69 53 70 54 71 62 72 55 73 56 74 60 75 63 76
REMARK SMILES IDX 57 77 58 78 61 79 59 80 38 81 39 82 47 83 40 84 41 85 45 86
REMARK SMILES IDX 48 87 42 88 43 89 46 90 44 91
REMARK H PARENT 5 6 9 25 68 44 36 55
REMARK Flexibility Score: inf
ROOT
ATOM      1  C   UNL     1      -1.500   2.104  -0.163  1.00  0.00     0.042 C 
ENDROOT
BRANCH   1   2
ATOM      2  C   UNL     1      -0.046   1.893  -0.587  1.00  0.00     0.117 C 
BRANCH   2   3
ATOM      3  N   UNL     1       0.649   1.007   0.329  1.00  0.00    -0.356 N 
ATOM      4  C   UNL     1       0.803  -0.352   0.300  1.00  0.00     0.227 C 
ATOM      5  O   UNL     1       1.348  -0.867   1.280  1.00  0.00    -0.274 OA
ATOM      6  H   UNL     1       1.078   1.456   1.093  1.00  0.00     0.163 HD
BRANCH   4   7
ATOM      7  C   UNL     1       0.351  -1.183  -0.918  1.00  0.00     0.105 C 
ATOM      8  C   UNL     1       1.113  -2.518  -0.936  1.00  0.00     0.023 C 
BRANCH   7   9
ATOM      9  C   UNL     1      -1.157  -1.397  -0.962  1.00  0.00    -0.033 A 
ATOM     10  C   UNL     1      -1.948  -0.631  -1.823  1.00  0.00     0.005 A 
ATOM     11  C   UNL     1      -1.813  -2.312  -0.135  1.00  0.00     0.044 A 
ATOM     12  C   UNL     1      -3.348  -0.665  -1.746  1.00  0.00     0.012 A 
ATOM     13  C   UNL     1      -3.213  -2.391  -0.117  1.00  0.00     0.131 A 
ATOM     14  C   UNL     1      -4.031  -1.525  -0.866  1.00  0.00     0.017 A 
ATOM     15  F   UNL     1      -3.749  -3.334   0.673  1.00  0.00    -0.206 F 
BRANCH  14  16
ATOM     16  C   UNL     1      -5.515  -1.452  -0.711  1.00  0.00    -0.015 A 
ATOM     17  C   UNL     1      -6.342  -0.871  -1.694  1.00  0.00     0.009 A 
ATOM     18  C   UNL     1      -6.165  -1.896   0.458  1.00  0.00     0.009 A 
ATOM     19  C   UNL     1      -7.723  -0.714  -1.510  1.00  0.00     0.001 A 
ATOM     20  C   UNL     1      -7.548  -1.763   0.638  1.00  0.00     0.001 A 
ATOM     21  C   UNL     1      -8.326  -1.161  -0.342  1.00  0.00     0.000 A 
ENDBRANCH  14  16
ENDBRANCH   7   9
ENDBRANCH   4   7
ENDBRANCH   2   3
ENDBRANCH   1   2
BRANCH   1  22
ATOM     22  C   UNL     1      -1.685   3.179   0.902  1.00  0.00     0.118 C 
BRANCH  22  23
ATOM     23  N   UNL     1      -1.706   4.513   0.324  1.00  0.00    -0.352 N 
ATOM     24  C   UNL     1      -2.680   5.481   0.353  1.00  0.00     0.251 C 
ATOM     25  H   UNL     1      -0.890   4.763  -0.167  1.00  0.00     0.163 HD
ATOM     26  O   UNL     1      -2.576   6.446  -0.400  1.00  0.00    -0.269 OA
BRANCH  24  27
ATOM     27  C   UNL     1      -3.850   5.395   1.266  1.00  0.00     0.039 A 
ATOM     28  C   UNL     1      -5.066   5.944   0.840  1.00  0.00     0.014 A 
ATOM     29  C   UNL     1      -3.752   4.877   2.560  1.00  0.00     0.014 A 
ATOM     30  C   UNL     1      -6.176   5.954   1.692  1.00  0.00     0.010 A 
ATOM     31  C   UNL     1      -4.879   4.820   3.384  1.00  0.00     0.010 A 
ATOM     32  C   UNL     1      -6.096   5.381   2.970  1.00  0.00    -0.014 A 
BRANCH  32  33
ATOM     33  C   UNL     1      -7.255   5.412   3.902  1.00  0.00     0.031 A 
ATOM     34  C   UNL     1      -7.176   6.207   5.179  1.00  0.00     0.074 A 
ATOM     35  C   UNL     1      -8.363   4.697   3.627  1.00  0.00     0.049 A 
ATOM     36  N   UNL     1      -8.053   6.313   6.147  1.00  0.00    -0.248 NA
ATOM     37  C   UNL     1      -5.936   6.963   5.410  1.00  0.00     0.031 C 
ATOM     38  C   UNL     1      -8.555   3.856   2.446  1.00  0.00     0.029 A 
ATOM     39  N   UNL     1      -9.535   4.559   4.329  1.00  0.00    -0.354 N 
ATOM     40  C   UNL     1      -7.459   7.119   7.110  1.00  0.00     0.074 A 
ATOM     41  C   UNL     1      -6.133   7.445   6.629  1.00  0.00     0.031 C 
ATOM     42  C   UNL     1      -9.780   3.308   2.493  1.00  0.00     0.029 A 
ATOM     43  C   UNL     1     -10.447   3.733   3.720  1.00  0.00     0.049 A 
ATOM     44  H   UNL     1      -9.706   5.011   5.187  1.00  0.00     0.167 HD
ATOM     45  C   UNL     1      -7.976   7.565   8.280  1.00  0.00     0.037 A 
ATOM     46  C   UNL     1     -11.682   3.360   4.109  1.00  0.00     0.037 A 
ATOM     47  C   UNL     1      -9.311   7.284   8.739  1.00  0.00     0.049 A 
ATOM     48  C   UNL     1     -12.244   3.891   5.400  1.00  0.00     0.074 A 
ATOM     49  C   UNL     1      -9.950   7.749   9.875  1.00  0.00     0.029 A 
ATOM     50  N   UNL     1     -10.215   6.465   8.079  1.00  0.00    -0.354 N 
ATOM     51  N   UNL     1     -11.694   4.700   6.272  1.00  0.00    -0.248 NA
ATOM     52  C   UNL     1     -13.604   3.460   5.757  1.00  0.00     0.031 C 
ATOM     53  C   UNL     1     -11.230   7.185   9.920  1.00  0.00     0.029 A 
ATOM     54  C   UNL     1     -11.401   6.401   8.791  1.00  0.00     0.049 A 
ATOM     55  H   UNL     1     -10.039   5.999   7.229  1.00  0.00     0.167 HD
ATOM     56  C   UNL     1     -12.646   4.898   7.263  1.00  0.00     0.074 A 
ATOM     57  C   UNL     1     -13.815   4.133   6.879  1.00  0.00     0.031 C 
ATOM     58  C   UNL     1     -12.560   5.646   8.390  1.00  0.00     0.037 A 
BRANCH  45  59
ATOM     59  C   UNL     1      -7.093   8.411   9.152  1.00  0.00     0.064 A 
ATOM     60  C   UNL     1      -6.760   9.728   8.804  1.00  0.00     0.173 A 
ATOM     61  C   UNL     1      -6.602   7.908  10.366  1.00  0.00     0.173 A 
ATOM     62  F   UNL     1      -7.196  10.252   7.648  1.00  0.00    -0.203 F 
ATOM     63  C   UNL     1      -5.944  10.502   9.625  1.00  0.00     0.198 A 
ATOM     64  C   UNL     1      -5.809   8.694  11.198  1.00  0.00     0.198 A 
ATOM     65  F   UNL     1      -6.897   6.657  10.749  1.00  0.00    -0.203 F 
ATOM     66  F   UNL     1      -5.600  11.741   9.249  1.00  0.00    -0.200 F 
ATOM     67  C   UNL     1      -5.474   9.986  10.824  1.00  0.00     0.200 A 
ATOM     68  F   UNL     1      -5.365   8.199  12.362  1.00  0.00    -0.200 F 
ATOM     69  F   UNL     1      -4.692  10.733  11.615  1.00  0.00    -0.200 F 
ENDBRANCH  45  59
BRANCH  46  70
ATOM     70  C   UNL     1     -12.488   2.461   3.244  1.00  0.00     0.064 A 
ATOM     71  C   UNL     1     -13.604   2.949   2.550  1.00  0.00     0.173 A 
ATOM     72  C   UNL     1     -12.164   1.106   3.092  1.00  0.00     0.173 A 
ATOM     73  F   UNL     1     -13.965   4.234   2.682  1.00  0.00    -0.203 F 
ATOM     74  C   UNL     1     -14.374   2.111   1.747  1.00  0.00     0.198 A 
ATOM     75  C   UNL     1     -12.920   0.275   2.269  1.00  0.00     0.198 A 
ATOM     76  F   UNL     1     -11.104   0.592   3.734  1.00  0.00    -0.203 F 
ATOM     77  F   UNL     1     -15.458   2.594   1.125  1.00  0.00    -0.200 F 
ATOM     78  C   UNL     1     -14.029   0.776   1.602  1.00  0.00     0.200 A 
ATOM     79  F   UNL     1     -12.575  -1.012   2.119  1.00  0.00    -0.200 F 
ATOM     80  F   UNL     1     -14.766  -0.029   0.826  1.00  0.00    -0.200 F 
ENDBRANCH  46  70
BRANCH  58  81
ATOM     81  C   UNL     1     -13.772   5.704   9.271  1.00  0.00     0.064 A 
ATOM     82  C   UNL     1     -14.151   4.617  10.071  1.00  0.00     0.173 A 
ATOM     83  C   UNL     1     -14.543   6.874   9.340  1.00  0.00     0.173 A 
ATOM     84  F   UNL     1     -13.454   3.471  10.028  1.00  0.00    -0.203 F 
ATOM     85  C   UNL     1     -15.273   4.692  10.893  1.00  0.00     0.198 A 
ATOM     86  C   UNL     1     -15.649   6.954  10.181  1.00  0.00     0.198 A 
ATOM     87  F   UNL     1     -14.218   7.943   8.597  1.00  0.00    -0.203 F 
ATOM     88  F   UNL     1     -15.643   3.627  11.618  1.00  0.00    -0.200 F 
ATOM     89  C   UNL     1     -16.017   5.861  10.952  1.00  0.00     0.200 A 
ATOM     90  F   UNL     1     -16.361   8.088  10.244  1.00  0.00    -0.200 F 
ATOM     91  F   UNL     1     -17.094   5.932  11.746  1.00  0.00    -0.200 F 
ENDBRANCH  58  81
ENDBRANCH  32  33
ENDBRANCH  24  27
ENDBRANCH  22  23
ENDBRANCH   1  22
TORSDOF 12
