REMARK SMILES C[C@H](CCc1ccco1)NC(=O)c1cccn1CC(=O)NCCCNC(=O)c1ccc(-c2c3nc(c(-c4c(F)c(F)c(F)c(F)c4F)c4ccc([nH]4)c(-c4c(F)c(F)c(F)c(F)c4F)c4nc(c(-c5c(F)c(F)c(F)c(F)c5F)c5ccc2[nH]5)C=C4)C=C3)cc1
REMARK SMILES IDX 19 1 20 2 21 3 18 5 17 6 13 7 14 8 15 9 16 10 11 11 10 12
REMARK SMILES IDX 12 14 2 15 1 16 3 17 4 18 5 19 6 20 9 21 7 22 8 23 22 24
REMARK SMILES IDX 23 25 24 26 25 27 26 28 27 30 28 31 29 32 90 33 30 34 89 35
REMARK SMILES IDX 31 36 32 37 33 38 83 39 34 40 88 41 82 42 84 43 35 44 87 45
REMARK SMILES IDX 81 46 80 47 36 49 68 50 48 51 67 52 49 53 52 54 66 55 85 56
REMARK SMILES IDX 50 57 51 58 65 60 86 61 53 62 37 63 38 64 46 65 39 66 40 67
REMARK SMILES IDX 44 68 47 69 41 70 42 71 45 72 43 73 69 74 70 75 78 76 71 77
REMARK SMILES IDX 72 78 76 79 79 80 73 81 74 82 77 83 75 84 54 85 55 86 63 87
REMARK SMILES IDX 56 88 57 89 61 90 64 91 58 92 59 93 62 94 60 95
REMARK H PARENT 21 4 10 13 25 29 84 48 52 59
REMARK Flexibility Score: inf
ROOT
ATOM      1  C   UNL     1      -1.968   2.156  -4.650  1.00  0.00     0.239 C 
ATOM      2  O   UNL     1      -2.200   2.777  -5.690  1.00  0.00    -0.273 OA
ATOM      3  N   UNL     1      -1.275   2.800  -3.662  1.00  0.00    -0.354 N 
ATOM      4  H   UNL     1      -1.100   3.757  -3.809  1.00  0.00     0.163 HD
ENDROOT
BRANCH   1   5
ATOM      5  C   UNL     1      -2.480   0.744  -4.432  1.00  0.00     0.222 C 
BRANCH   5   6
ATOM      6  N   UNL     1      -1.431  -0.269  -4.424  1.00  0.00    -0.334 N 
ATOM      7  C   UNL     1      -1.131  -1.159  -3.398  1.00  0.00     0.107 A 
ATOM      8  C   UNL     1      -0.116  -1.972  -3.887  1.00  0.00     0.033 A 
ATOM      9  C   UNL     1       0.249  -1.527  -5.176  1.00  0.00     0.020 A 
ATOM     10  C   UNL     1      -0.583  -0.481  -5.488  1.00  0.00     0.087 A 
BRANCH   7  11
ATOM     11  C   UNL     1      -1.827  -1.214  -2.120  1.00  0.00     0.268 C 
ATOM     12  N   UNL     1      -1.112  -1.314  -0.946  1.00  0.00    -0.348 N 
ATOM     13  H   UNL     1      -1.658  -1.280  -0.128  1.00  0.00     0.164 HD
ATOM     14  O   UNL     1      -3.042  -1.097  -2.023  1.00  0.00    -0.268 OA
BRANCH  12  15
ATOM     15  C   UNL     1       0.326  -1.460  -0.714  1.00  0.00     0.079 C 
ATOM     16  C   UNL     1       0.620  -2.922  -0.413  1.00  0.00     0.031 C 
BRANCH  15  17
ATOM     17  C   UNL     1       0.835  -0.411   0.311  1.00  0.00     0.032 C 
BRANCH  17  18
ATOM     18  C   UNL     1       1.074  -0.838   1.761  1.00  0.00     0.077 C 
BRANCH  18  19
ATOM     19  C   UNL     1       2.352  -1.583   1.915  1.00  0.00     0.103 A 
ATOM     20  C   UNL     1       3.681  -1.213   1.865  1.00  0.00     0.045 A 
ATOM     21  O   UNL     1       2.251  -2.926   2.109  1.00  0.00    -0.469 OA
ATOM     22  C   UNL     1       4.429  -2.410   1.976  1.00  0.00     0.042 A 
ATOM     23  C   UNL     1       3.513  -3.424   2.119  1.00  0.00     0.195 A 
ENDBRANCH  18  19
ENDBRANCH  17  18
ENDBRANCH  15  17
ENDBRANCH  12  15
ENDBRANCH   7  11
ENDBRANCH   5   6
ENDBRANCH   1   5
BRANCH   3  24
ATOM     24  C   UNL     1      -0.769   2.244  -2.425  1.00  0.00     0.117 C 
BRANCH  24  25
ATOM     25  C   UNL     1       0.677   1.776  -2.587  1.00  0.00     0.042 C 
BRANCH  25  26
ATOM     26  C   UNL     1       1.678   2.888  -2.333  1.00  0.00     0.118 C 
BRANCH  26  27
ATOM     27  N   UNL     1       1.649   3.321  -0.942  1.00  0.00    -0.352 N 
ATOM     28  C   UNL     1       2.395   4.275  -0.300  1.00  0.00     0.251 C 
ATOM     29  H   UNL     1       0.992   2.856  -0.376  1.00  0.00     0.163 HD
ATOM     30  O   UNL     1       2.405   4.301   0.926  1.00  0.00    -0.269 OA
BRANCH  28  31
ATOM     31  C   UNL     1       3.220   5.234  -1.062  1.00  0.00     0.039 A 
ATOM     32  C   UNL     1       4.463   5.594  -0.529  1.00  0.00     0.014 A 
ATOM     33  C   UNL     1       2.780   5.797  -2.264  1.00  0.00     0.014 A 
ATOM     34  C   UNL     1       5.296   6.446  -1.243  1.00  0.00     0.010 A 
ATOM     35  C   UNL     1       3.631   6.598  -3.011  1.00  0.00     0.010 A 
ATOM     36  C   UNL     1       4.894   6.909  -2.503  1.00  0.00    -0.014 A 
BRANCH  36  37
ATOM     37  C   UNL     1       5.886   7.598  -3.353  1.00  0.00     0.031 A 
ATOM     38  C   UNL     1       6.929   6.608  -3.911  1.00  0.00     0.074 A 
ATOM     39  C   UNL     1       5.739   8.951  -3.489  1.00  0.00     0.049 A 
ATOM     40  N   UNL     1       8.178   6.787  -4.218  1.00  0.00    -0.248 NA
ATOM     41  C   UNL     1       6.540   5.179  -4.088  1.00  0.00     0.031 C 
ATOM     42  C   UNL     1       4.614   9.733  -2.929  1.00  0.00     0.029 A 
ATOM     43  N   UNL     1       6.476   9.943  -4.105  1.00  0.00    -0.354 N 
ATOM     44  C   UNL     1       8.661   5.582  -4.782  1.00  0.00     0.074 A 
ATOM     45  C   UNL     1       7.647   4.598  -4.560  1.00  0.00     0.031 C 
ATOM     46  C   UNL     1       4.776  11.052  -3.162  1.00  0.00     0.029 A 
ATOM     47  C   UNL     1       6.011  11.269  -3.888  1.00  0.00     0.049 A 
ATOM     48  H   UNL     1       7.268   9.745  -4.656  1.00  0.00     0.167 HD
ATOM     49  C   UNL     1       9.807   5.514  -5.527  1.00  0.00     0.037 A 
ATOM     50  C   UNL     1       6.604  12.460  -4.218  1.00  0.00     0.037 A 
ATOM     51  C   UNL     1      10.409   6.801  -5.595  1.00  0.00     0.049 A 
ATOM     52  C   UNL     1       7.792  12.084  -4.995  1.00  0.00     0.074 A 
ATOM     53  C   UNL     1      11.082   7.558  -4.674  1.00  0.00     0.029 A 
ATOM     54  N   UNL     1      10.029   7.599  -6.645  1.00  0.00    -0.354 N 
ATOM     55  N   UNL     1       7.769  11.675  -6.227  1.00  0.00    -0.248 NA
ATOM     56  C   UNL     1       9.095  12.069  -4.318  1.00  0.00     0.031 C 
ATOM     57  C   UNL     1      10.664   8.871  -4.969  1.00  0.00     0.029 A 
ATOM     58  C   UNL     1       9.942   8.881  -6.169  1.00  0.00     0.049 A 
ATOM     59  H   UNL     1       9.853   7.306  -7.568  1.00  0.00     0.167 HD
ATOM     60  C   UNL     1       8.990  11.057  -6.343  1.00  0.00     0.074 A 
ATOM     61  C   UNL     1       9.843  11.619  -5.321  1.00  0.00     0.031 C 
ATOM     62  C   UNL     1       9.052   9.797  -6.841  1.00  0.00     0.037 A 
BRANCH  49  63
ATOM     63  C   UNL     1      10.370   4.472  -6.459  1.00  0.00     0.064 A 
ATOM     64  C   UNL     1      11.734   4.587  -6.840  1.00  0.00     0.173 A 
ATOM     65  C   UNL     1       9.577   3.642  -7.259  1.00  0.00     0.173 A 
ATOM     66  F   UNL     1      12.593   5.315  -6.108  1.00  0.00    -0.203 F 
ATOM     67  C   UNL     1      12.222   4.043  -8.027  1.00  0.00     0.198 A 
ATOM     68  C   UNL     1      10.086   3.053  -8.423  1.00  0.00     0.198 A 
ATOM     69  F   UNL     1       8.276   3.466  -6.999  1.00  0.00    -0.203 F 
ATOM     70  F   UNL     1      13.474   4.312  -8.421  1.00  0.00    -0.200 F 
ATOM     71  C   UNL     1      11.389   3.292  -8.830  1.00  0.00     0.200 A 
ATOM     72  F   UNL     1       9.279   2.313  -9.196  1.00  0.00    -0.200 F 
ATOM     73  F   UNL     1      11.827   2.829 -10.008  1.00  0.00    -0.200 F 
ENDBRANCH  49  63
BRANCH  50  74
ATOM     74  C   UNL     1       6.423  13.940  -3.948  1.00  0.00     0.064 A 
ATOM     75  C   UNL     1       5.270  14.556  -3.449  1.00  0.00     0.173 A 
ATOM     76  C   UNL     1       7.505  14.844  -4.172  1.00  0.00     0.173 A 
ATOM     77  F   UNL     1       4.128  13.874  -3.311  1.00  0.00    -0.203 F 
ATOM     78  C   UNL     1       5.242  15.923  -3.100  1.00  0.00     0.198 A 
ATOM     79  C   UNL     1       7.494  16.185  -3.789  1.00  0.00     0.198 A 
ATOM     80  F   UNL     1       8.633  14.463  -4.784  1.00  0.00    -0.203 F 
ATOM     81  F   UNL     1       4.113  16.463  -2.619  1.00  0.00    -0.200 F 
ATOM     82  C   UNL     1       6.363  16.725  -3.235  1.00  0.00     0.200 A 
ATOM     83  F   UNL     1       8.596  16.931  -3.956  1.00  0.00    -0.200 F 
ATOM     84  F   UNL     1       6.348  18.008  -2.852  1.00  0.00    -0.200 F 
ENDBRANCH  50  74
BRANCH  62  85
ATOM     85  C   UNL     1       7.887   9.432  -7.743  1.00  0.00     0.064 A 
ATOM     86  C   UNL     1       7.670  10.151  -8.929  1.00  0.00     0.173 A 
ATOM     87  C   UNL     1       6.904   8.484  -7.414  1.00  0.00     0.173 A 
ATOM     88  F   UNL     1       8.568  11.064  -9.329  1.00  0.00    -0.203 F 
ATOM     89  C   UNL     1       6.533   9.947  -9.717  1.00  0.00     0.198 A 
ATOM     90  C   UNL     1       5.770   8.271  -8.201  1.00  0.00     0.198 A 
ATOM     91  F   UNL     1       7.021   7.740  -6.317  1.00  0.00    -0.203 F 
ATOM     92  F   UNL     1       6.363  10.661 -10.839  1.00  0.00    -0.200 F 
ATOM     93  C   UNL     1       5.582   9.009  -9.352  1.00  0.00     0.200 A 
ATOM     94  F   UNL     1       4.866   7.346  -7.840  1.00  0.00    -0.200 F 
ATOM     95  F   UNL     1       4.497   8.807 -10.113  1.00  0.00    -0.200 F 
ENDBRANCH  62  85
ENDBRANCH  36  37
ENDBRANCH  28  31
ENDBRANCH  26  27
ENDBRANCH  25  26
ENDBRANCH  24  25
ENDBRANCH   3  24
TORSDOF 16
