REMARK SMILES C[C@@H]1CCC[C@@]1(C[NH3+])C(=O)NCCCNC(=O)c1ccc(-c2c3nc(c(-c4c(F)c(F)c(F)c(F)c4F)c4ccc([nH]4)c(-c4c(F)c(F)c(F)c(F)c4F)c4nc(c(-c5c(F)c(F)c(F)c(F)c5F)c5ccc2[nH]5)C=C4)C=C3)cc1
REMARK SMILES IDX 13 1 12 2 11 3 9 4 10 5 6 7 1 8 2 9 3 10 4 11 5 12 7 13 8 14
REMARK SMILES IDX 14 18 15 19 16 20 17 22 18 23 19 24 80 25 20 26 79 27 21 28
REMARK SMILES IDX 22 29 23 30 73 31 24 32 78 33 72 34 74 35 25 36 77 37 71 38
REMARK SMILES IDX 70 39 26 41 58 42 38 43 57 44 39 45 42 46 56 47 75 48 40 49
REMARK SMILES IDX 41 50 55 52 76 53 43 54 27 55 28 56 36 57 29 58 30 59 34 60
REMARK SMILES IDX 37 61 31 62 32 63 35 64 33 65 59 66 60 67 68 68 61 69 62 70
REMARK SMILES IDX 66 71 69 72 63 73 64 74 67 75 65 76 44 77 45 78 53 79 46 80
REMARK SMILES IDX 47 81 51 82 54 83 48 84 49 85 52 86 50 87
REMARK H PARENT 11 6 8 15 8 16 8 17 15 21 74 40 42 51
REMARK Flexibility Score: inf
ROOT
ATOM      1  C   UNL     1       1.661   3.991   2.641  1.00  0.00     0.042 C 
ENDROOT
BRANCH   1   2
ATOM      2  C   UNL     1       1.579   2.467   2.732  1.00  0.00     0.117 C 
BRANCH   2   3
ATOM      3  N   UNL     1       0.203   2.003   2.716  1.00  0.00    -0.355 N 
ATOM      4  C   UNL     1      -0.593   1.496   1.736  1.00  0.00     0.232 C 
ATOM      5  O   UNL     1      -1.759   1.270   2.077  1.00  0.00    -0.274 OA
ATOM      6  H   UNL     1      -0.243   2.069   3.591  1.00  0.00     0.163 HD
BRANCH   4   7
ATOM      7  C   UNL     1      -0.071   1.161   0.306  1.00  0.00     0.100 C 
ATOM      8  C   UNL     1       1.851  -0.282  -0.745  1.00  0.00     0.009 C 
ATOM      9  C   UNL     1       0.890  -0.058   0.421  1.00  0.00     0.007 C 
ATOM     10  C   UNL     1      -0.072  -1.246   0.564  1.00  0.00     0.005 C 
ATOM     11  C   UNL     1      -1.250  -0.926  -0.342  1.00  0.00     0.002 C 
ATOM     12  C   UNL     1      -1.253   0.591  -0.534  1.00  0.00     0.023 C 
BRANCH   7  13
ATOM     13  C   UNL     1       0.484   2.461  -0.333  1.00  0.00     0.276 C 
BRANCH  13  14
ATOM     14  N   UNL     1       0.612   2.505  -1.791  1.00  0.00    -0.357 N 
ATOM     15  H   UNL     1       1.300   1.814  -2.093  1.00  0.00     0.344 HD
ATOM     16  H   UNL     1       0.916   3.435  -2.078  1.00  0.00     0.344 HD
ATOM     17  H   UNL     1      -0.290   2.295  -2.218  1.00  0.00     0.344 HD
ENDBRANCH  13  14
ENDBRANCH   7  13
ENDBRANCH   4   7
ENDBRANCH   2   3
ENDBRANCH   1   2
BRANCH   1  18
ATOM     18  C   UNL     1       1.168   4.714   3.894  1.00  0.00     0.118 C 
BRANCH  18  19
ATOM     19  N   UNL     1       2.081   4.553   5.016  1.00  0.00    -0.352 N 
ATOM     20  C   UNL     1       2.735   5.497   5.766  1.00  0.00     0.251 C 
ATOM     21  H   UNL     1       2.256   3.621   5.279  1.00  0.00     0.163 HD
ATOM     22  O   UNL     1       3.627   5.141   6.537  1.00  0.00    -0.269 OA
BRANCH  20  23
ATOM     23  C   UNL     1       2.398   6.934   5.660  1.00  0.00     0.039 A 
ATOM     24  C   UNL     1       3.439   7.870   5.690  1.00  0.00     0.014 A 
ATOM     25  C   UNL     1       1.073   7.375   5.603  1.00  0.00     0.014 A 
ATOM     26  C   UNL     1       3.157   9.236   5.614  1.00  0.00     0.010 A 
ATOM     27  C   UNL     1       0.794   8.736   5.472  1.00  0.00     0.010 A 
ATOM     28  C   UNL     1       1.832   9.681   5.481  1.00  0.00    -0.014 A 
BRANCH  28  29
ATOM     29  C   UNL     1       1.517  11.126   5.348  1.00  0.00     0.031 A 
ATOM     30  C   UNL     1       0.757  11.842   6.431  1.00  0.00     0.074 A 
ATOM     31  C   UNL     1       1.854  11.779   4.219  1.00  0.00     0.049 A 
ATOM     32  N   UNL     1       0.316  13.075   6.457  1.00  0.00    -0.248 NA
ATOM     33  C   UNL     1       0.427  11.062   7.634  1.00  0.00     0.031 C 
ATOM     34  C   UNL     1       2.551  11.187   3.077  1.00  0.00     0.029 A 
ATOM     35  N   UNL     1       1.636  13.080   3.837  1.00  0.00    -0.354 N 
ATOM     36  C   UNL     1      -0.365  13.210   7.660  1.00  0.00     0.074 A 
ATOM     37  C   UNL     1      -0.303  11.927   8.326  1.00  0.00     0.031 C 
ATOM     38  C   UNL     1       2.707  12.120   2.124  1.00  0.00     0.029 A 
ATOM     39  C   UNL     1       2.094  13.367   2.574  1.00  0.00     0.049 A 
ATOM     40  H   UNL     1       1.194  13.744   4.414  1.00  0.00     0.167 HD
ATOM     41  C   UNL     1      -0.974  14.308   8.166  1.00  0.00     0.037 A 
ATOM     42  C   UNL     1       2.016  14.502   1.854  1.00  0.00     0.037 A 
ATOM     43  C   UNL     1      -0.992  15.597   7.526  1.00  0.00     0.049 A 
ATOM     44  C   UNL     1       1.357  15.713   2.455  1.00  0.00     0.074 A 
ATOM     45  C   UNL     1      -1.496  16.793   8.008  1.00  0.00     0.029 A 
ATOM     46  N   UNL     1      -0.483  15.858   6.263  1.00  0.00    -0.354 N 
ATOM     47  N   UNL     1       0.792  15.850   3.629  1.00  0.00    -0.248 NA
ATOM     48  C   UNL     1       1.331  16.931   1.631  1.00  0.00     0.031 C 
ATOM     49  C   UNL     1      -1.328  17.769   7.021  1.00  0.00     0.029 A 
ATOM     50  C   UNL     1      -0.684  17.191   5.940  1.00  0.00     0.049 A 
ATOM     51  H   UNL     1      -0.044  15.196   5.682  1.00  0.00     0.167 HD
ATOM     52  C   UNL     1       0.367  17.170   3.696  1.00  0.00     0.074 A 
ATOM     53  C   UNL     1       0.751  17.798   2.450  1.00  0.00     0.031 C 
ATOM     54  C   UNL     1      -0.285  17.804   4.700  1.00  0.00     0.037 A 
BRANCH  41  55
ATOM     55  C   UNL     1      -1.677  14.176   9.485  1.00  0.00     0.064 A 
ATOM     56  C   UNL     1      -0.967  14.071  10.689  1.00  0.00     0.173 A 
ATOM     57  C   UNL     1      -3.077  14.226   9.548  1.00  0.00     0.173 A 
ATOM     58  F   UNL     1       0.373  14.011  10.680  1.00  0.00    -0.203 F 
ATOM     59  C   UNL     1      -1.635  14.004  11.909  1.00  0.00     0.198 A 
ATOM     60  C   UNL     1      -3.741  14.183  10.771  1.00  0.00     0.198 A 
ATOM     61  F   UNL     1      -3.802  14.334   8.424  1.00  0.00    -0.203 F 
ATOM     62  F   UNL     1      -0.938  13.873  13.046  1.00  0.00    -0.200 F 
ATOM     63  C   UNL     1      -3.020  14.069  11.950  1.00  0.00     0.200 A 
ATOM     64  F   UNL     1      -5.079  14.258  10.810  1.00  0.00    -0.200 F 
ATOM     65  F   UNL     1      -3.660  14.018  13.126  1.00  0.00    -0.200 F 
ENDBRANCH  41  55
BRANCH  42  66
ATOM     66  C   UNL     1       2.587  14.554   0.484  1.00  0.00     0.064 A 
ATOM     67  C   UNL     1       3.738  15.306   0.211  1.00  0.00     0.173 A 
ATOM     68  C   UNL     1       1.984  13.871  -0.582  1.00  0.00     0.173 A 
ATOM     69  F   UNL     1       4.335  15.994   1.195  1.00  0.00    -0.203 F 
ATOM     70  C   UNL     1       4.252  15.392  -1.081  1.00  0.00     0.198 A 
ATOM     71  C   UNL     1       2.514  13.936  -1.869  1.00  0.00     0.198 A 
ATOM     72  F   UNL     1       0.883  13.134  -0.372  1.00  0.00    -0.203 F 
ATOM     73  F   UNL     1       5.325  16.156  -1.323  1.00  0.00    -0.200 F 
ATOM     74  C   UNL     1       3.642  14.703  -2.119  1.00  0.00     0.200 A 
ATOM     75  F   UNL     1       1.930  13.259  -2.867  1.00  0.00    -0.200 F 
ATOM     76  F   UNL     1       4.136  14.787  -3.362  1.00  0.00    -0.200 F 
ENDBRANCH  42  66
BRANCH  54  77
ATOM     77  C   UNL     1      -0.595  19.258   4.507  1.00  0.00     0.064 A 
ATOM     78  C   UNL     1      -1.611  19.681   3.639  1.00  0.00     0.173 A 
ATOM     79  C   UNL     1       0.107  20.236   5.228  1.00  0.00     0.173 A 
ATOM     80  F   UNL     1      -2.299  18.784   2.916  1.00  0.00    -0.203 F 
ATOM     81  C   UNL     1      -1.900  21.034   3.483  1.00  0.00     0.198 A 
ATOM     82  C   UNL     1      -0.201  21.586   5.088  1.00  0.00     0.198 A 
ATOM     83  F   UNL     1       1.085  19.880   6.074  1.00  0.00    -0.203 F 
ATOM     84  F   UNL     1      -2.846  21.420   2.616  1.00  0.00    -0.200 F 
ATOM     85  C   UNL     1      -1.200  21.984   4.212  1.00  0.00     0.200 A 
ATOM     86  F   UNL     1       0.469  22.502   5.801  1.00  0.00    -0.200 F 
ATOM     87  F   UNL     1      -1.482  23.286   4.064  1.00  0.00    -0.200 F 
ENDBRANCH  54  77
ENDBRANCH  28  29
ENDBRANCH  20  23
ENDBRANCH  18  19
ENDBRANCH   1  18
TORSDOF 12
