REMARK SMILES Cc1ccc(S(=O)(=O)Nc2cc(C(=O)NCCCNC(=O)c3ccc(-c4c5nc(c(-c6c(F)c(F)c(F)c(F)c6F)c6ccc([nH]6)c(-c6c(F)c(F)c(F)c(F)c6F)c6nc(c(-c7c(F)c(F)c(F)c(F)c7F)c7ccc4[nH]7)C=C6)C=C5)cc3)cnc2N2CCCC2)c(C)c1
REMARK SMILES IDX 16 1 15 2 13 3 14 4 12 6 10 7 11 8 87 9 86 10 85 11 9 12
REMARK SMILES IDX 6 14 7 15 8 16 5 17 1 18 2 19 3 20 95 21 4 22 93 23 94 24
REMARK SMILES IDX 88 25 89 26 92 27 90 28 91 29 17 30 18 31 19 32 20 33 21 35
REMARK SMILES IDX 22 36 23 37 84 38 24 39 83 40 25 41 26 42 27 43 77 44 28 45
REMARK SMILES IDX 82 46 76 47 78 48 29 49 81 50 75 51 74 52 30 54 62 55 42 56
REMARK SMILES IDX 61 57 43 58 46 59 60 60 79 61 44 62 45 63 59 65 80 66 47 67
REMARK SMILES IDX 31 68 32 69 40 70 33 71 34 72 38 73 41 74 35 75 36 76 39 77
REMARK SMILES IDX 37 78 63 79 64 80 72 81 65 82 66 83 70 84 73 85 67 86 68 87
REMARK SMILES IDX 71 88 69 89 48 90 49 91 57 92 50 93 51 94 55 95 58 96 52 97
REMARK SMILES IDX 53 98 56 99 54 100
REMARK H PARENT 15 5 9 13 19 34 78 53 46 64
REMARK Flexibility Score: inf
ROOT
ATOM      1  C   UNL     1       1.190  -1.706   2.576  1.00  0.00     0.118 C 
ENDROOT
BRANCH   1   2
ATOM      2  N   UNL     1       2.065  -2.864   2.637  1.00  0.00    -0.352 N 
ATOM      3  C   UNL     1       2.030  -4.077   1.997  1.00  0.00     0.252 C 
ATOM      4  O   UNL     1       2.971  -4.848   2.181  1.00  0.00    -0.269 OA
ATOM      5  H   UNL     1       2.827  -2.758   3.252  1.00  0.00     0.163 HD
BRANCH   3   6
ATOM      6  C   UNL     1       0.953  -4.477   1.060  1.00  0.00     0.060 A 
ATOM      7  C   UNL     1      -1.206  -4.320   0.029  1.00  0.00     0.092 A 
ATOM      8  C   UNL     1      -0.345  -3.984   1.068  1.00  0.00     0.046 A 
ATOM      9  C   UNL     1      -0.830  -5.315  -0.902  1.00  0.00     0.153 A 
ATOM     10  N   UNL     1       0.393  -5.878  -0.857  1.00  0.00    -0.236 NA
ATOM     11  C   UNL     1       1.262  -5.425   0.087  1.00  0.00     0.127 A 
BRANCH   7  12
ATOM     12  N   UNL     1      -2.474  -3.696  -0.132  1.00  0.00    -0.276 N 
ATOM     13  H   UNL     1      -3.235  -4.276  -0.362  1.00  0.00     0.180 HD
BRANCH  12  14
ATOM     14  S   UNL     1      -2.782  -2.067   0.036  1.00  0.00     0.262 S 
ATOM     15  O   UNL     1      -2.918  -1.833   1.464  1.00  0.00    -0.201 OA
ATOM     16  O   UNL     1      -3.868  -1.798  -0.878  1.00  0.00    -0.201 OA
BRANCH  14  17
ATOM     17  C   UNL     1      -1.398  -1.053  -0.494  1.00  0.00     0.090 A 
ATOM     18  C   UNL     1       2.341   1.095  -0.454  1.00  0.00     0.044 C 
ATOM     19  C   UNL     1       1.028   0.375  -0.555  1.00  0.00    -0.051 A 
ATOM     20  C   UNL     1       0.940  -0.894  -1.133  1.00  0.00     0.005 A 
ATOM     21  C   UNL     1      -0.142   0.987  -0.100  1.00  0.00     0.008 A 
ATOM     22  C   UNL     1      -0.272  -1.598  -1.121  1.00  0.00     0.023 A 
ATOM     23  C   UNL     1      -1.367   0.295  -0.078  1.00  0.00    -0.030 A 
ATOM     24  C   UNL     1      -2.577   1.064   0.381  1.00  0.00     0.046 C 
ENDBRANCH  14  17
ENDBRANCH  12  14
ENDBRANCH   7  12
BRANCH   9  25
ATOM     25  N   UNL     1      -1.734  -5.774  -1.823  1.00  0.00    -0.355 N 
ATOM     26  C   UNL     1      -2.276  -5.051  -2.955  1.00  0.00     0.118 C 
ATOM     27  C   UNL     1      -2.038  -7.195  -1.888  1.00  0.00     0.118 C 
ATOM     28  C   UNL     1      -3.555  -5.842  -3.211  1.00  0.00     0.023 C 
ATOM     29  C   UNL     1      -3.111  -7.285  -2.982  1.00  0.00     0.023 C 
ENDBRANCH   9  25
ENDBRANCH   3   6
ENDBRANCH   1   2
BRANCH   1  30
ATOM     30  C   UNL     1       0.201  -1.686   3.738  1.00  0.00     0.042 C 
BRANCH  30  31
ATOM     31  C   UNL     1       0.818  -1.171   5.030  1.00  0.00     0.118 C 
BRANCH  31  32
ATOM     32  N   UNL     1       1.054   0.265   4.985  1.00  0.00    -0.352 N 
ATOM     33  C   UNL     1       0.722   1.236   5.895  1.00  0.00     0.251 C 
ATOM     34  H   UNL     1       1.521   0.587   4.181  1.00  0.00     0.163 HD
ATOM     35  O   UNL     1       0.841   2.418   5.587  1.00  0.00    -0.269 OA
BRANCH  33  36
ATOM     36  C   UNL     1       0.212   0.874   7.236  1.00  0.00     0.039 A 
ATOM     37  C   UNL     1      -0.806   1.653   7.795  1.00  0.00     0.014 A 
ATOM     38  C   UNL     1       0.760  -0.185   7.966  1.00  0.00     0.014 A 
ATOM     39  C   UNL     1      -1.295   1.352   9.068  1.00  0.00     0.010 A 
ATOM     40  C   UNL     1       0.225  -0.527   9.206  1.00  0.00     0.010 A 
ATOM     41  C   UNL     1      -0.794   0.249   9.776  1.00  0.00    -0.014 A 
BRANCH  41  42
ATOM     42  C   UNL     1      -1.294  -0.078  11.134  1.00  0.00     0.031 A 
ATOM     43  C   UNL     1      -0.380   0.050  12.321  1.00  0.00     0.074 A 
ATOM     44  C   UNL     1      -2.549  -0.537  11.292  1.00  0.00     0.049 A 
ATOM     45  N   UNL     1      -0.607  -0.240  13.577  1.00  0.00    -0.248 NA
ATOM     46  C   UNL     1       0.981   0.543  12.057  1.00  0.00     0.031 C 
ATOM     47  C   UNL     1      -3.513  -0.753  10.212  1.00  0.00     0.029 A 
ATOM     48  N   UNL     1      -3.227  -0.912  12.424  1.00  0.00    -0.354 N 
ATOM     49  C   UNL     1       0.585   0.008  14.244  1.00  0.00     0.074 A 
ATOM     50  C   UNL     1       1.546   0.434  13.250  1.00  0.00     0.031 C 
ATOM     51  C   UNL     1      -4.664  -1.202  10.736  1.00  0.00     0.029 A 
ATOM     52  C   UNL     1      -4.512  -1.329  12.182  1.00  0.00     0.049 A 
ATOM     53  H   UNL     1      -2.829  -0.885  13.324  1.00  0.00     0.167 HD
ATOM     54  C   UNL     1       0.849  -0.089  15.569  1.00  0.00     0.037 A 
ATOM     55  C   UNL     1      -5.460  -1.762  13.034  1.00  0.00     0.037 A 
ATOM     56  C   UNL     1      -0.120  -0.468  16.561  1.00  0.00     0.049 A 
ATOM     57  C   UNL     1      -5.157  -1.814  14.506  1.00  0.00     0.074 A 
ATOM     58  C   UNL     1       0.029  -0.534  17.935  1.00  0.00     0.029 A 
ATOM     59  N   UNL     1      -1.428  -0.838  16.282  1.00  0.00    -0.354 N 
ATOM     60  N   UNL     1      -4.044  -1.519  15.132  1.00  0.00    -0.248 NA
ATOM     61  C   UNL     1      -6.247  -2.247  15.391  1.00  0.00     0.031 C 
ATOM     62  C   UNL     1      -1.182  -0.969  18.486  1.00  0.00     0.029 A 
ATOM     63  C   UNL     1      -2.094  -1.141  17.458  1.00  0.00     0.049 A 
ATOM     64  H   UNL     1      -1.823  -0.880  15.381  1.00  0.00     0.167 HD
ATOM     65  C   UNL     1      -4.304  -1.709  16.482  1.00  0.00     0.074 A 
ATOM     66  C   UNL     1      -5.686  -2.131  16.586  1.00  0.00     0.031 C 
ATOM     67  C   UNL     1      -3.473  -1.549  17.540  1.00  0.00     0.037 A 
BRANCH  54  68
ATOM     68  C   UNL     1       2.244   0.228  16.020  1.00  0.00     0.064 A 
ATOM     69  C   UNL     1       2.732   1.543  16.027  1.00  0.00     0.173 A 
ATOM     70  C   UNL     1       3.095  -0.791  16.472  1.00  0.00     0.173 A 
ATOM     71  F   UNL     1       1.961   2.551  15.590  1.00  0.00    -0.203 F 
ATOM     72  C   UNL     1       4.031   1.823  16.443  1.00  0.00     0.198 A 
ATOM     73  C   UNL     1       4.385  -0.505  16.912  1.00  0.00     0.198 A 
ATOM     74  F   UNL     1       2.675  -2.066  16.489  1.00  0.00    -0.203 F 
ATOM     75  F   UNL     1       4.491   3.080  16.395  1.00  0.00    -0.200 F 
ATOM     76  C   UNL     1       4.854   0.800  16.890  1.00  0.00     0.200 A 
ATOM     77  F   UNL     1       5.176  -1.492  17.353  1.00  0.00    -0.200 F 
ATOM     78  F   UNL     1       6.103   1.072  17.292  1.00  0.00    -0.200 F 
ENDBRANCH  54  68
BRANCH  55  79
ATOM     79  C   UNL     1      -6.799  -2.137  12.518  1.00  0.00     0.064 A 
ATOM     80  C   UNL     1      -7.908  -1.309  12.737  1.00  0.00     0.173 A 
ATOM     81  C   UNL     1      -6.997  -3.319  11.790  1.00  0.00     0.173 A 
ATOM     82  F   UNL     1      -7.769  -0.178  13.445  1.00  0.00    -0.203 F 
ATOM     83  C   UNL     1      -9.170  -1.656  12.261  1.00  0.00     0.198 A 
ATOM     84  C   UNL     1      -8.255  -3.655  11.296  1.00  0.00     0.198 A 
ATOM     85  F   UNL     1      -5.965  -4.141  11.552  1.00  0.00    -0.203 F 
ATOM     86  F   UNL     1     -10.221  -0.865  12.515  1.00  0.00    -0.200 F 
ATOM     87  C   UNL     1      -9.342  -2.826  11.536  1.00  0.00     0.200 A 
ATOM     88  F   UNL     1      -8.416  -4.781  10.588  1.00  0.00    -0.200 F 
ATOM     89  F   UNL     1     -10.555  -3.159  11.075  1.00  0.00    -0.200 F 
ENDBRANCH  55  79
BRANCH  67  90
ATOM     90  C   UNL     1      -4.044  -1.802  18.902  1.00  0.00     0.064 A 
ATOM     91  C   UNL     1      -4.288  -3.104  19.363  1.00  0.00     0.173 A 
ATOM     92  C   UNL     1      -4.316  -0.732  19.767  1.00  0.00     0.173 A 
ATOM     93  F   UNL     1      -4.057  -4.157  18.564  1.00  0.00    -0.203 F 
ATOM     94  C   UNL     1      -4.804  -3.324  20.637  1.00  0.00     0.198 A 
ATOM     95  C   UNL     1      -4.810  -0.958  21.048  1.00  0.00     0.198 A 
ATOM     96  F   UNL     1      -4.094   0.530  19.372  1.00  0.00    -0.203 F 
ATOM     97  F   UNL     1      -5.067  -4.573  21.044  1.00  0.00    -0.200 F 
ATOM     98  C   UNL     1      -5.059  -2.252  21.480  1.00  0.00     0.200 A 
ATOM     99  F   UNL     1      -5.048   0.078  21.865  1.00  0.00    -0.200 F 
ATOM    100  F   UNL     1      -5.553  -2.467  22.707  1.00  0.00    -0.200 F 
ENDBRANCH  67  90
ENDBRANCH  41  42
ENDBRANCH  33  36
ENDBRANCH  31  32
ENDBRANCH  30  31
ENDBRANCH   1  30
TORSDOF 14
