REMARK SMILES CC(=O)N1CCCN(S(=O)(=O)c2ccc(C)c(C(=O)NCCCNC(=O)c3ccc(-c4c5nc(c(-c6c(F)c(F)c(F)c(F)c6F)c6ccc([nH]6)c(-c6c(F)c(F)c(F)c(F)c6F)c6nc(c(-c7c(F)c(F)c(F)c(F)c7F)c7ccc4[nH]7)C=C6)C=C5)cc3)c2)CC1
REMARK SMILES IDX 18 1 19 2 20 3 17 5 12 6 13 7 90 8 14 9 15 10 16 11 9 12
REMARK SMILES IDX 10 13 11 14 8 15 91 16 92 17 4 18 2 19 1 20 3 21 5 22 7 24
REMARK SMILES IDX 6 25 21 27 22 28 23 29 24 30 25 31 26 33 27 34 28 35 89 36
REMARK SMILES IDX 29 37 88 38 30 39 31 40 32 41 82 42 33 43 87 44 81 45 83 46
REMARK SMILES IDX 34 47 86 48 80 49 79 50 35 52 67 53 47 54 66 55 48 56 51 57
REMARK SMILES IDX 65 58 84 59 49 60 50 61 64 63 85 64 52 65 36 66 37 67 45 68
REMARK SMILES IDX 38 69 39 70 43 71 46 72 40 73 41 74 44 75 42 76 68 77 69 78
REMARK SMILES IDX 77 79 70 80 71 81 75 82 78 83 72 84 73 85 76 86 74 87 53 88
REMARK SMILES IDX 54 89 62 90 55 91 56 92 60 93 63 94 57 95 58 96 61 97 59 98
REMARK H PARENT 20 4 24 32 83 51 51 62
REMARK Flexibility Score: 90.00
ROOT
ATOM      1  C   UNL     1      -0.280  -1.630  10.146  1.00  0.00     0.251 C 
ATOM      2  O   UNL     1       0.928  -1.830  10.346  1.00  0.00    -0.269 OA
ATOM      3  N   UNL     1      -1.044  -2.039  11.200  1.00  0.00    -0.352 N 
ATOM      4  H   UNL     1      -0.487  -2.419  11.917  1.00  0.00     0.163 HD
ENDROOT
BRANCH   1   5
ATOM      5  C   UNL     1      -0.670  -1.022   8.814  1.00  0.00     0.044 A 
ATOM      6  C   UNL     1       0.422  -0.134   6.775  1.00  0.00     0.083 A 
ATOM      7  C   UNL     1      -0.762  -0.285   6.083  1.00  0.00     0.022 A 
ATOM      8  C   UNL     1       0.468  -0.504   8.123  1.00  0.00     0.035 A 
ATOM      9  C   UNL     1      -1.907  -0.657   6.745  1.00  0.00     0.005 A 
ATOM     10  C   UNL     1      -1.895  -1.012   8.107  1.00  0.00    -0.038 A 
ATOM     11  C   UNL     1      -3.250  -1.443   8.540  1.00  0.00     0.045 C 
BRANCH   6  12
ATOM     12  S   UNL     1       1.910   0.243   5.879  1.00  0.00     0.243 S 
ATOM     13  O   UNL     1       2.050  -0.812   4.901  1.00  0.00    -0.207 OA
ATOM     14  O   UNL     1       2.962   0.482   6.847  1.00  0.00    -0.207 OA
BRANCH  12  15
ATOM     15  N   UNL     1       1.669   1.718   5.063  1.00  0.00    -0.196 NA
BRANCH  15  16
ATOM     16  C   UNL     1       0.446   2.035   4.291  1.00  0.00     0.124 C 
BRANCH  16  17
ATOM     17  C   UNL     1       0.194   1.124   3.098  1.00  0.00     0.136 C 
BRANCH  17  18
ATOM     18  N   UNL     1       1.162   1.181   2.011  1.00  0.00    -0.342 N 
BRANCH  18  19
ATOM     19  C   UNL     1       0.600   1.246   0.738  1.00  0.00     0.219 C 
ATOM     20  C   UNL     1       1.293   0.492  -0.367  1.00  0.00     0.114 C 
ATOM     21  O   UNL     1      -0.479   1.800   0.522  1.00  0.00    -0.275 OA
ENDBRANCH  18  19
BRANCH  18  22
ATOM     22  C   UNL     1       2.507   0.679   2.292  1.00  0.00     0.121 CG0
ATOM     23  G   UNL     1       3.409   1.517   3.207  1.00  0.00     0.000 G0
ENDBRANCH  18  22
ENDBRANCH  17  18
ENDBRANCH  16  17
ENDBRANCH  15  16
BRANCH  15  24
ATOM     24  C   UNL     1       2.862   2.294   4.402  1.00  0.00     0.104 C 
BRANCH  24  25
ATOM     25  C   UNL     1       3.409   1.517   3.207  1.00  0.00     0.038 CG0
ATOM     26  G   UNL     1       2.507   0.679   2.292  1.00  0.00     0.000 G0
ENDBRANCH  24  25
ENDBRANCH  15  24
ENDBRANCH  12  15
ENDBRANCH   6  12
ENDBRANCH   1   5
BRANCH   3  27
ATOM     27  C   UNL     1      -2.446  -2.071  11.558  1.00  0.00     0.118 C 
BRANCH  27  28
ATOM     28  C   UNL     1      -3.155  -3.243  10.892  1.00  0.00     0.042 C 
BRANCH  28  29
ATOM     29  C   UNL     1      -3.706  -4.298  11.821  1.00  0.00     0.118 C 
BRANCH  29  30
ATOM     30  N   UNL     1      -5.167  -4.227  11.936  1.00  0.00    -0.352 N 
ATOM     31  C   UNL     1      -6.019  -5.090  12.597  1.00  0.00     0.251 C 
ATOM     32  H   UNL     1      -5.595  -3.465  11.483  1.00  0.00     0.163 HD
ATOM     33  O   UNL     1      -7.230  -4.927  12.594  1.00  0.00    -0.269 OA
BRANCH  31  34
ATOM     34  C   UNL     1      -5.390  -6.128  13.434  1.00  0.00     0.039 A 
ATOM     35  C   UNL     1      -5.445  -5.896  14.811  1.00  0.00     0.014 A 
ATOM     36  C   UNL     1      -4.405  -6.928  12.861  1.00  0.00     0.014 A 
ATOM     37  C   UNL     1      -4.340  -6.221  15.580  1.00  0.00     0.010 A 
ATOM     38  C   UNL     1      -3.264  -7.150  13.602  1.00  0.00     0.010 A 
ATOM     39  C   UNL     1      -3.209  -6.721  14.935  1.00  0.00    -0.014 A 
BRANCH  39  40
ATOM     40  C   UNL     1      -1.904  -6.765  15.578  1.00  0.00     0.031 A 
ATOM     41  C   UNL     1      -1.408  -8.065  16.063  1.00  0.00     0.074 A 
ATOM     42  C   UNL     1      -1.162  -5.642  15.702  1.00  0.00     0.049 A 
ATOM     43  N   UNL     1      -0.560  -8.217  17.021  1.00  0.00    -0.248 NA
ATOM     44  C   UNL     1      -1.915  -9.324  15.536  1.00  0.00     0.031 C 
ATOM     45  C   UNL     1       0.232  -5.548  16.128  1.00  0.00     0.029 A 
ATOM     46  N   UNL     1      -1.601  -4.305  15.644  1.00  0.00    -0.354 N 
ATOM     47  C   UNL     1      -0.214  -9.550  17.067  1.00  0.00     0.074 A 
ATOM     48  C   UNL     1      -1.146 -10.203  16.182  1.00  0.00     0.031 C 
ATOM     49  C   UNL     1       0.463  -4.306  16.581  1.00  0.00     0.029 A 
ATOM     50  C   UNL     1      -0.810  -3.607  16.589  1.00  0.00     0.049 A 
ATOM     51  H   UNL     1      -2.308  -3.934  15.069  1.00  0.00     0.167 HD
ATOM     52  C   UNL     1       0.910  -9.913  17.752  1.00  0.00     0.037 A 
ATOM     53  C   UNL     1      -1.366  -3.011  17.684  1.00  0.00     0.037 A 
ATOM     54  C   UNL     1       1.453  -8.766  18.485  1.00  0.00     0.049 A 
ATOM     55  C   UNL     1      -0.861  -3.563  18.996  1.00  0.00     0.074 A 
ATOM     56  C   UNL     1       2.465  -7.866  18.195  1.00  0.00     0.029 A 
ATOM     57  N   UNL     1       0.719  -8.209  19.529  1.00  0.00    -0.354 N 
ATOM     58  N   UNL     1      -0.258  -4.714  19.113  1.00  0.00    -0.248 NA
ATOM     59  C   UNL     1      -1.038  -2.889  20.280  1.00  0.00     0.031 C 
ATOM     60  C   UNL     1       2.284  -6.723  19.015  1.00  0.00     0.029 A 
ATOM     61  C   UNL     1       1.184  -6.941  19.828  1.00  0.00     0.049 A 
ATOM     62  H   UNL     1      -0.027  -8.655  19.991  1.00  0.00     0.167 HD
ATOM     63  C   UNL     1      -0.007  -4.962  20.436  1.00  0.00     0.074 A 
ATOM     64  C   UNL     1      -0.492  -3.780  21.125  1.00  0.00     0.031 C 
ATOM     65  C   UNL     1       0.554  -6.132  20.860  1.00  0.00     0.037 A 
BRANCH  52  66
ATOM     66  C   UNL     1       1.689 -11.195  17.502  1.00  0.00     0.064 A 
ATOM     67  C   UNL     1       3.071 -11.258  17.790  1.00  0.00     0.173 A 
ATOM     68  C   UNL     1       1.177 -12.361  16.899  1.00  0.00     0.173 A 
ATOM     69  F   UNL     1       3.687 -10.287  18.476  1.00  0.00    -0.203 F 
ATOM     70  C   UNL     1       3.882 -12.325  17.385  1.00  0.00     0.198 A 
ATOM     71  C   UNL     1       1.991 -13.405  16.448  1.00  0.00     0.198 A 
ATOM     72  F   UNL     1      -0.135 -12.578  16.786  1.00  0.00    -0.203 F 
ATOM     73  F   UNL     1       5.190 -12.315  17.676  1.00  0.00    -0.200 F 
ATOM     74  C   UNL     1       3.348 -13.381  16.677  1.00  0.00     0.200 A 
ATOM     75  F   UNL     1       1.441 -14.439  15.794  1.00  0.00    -0.200 F 
ATOM     76  F   UNL     1       4.128 -14.383  16.250  1.00  0.00    -0.200 F 
ENDBRANCH  52  66
BRANCH  53  77
ATOM     77  C   UNL     1      -2.744  -2.510  17.442  1.00  0.00     0.064 A 
ATOM     78  C   UNL     1      -2.919  -1.482  16.496  1.00  0.00     0.173 A 
ATOM     79  C   UNL     1      -3.871  -3.255  17.804  1.00  0.00     0.173 A 
ATOM     80  F   UNL     1      -1.870  -0.735  16.116  1.00  0.00    -0.203 F 
ATOM     81  C   UNL     1      -4.136  -1.296  15.845  1.00  0.00     0.198 A 
ATOM     82  C   UNL     1      -5.095  -3.054  17.161  1.00  0.00     0.198 A 
ATOM     83  F   UNL     1      -3.767  -4.258  18.689  1.00  0.00    -0.203 F 
ATOM     84  F   UNL     1      -4.235  -0.395  14.857  1.00  0.00    -0.200 F 
ATOM     85  C   UNL     1      -5.216  -2.104  16.157  1.00  0.00     0.200 A 
ATOM     86  F   UNL     1      -6.136  -3.850  17.447  1.00  0.00    -0.200 F 
ATOM     87  F   UNL     1      -6.356  -1.996  15.462  1.00  0.00    -0.200 F 
ENDBRANCH  53  77
BRANCH  65  88
ATOM     88  C   UNL     1       0.631  -6.580  22.295  1.00  0.00     0.064 A 
ATOM     89  C   UNL     1      -0.347  -6.276  23.257  1.00  0.00     0.173 A 
ATOM     90  C   UNL     1       1.643  -7.477  22.709  1.00  0.00     0.173 A 
ATOM     91  F   UNL     1      -1.416  -5.529  22.949  1.00  0.00    -0.203 F 
ATOM     92  C   UNL     1      -0.283  -6.781  24.558  1.00  0.00     0.198 A 
ATOM     93  C   UNL     1       1.672  -8.024  23.991  1.00  0.00     0.198 A 
ATOM     94  F   UNL     1       2.615  -7.865  21.871  1.00  0.00    -0.203 F 
ATOM     95  F   UNL     1      -1.217  -6.429  25.452  1.00  0.00    -0.200 F 
ATOM     96  C   UNL     1       0.718  -7.663  24.921  1.00  0.00     0.200 A 
ATOM     97  F   UNL     1       2.617  -8.918  24.312  1.00  0.00    -0.200 F 
ATOM     98  F   UNL     1       0.750  -8.180  26.156  1.00  0.00    -0.200 F 
ENDBRANCH  65  88
ENDBRANCH  39  40
ENDBRANCH  31  34
ENDBRANCH  29  30
ENDBRANCH  28  29
ENDBRANCH  27  28
ENDBRANCH   3  27
TORSDOF 13
