REMARK SMILES C[C@H]1CC[C@H](CNC(=O)NCc2ccc(C(=O)NCCCNC(=O)c3ccc(-c4c5nc(c(-c6c(F)c(F)c(F)c(F)c6F)c6ccc([nH]6)c(-c6c(F)c(F)c(F)c(F)c6F)c6nc(c(-c7c(F)c(F)c(F)c(F)c7F)c7ccc4[nH]7)C=C6)C=C5)cc3)o2)CC1
REMARK SMILES IDX 19 1 18 2 16 3 17 4 15 6 12 7 13 8 88 9 14 10 11 11 10 12
REMARK SMILES IDX 7 13 8 14 9 16 6 18 5 19 1 20 2 21 90 22 3 23 89 24 4 25
REMARK SMILES IDX 20 26 21 27 22 28 23 29 24 31 25 32 26 33 87 34 27 35 86 36
REMARK SMILES IDX 28 37 29 38 30 39 80 40 31 41 85 42 79 43 81 44 32 45 84 46
REMARK SMILES IDX 78 47 77 48 33 50 65 51 45 52 64 53 46 54 49 55 63 56 82 57
REMARK SMILES IDX 47 58 48 59 62 61 83 62 50 63 34 64 35 65 43 66 36 67 37 68
REMARK SMILES IDX 41 69 44 70 38 71 39 72 42 73 40 74 66 75 67 76 75 77 68 78
REMARK SMILES IDX 69 79 73 80 76 81 70 82 71 83 74 84 72 85 51 86 52 87 60 88
REMARK SMILES IDX 53 89 54 90 58 91 61 92 55 93 56 94 59 95 57 96
REMARK H PARENT 18 5 7 15 10 17 22 30 81 49 49 60
REMARK Flexibility Score: inf
ROOT
ATOM      1  C   UNL     1      -9.028  -5.295   1.972  1.00  0.00     0.118 C 
ENDROOT
BRANCH   1   2
ATOM      2  N   UNL     1      -9.097  -3.879   2.278  1.00  0.00    -0.349 N 
ATOM      3  C   UNL     1      -8.372  -2.823   1.780  1.00  0.00     0.286 C 
ATOM      4  O   UNL     1      -8.789  -1.695   2.095  1.00  0.00    -0.266 OA
ATOM      5  H   UNL     1      -9.773  -3.634   2.951  1.00  0.00     0.163 HD
BRANCH   3   6
ATOM      6  C   UNL     1      -7.208  -3.026   0.944  1.00  0.00     0.191 A 
ATOM      7  C   UNL     1      -5.740  -2.373  -0.591  1.00  0.00     0.124 A 
ATOM      8  C   UNL     1      -5.339  -3.623  -0.175  1.00  0.00     0.048 A 
ATOM      9  O   UNL     1      -6.873  -2.013   0.079  1.00  0.00    -0.454 OA
ATOM     10  C   UNL     1      -6.268  -4.035   0.814  1.00  0.00     0.056 A 
BRANCH   7  11
ATOM     11  C   UNL     1      -5.188  -1.421  -1.595  1.00  0.00     0.193 C 
BRANCH  11  12
ATOM     12  N   UNL     1      -5.744  -0.100  -1.433  1.00  0.00    -0.331 N 
ATOM     13  N   UNL     1      -4.110   1.155  -0.285  1.00  0.00    -0.338 N 
ATOM     14  C   UNL     1      -5.250   1.055  -0.981  1.00  0.00     0.315 C 
ATOM     15  H   UNL     1      -3.747   2.070  -0.257  1.00  0.00     0.165 HD
ATOM     16  O   UNL     1      -5.871   2.092  -1.222  1.00  0.00    -0.249 OA
ATOM     17  H   UNL     1      -6.685  -0.036  -1.715  1.00  0.00     0.165 HD
BRANCH  13  18
ATOM     18  C   UNL     1      -3.301   0.191   0.435  1.00  0.00     0.121 C 
BRANCH  18  19
ATOM     19  C   UNL     1      -1.875   0.110  -0.134  1.00  0.00     0.008 C 
ATOM     20  C   UNL     1       2.513  -0.081  -0.191  1.00  0.00     0.007 C 
ATOM     21  C   UNL     1       1.072   0.004   0.307  1.00  0.00    -0.014 C 
ATOM     22  C   UNL     1       0.276  -1.240  -0.108  1.00  0.00     0.003 C 
ATOM     23  C   UNL     1       0.391   1.273  -0.216  1.00  0.00     0.003 C 
ATOM     24  C   UNL     1      -1.174  -1.160   0.368  1.00  0.00     0.006 C 
ATOM     25  C   UNL     1      -1.063   1.363   0.244  1.00  0.00     0.006 C 
ENDBRANCH  18  19
ENDBRANCH  13  18
ENDBRANCH  11  12
ENDBRANCH   7  11
ENDBRANCH   3   6
ENDBRANCH   1   2
BRANCH   1  26
ATOM     26  C   UNL     1      -8.358  -6.095   3.087  1.00  0.00     0.042 C 
BRANCH  26  27
ATOM     27  C   UNL     1      -9.222  -6.269   4.337  1.00  0.00     0.118 C 
BRANCH  27  28
ATOM     28  N   UNL     1     -10.371  -7.131   4.101  1.00  0.00    -0.352 N 
ATOM     29  C   UNL     1     -10.769  -8.290   4.717  1.00  0.00     0.251 C 
ATOM     30  H   UNL     1     -10.963  -6.832   3.374  1.00  0.00     0.163 HD
ATOM     31  O   UNL     1     -11.676  -8.949   4.211  1.00  0.00    -0.269 OA
BRANCH  29  32
ATOM     32  C   UNL     1     -10.135  -8.773   5.966  1.00  0.00     0.039 A 
ATOM     33  C   UNL     1      -9.973 -10.154   6.135  1.00  0.00     0.014 A 
ATOM     34  C   UNL     1      -9.781  -7.907   7.004  1.00  0.00     0.014 A 
ATOM     35  C   UNL     1      -9.421 -10.660   7.315  1.00  0.00     0.010 A 
ATOM     36  C   UNL     1      -9.178  -8.408   8.161  1.00  0.00     0.010 A 
ATOM     37  C   UNL     1      -8.999  -9.789   8.331  1.00  0.00    -0.014 A 
BRANCH  37  38
ATOM     38  C   UNL     1      -8.374 -10.316   9.571  1.00  0.00     0.031 A 
ATOM     39  C   UNL     1      -9.080 -10.202  10.893  1.00  0.00     0.074 A 
ATOM     40  C   UNL     1      -7.147 -10.868   9.512  1.00  0.00     0.049 A 
ATOM     41  N   UNL     1      -8.677 -10.577  12.082  1.00  0.00    -0.248 NA
ATOM     42  C   UNL     1     -10.404  -9.563  10.882  1.00  0.00     0.031 C 
ATOM     43  C   UNL     1      -6.339 -11.001   8.300  1.00  0.00     0.029 A 
ATOM     44  N   UNL     1      -6.364 -11.416  10.497  1.00  0.00    -0.354 N 
ATOM     45  C   UNL     1      -9.688 -10.206  12.960  1.00  0.00     0.074 A 
ATOM     46  C   UNL     1     -10.706  -9.542  12.173  1.00  0.00     0.031 C 
ATOM     47  C   UNL     1      -5.183 -11.612   8.608  1.00  0.00     0.029 A 
ATOM     48  C   UNL     1      -5.159 -11.890  10.041  1.00  0.00     0.049 A 
ATOM     49  H   UNL     1      -6.639 -11.464  11.441  1.00  0.00     0.167 HD
ATOM     50  C   UNL     1      -9.768 -10.414  14.296  1.00  0.00     0.037 A 
ATOM     51  C   UNL     1      -4.149 -12.485  10.703  1.00  0.00     0.037 A 
ATOM     52  C   UNL     1      -8.770 -11.099  15.077  1.00  0.00     0.049 A 
ATOM     53  C   UNL     1      -4.275 -12.729  12.180  1.00  0.00     0.074 A 
ATOM     54  C   UNL     1      -8.787 -11.403  16.428  1.00  0.00     0.029 A 
ATOM     55  N   UNL     1      -7.575 -11.589  14.573  1.00  0.00    -0.354 N 
ATOM     56  N   UNL     1      -5.259 -12.422  12.988  1.00  0.00    -0.248 NA
ATOM     57  C   UNL     1      -3.151 -13.414  12.835  1.00  0.00     0.031 C 
ATOM     58  C   UNL     1      -7.589 -12.053  16.747  1.00  0.00     0.029 A 
ATOM     59  C   UNL     1      -6.842 -12.185  15.588  1.00  0.00     0.049 A 
ATOM     60  H   UNL     1      -7.289 -11.524  13.633  1.00  0.00     0.167 HD
ATOM     61  C   UNL     1      -4.886 -12.892  14.239  1.00  0.00     0.074 A 
ATOM     62  C   UNL     1      -3.590 -13.520  14.081  1.00  0.00     0.031 C 
ATOM     63  C   UNL     1      -5.556 -12.809  15.414  1.00  0.00     0.037 A 
BRANCH  50  64
ATOM     64  C   UNL     1     -10.985  -9.895  15.003  1.00  0.00     0.064 A 
ATOM     65  C   UNL     1     -12.239 -10.505  14.849  1.00  0.00     0.173 A 
ATOM     66  C   UNL     1     -10.892  -8.794  15.868  1.00  0.00     0.173 A 
ATOM     67  F   UNL     1     -12.381 -11.554  14.024  1.00  0.00    -0.203 F 
ATOM     68  C   UNL     1     -13.360 -10.016  15.513  1.00  0.00     0.198 A 
ATOM     69  C   UNL     1     -12.011  -8.322  16.550  1.00  0.00     0.198 A 
ATOM     70  F   UNL     1      -9.715  -8.178  16.055  1.00  0.00    -0.203 F 
ATOM     71  F   UNL     1     -14.556 -10.587  15.316  1.00  0.00    -0.200 F 
ATOM     72  C   UNL     1     -13.245  -8.929  16.366  1.00  0.00     0.200 A 
ATOM     73  F   UNL     1     -11.896  -7.278  17.382  1.00  0.00    -0.200 F 
ATOM     74  F   UNL     1     -14.325  -8.460  17.007  1.00  0.00    -0.200 F 
ENDBRANCH  50  64
BRANCH  51  75
ATOM     75  C   UNL     1      -2.944 -12.930   9.960  1.00  0.00     0.064 A 
ATOM     76  C   UNL     1      -2.713 -14.291   9.719  1.00  0.00     0.173 A 
ATOM     77  C   UNL     1      -2.007 -12.009   9.470  1.00  0.00     0.173 A 
ATOM     78  F   UNL     1      -3.573 -15.208  10.188  1.00  0.00    -0.203 F 
ATOM     79  C   UNL     1      -1.582 -14.717   9.027  1.00  0.00     0.198 A 
ATOM     80  C   UNL     1      -0.888 -12.435   8.758  1.00  0.00     0.198 A 
ATOM     81  F   UNL     1      -2.187 -10.696   9.671  1.00  0.00    -0.203 F 
ATOM     82  F   UNL     1      -1.367 -16.026   8.840  1.00  0.00    -0.200 F 
ATOM     83  C   UNL     1      -0.673 -13.788   8.542  1.00  0.00     0.200 A 
ATOM     84  F   UNL     1      -0.018 -11.535   8.280  1.00  0.00    -0.200 F 
ATOM     85  F   UNL     1       0.412 -14.198   7.871  1.00  0.00    -0.200 F 
ENDBRANCH  51  75
BRANCH  63  86
ATOM     86  C   UNL     1      -4.909 -13.435  16.613  1.00  0.00     0.064 A 
ATOM     87  C   UNL     1      -3.806 -12.841  17.245  1.00  0.00     0.173 A 
ATOM     88  C   UNL     1      -5.408 -14.633  17.146  1.00  0.00     0.173 A 
ATOM     89  F   UNL     1      -3.283 -11.704  16.761  1.00  0.00    -0.203 F 
ATOM     90  C   UNL     1      -3.210 -13.439  18.352  1.00  0.00     0.198 A 
ATOM     91  C   UNL     1      -4.823 -15.215  18.267  1.00  0.00     0.198 A 
ATOM     92  F   UNL     1      -6.462 -15.237  16.579  1.00  0.00    -0.203 F 
ATOM     93  F   UNL     1      -2.128 -12.879  18.911  1.00  0.00    -0.200 F 
ATOM     94  C   UNL     1      -3.721 -14.622  18.864  1.00  0.00     0.200 A 
ATOM     95  F   UNL     1      -5.322 -16.355  18.765  1.00  0.00    -0.200 F 
ATOM     96  F   UNL     1      -3.144 -15.197  19.928  1.00  0.00    -0.200 F 
ENDBRANCH  63  86
ENDBRANCH  37  38
ENDBRANCH  29  32
ENDBRANCH  27  28
ENDBRANCH  26  27
ENDBRANCH   1  26
TORSDOF 14
