REMARK SMILES CCC[C@H](C)NC(=O)C[NH+]1CC(n2cc(C(=O)NCCCNC(=O)c3ccc(-c4c5nc(c(-c6c(F)c(F)c(F)c(F)c6F)c6ccc([nH]6)c(-c6c(F)c(F)c(F)c(F)c6F)c6nc(c(-c7c(F)c(F)c(F)c(F)c7F)c7ccc4[nH]7)C=C6)C=C5)cc3)nn2)C1
REMARK SMILES IDX 16 1 17 2 18 3 15 5 13 6 14 7 89 8 88 9 12 10 10 11 11 12
REMARK SMILES IDX 90 13 9 15 7 16 6 17 8 19 4 20 5 21 3 22 2 23 1 24 19 25
REMARK SMILES IDX 20 26 21 27 22 28 23 29 24 31 25 32 26 33 87 34 27 35 86 36
REMARK SMILES IDX 28 37 29 38 30 39 80 40 31 41 85 42 79 43 81 44 32 45 84 46
REMARK SMILES IDX 78 47 77 48 33 50 65 51 45 52 64 53 46 54 49 55 63 56 82 57
REMARK SMILES IDX 47 58 48 59 62 61 83 62 50 63 34 64 35 65 43 66 36 67 37 68
REMARK SMILES IDX 41 69 44 70 38 71 39 72 42 73 40 74 66 75 67 76 75 77 68 78
REMARK SMILES IDX 69 79 73 80 76 81 70 82 71 83 74 84 72 85 51 86 52 87 60 88
REMARK SMILES IDX 53 89 54 90 58 91 61 92 55 93 56 94 59 95 57 96
REMARK H PARENT 18 4 10 14 6 18 22 30 81 49 49 60
REMARK Flexibility Score: inf
ROOT
ATOM      1  C   UNL     1       1.872   2.441   2.913  1.00  0.00     0.273 C 
ATOM      2  O   UNL     1       1.320   3.516   2.677  1.00  0.00    -0.267 OA
ATOM      3  N   UNL     1       2.221   2.185   4.223  1.00  0.00    -0.351 N 
ATOM      4  H   UNL     1       2.141   2.954   4.833  1.00  0.00     0.163 HD
ENDROOT
BRANCH   1   5
ATOM      5  C   UNL     1       2.146   1.459   1.868  1.00  0.00     0.170 A 
ATOM      6  N   UNL     1       2.901  -0.153   0.618  1.00  0.00    -0.237 N 
ATOM      7  C   UNL     1       3.125   0.491   1.797  1.00  0.00     0.145 A 
ATOM      8  N   UNL     1       1.849   0.373  -0.024  1.00  0.00    -0.066 NA
ATOM      9  N   UNL     1       1.404   1.391   0.707  1.00  0.00    -0.125 NA
BRANCH   6  10
ATOM     10  C   UNL     1       3.666  -1.292   0.211  1.00  0.00     0.218 C 
ATOM     11  N   UNL     1       3.264  -3.197  -0.609  1.00  0.00    -0.323 N 
ATOM     12  C   UNL     1       3.379  -1.843  -1.190  1.00  0.00     0.296 C 
ATOM     13  C   UNL     1       3.011  -2.593   0.720  1.00  0.00     0.296 C 
ATOM     14  H   UNL     1       4.011  -3.866  -0.797  1.00  0.00     0.348 HD
BRANCH  11  15
ATOM     15  C   UNL     1       2.067  -3.963  -1.020  1.00  0.00     0.363 C 
BRANCH  15  16
ATOM     16  C   UNL     1       1.751  -3.922  -2.512  1.00  0.00     0.275 C 
ATOM     17  N   UNL     1       0.738  -3.112  -2.958  1.00  0.00    -0.349 N 
ATOM     18  H   UNL     1       0.421  -3.303  -3.870  1.00  0.00     0.163 HD
ATOM     19  O   UNL     1       2.342  -4.631  -3.328  1.00  0.00    -0.268 OA
BRANCH  17  20
ATOM     20  C   UNL     1       0.054  -2.006  -2.280  1.00  0.00     0.079 C 
ATOM     21  C   UNL     1       0.282  -0.721  -3.083  1.00  0.00     0.031 C 
BRANCH  20  22
ATOM     22  C   UNL     1      -1.450  -2.267  -2.118  1.00  0.00     0.024 C 
BRANCH  22  23
ATOM     23  C   UNL     1      -1.817  -3.134  -0.908  1.00  0.00    -0.001 C 
ATOM     24  C   UNL     1      -1.492  -2.478   0.430  1.00  0.00     0.004 C 
ENDBRANCH  22  23
ENDBRANCH  20  22
ENDBRANCH  17  20
ENDBRANCH  15  16
ENDBRANCH  11  15
ENDBRANCH   6  10
ENDBRANCH   1   5
BRANCH   3  25
ATOM     25  C   UNL     1       2.690   0.956   4.842  1.00  0.00     0.118 C 
BRANCH  25  26
ATOM     26  C   UNL     1       4.219   0.889   4.943  1.00  0.00     0.042 C 
BRANCH  26  27
ATOM     27  C   UNL     1       4.752   1.633   6.150  1.00  0.00     0.118 C 
BRANCH  27  28
ATOM     28  N   UNL     1       4.405   0.976   7.412  1.00  0.00    -0.352 N 
ATOM     29  C   UNL     1       4.682   1.394   8.696  1.00  0.00     0.251 C 
ATOM     30  H   UNL     1       3.911   0.128   7.333  1.00  0.00     0.163 HD
ATOM     31  O   UNL     1       4.646   0.601   9.637  1.00  0.00    -0.269 OA
BRANCH  29  32
ATOM     32  C   UNL     1       5.035   2.802   8.924  1.00  0.00     0.039 A 
ATOM     33  C   UNL     1       6.040   3.167   9.820  1.00  0.00     0.014 A 
ATOM     34  C   UNL     1       4.371   3.764   8.169  1.00  0.00     0.014 A 
ATOM     35  C   UNL     1       6.427   4.503   9.877  1.00  0.00     0.010 A 
ATOM     36  C   UNL     1       4.891   5.025   8.073  1.00  0.00     0.010 A 
ATOM     37  C   UNL     1       5.868   5.423   8.973  1.00  0.00    -0.014 A 
BRANCH  37  38
ATOM     38  C   UNL     1       6.384   6.782   8.873  1.00  0.00     0.031 A 
ATOM     39  C   UNL     1       7.862   6.861   8.743  1.00  0.00     0.074 A 
ATOM     40  C   UNL     1       5.595   7.868   8.714  1.00  0.00     0.049 A 
ATOM     41  N   UNL     1       8.689   7.355   9.603  1.00  0.00    -0.248 NA
ATOM     42  C   UNL     1       8.515   6.182   7.611  1.00  0.00     0.031 C 
ATOM     43  C   UNL     1       4.141   7.933   8.532  1.00  0.00     0.029 A 
ATOM     44  N   UNL     1       5.961   9.171   8.581  1.00  0.00    -0.354 N 
ATOM     45  C   UNL     1       9.951   7.237   9.035  1.00  0.00     0.074 A 
ATOM     46  C   UNL     1       9.806   6.357   7.904  1.00  0.00     0.031 C 
ATOM     47  C   UNL     1       3.794   9.153   8.067  1.00  0.00     0.029 A 
ATOM     48  C   UNL     1       4.966  10.006   8.083  1.00  0.00     0.049 A 
ATOM     49  H   UNL     1       6.859   9.498   8.819  1.00  0.00     0.167 HD
ATOM     50  C   UNL     1      10.952   8.084   9.401  1.00  0.00     0.037 A 
ATOM     51  C   UNL     1       5.115  11.294   7.684  1.00  0.00     0.037 A 
ATOM     52  C   UNL     1      10.655   8.723  10.661  1.00  0.00     0.049 A 
ATOM     53  C   UNL     1       6.353  11.807   8.329  1.00  0.00     0.074 A 
ATOM     54  C   UNL     1      10.348   8.251  11.925  1.00  0.00     0.029 A 
ATOM     55  N   UNL     1      10.226  10.029  10.648  1.00  0.00    -0.354 N 
ATOM     56  N   UNL     1       6.465  11.998   9.616  1.00  0.00    -0.248 NA
ATOM     57  C   UNL     1       7.606  11.624   7.611  1.00  0.00     0.031 C 
ATOM     58  C   UNL     1       9.296   9.097  12.385  1.00  0.00     0.029 A 
ATOM     59  C   UNL     1       9.096  10.089  11.426  1.00  0.00     0.049 A 
ATOM     60  H   UNL     1      10.649  10.780  10.170  1.00  0.00     0.167 HD
ATOM     61  C   UNL     1       7.725  11.512   9.931  1.00  0.00     0.074 A 
ATOM     62  C   UNL     1       8.409  11.360   8.646  1.00  0.00     0.031 C 
ATOM     63  C   UNL     1       7.997  10.987  11.162  1.00  0.00     0.037 A 
BRANCH  50  64
ATOM     64  C   UNL     1      11.988   8.622   8.447  1.00  0.00     0.064 A 
ATOM     65  C   UNL     1      13.052   9.393   8.954  1.00  0.00     0.173 A 
ATOM     66  C   UNL     1      11.812   8.675   7.046  1.00  0.00     0.173 A 
ATOM     67  F   UNL     1      13.296   9.435  10.273  1.00  0.00    -0.203 F 
ATOM     68  C   UNL     1      13.823  10.218   8.131  1.00  0.00     0.198 A 
ATOM     69  C   UNL     1      12.619   9.456   6.222  1.00  0.00     0.198 A 
ATOM     70  F   UNL     1      10.788   8.074   6.430  1.00  0.00    -0.203 F 
ATOM     71  F   UNL     1      14.734  11.035   8.675  1.00  0.00    -0.200 F 
ATOM     72  C   UNL     1      13.601  10.253   6.766  1.00  0.00     0.200 A 
ATOM     73  F   UNL     1      12.372   9.492   4.905  1.00  0.00    -0.200 F 
ATOM     74  F   UNL     1      14.294  11.090   5.984  1.00  0.00    -0.200 F 
ENDBRANCH  50  64
BRANCH  51  75
ATOM     75  C   UNL     1       4.448  11.992   6.555  1.00  0.00     0.064 A 
ATOM     76  C   UNL     1       4.555  13.385   6.399  1.00  0.00     0.173 A 
ATOM     77  C   UNL     1       3.928  11.284   5.453  1.00  0.00     0.173 A 
ATOM     78  F   UNL     1       5.080  14.135   7.379  1.00  0.00    -0.203 F 
ATOM     79  C   UNL     1       4.196  14.024   5.205  1.00  0.00     0.198 A 
ATOM     80  C   UNL     1       3.562  11.922   4.266  1.00  0.00     0.198 A 
ATOM     81  F   UNL     1       3.852   9.946   5.466  1.00  0.00    -0.203 F 
ATOM     82  F   UNL     1       4.377  15.345   5.073  1.00  0.00    -0.200 F 
ATOM     83  C   UNL     1       3.710  13.290   4.136  1.00  0.00     0.200 A 
ATOM     84  F   UNL     1       3.128  11.194   3.227  1.00  0.00    -0.200 F 
ATOM     85  F   UNL     1       3.427  13.890   2.972  1.00  0.00    -0.200 F 
ENDBRANCH  51  75
BRANCH  63  86
ATOM     86  C   UNL     1       6.980  11.158  12.259  1.00  0.00     0.064 A 
ATOM     87  C   UNL     1       5.661  10.672  12.204  1.00  0.00     0.173 A 
ATOM     88  C   UNL     1       7.411  11.698  13.479  1.00  0.00     0.173 A 
ATOM     89  F   UNL     1       5.198  10.045  11.117  1.00  0.00    -0.203 F 
ATOM     90  C   UNL     1       4.806  10.768  13.302  1.00  0.00     0.198 A 
ATOM     91  C   UNL     1       6.569  11.755  14.586  1.00  0.00     0.198 A 
ATOM     92  F   UNL     1       8.676  12.127  13.613  1.00  0.00    -0.203 F 
ATOM     93  F   UNL     1       3.549  10.307  13.218  1.00  0.00    -0.200 F 
ATOM     94  C   UNL     1       5.264  11.302  14.495  1.00  0.00     0.200 A 
ATOM     95  F   UNL     1       7.035  12.225  15.751  1.00  0.00    -0.200 F 
ATOM     96  F   UNL     1       4.457  11.355  15.563  1.00  0.00    -0.200 F 
ENDBRANCH  63  86
ENDBRANCH  37  38
ENDBRANCH  29  32
ENDBRANCH  27  28
ENDBRANCH  26  27
ENDBRANCH  25  26
ENDBRANCH   3  25
TORSDOF 16
