REMARK SMILES CC(=O)N[C@@H](CCc1nc2ccccc2[nH]1)C(=O)NCCCNC(=O)c1ccc(-c2c3nc(c(-c4c(F)c(F)c(F)c(F)c4F)c4ccc([nH]4)c(-c4c(F)c(F)c(F)c(F)c4F)c4nc(c(-c5c(F)c(F)c(F)c(F)c5F)c5ccc2[nH]5)C=C4)C=C3)cc1
REMARK SMILES IDX 20 1 19 2 17 3 18 4 5 6 4 7 1 8 2 9 3 10 6 12 7 13 8 14 9 15
REMARK SMILES IDX 16 16 10 17 15 18 11 20 14 21 12 22 13 23 21 24 22 25 23 26
REMARK SMILES IDX 24 27 25 29 26 30 27 31 88 32 28 33 87 34 29 35 30 36 31 37
REMARK SMILES IDX 81 38 32 39 86 40 80 41 82 42 33 43 85 44 79 45 78 46 34 48
REMARK SMILES IDX 66 49 46 50 65 51 47 52 50 53 64 54 83 55 48 56 49 57 63 59
REMARK SMILES IDX 84 60 51 61 35 62 36 63 44 64 37 65 38 66 42 67 45 68 39 69
REMARK SMILES IDX 40 70 43 71 41 72 67 73 68 74 76 75 69 76 70 77 74 78 77 79
REMARK SMILES IDX 71 80 72 81 75 82 73 83 52 84 53 85 61 86 54 87 55 88 59 89
REMARK SMILES IDX 62 90 56 91 57 92 60 93 58 94
REMARK H PARENT 19 5 4 11 16 19 23 28 82 47 50 58
REMARK Flexibility Score: inf
ROOT
ATOM      1  C   UNL     1      -0.079  -0.598   4.928  1.00  0.00     0.117 C 
ENDROOT
BRANCH   1   2
ATOM      2  N   UNL     1      -0.134  -1.796   4.117  1.00  0.00    -0.354 N 
ATOM      3  C   UNL     1       0.648  -2.236   3.088  1.00  0.00     0.242 C 
ATOM      4  O   UNL     1       0.363  -3.342   2.618  1.00  0.00    -0.273 OA
ATOM      5  H   UNL     1      -0.870  -2.407   4.352  1.00  0.00     0.163 HD
BRANCH   3   6
ATOM      6  C   UNL     1       1.877  -1.457   2.553  1.00  0.00     0.171 C 
BRANCH   6   7
ATOM      7  N   UNL     1       1.601  -0.033   2.352  1.00  0.00    -0.345 N 
ATOM      8  C   UNL     1       0.928  -0.253  -0.018  1.00  0.00     0.114 C 
ATOM      9  C   UNL     1       1.047   0.552   1.249  1.00  0.00     0.217 C 
ATOM     10  O   UNL     1       0.689   1.727   1.314  1.00  0.00    -0.275 OA
ATOM     11  H   UNL     1       1.840   0.569   3.093  1.00  0.00     0.164 HD
ENDBRANCH   6   7
BRANCH   6  12
ATOM     12  C   UNL     1       3.231  -1.677   3.256  1.00  0.00     0.043 C 
BRANCH  12  13
ATOM     13  C   UNL     1       3.282  -1.700   4.788  1.00  0.00     0.078 C 
BRANCH  13  14
ATOM     14  C   UNL     1       2.732  -2.964   5.357  1.00  0.00     0.107 A 
ATOM     15  N   UNL     1       2.724  -4.140   4.766  1.00  0.00    -0.233 NA
ATOM     16  N   UNL     1       2.123  -3.040   6.586  1.00  0.00    -0.342 N 
ATOM     17  C   UNL     1       1.933  -4.943   5.546  1.00  0.00     0.089 A 
ATOM     18  C   UNL     1       1.499  -4.260   6.675  1.00  0.00     0.065 A 
ATOM     19  H   UNL     1       2.131  -2.343   7.281  1.00  0.00     0.168 HD
ATOM     20  C   UNL     1       1.520  -6.266   5.339  1.00  0.00     0.030 A 
ATOM     21  C   UNL     1       0.625  -4.814   7.612  1.00  0.00     0.028 A 
ATOM     22  C   UNL     1       0.635  -6.843   6.258  1.00  0.00     0.002 A 
ATOM     23  C   UNL     1       0.187  -6.122   7.367  1.00  0.00     0.002 A 
ENDBRANCH  13  14
ENDBRANCH  12  13
ENDBRANCH   6  12
ENDBRANCH   3   6
ENDBRANCH   1   2
BRANCH   1  24
ATOM     24  C   UNL     1      -1.396  -0.245   5.603  1.00  0.00     0.042 C 
BRANCH  24  25
ATOM     25  C   UNL     1      -1.942  -1.278   6.579  1.00  0.00     0.118 C 
BRANCH  25  26
ATOM     26  N   UNL     1      -1.041  -1.610   7.674  1.00  0.00    -0.352 N 
ATOM     27  C   UNL     1      -1.290  -1.773   9.020  1.00  0.00     0.251 C 
ATOM     28  H   UNL     1      -0.102  -1.739   7.410  1.00  0.00     0.163 HD
ATOM     29  O   UNL     1      -0.370  -2.028   9.782  1.00  0.00    -0.269 OA
BRANCH  27  30
ATOM     30  C   UNL     1      -2.662  -1.570   9.535  1.00  0.00     0.039 A 
ATOM     31  C   UNL     1      -2.843  -0.753  10.654  1.00  0.00     0.014 A 
ATOM     32  C   UNL     1      -3.763  -2.082   8.849  1.00  0.00     0.014 A 
ATOM     33  C   UNL     1      -4.127  -0.319  10.982  1.00  0.00     0.010 A 
ATOM     34  C   UNL     1      -5.024  -1.565   9.108  1.00  0.00     0.010 A 
ATOM     35  C   UNL     1      -5.213  -0.651  10.155  1.00  0.00    -0.014 A 
BRANCH  35  36
ATOM     36  C   UNL     1      -6.531   0.011  10.315  1.00  0.00     0.031 A 
ATOM     37  C   UNL     1      -7.758  -0.802  10.604  1.00  0.00     0.074 A 
ATOM     38  C   UNL     1      -6.629   1.337  10.085  1.00  0.00     0.049 A 
ATOM     39  N   UNL     1      -9.003  -0.413  10.698  1.00  0.00    -0.248 NA
ATOM     40  C   UNL     1      -7.566  -2.252  10.768  1.00  0.00     0.031 C 
ATOM     41  C   UNL     1      -5.521   2.215   9.699  1.00  0.00     0.029 A 
ATOM     42  N   UNL     1      -7.713   2.178  10.130  1.00  0.00    -0.354 N 
ATOM     43  C   UNL     1      -9.742  -1.569  10.908  1.00  0.00     0.074 A 
ATOM     44  C   UNL     1      -8.816  -2.679  10.870  1.00  0.00     0.031 C 
ATOM     45  C   UNL     1      -5.974   3.473   9.579  1.00  0.00     0.029 A 
ATOM     46  C   UNL     1      -7.407   3.487   9.844  1.00  0.00     0.049 A 
ATOM     47  H   UNL     1      -8.623   1.872  10.347  1.00  0.00     0.167 HD
ATOM     48  C   UNL     1     -11.071  -1.689  11.138  1.00  0.00     0.037 A 
ATOM     49  C   UNL     1      -8.197   4.577   9.805  1.00  0.00     0.037 A 
ATOM     50  C   UNL     1     -11.978  -0.575  11.213  1.00  0.00     0.049 A 
ATOM     51  C   UNL     1      -9.658   4.425  10.123  1.00  0.00     0.074 A 
ATOM     52  C   UNL     1     -13.326  -0.577  11.521  1.00  0.00     0.029 A 
ATOM     53  N   UNL     1     -11.621   0.746  10.980  1.00  0.00    -0.354 N 
ATOM     54  N   UNL     1     -10.330   3.337  10.412  1.00  0.00    -0.248 NA
ATOM     55  C   UNL     1     -10.468   5.650  10.120  1.00  0.00     0.031 C 
ATOM     56  C   UNL     1     -13.793   0.740  11.444  1.00  0.00     0.029 A 
ATOM     57  C   UNL     1     -12.727   1.567  11.125  1.00  0.00     0.049 A 
ATOM     58  H   UNL     1     -10.716   1.053  10.745  1.00  0.00     0.167 HD
ATOM     59  C   UNL     1     -11.635   3.746  10.646  1.00  0.00     0.074 A 
ATOM     60  C   UNL     1     -11.656   5.186  10.482  1.00  0.00     0.031 C 
ATOM     61  C   UNL     1     -12.719   2.998  10.965  1.00  0.00     0.037 A 
BRANCH  48  62
ATOM     62  C   UNL     1     -11.612  -3.074  11.339  1.00  0.00     0.064 A 
ATOM     63  C   UNL     1     -11.313  -3.818  12.491  1.00  0.00     0.173 A 
ATOM     64  C   UNL     1     -12.445  -3.662  10.375  1.00  0.00     0.173 A 
ATOM     65  F   UNL     1     -10.508  -3.306  13.434  1.00  0.00    -0.203 F 
ATOM     66  C   UNL     1     -11.797  -5.113  12.653  1.00  0.00     0.198 A 
ATOM     67  C   UNL     1     -12.951  -4.947  10.555  1.00  0.00     0.198 A 
ATOM     68  F   UNL     1     -12.764  -2.993   9.258  1.00  0.00    -0.203 F 
ATOM     69  F   UNL     1     -11.450  -5.825  13.734  1.00  0.00    -0.200 F 
ATOM     70  C   UNL     1     -12.620  -5.674  11.688  1.00  0.00     0.200 A 
ATOM     71  F   UNL     1     -13.753  -5.485   9.626  1.00  0.00    -0.200 F 
ATOM     72  F   UNL     1     -13.084  -6.921  11.846  1.00  0.00    -0.200 F 
ENDBRANCH  48  62
BRANCH  49  73
ATOM     73  C   UNL     1      -7.612   5.909   9.502  1.00  0.00     0.064 A 
ATOM     74  C   UNL     1      -7.479   6.878  10.506  1.00  0.00     0.173 A 
ATOM     75  C   UNL     1      -7.166   6.238   8.214  1.00  0.00     0.173 A 
ATOM     76  F   UNL     1      -7.906   6.615  11.750  1.00  0.00    -0.203 F 
ATOM     77  C   UNL     1      -6.940   8.133  10.229  1.00  0.00     0.198 A 
ATOM     78  C   UNL     1      -6.605   7.485   7.944  1.00  0.00     0.198 A 
ATOM     79  F   UNL     1      -7.262   5.342   7.221  1.00  0.00    -0.203 F 
ATOM     80  F   UNL     1      -6.860   9.053  11.200  1.00  0.00    -0.200 F 
ATOM     81  C   UNL     1      -6.498   8.434   8.950  1.00  0.00     0.200 A 
ATOM     82  F   UNL     1      -6.165   7.767   6.710  1.00  0.00    -0.200 F 
ATOM     83  F   UNL     1      -5.975   9.638   8.686  1.00  0.00    -0.200 F 
ENDBRANCH  49  73
BRANCH  61  84
ATOM     84  C   UNL     1     -14.010   3.726  11.182  1.00  0.00     0.064 A 
ATOM     85  C   UNL     1     -14.744   4.250  10.108  1.00  0.00     0.173 A 
ATOM     86  C   UNL     1     -14.539   3.862  12.473  1.00  0.00     0.173 A 
ATOM     87  F   UNL     1     -14.269   4.158   8.857  1.00  0.00    -0.203 F 
ATOM     88  C   UNL     1     -15.956   4.900  10.322  1.00  0.00     0.198 A 
ATOM     89  C   UNL     1     -15.763   4.490  12.681  1.00  0.00     0.198 A 
ATOM     90  F   UNL     1     -13.874   3.373  13.531  1.00  0.00    -0.203 F 
ATOM     91  F   UNL     1     -16.623   5.427   9.287  1.00  0.00    -0.200 F 
ATOM     92  C   UNL     1     -16.468   5.013  11.607  1.00  0.00     0.200 A 
ATOM     93  F   UNL     1     -16.261   4.590  13.921  1.00  0.00    -0.200 F 
ATOM     94  F   UNL     1     -17.638   5.632  11.810  1.00  0.00    -0.200 F 
ENDBRANCH  61  84
ENDBRANCH  35  36
ENDBRANCH  27  30
ENDBRANCH  25  26
ENDBRANCH  24  25
ENDBRANCH   1  24
TORSDOF 14
