REMARK SMILES O=C(NCCCNC(=O)c1ccc(-c2c3nc(c(-c4c(F)c(F)c(F)c(F)c4F)c4ccc([nH]4)c(-c4c(F)c(F)c(F)c(F)c4F)c4nc(c(-c5c(F)c(F)c(F)c(F)c5F)c5ccc2[nH]5)C=C4)C=C3)cc1)c1ccc(Cn2cc(Cl)c(=O)[nH]c2=O)cc1
REMARK SMILES IDX 5 1 4 2 3 3 1 4 2 5 73 7 74 8 88 9 75 10 87 11 76 12 77 13
REMARK SMILES IDX 78 14 79 15 85 16 80 17 84 18 86 19 81 20 82 21 83 23 6 24
REMARK SMILES IDX 7 25 8 26 9 28 10 29 11 30 72 31 12 32 71 33 13 34 14 35
REMARK SMILES IDX 15 36 65 37 16 38 70 39 64 40 66 41 17 42 69 43 63 44 62 45
REMARK SMILES IDX 18 47 50 48 30 49 49 50 31 51 34 52 48 53 67 54 32 55 33 56
REMARK SMILES IDX 47 58 68 59 35 60 19 61 20 62 28 63 21 64 22 65 26 66 29 67
REMARK SMILES IDX 23 68 24 69 27 70 25 71 51 72 52 73 60 74 53 75 54 76 58 77
REMARK SMILES IDX 61 78 55 79 56 80 59 81 57 82 36 83 37 84 45 85 38 86 39 87
REMARK SMILES IDX 43 88 46 89 40 90 41 91 44 92 42 93
REMARK H PARENT 3 6 84 22 7 27 66 46 34 57
REMARK Flexibility Score: inf
ROOT
ATOM      1  C   UNL     1       4.873   2.218   0.022  1.00  0.00     0.042 C 
ENDROOT
BRANCH   1   2
ATOM      2  C   UNL     1       4.355   0.963   0.710  1.00  0.00     0.118 C 
BRANCH   2   3
ATOM      3  N   UNL     1       2.912   0.816   0.573  1.00  0.00    -0.352 N 
ATOM      4  O   UNL     1       0.998  -0.017  -0.295  1.00  0.00    -0.269 OA
ATOM      5  C   UNL     1       2.205  -0.136  -0.120  1.00  0.00     0.251 C 
ATOM      6  H   UNL     1       2.370   1.492   1.040  1.00  0.00     0.163 HD
BRANCH   5   7
ATOM      7  C   UNL     1       2.922  -1.306  -0.660  1.00  0.00     0.039 A 
ATOM      8  C   UNL     1       3.650  -2.132   0.200  1.00  0.00     0.014 A 
ATOM      9  C   UNL     1       2.881  -1.565  -2.030  1.00  0.00     0.014 A 
ATOM     10  C   UNL     1       4.412  -3.171  -0.327  1.00  0.00     0.006 A 
ATOM     11  C   UNL     1       3.655  -2.602  -2.557  1.00  0.00     0.006 A 
ATOM     12  C   UNL     1       4.448  -3.397  -1.713  1.00  0.00    -0.028 A 
BRANCH  12  13
ATOM     13  C   UNL     1       5.365  -4.457  -2.288  1.00  0.00     0.162 C 
BRANCH  13  14
ATOM     14  N   UNL     1       6.705  -3.942  -2.601  1.00  0.00    -0.295 N 
ATOM     15  C   UNL     1       7.555  -3.562  -1.574  1.00  0.00     0.117 A 
ATOM     16  C   UNL     1       7.099  -3.863  -3.933  1.00  0.00     0.328 A 
ATOM     17  C   UNL     1       8.781  -3.081  -1.793  1.00  0.00     0.122 A 
ATOM     18  N   UNL     1       8.371  -3.391  -4.146  1.00  0.00    -0.273 N 
ATOM     19  O   UNL     1       6.396  -4.188  -4.886  1.00  0.00    -0.248 OA
ATOM     20  Cl  UNL     1       9.809  -2.590  -0.510  1.00  0.00    -0.077 Cl
ATOM     21  C   UNL     1       9.261  -2.975  -3.191  1.00  0.00     0.272 A 
ATOM     22  H   UNL     1       8.674  -3.347  -5.081  1.00  0.00     0.175 HD
ATOM     23  O   UNL     1      10.371  -2.549  -3.489  1.00  0.00    -0.268 OA
ENDBRANCH  13  14
ENDBRANCH  12  13
ENDBRANCH   5   7
ENDBRANCH   2   3
ENDBRANCH   1   2
BRANCH   1  24
ATOM     24  C   UNL     1       4.386   3.515   0.653  1.00  0.00     0.118 C 
BRANCH  24  25
ATOM     25  N   UNL     1       4.904   3.723   2.000  1.00  0.00    -0.352 N 
ATOM     26  C   UNL     1       5.668   4.752   2.499  1.00  0.00     0.251 C 
ATOM     27  H   UNL     1       4.672   3.021   2.651  1.00  0.00     0.163 HD
ATOM     28  O   UNL     1       6.139   4.681   3.629  1.00  0.00    -0.269 OA
BRANCH  26  29
ATOM     29  C   UNL     1       5.946   5.933   1.657  1.00  0.00     0.039 A 
ATOM     30  C   UNL     1       7.253   6.422   1.576  1.00  0.00     0.014 A 
ATOM     31  C   UNL     1       4.923   6.538   0.925  1.00  0.00     0.014 A 
ATOM     32  C   UNL     1       7.551   7.457   0.686  1.00  0.00     0.010 A 
ATOM     33  C   UNL     1       5.235   7.507  -0.020  1.00  0.00     0.010 A 
ATOM     34  C   UNL     1       6.553   7.971  -0.155  1.00  0.00    -0.014 A 
BRANCH  34  35
ATOM     35  C   UNL     1       6.840   8.993  -1.194  1.00  0.00     0.031 A 
ATOM     36  C   UNL     1       6.155  10.329  -1.128  1.00  0.00     0.074 A 
ATOM     37  C   UNL     1       7.616   8.682  -2.249  1.00  0.00     0.049 A 
ATOM     38  N   UNL     1       6.105  11.282  -2.023  1.00  0.00    -0.248 NA
ATOM     39  C   UNL     1       5.394  10.612   0.099  1.00  0.00     0.031 C 
ATOM     40  C   UNL     1       8.320   7.413  -2.442  1.00  0.00     0.029 A 
ATOM     41  N   UNL     1       7.924   9.406  -3.374  1.00  0.00    -0.354 N 
ATOM     42  C   UNL     1       5.286  12.263  -1.480  1.00  0.00     0.074 A 
ATOM     43  C   UNL     1       4.822  11.768  -0.202  1.00  0.00     0.031 C 
ATOM     44  C   UNL     1       8.989   7.454  -3.605  1.00  0.00     0.029 A 
ATOM     45  C   UNL     1       8.719   8.727  -4.265  1.00  0.00     0.049 A 
ATOM     46  H   UNL     1       7.605  10.325  -3.528  1.00  0.00     0.167 HD
ATOM     47  C   UNL     1       4.965  13.475  -1.993  1.00  0.00     0.037 A 
ATOM     48  C   UNL     1       9.163   9.085  -5.485  1.00  0.00     0.037 A 
ATOM     49  C   UNL     1       5.449  13.972  -3.253  1.00  0.00     0.049 A 
ATOM     50  C   UNL     1       8.767  10.423  -6.048  1.00  0.00     0.074 A 
ATOM     51  C   UNL     1       5.216  15.200  -3.845  1.00  0.00     0.029 A 
ATOM     52  N   UNL     1       6.269  13.260  -4.118  1.00  0.00    -0.354 N 
ATOM     53  N   UNL     1       8.020  11.358  -5.515  1.00  0.00    -0.248 NA
ATOM     54  C   UNL     1       9.276  10.754  -7.387  1.00  0.00     0.031 C 
ATOM     55  C   UNL     1       5.863  15.218  -5.085  1.00  0.00     0.029 A 
ATOM     56  C   UNL     1       6.540  14.019  -5.245  1.00  0.00     0.049 A 
ATOM     57  H   UNL     1       6.608  12.350  -3.954  1.00  0.00     0.167 HD
ATOM     58  C   UNL     1       8.000  12.401  -6.431  1.00  0.00     0.074 A 
ATOM     59  C   UNL     1       8.811  11.983  -7.556  1.00  0.00     0.031 C 
ATOM     60  C   UNL     1       7.370  13.598  -6.345  1.00  0.00     0.037 A 
BRANCH  47  61
ATOM     61  C   UNL     1       4.041  14.340  -1.185  1.00  0.00     0.064 A 
ATOM     62  C   UNL     1       4.442  14.909   0.033  1.00  0.00     0.173 A 
ATOM     63  C   UNL     1       2.740  14.609  -1.636  1.00  0.00     0.173 A 
ATOM     64  F   UNL     1       5.671  14.672   0.516  1.00  0.00    -0.203 F 
ATOM     65  C   UNL     1       3.563  15.679   0.790  1.00  0.00     0.198 A 
ATOM     66  C   UNL     1       1.874  15.408  -0.894  1.00  0.00     0.198 A 
ATOM     67  F   UNL     1       2.305  14.096  -2.797  1.00  0.00    -0.203 F 
ATOM     68  F   UNL     1       3.949  16.157   1.981  1.00  0.00    -0.200 F 
ATOM     69  C   UNL     1       2.282  15.932   0.324  1.00  0.00     0.200 A 
ATOM     70  F   UNL     1       0.641  15.663  -1.352  1.00  0.00    -0.200 F 
ATOM     71  F   UNL     1       1.437  16.674   1.053  1.00  0.00    -0.200 F 
ENDBRANCH  47  61
BRANCH  48  72
ATOM     72  C   UNL     1      10.055   8.173  -6.247  1.00  0.00     0.064 A 
ATOM     73  C   UNL     1      11.407   8.492  -6.433  1.00  0.00     0.173 A 
ATOM     74  C   UNL     1       9.585   6.972  -6.797  1.00  0.00     0.173 A 
ATOM     75  F   UNL     1      11.896   9.641  -5.944  1.00  0.00    -0.203 F 
ATOM     76  C   UNL     1      12.253   7.652  -7.154  1.00  0.00     0.198 A 
ATOM     77  C   UNL     1      10.438   6.120  -7.496  1.00  0.00     0.198 A 
ATOM     78  F   UNL     1       8.301   6.619  -6.644  1.00  0.00    -0.203 F 
ATOM     79  F   UNL     1      13.531   8.002  -7.351  1.00  0.00    -0.200 F 
ATOM     80  C   UNL     1      11.769   6.464  -7.680  1.00  0.00     0.200 A 
ATOM     81  F   UNL     1       9.971   4.966  -7.992  1.00  0.00    -0.200 F 
ATOM     82  F   UNL     1      12.584   5.654  -8.370  1.00  0.00    -0.200 F 
ENDBRANCH  48  72
BRANCH  60  83
ATOM     83  C   UNL     1       7.580  14.572  -7.466  1.00  0.00     0.064 A 
ATOM     84  C   UNL     1       6.976  14.398  -8.720  1.00  0.00     0.173 A 
ATOM     85  C   UNL     1       8.352  15.725  -7.261  1.00  0.00     0.173 A 
ATOM     86  F   UNL     1       6.242  13.304  -8.970  1.00  0.00    -0.203 F 
ATOM     87  C   UNL     1       7.152  15.337  -9.733  1.00  0.00     0.198 A 
ATOM     88  C   UNL     1       8.503  16.675  -8.267  1.00  0.00     0.198 A 
ATOM     89  F   UNL     1       8.946  15.940  -6.078  1.00  0.00    -0.203 F 
ATOM     90  F   UNL     1       6.598  15.133 -10.936  1.00  0.00    -0.200 F 
ATOM     91  C   UNL     1       7.907  16.478  -9.504  1.00  0.00     0.200 A 
ATOM     92  F   UNL     1       9.222  17.783  -8.039  1.00  0.00    -0.200 F 
ATOM     93  F   UNL     1       8.065  17.386 -10.476  1.00  0.00    -0.200 F 
ENDBRANCH  60  83
ENDBRANCH  34  35
ENDBRANCH  26  29
ENDBRANCH  24  25
ENDBRANCH   1  24
TORSDOF 12
