REMARK SMILES C[N@H+](C[C@H]1CCC[N@H+]1C)C[C@]([NH3+])(C(=O)NCCCNC(=O)c1ccc(-c2c3nc(c(-c4c(F)c(F)c(F)c(F)c4F)c4ccc([nH]4)c(-c4c(F)c(F)c(F)c(F)c4F)c4nc(c(-c5c(F)c(F)c(F)c(F)c5F)c5ccc2[nH]5)C=C4)C=C3)cc1)c1ccccc1
REMARK SMILES IDX 16 1 15 2 13 3 14 4 11 6 10 7 2 8 1 9 3 11 4 12 5 13 8 14
REMARK SMILES IDX 6 15 7 16 9 17 85 19 86 20 90 21 87 22 89 23 88 24 12 25
REMARK SMILES IDX 17 29 18 30 19 31 20 32 21 34 22 35 23 36 84 37 24 38 83 39
REMARK SMILES IDX 25 40 26 41 27 42 77 43 28 44 82 45 76 46 78 47 29 48 81 49
REMARK SMILES IDX 75 50 74 51 30 53 62 54 42 55 61 56 43 57 46 58 60 59 79 60
REMARK SMILES IDX 44 61 45 62 59 64 80 65 47 66 31 67 32 68 40 69 33 70 34 71
REMARK SMILES IDX 38 72 41 73 35 74 36 75 39 76 37 77 63 78 64 79 72 80 65 81
REMARK SMILES IDX 66 82 70 83 73 84 67 85 68 86 71 87 69 88 48 89 49 90 57 91
REMARK SMILES IDX 50 92 51 93 55 94 58 95 52 96 53 97 56 98 54 99
REMARK H PARENT 15 5 2 10 8 18 12 26 12 27 12 28 19 33 78 52 46 63
REMARK Flexibility Score: inf
ROOT
ATOM      1  C   UNL     1       3.304  -3.720   0.363  1.00  0.00     0.118 C 
ENDROOT
BRANCH   1   2
ATOM      2  N   UNL     1       2.252  -4.725   0.399  1.00  0.00    -0.350 N 
ATOM      3  C   UNL     1       0.879  -4.661   0.280  1.00  0.00     0.292 C 
ATOM      4  O   UNL     1       0.352  -5.758   0.079  1.00  0.00    -0.267 OA
ATOM      5  H   UNL     1       2.590  -5.640   0.537  1.00  0.00     0.163 HD
BRANCH   3   6
ATOM      6  C   UNL     1       0.077  -3.298   0.507  1.00  0.00     0.248 C 
BRANCH   6   7
ATOM      7  C   UNL     1       0.421  -2.292  -0.675  1.00  0.00     0.347 C 
BRANCH   7   8
ATOM      8  N   UNL     1       0.235  -0.840  -0.437  1.00  0.00    -0.326 N 
ATOM      9  C   UNL     1      -0.567  -0.174  -1.454  1.00  0.00     0.333 C 
ATOM     10  H   UNL     1      -0.339  -0.868   0.406  1.00  0.00     0.348 HD
BRANCH   8  11
ATOM     11  C   UNL     1       1.347  -0.049   0.112  1.00  0.00     0.327 C 
BRANCH  11  12
ATOM     12  C   UNL     1       1.194   0.243   1.650  1.00  0.00     0.239 C 
ATOM     13  C   UNL     1       2.272  -0.487   2.470  1.00  0.00     0.077 C 
ATOM     14  N   UNL     1       1.369   1.620   2.144  1.00  0.00    -0.330 N 
ATOM     15  C   UNL     1       3.218   0.571   3.019  1.00  0.00     0.068 C 
ATOM     16  C   UNL     1       2.788   1.854   2.343  1.00  0.00     0.262 C 
ATOM     17  C   UNL     1       0.682   2.667   1.421  1.00  0.00     0.333 C 
ATOM     18  H   UNL     1       0.879   1.684   3.037  1.00  0.00     0.348 HD
ENDBRANCH  11  12
ENDBRANCH   8  11
ENDBRANCH   7   8
ENDBRANCH   6   7
BRANCH   6  19
ATOM     19  C   UNL     1      -1.480  -3.393   0.587  1.00  0.00     0.028 A 
ATOM     20  C   UNL     1      -2.197  -2.239   0.991  1.00  0.00     0.011 A 
ATOM     21  C   UNL     1      -2.248  -4.527   0.290  1.00  0.00     0.011 A 
ATOM     22  C   UNL     1      -3.589  -2.208   1.076  1.00  0.00     0.001 A 
ATOM     23  C   UNL     1      -3.648  -4.508   0.401  1.00  0.00     0.001 A 
ATOM     24  C   UNL     1      -4.317  -3.350   0.786  1.00  0.00     0.000 A 
ENDBRANCH   6  19
BRANCH   6  25
ATOM     25  N   UNL     1       0.502  -2.852   1.859  1.00  0.00    -0.336 N 
ATOM     26  H   UNL     1       0.240  -3.557   2.548  1.00  0.00     0.345 HD
ATOM     27  H   UNL     1       0.044  -1.969   2.086  1.00  0.00     0.345 HD
ATOM     28  H   UNL     1       1.514  -2.723   1.872  1.00  0.00     0.345 HD
ENDBRANCH   6  25
ENDBRANCH   3   6
ENDBRANCH   1   2
BRANCH   1  29
ATOM     29  C   UNL     1       4.082  -3.559   1.663  1.00  0.00     0.042 C 
BRANCH  29  30
ATOM     30  C   UNL     1       4.925  -4.746   2.090  1.00  0.00     0.118 C 
BRANCH  30  31
ATOM     31  N   UNL     1       5.987  -5.062   1.149  1.00  0.00    -0.352 N 
ATOM     32  C   UNL     1       7.350  -5.060   1.290  1.00  0.00     0.251 C 
ATOM     33  H   UNL     1       5.672  -5.323   0.254  1.00  0.00     0.163 HD
ATOM     34  O   UNL     1       8.047  -5.226   0.284  1.00  0.00    -0.269 OA
BRANCH  32  35
ATOM     35  C   UNL     1       8.011  -4.843   2.599  1.00  0.00     0.039 A 
ATOM     36  C   UNL     1       9.237  -4.167   2.622  1.00  0.00     0.014 A 
ATOM     37  C   UNL     1       7.482  -5.335   3.794  1.00  0.00     0.014 A 
ATOM     38  C   UNL     1       9.894  -3.939   3.835  1.00  0.00     0.010 A 
ATOM     39  C   UNL     1       8.085  -5.021   5.012  1.00  0.00     0.010 A 
ATOM     40  C   UNL     1       9.306  -4.334   5.046  1.00  0.00    -0.014 A 
BRANCH  40  41
ATOM     41  C   UNL     1       9.964  -4.059   6.351  1.00  0.00     0.031 A 
ATOM     42  C   UNL     1      10.390  -5.195   7.242  1.00  0.00     0.074 A 
ATOM     43  C   UNL     1      10.130  -2.786   6.761  1.00  0.00     0.049 A 
ATOM     44  N   UNL     1      10.924  -5.158   8.438  1.00  0.00    -0.248 NA
ATOM     45  C   UNL     1      10.161  -6.557   6.733  1.00  0.00     0.031 C 
ATOM     46  C   UNL     1       9.721  -1.596   6.014  1.00  0.00     0.029 A 
ATOM     47  N   UNL     1      10.681  -2.280   7.913  1.00  0.00    -0.354 N 
ATOM     48  C   UNL     1      11.074  -6.483   8.828  1.00  0.00     0.074 A 
ATOM     49  C   UNL     1      10.525  -7.300   7.768  1.00  0.00     0.031 C 
ATOM     50  C   UNL     1      10.060  -0.500   6.711  1.00  0.00     0.029 A 
ATOM     51  C   UNL     1      10.672  -0.908   7.972  1.00  0.00     0.049 A 
ATOM     52  H   UNL     1      11.048  -2.847   8.629  1.00  0.00     0.167 HD
ATOM     53  C   UNL     1      11.641  -6.976   9.955  1.00  0.00     0.037 A 
ATOM     54  C   UNL     1      11.102  -0.072   8.936  1.00  0.00     0.037 A 
ATOM     55  C   UNL     1      12.214  -6.162  10.995  1.00  0.00     0.049 A 
ATOM     56  C   UNL     1      11.721  -0.646  10.183  1.00  0.00     0.074 A 
ATOM     57  C   UNL     1      12.870  -6.566  12.145  1.00  0.00     0.029 A 
ATOM     58  N   UNL     1      12.196  -4.775  11.012  1.00  0.00    -0.354 N 
ATOM     59  N   UNL     1      11.924  -1.899  10.507  1.00  0.00    -0.248 NA
ATOM     60  C   UNL     1      12.179   0.316  11.195  1.00  0.00     0.031 C 
ATOM     61  C   UNL     1      13.202  -5.425  12.883  1.00  0.00     0.029 A 
ATOM     62  C   UNL     1      12.806  -4.308  12.166  1.00  0.00     0.049 A 
ATOM     63  H   UNL     1      11.807  -4.206  10.309  1.00  0.00     0.167 HD
ATOM     64  C   UNL     1      12.559  -1.878  11.741  1.00  0.00     0.074 A 
ATOM     65  C   UNL     1      12.723  -0.485  12.101  1.00  0.00     0.031 C 
ATOM     66  C   UNL     1      12.971  -2.918  12.507  1.00  0.00     0.037 A 
BRANCH  53  67
ATOM     67  C   UNL     1      11.671  -8.469  10.123  1.00  0.00     0.064 A 
ATOM     68  C   UNL     1      12.475  -9.288   9.315  1.00  0.00     0.173 A 
ATOM     69  C   UNL     1      10.912  -9.088  11.129  1.00  0.00     0.173 A 
ATOM     70  F   UNL     1      13.213  -8.750   8.332  1.00  0.00    -0.203 F 
ATOM     71  C   UNL     1      12.491 -10.670   9.483  1.00  0.00     0.198 A 
ATOM     72  C   UNL     1      10.956 -10.467  11.316  1.00  0.00     0.198 A 
ATOM     73  F   UNL     1      10.131  -8.353  11.935  1.00  0.00    -0.203 F 
ATOM     74  F   UNL     1      13.224 -11.435   8.662  1.00  0.00    -0.200 F 
ATOM     75  C   UNL     1      11.738 -11.258  10.488  1.00  0.00     0.200 A 
ATOM     76  F   UNL     1      10.239 -11.031  12.297  1.00  0.00    -0.200 F 
ATOM     77  F   UNL     1      11.759 -12.587  10.653  1.00  0.00    -0.200 F 
ENDBRANCH  53  67
BRANCH  54  78
ATOM     78  C   UNL     1      10.990   1.399   8.751  1.00  0.00     0.064 A 
ATOM     79  C   UNL     1      12.135   2.191   8.581  1.00  0.00     0.173 A 
ATOM     80  C   UNL     1       9.745   2.044   8.749  1.00  0.00     0.173 A 
ATOM     81  F   UNL     1      13.350   1.622   8.597  1.00  0.00    -0.203 F 
ATOM     82  C   UNL     1      12.040   3.573   8.439  1.00  0.00     0.198 A 
ATOM     83  C   UNL     1       9.650   3.424   8.576  1.00  0.00     0.198 A 
ATOM     84  F   UNL     1       8.619   1.333   8.902  1.00  0.00    -0.203 F 
ATOM     85  F   UNL     1      13.153   4.311   8.328  1.00  0.00    -0.200 F 
ATOM     86  C   UNL     1      10.797   4.188   8.431  1.00  0.00     0.200 A 
ATOM     87  F   UNL     1       8.446   4.012   8.553  1.00  0.00    -0.200 F 
ATOM     88  F   UNL     1      10.707   5.518   8.291  1.00  0.00    -0.200 F 
ENDBRANCH  54  78
BRANCH  66  89
ATOM     89  C   UNL     1      13.677  -2.590  13.791  1.00  0.00     0.064 A 
ATOM     90  C   UNL     1      12.998  -2.043  14.890  1.00  0.00     0.173 A 
ATOM     91  C   UNL     1      15.047  -2.859  13.934  1.00  0.00     0.173 A 
ATOM     92  F   UNL     1      11.691  -1.753  14.800  1.00  0.00    -0.203 F 
ATOM     93  C   UNL     1      13.671  -1.749  16.073  1.00  0.00     0.198 A 
ATOM     94  C   UNL     1      15.710  -2.595  15.129  1.00  0.00     0.198 A 
ATOM     95  F   UNL     1      15.743  -3.389  12.916  1.00  0.00    -0.203 F 
ATOM     96  F   UNL     1      13.013  -1.176  17.091  1.00  0.00    -0.200 F 
ATOM     97  C   UNL     1      15.024  -2.032  16.194  1.00  0.00     0.200 A 
ATOM     98  F   UNL     1      17.013  -2.883  15.250  1.00  0.00    -0.200 F 
ATOM     99  F   UNL     1      15.668  -1.754  17.336  1.00  0.00    -0.200 F 
ENDBRANCH  66  89
ENDBRANCH  40  41
ENDBRANCH  32  35
ENDBRANCH  30  31
ENDBRANCH  29  30
ENDBRANCH   1  29
TORSDOF 16
