REMARK SMILES Cc1c(C#N)c2ccccc2n1CC(=O)N1CC[C@H](O)C[C@@H]1C(=O)NCCCNC(=O)c1ccc(-c2c3nc(c(-c4c(F)c(F)c(F)c(F)c4F)c4ccc([nH]4)c(-c4c(F)c(F)c(F)c(F)c4F)c4nc(c(-c5c(F)c(F)c(F)c(F)c5F)c5ccc2[nH]5)C=C4)C=C3)cc1
REMARK SMILES IDX 26 1 25 2 23 3 24 4 22 6 16 7 17 8 18 9 21 10 19 11 14 12
REMARK SMILES IDX 15 13 13 14 12 15 1 16 2 17 3 18 6 19 11 20 7 21 10 22 8 23
REMARK SMILES IDX 9 24 4 25 5 26 20 27 27 29 28 30 29 31 30 32 31 34 32 35
REMARK SMILES IDX 33 36 94 37 34 38 93 39 35 40 36 41 37 42 87 43 38 44 92 45
REMARK SMILES IDX 86 46 88 47 39 48 91 49 85 50 84 51 40 53 72 54 52 55 71 56
REMARK SMILES IDX 53 57 56 58 70 59 89 60 54 61 55 62 69 64 90 65 57 66 41 67
REMARK SMILES IDX 42 68 50 69 43 70 44 71 48 72 51 73 45 74 46 75 49 76 47 77
REMARK SMILES IDX 73 78 74 79 82 80 75 81 76 82 80 83 83 84 77 85 78 86 81 87
REMARK SMILES IDX 79 88 58 89 59 90 67 91 60 92 61 93 65 94 68 95 62 96 63 97
REMARK SMILES IDX 66 98 64 99
REMARK H PARENT 25 5 20 28 29 33 88 52 56 63
REMARK Flexibility Score: inf
ROOT
ATOM      1  C   UNL     1      -4.378   6.119   1.632  1.00  0.00     0.117 C 
ENDROOT
BRANCH   1   2
ATOM      2  N   UNL     1      -3.745   6.029   0.337  1.00  0.00    -0.354 N 
ATOM      3  C   UNL     1      -2.818   5.158  -0.134  1.00  0.00     0.242 C 
ATOM      4  O   UNL     1      -2.447   5.367  -1.296  1.00  0.00    -0.273 OA
ATOM      5  H   UNL     1      -4.033   6.712  -0.310  1.00  0.00     0.163 HD
BRANCH   3   6
ATOM      6  C   UNL     1      -2.206   4.015   0.734  1.00  0.00     0.177 C 
ATOM      7  N   UNL     1      -1.428   3.131  -0.175  1.00  0.00    -0.329 N 
ATOM      8  C   UNL     1      -2.251   2.349  -1.107  1.00  0.00     0.123 C 
ATOM      9  C   UNL     1      -3.269   1.490  -0.361  1.00  0.00     0.053 C 
ATOM     10  C   UNL     1      -3.150   3.121   1.542  1.00  0.00     0.067 C 
ATOM     11  C   UNL     1      -4.070   2.292   0.655  1.00  0.00     0.118 C 
BRANCH   7  12
ATOM     12  C   UNL     1      -0.048   3.118  -0.050  1.00  0.00     0.243 C 
ATOM     13  O   UNL     1       0.476   3.534   0.994  1.00  0.00    -0.273 OA
BRANCH  12  14
ATOM     14  C   UNL     1       0.881   2.771  -1.205  1.00  0.00     0.222 C 
BRANCH  14  15
ATOM     15  N   UNL     1       0.625   1.549  -1.956  1.00  0.00    -0.334 N 
ATOM     16  C   UNL     1       1.121  -0.059  -0.063  1.00  0.00     0.066 C 
ATOM     17  C   UNL     1       0.677   0.262  -1.452  1.00  0.00     0.034 A 
ATOM     18  C   UNL     1       0.211  -0.580  -2.451  1.00  0.00     0.080 A 
ATOM     19  C   UNL     1      -0.080   0.204  -3.603  1.00  0.00     0.018 A 
ATOM     20  C   UNL     1       0.227   1.530  -3.287  1.00  0.00     0.050 A 
ATOM     21  C   UNL     1      -0.606  -0.085  -4.882  1.00  0.00     0.012 A 
ATOM     22  C   UNL     1       0.033   2.574  -4.210  1.00  0.00     0.027 A 
ATOM     23  C   UNL     1      -0.810   0.950  -5.799  1.00  0.00     0.001 A 
ATOM     24  C   UNL     1      -0.491   2.261  -5.466  1.00  0.00     0.002 A 
BRANCH  18  25
ATOM     25  C   UNL     1       0.015  -1.988  -2.325  1.00  0.00     0.102 C 
ATOM     26  N   UNL     1      -0.169  -3.136  -2.211  1.00  0.00    -0.192 NA
ENDBRANCH  18  25
ENDBRANCH  14  15
ENDBRANCH  12  14
ENDBRANCH   7  12
BRANCH  11  27
ATOM     27  O   UNL     1      -5.041   3.128   0.034  1.00  0.00    -0.393 OA
ATOM     28  H   UNL     1      -4.594   3.781  -0.527  1.00  0.00     0.210 HD
ENDBRANCH  11  27
ENDBRANCH   3   6
ENDBRANCH   1   2
BRANCH   1  29
ATOM     29  C   UNL     1      -4.542   7.555   2.114  1.00  0.00     0.042 C 
BRANCH  29  30
ATOM     30  C   UNL     1      -5.347   8.468   1.194  1.00  0.00     0.118 C 
BRANCH  30  31
ATOM     31  N   UNL     1      -6.696   8.020   0.932  1.00  0.00    -0.352 N 
ATOM     32  C   UNL     1      -7.911   8.332   1.473  1.00  0.00     0.251 C 
ATOM     33  H   UNL     1      -6.751   7.350   0.213  1.00  0.00     0.163 HD
ATOM     34  O   UNL     1      -8.900   8.024   0.803  1.00  0.00    -0.269 OA
BRANCH  32  35
ATOM     35  C   UNL     1      -8.120   8.879   2.840  1.00  0.00     0.039 A 
ATOM     36  C   UNL     1      -7.117   9.198   3.753  1.00  0.00     0.014 A 
ATOM     37  C   UNL     1      -9.459   8.910   3.272  1.00  0.00     0.014 A 
ATOM     38  C   UNL     1      -7.424   9.305   5.104  1.00  0.00     0.010 A 
ATOM     39  C   UNL     1      -9.777   9.068   4.610  1.00  0.00     0.010 A 
ATOM     40  C   UNL     1      -8.749   9.150   5.535  1.00  0.00    -0.014 A 
BRANCH  40  41
ATOM     41  C   UNL     1      -9.053   9.265   6.958  1.00  0.00     0.031 A 
ATOM     42  C   UNL     1      -8.665  10.602   7.482  1.00  0.00     0.074 A 
ATOM     43  C   UNL     1      -9.676   8.299   7.676  1.00  0.00     0.049 A 
ATOM     44  N   UNL     1      -7.703  10.865   8.301  1.00  0.00    -0.248 NA
ATOM     45  C   UNL     1      -9.252  11.803   6.860  1.00  0.00     0.031 C 
ATOM     46  C   UNL     1     -10.261   7.043   7.191  1.00  0.00     0.029 A 
ATOM     47  N   UNL     1      -9.972   8.259   9.016  1.00  0.00    -0.354 N 
ATOM     48  C   UNL     1      -7.717  12.247   8.478  1.00  0.00     0.074 A 
ATOM     49  C   UNL     1      -8.552  12.781   7.439  1.00  0.00     0.031 C 
ATOM     50  C   UNL     1     -11.034   6.486   8.156  1.00  0.00     0.029 A 
ATOM     51  C   UNL     1     -10.880   7.250   9.379  1.00  0.00     0.049 A 
ATOM     52  H   UNL     1      -9.580   8.884   9.668  1.00  0.00     0.167 HD
ATOM     53  C   UNL     1      -7.283  12.783   9.651  1.00  0.00     0.037 A 
ATOM     54  C   UNL     1     -11.445   7.079  10.607  1.00  0.00     0.037 A 
ATOM     55  C   UNL     1      -6.481  11.824  10.367  1.00  0.00     0.049 A 
ATOM     56  C   UNL     1     -10.551   7.761  11.566  1.00  0.00     0.074 A 
ATOM     57  C   UNL     1      -5.212  11.300  10.249  1.00  0.00     0.029 A 
ATOM     58  N   UNL     1      -7.228  10.929  11.084  1.00  0.00    -0.354 N 
ATOM     59  N   UNL     1      -9.345   7.349  11.835  1.00  0.00    -0.248 NA
ATOM     60  C   UNL     1     -10.847   9.142  11.915  1.00  0.00     0.031 C 
ATOM     61  C   UNL     1      -5.294   9.960  10.739  1.00  0.00     0.029 A 
ATOM     62  C   UNL     1      -6.580   9.736  11.227  1.00  0.00     0.049 A 
ATOM     63  H   UNL     1      -8.121  11.122  11.451  1.00  0.00     0.167 HD
ATOM     64  C   UNL     1      -8.615   8.514  11.973  1.00  0.00     0.074 A 
ATOM     65  C   UNL     1      -9.608   9.572  12.157  1.00  0.00     0.031 C 
ATOM     66  C   UNL     1      -7.302   8.543  11.605  1.00  0.00     0.037 A 
BRANCH  53  67
ATOM     67  C   UNL     1      -8.006  13.902  10.377  1.00  0.00     0.064 A 
ATOM     68  C   UNL     1      -7.456  14.426  11.566  1.00  0.00     0.173 A 
ATOM     69  C   UNL     1      -9.351  14.262  10.130  1.00  0.00     0.173 A 
ATOM     70  F   UNL     1      -6.205  14.110  11.935  1.00  0.00    -0.203 F 
ATOM     71  C   UNL     1      -8.204  15.218  12.445  1.00  0.00     0.198 A 
ATOM     72  C   UNL     1     -10.078  15.091  10.983  1.00  0.00     0.198 A 
ATOM     73  F   UNL     1     -10.056  13.739   9.121  1.00  0.00    -0.203 F 
ATOM     74  F   UNL     1      -7.670  15.610  13.610  1.00  0.00    -0.200 F 
ATOM     75  C   UNL     1      -9.513  15.553  12.151  1.00  0.00     0.200 A 
ATOM     76  F   UNL     1     -11.357  15.370  10.695  1.00  0.00    -0.200 F 
ATOM     77  F   UNL     1     -10.245  16.275  13.009  1.00  0.00    -0.200 F 
ENDBRANCH  53  67
BRANCH  54  78
ATOM     78  C   UNL     1     -12.850   6.754  10.994  1.00  0.00     0.064 A 
ATOM     79  C   UNL     1     -13.188   6.488  12.339  1.00  0.00     0.173 A 
ATOM     80  C   UNL     1     -13.921   7.065  10.139  1.00  0.00     0.173 A 
ATOM     81  F   UNL     1     -12.229   6.213  13.235  1.00  0.00    -0.203 F 
ATOM     82  C   UNL     1     -14.504   6.600  12.810  1.00  0.00     0.198 A 
ATOM     83  C   UNL     1     -15.234   7.178  10.612  1.00  0.00     0.198 A 
ATOM     84  F   UNL     1     -13.700   7.375   8.855  1.00  0.00    -0.203 F 
ATOM     85  F   UNL     1     -14.770   6.426  14.113  1.00  0.00    -0.200 F 
ATOM     86  C   UNL     1     -15.522   6.968  11.949  1.00  0.00     0.200 A 
ATOM     87  F   UNL     1     -16.207   7.572   9.777  1.00  0.00    -0.200 F 
ATOM     88  F   UNL     1     -16.765   7.165  12.411  1.00  0.00    -0.200 F 
ENDBRANCH  54  78
BRANCH  66  89
ATOM     89  C   UNL     1      -6.591   7.230  11.464  1.00  0.00     0.064 A 
ATOM     90  C   UNL     1      -6.835   6.287  10.452  1.00  0.00     0.173 A 
ATOM     91  C   UNL     1      -5.529   6.981  12.341  1.00  0.00     0.173 A 
ATOM     92  F   UNL     1      -7.790   6.490   9.534  1.00  0.00    -0.203 F 
ATOM     93  C   UNL     1      -6.052   5.136  10.339  1.00  0.00     0.198 A 
ATOM     94  C   UNL     1      -4.730   5.852  12.206  1.00  0.00     0.198 A 
ATOM     95  F   UNL     1      -5.233   7.869  13.303  1.00  0.00    -0.203 F 
ATOM     96  F   UNL     1      -6.296   4.247   9.365  1.00  0.00    -0.200 F 
ATOM     97  C   UNL     1      -4.994   4.927  11.210  1.00  0.00     0.200 A 
ATOM     98  F   UNL     1      -3.681   5.681  13.022  1.00  0.00    -0.200 F 
ATOM     99  F   UNL     1      -4.211   3.847  11.074  1.00  0.00    -0.200 F 
ENDBRANCH  66  89
ENDBRANCH  40  41
ENDBRANCH  32  35
ENDBRANCH  30  31
ENDBRANCH  29  30
ENDBRANCH   1  29
TORSDOF 15
