REMARK SMILES Cc1cc(N(C)C(C)C)cc(C(=O)NCCCNC(=O)c2ccc(-c3c4nc(c(-c5c(F)c(F)c(F)c(F)c5F)c5ccc([nH]5)c(-c5c(F)c(F)c(F)c(F)c5F)c5nc(c(-c6c(F)c(F)c(F)c(F)c6F)c6ccc3[nH]6)C=C5)C=C4)cc2)c1N
REMARK SMILES IDX 16 1 15 2 14 3 12 4 13 5 11 7 1 8 2 9 3 10 84 11 4 12 10 13
REMARK SMILES IDX 85 14 5 17 6 18 7 19 8 20 9 21 17 22 18 23 19 24 20 26 21 27
REMARK SMILES IDX 22 28 83 29 23 30 82 31 24 32 25 33 26 34 76 35 27 36 81 37
REMARK SMILES IDX 75 38 77 39 28 40 80 41 74 42 73 43 29 45 61 46 41 47 60 48
REMARK SMILES IDX 42 49 45 50 59 51 78 52 43 53 44 54 58 56 79 57 46 58 30 59
REMARK SMILES IDX 31 60 39 61 32 62 33 63 37 64 40 65 34 66 35 67 38 68 36 69
REMARK SMILES IDX 62 70 63 71 71 72 64 73 65 74 69 75 72 76 66 77 67 78 70 79
REMARK SMILES IDX 68 80 47 81 48 82 56 83 49 84 50 85 54 86 57 87 51 88 52 89
REMARK SMILES IDX 55 90 53 91
REMARK H PARENT 14 6 85 15 85 16 18 25 77 44 45 55
REMARK Flexibility Score: inf
ROOT
ATOM      1  C   UNL     1      -4.004  -3.331  -0.504  1.00  0.00     0.042 C 
ENDROOT
BRANCH   1   2
ATOM      2  C   UNL     1      -2.996  -3.236   0.644  1.00  0.00     0.118 C 
BRANCH   2   3
ATOM      3  N   UNL     1      -1.662  -3.563   0.179  1.00  0.00    -0.352 N 
ATOM      4  C   UNL     1      -0.588  -2.804  -0.218  1.00  0.00     0.253 C 
ATOM      5  O   UNL     1       0.406  -3.437  -0.587  1.00  0.00    -0.269 OA
ATOM      6  H   UNL     1      -1.489  -4.531   0.140  1.00  0.00     0.163 HD
BRANCH   4   7
ATOM      7  C   UNL     1      -0.550  -1.303  -0.178  1.00  0.00     0.065 A 
ATOM      8  C   UNL     1       2.006   1.512   0.156  1.00  0.00     0.046 C 
ATOM      9  C   UNL     1       0.715   0.747   0.028  1.00  0.00    -0.025 A 
ATOM     10  C   UNL     1      -0.497   1.469  -0.015  1.00  0.00     0.031 A 
ATOM     11  C   UNL     1       0.698  -0.655  -0.041  1.00  0.00     0.047 A 
ATOM     12  C   UNL     1      -1.753   0.869  -0.149  1.00  0.00     0.038 A 
ATOM     13  C   UNL     1      -1.715  -0.525  -0.323  1.00  0.00     0.042 A 
BRANCH  11  14
ATOM     14  N   UNL     1       1.879  -1.372   0.176  1.00  0.00    -0.398 N 
ATOM     15  H   UNL     1       2.735  -0.894   0.268  1.00  0.00     0.156 HD
ATOM     16  H   UNL     1       1.855  -2.354   0.237  1.00  0.00     0.156 HD
ENDBRANCH  11  14
BRANCH  12  17
ATOM     17  N   UNL     1      -2.950   1.575  -0.093  1.00  0.00    -0.372 N 
ATOM     18  C   UNL     1      -4.228   0.874   0.088  1.00  0.00     0.144 C 
BRANCH  17  19
ATOM     19  C   UNL     1      -3.089   3.053  -0.079  1.00  0.00     0.075 C 
ATOM     20  C   UNL     1      -2.625   3.675   1.238  1.00  0.00     0.030 C 
ATOM     21  C   UNL     1      -2.531   3.721  -1.333  1.00  0.00     0.030 C 
ENDBRANCH  17  19
ENDBRANCH  12  17
ENDBRANCH   4   7
ENDBRANCH   2   3
ENDBRANCH   1   2
BRANCH   1  22
ATOM     22  C   UNL     1      -4.314  -4.769  -0.914  1.00  0.00     0.118 C 
BRANCH  22  23
ATOM     23  N   UNL     1      -5.113  -5.458   0.089  1.00  0.00    -0.352 N 
ATOM     24  C   UNL     1      -6.341  -6.059  -0.024  1.00  0.00     0.251 C 
ATOM     25  H   UNL     1      -4.711  -5.498   0.987  1.00  0.00     0.163 HD
ATOM     26  O   UNL     1      -6.954  -6.384   0.988  1.00  0.00    -0.269 OA
BRANCH  24  27
ATOM     27  C   UNL     1      -6.939  -6.311  -1.354  1.00  0.00     0.039 A 
ATOM     28  C   UNL     1      -8.311  -6.102  -1.524  1.00  0.00     0.014 A 
ATOM     29  C   UNL     1      -6.170  -6.798  -2.414  1.00  0.00     0.014 A 
ATOM     30  C   UNL     1      -8.902  -6.333  -2.768  1.00  0.00     0.010 A 
ATOM     31  C   UNL     1      -6.746  -6.965  -3.671  1.00  0.00     0.010 A 
ATOM     32  C   UNL     1      -8.118  -6.739  -3.860  1.00  0.00    -0.014 A 
BRANCH  32  33
ATOM     33  C   UNL     1      -8.713  -6.937  -5.206  1.00  0.00     0.031 A 
ATOM     34  C   UNL     1      -8.728  -8.303  -5.832  1.00  0.00     0.074 A 
ATOM     35  C   UNL     1      -9.170  -5.872  -5.892  1.00  0.00     0.049 A 
ATOM     36  N   UNL     1      -9.107  -8.660  -7.033  1.00  0.00    -0.248 NA
ATOM     37  C   UNL     1      -8.224  -9.412  -5.007  1.00  0.00     0.031 C 
ATOM     38  C   UNL     1      -9.170  -4.491  -5.407  1.00  0.00     0.029 A 
ATOM     39  N   UNL     1      -9.706  -5.782  -7.153  1.00  0.00    -0.354 N 
ATOM     40  C   UNL     1      -8.869 -10.026  -7.114  1.00  0.00     0.074 A 
ATOM     41  C   UNL     1      -8.272 -10.427  -5.859  1.00  0.00     0.031 C 
ATOM     42  C   UNL     1      -9.691  -3.693  -6.353  1.00  0.00     0.029 A 
ATOM     43  C   UNL     1     -10.024  -4.498  -7.524  1.00  0.00     0.049 A 
ATOM     44  H   UNL     1      -9.848  -6.562  -7.735  1.00  0.00     0.167 HD
ATOM     45  C   UNL     1      -9.141 -10.870  -8.138  1.00  0.00     0.037 A 
ATOM     46  C   UNL     1     -10.515  -4.023  -8.684  1.00  0.00     0.037 A 
ATOM     47  C   UNL     1      -9.762 -10.470  -9.373  1.00  0.00     0.049 A 
ATOM     48  C   UNL     1     -10.810  -4.982  -9.804  1.00  0.00     0.074 A 
ATOM     49  C   UNL     1     -10.139 -11.261 -10.445  1.00  0.00     0.029 A 
ATOM     50  N   UNL     1     -10.096  -9.165  -9.702  1.00  0.00    -0.354 N 
ATOM     51  N   UNL     1     -10.640  -6.281  -9.847  1.00  0.00    -0.248 NA
ATOM     52  C   UNL     1     -11.370  -4.411 -11.037  1.00  0.00     0.031 C 
ATOM     53  C   UNL     1     -10.660 -10.428 -11.441  1.00  0.00     0.029 A 
ATOM     54  C   UNL     1     -10.655  -9.124 -10.969  1.00  0.00     0.049 A 
ATOM     55  H   UNL     1      -9.956  -8.382  -9.121  1.00  0.00     0.167 HD
ATOM     56  C   UNL     1     -11.095  -6.686 -11.094  1.00  0.00     0.074 A 
ATOM     57  C   UNL     1     -11.561  -5.496 -11.774  1.00  0.00     0.031 C 
ATOM     58  C   UNL     1     -11.123  -7.931 -11.627  1.00  0.00     0.037 A 
BRANCH  45  59
ATOM     59  C   UNL     1      -8.771 -12.316  -7.966  1.00  0.00     0.064 A 
ATOM     60  C   UNL     1      -9.459 -13.151  -7.072  1.00  0.00     0.173 A 
ATOM     61  C   UNL     1      -7.744 -12.883  -8.735  1.00  0.00     0.173 A 
ATOM     62  F   UNL     1     -10.443 -12.656  -6.307  1.00  0.00    -0.203 F 
ATOM     63  C   UNL     1      -9.113 -14.493  -6.935  1.00  0.00     0.198 A 
ATOM     64  C   UNL     1      -7.421 -14.233  -8.617  1.00  0.00     0.198 A 
ATOM     65  F   UNL     1      -7.059 -12.132  -9.610  1.00  0.00    -0.203 F 
ATOM     66  F   UNL     1      -9.753 -15.259  -6.041  1.00  0.00    -0.200 F 
ATOM     67  C   UNL     1      -8.100 -15.034  -7.712  1.00  0.00     0.200 A 
ATOM     68  F   UNL     1      -6.451 -14.758  -9.379  1.00  0.00    -0.200 F 
ATOM     69  F   UNL     1      -7.775 -16.328  -7.585  1.00  0.00    -0.200 F 
ENDBRANCH  45  59
BRANCH  46  70
ATOM     70  C   UNL     1     -10.776  -2.568  -8.836  1.00  0.00     0.064 A 
ATOM     71  C   UNL     1     -12.086  -2.076  -8.908  1.00  0.00     0.173 A 
ATOM     72  C   UNL     1      -9.726  -1.641  -8.908  1.00  0.00     0.173 A 
ATOM     73  F   UNL     1     -13.123  -2.925  -8.863  1.00  0.00    -0.203 F 
ATOM     74  C   UNL     1     -12.337  -0.714  -9.064  1.00  0.00     0.198 A 
ATOM     75  C   UNL     1      -9.978  -0.277  -9.037  1.00  0.00     0.198 A 
ATOM     76  F   UNL     1      -8.454  -2.060  -8.838  1.00  0.00    -0.203 F 
ATOM     77  F   UNL     1     -13.598  -0.275  -9.172  1.00  0.00    -0.200 F 
ATOM     78  C   UNL     1     -11.282   0.185  -9.122  1.00  0.00     0.200 A 
ATOM     79  F   UNL     1      -8.957   0.591  -9.076  1.00  0.00    -0.200 F 
ATOM     80  F   UNL     1     -11.524   1.495  -9.266  1.00  0.00    -0.200 F 
ENDBRANCH  46  70
BRANCH  58  81
ATOM     81  C   UNL     1     -11.710  -8.079 -13.001  1.00  0.00     0.064 A 
ATOM     82  C   UNL     1     -11.030  -7.634 -14.143  1.00  0.00     0.173 A 
ATOM     83  C   UNL     1     -12.946  -8.719 -13.178  1.00  0.00     0.173 A 
ATOM     84  F   UNL     1      -9.852  -7.002 -14.025  1.00  0.00    -0.203 F 
ATOM     85  C   UNL     1     -11.576  -7.806 -15.412  1.00  0.00     0.198 A 
ATOM     86  C   UNL     1     -13.475  -8.915 -14.450  1.00  0.00     0.198 A 
ATOM     87  F   UNL     1     -13.633  -9.168 -12.117  1.00  0.00    -0.203 F 
ATOM     88  F   UNL     1     -10.929  -7.335 -16.487  1.00  0.00    -0.200 F 
ATOM     89  C   UNL     1     -12.793  -8.453 -15.565  1.00  0.00     0.200 A 
ATOM     90  F   UNL     1     -14.645  -9.552 -14.597  1.00  0.00    -0.200 F 
ATOM     91  F   UNL     1     -13.312  -8.627 -16.788  1.00  0.00    -0.200 F 
ENDBRANCH  58  81
ENDBRANCH  32  33
ENDBRANCH  24  27
ENDBRANCH  22  23
ENDBRANCH   1  22
TORSDOF 13
