REMARK SMILES NC(=O)C[C@H](NC(=O)[C@@H]1CCC[NH2+]1)C(=O)NCCCNC(=O)c1ccc(-c2c3nc(c(-c4c(F)c(F)c(F)c(F)c4F)c4ccc([nH]4)c(-c4c(F)c(F)c(F)c(F)c4F)c4nc(c(-c5c(F)c(F)c(F)c(F)c5F)c5ccc2[nH]5)C=C4)C=C3)cc1
REMARK SMILES IDX 18 1 17 2 16 3 14 4 15 5 5 7 4 8 2 9 1 10 3 13 6 14 7 15
REMARK SMILES IDX 8 17 9 18 10 19 13 20 11 21 12 22 19 25 20 26 21 27 22 29
REMARK SMILES IDX 23 30 24 31 85 32 25 33 84 34 26 35 27 36 28 37 78 38 29 39
REMARK SMILES IDX 83 40 77 41 79 42 30 43 82 44 76 45 75 46 31 48 63 49 43 50
REMARK SMILES IDX 62 51 44 52 47 53 61 54 80 55 45 56 46 57 60 59 81 60 48 61
REMARK SMILES IDX 32 62 33 63 41 64 34 65 35 66 39 67 42 68 36 69 37 70 40 71
REMARK SMILES IDX 38 72 64 73 65 74 73 75 66 76 67 77 71 78 74 79 68 80 69 81
REMARK SMILES IDX 72 82 70 83 49 84 50 85 58 86 51 87 52 88 56 89 59 90 53 91
REMARK SMILES IDX 54 92 57 93 55 94
REMARK H PARENT 16 6 1 11 1 12 6 16 13 23 13 24 20 28 79 47 47 58
REMARK Flexibility Score: inf
ROOT
ATOM      1  C   UNL     1       3.409   4.617   1.466  1.00  0.00     0.042 C 
ENDROOT
BRANCH   1   2
ATOM      2  C   UNL     1       3.778   3.173   1.734  1.00  0.00     0.117 C 
BRANCH   2   3
ATOM      3  N   UNL     1       3.473   2.725   3.075  1.00  0.00    -0.354 N 
ATOM      4  C   UNL     1       2.842   1.596   3.499  1.00  0.00     0.243 C 
ATOM      5  O   UNL     1       2.965   1.295   4.691  1.00  0.00    -0.273 OA
ATOM      6  H   UNL     1       3.769   3.330   3.793  1.00  0.00     0.163 HD
BRANCH   4   7
ATOM      7  C   UNL     1       2.030   0.683   2.553  1.00  0.00     0.180 C 
BRANCH   7   8
ATOM      8  C   UNL     1       2.868  -0.296   1.728  1.00  0.00     0.134 C 
BRANCH   8   9
ATOM      9  C   UNL     1       3.652   0.278   0.580  1.00  0.00     0.220 C 
ATOM     10  N   UNL     1       2.933   0.642  -0.519  1.00  0.00    -0.370 N 
ATOM     11  H   UNL     1       3.390   1.025  -1.302  1.00  0.00     0.159 HD
ATOM     12  H   UNL     1       1.955   0.524  -0.529  1.00  0.00     0.159 HD
ATOM     13  O   UNL     1       4.865   0.446   0.617  1.00  0.00    -0.275 OA
ENDBRANCH   8   9
ENDBRANCH   7   8
BRANCH   7  14
ATOM     14  N   UNL     1       1.012   1.426   1.802  1.00  0.00    -0.339 N 
ATOM     15  C   UNL     1      -0.330   1.564   2.015  1.00  0.00     0.278 C 
ATOM     16  H   UNL     1       1.354   1.906   1.013  1.00  0.00     0.164 HD
ATOM     17  O   UNL     1      -0.891   2.474   1.397  1.00  0.00    -0.268 OA
BRANCH  15  18
ATOM     18  C   UNL     1      -1.125   0.623   2.940  1.00  0.00     0.272 C 
ATOM     19  C   UNL     1      -0.794   0.738   4.416  1.00  0.00     0.081 C 
ATOM     20  N   UNL     1      -0.932  -0.790   2.550  1.00  0.00    -0.336 N 
ATOM     21  C   UNL     1      -0.926  -0.672   4.962  1.00  0.00     0.068 C 
ATOM     22  C   UNL     1      -1.073  -1.592   3.762  1.00  0.00     0.261 C 
ATOM     23  H   UNL     1      -0.003  -0.919   2.151  1.00  0.00     0.346 HD
ATOM     24  H   UNL     1      -1.617  -1.069   1.848  1.00  0.00     0.346 HD
ENDBRANCH  15  18
ENDBRANCH   7  14
ENDBRANCH   4   7
ENDBRANCH   2   3
ENDBRANCH   1   2
BRANCH   1  25
ATOM     25  C   UNL     1       4.280   5.616   2.205  1.00  0.00     0.118 C 
BRANCH  25  26
ATOM     26  N   UNL     1       5.689   5.525   1.835  1.00  0.00    -0.352 N 
ATOM     27  C   UNL     1       6.492   6.375   1.112  1.00  0.00     0.251 C 
ATOM     28  H   UNL     1       6.143   4.714   2.159  1.00  0.00     0.163 HD
ATOM     29  O   UNL     1       7.607   6.009   0.762  1.00  0.00    -0.269 OA
BRANCH  27  30
ATOM     30  C   UNL     1       6.006   7.717   0.724  1.00  0.00     0.039 A 
ATOM     31  C   UNL     1       6.323   8.212  -0.544  1.00  0.00     0.014 A 
ATOM     32  C   UNL     1       5.241   8.486   1.600  1.00  0.00     0.014 A 
ATOM     33  C   UNL     1       5.789   9.431  -0.963  1.00  0.00     0.010 A 
ATOM     34  C   UNL     1       4.612   9.635   1.140  1.00  0.00     0.010 A 
ATOM     35  C   UNL     1       4.881  10.123  -0.145  1.00  0.00    -0.014 A 
BRANCH  35  36
ATOM     36  C   UNL     1       4.190  11.348  -0.617  1.00  0.00     0.031 A 
ATOM     37  C   UNL     1       4.351  12.644   0.125  1.00  0.00     0.074 A 
ATOM     38  C   UNL     1       3.341  11.267  -1.660  1.00  0.00     0.049 A 
ATOM     39  N   UNL     1       3.768  13.798  -0.085  1.00  0.00    -0.248 NA
ATOM     40  C   UNL     1       5.258  12.634   1.284  1.00  0.00     0.031 C 
ATOM     41  C   UNL     1       3.044  10.047  -2.413  1.00  0.00     0.029 A 
ATOM     42  N   UNL     1       2.561  12.224  -2.257  1.00  0.00    -0.354 N 
ATOM     43  C   UNL     1       4.220  14.637   0.924  1.00  0.00     0.074 A 
ATOM     44  C   UNL     1       5.072  13.846   1.783  1.00  0.00     0.031 C 
ATOM     45  C   UNL     1       2.166  10.334  -3.386  1.00  0.00     0.029 A 
ATOM     46  C   UNL     1       1.803  11.745  -3.297  1.00  0.00     0.049 A 
ATOM     47  H   UNL     1       2.545  13.165  -1.967  1.00  0.00     0.167 HD
ATOM     48  C   UNL     1       3.966  15.956   1.103  1.00  0.00     0.037 A 
ATOM     49  C   UNL     1       0.905  12.367  -4.084  1.00  0.00     0.037 A 
ATOM     50  C   UNL     1       3.132  16.739   0.229  1.00  0.00     0.049 A 
ATOM     51  C   UNL     1       0.644  13.832  -3.874  1.00  0.00     0.074 A 
ATOM     52  C   UNL     1       2.884  18.099   0.263  1.00  0.00     0.029 A 
ATOM     53  N   UNL     1       2.398  16.224  -0.832  1.00  0.00    -0.354 N 
ATOM     54  N   UNL     1       1.154  14.643  -2.979  1.00  0.00    -0.248 NA
ATOM     55  C   UNL     1      -0.313  14.471  -4.787  1.00  0.00     0.031 C 
ATOM     56  C   UNL     1       1.946  18.396  -0.733  1.00  0.00     0.029 A 
ATOM     57  C   UNL     1       1.661  17.233  -1.431  1.00  0.00     0.049 A 
ATOM     58  H   UNL     1       2.400  15.282  -1.115  1.00  0.00     0.167 HD
ATOM     59  C   UNL     1       0.593  15.888  -3.225  1.00  0.00     0.074 A 
ATOM     60  C   UNL     1      -0.279  15.729  -4.372  1.00  0.00     0.031 C 
ATOM     61  C   UNL     1       0.781  17.055  -2.561  1.00  0.00     0.037 A 
BRANCH  48  62
ATOM     62  C   UNL     1       4.587  16.624   2.299  1.00  0.00     0.064 A 
ATOM     63  C   UNL     1       5.976  16.793   2.419  1.00  0.00     0.173 A 
ATOM     64  C   UNL     1       3.779  17.105   3.341  1.00  0.00     0.173 A 
ATOM     65  F   UNL     1       6.797  16.345   1.457  1.00  0.00    -0.203 F 
ATOM     66  C   UNL     1       6.534  17.371   3.556  1.00  0.00     0.198 A 
ATOM     67  C   UNL     1       4.339  17.718   4.460  1.00  0.00     0.198 A 
ATOM     68  F   UNL     1       2.445  16.978   3.278  1.00  0.00    -0.203 F 
ATOM     69  F   UNL     1       7.866  17.454   3.679  1.00  0.00    -0.200 F 
ATOM     70  C   UNL     1       5.715  17.838   4.573  1.00  0.00     0.200 A 
ATOM     71  F   UNL     1       3.545  18.182   5.434  1.00  0.00    -0.200 F 
ATOM     72  F   UNL     1       6.253  18.393   5.668  1.00  0.00    -0.200 F 
ENDBRANCH  48  62
BRANCH  49  73
ATOM     73  C   UNL     1       0.210  11.598  -5.148  1.00  0.00     0.064 A 
ATOM     74  C   UNL     1       0.505  11.810  -6.502  1.00  0.00     0.173 A 
ATOM     75  C   UNL     1      -0.729  10.605  -4.832  1.00  0.00     0.173 A 
ATOM     76  F   UNL     1       1.382  12.761  -6.855  1.00  0.00    -0.203 F 
ATOM     77  C   UNL     1      -0.117  11.061  -7.499  1.00  0.00     0.198 A 
ATOM     78  C   UNL     1      -1.328   9.837  -5.828  1.00  0.00     0.198 A 
ATOM     79  F   UNL     1      -1.039  10.357  -3.551  1.00  0.00    -0.203 F 
ATOM     80  F   UNL     1       0.161  11.303  -8.787  1.00  0.00    -0.200 F 
ATOM     81  C   UNL     1      -1.025  10.069  -7.161  1.00  0.00     0.200 A 
ATOM     82  F   UNL     1      -2.189   8.866  -5.495  1.00  0.00    -0.200 F 
ATOM     83  F   UNL     1      -1.608   9.336  -8.119  1.00  0.00    -0.200 F 
ENDBRANCH  49  73
BRANCH  61  84
ATOM     84  C   UNL     1       0.031  18.258  -3.061  1.00  0.00     0.064 A 
ATOM     85  C   UNL     1      -1.359  18.372  -2.909  1.00  0.00     0.173 A 
ATOM     86  C   UNL     1       0.715  19.325  -3.662  1.00  0.00     0.173 A 
ATOM     87  F   UNL     1      -2.063  17.373  -2.354  1.00  0.00    -0.203 F 
ATOM     88  C   UNL     1      -2.039  19.498  -3.365  1.00  0.00     0.198 A 
ATOM     89  C   UNL     1       0.037  20.464  -4.086  1.00  0.00     0.198 A 
ATOM     90  F   UNL     1       2.046  19.270  -3.826  1.00  0.00    -0.203 F 
ATOM     91  F   UNL     1      -3.373  19.563  -3.257  1.00  0.00    -0.200 F 
ATOM     92  C   UNL     1      -1.340  20.547  -3.945  1.00  0.00     0.200 A 
ATOM     93  F   UNL     1       0.717  21.483  -4.630  1.00  0.00    -0.200 F 
ATOM     94  F   UNL     1      -1.995  21.634  -4.375  1.00  0.00    -0.200 F 
ENDBRANCH  61  84
ENDBRANCH  35  36
ENDBRANCH  27  30
ENDBRANCH  25  26
ENDBRANCH   1  25
TORSDOF 14
