REMARK SMILES COc1cc(OC)c(-c2cc(C(=O)NCCCNC(=O)c3ccc(-c4c5nc(c(-c6c(F)c(F)c(F)c(F)c6F)c6ccc([nH]6)c(-c6c(F)c(F)c(F)c(F)c6F)c6nc(c(-c7c(F)c(F)c(F)c(F)c7F)c7ccc4[nH]7)C=C6)C=C5)cc3)c3c(-c4ccc(Cl)cc4)[nH]nc3n2)cc1OC
REMARK SMILES IDX 16 1 15 2 14 3 12 4 13 5 11 7 9 8 10 9 96 10 95 11 84 12
REMARK SMILES IDX 94 13 85 14 93 15 8 17 3 18 4 19 98 20 5 21 97 22 2 23 1 24
REMARK SMILES IDX 99 25 100 26 6 27 7 28 86 29 87 30 92 31 88 32 91 33 89 34
REMARK SMILES IDX 90 35 17 36 18 37 19 38 20 40 21 41 22 42 83 43 23 44 82 45
REMARK SMILES IDX 24 46 25 47 26 48 76 49 27 50 81 51 75 52 77 53 28 54 80 55
REMARK SMILES IDX 74 56 73 57 29 59 61 60 41 61 60 62 42 63 45 64 59 65 78 66
REMARK SMILES IDX 43 67 44 68 58 70 79 71 46 72 30 73 31 74 39 75 32 76 33 77
REMARK SMILES IDX 37 78 40 79 34 80 35 81 38 82 36 83 62 84 63 85 71 86 64 87
REMARK SMILES IDX 65 88 69 89 72 90 66 91 67 92 70 93 68 94 47 95 48 96 56 97
REMARK SMILES IDX 49 98 50 99 54 100 57 101 51 102 52 103 55 104 53 105
REMARK H PARENT 14 6 93 16 18 39 77 58 45 69
REMARK Flexibility Score: inf
ROOT
ATOM      1  C   UNL     1       4.696  -0.005   6.990  1.00  0.00     0.042 C 
ENDROOT
BRANCH   1   2
ATOM      2  C   UNL     1       5.328  -1.338   6.641  1.00  0.00     0.118 C 
BRANCH   2   3
ATOM      3  N   UNL     1       5.348  -2.183   7.810  1.00  0.00    -0.352 N 
ATOM      4  C   UNL     1       4.639  -3.281   8.175  1.00  0.00     0.252 C 
ATOM      5  O   UNL     1       5.112  -3.877   9.133  1.00  0.00    -0.269 OA
ATOM      6  H   UNL     1       6.013  -1.905   8.482  1.00  0.00     0.163 HD
BRANCH   4   7
ATOM      7  C   UNL     1       3.455  -3.742   7.430  1.00  0.00     0.055 A 
ATOM      8  C   UNL     1       1.939  -3.574   5.449  1.00  0.00     0.077 A 
ATOM      9  C   UNL     1       2.912  -3.063   6.330  1.00  0.00     0.043 A 
ATOM     10  N   UNL     1       1.302  -4.757   5.633  1.00  0.00    -0.226 NA
ATOM     11  C   UNL     1       1.624  -5.355   6.818  1.00  0.00     0.182 A 
ATOM     12  C   UNL     1       2.665  -4.865   7.690  1.00  0.00     0.059 A 
ATOM     13  N   UNL     1       0.996  -6.399   7.356  1.00  0.00    -0.154 NA
ATOM     14  C   UNL     1       2.630  -5.688   8.806  1.00  0.00     0.075 A 
ATOM     15  N   UNL     1       1.603  -6.564   8.542  1.00  0.00    -0.275 N 
ATOM     16  H   UNL     1       1.331  -7.264   9.179  1.00  0.00     0.190 HD
BRANCH   8  17
ATOM     17  C   UNL     1       1.483  -2.674   4.359  1.00  0.00     0.046 A 
ATOM     18  C   UNL     1       0.822  -0.855   2.201  1.00  0.00     0.164 A 
ATOM     19  C   UNL     1      -0.083  -1.175   3.239  1.00  0.00     0.097 A 
ATOM     20  C   UNL     1       2.105  -1.403   2.286  1.00  0.00     0.161 A 
ATOM     21  C   UNL     1       0.252  -2.008   4.342  1.00  0.00     0.132 A 
ATOM     22  C   UNL     1       2.397  -2.311   3.338  1.00  0.00     0.064 A 
BRANCH  18  23
ATOM     23  O   UNL     1       0.444   0.223   1.433  1.00  0.00    -0.493 OA
ATOM     24  C   UNL     1       0.198   0.054   0.035  1.00  0.00     0.278 C 
ENDBRANCH  18  23
BRANCH  20  25
ATOM     25  O   UNL     1       3.239  -1.137   1.566  1.00  0.00    -0.493 OA
ATOM     26  C   UNL     1       3.118  -0.503   0.313  1.00  0.00     0.278 C 
ENDBRANCH  20  25
BRANCH  21  27
ATOM     27  O   UNL     1      -0.699  -1.988   5.338  1.00  0.00    -0.496 OA
ATOM     28  C   UNL     1      -0.300  -2.255   6.682  1.00  0.00     0.278 C 
ENDBRANCH  21  27
ENDBRANCH   8  17
BRANCH  14  29
ATOM     29  C   UNL     1       3.370  -5.771  10.067  1.00  0.00     0.000 A 
ATOM     30  C   UNL     1       4.183  -6.887  10.314  1.00  0.00     0.012 A 
ATOM     31  C   UNL     1       3.355  -4.724  11.003  1.00  0.00     0.012 A 
ATOM     32  C   UNL     1       4.995  -6.940  11.451  1.00  0.00     0.021 A 
ATOM     33  C   UNL     1       4.207  -4.755  12.116  1.00  0.00     0.021 A 
ATOM     34  C   UNL     1       5.024  -5.862  12.333  1.00  0.00     0.041 A 
ATOM     35  Cl  UNL     1       6.098  -5.886  13.677  1.00  0.00    -0.084 Cl
ENDBRANCH  14  29
ENDBRANCH   4   7
ENDBRANCH   2   3
ENDBRANCH   1   2
BRANCH   1  36
ATOM     36  C   UNL     1       5.715   0.761   7.768  1.00  0.00     0.118 C 
BRANCH  36  37
ATOM     37  N   UNL     1       6.930   1.010   6.978  1.00  0.00    -0.352 N 
ATOM     38  C   UNL     1       7.719   2.158   6.944  1.00  0.00     0.251 C 
ATOM     39  H   UNL     1       7.223   0.270   6.398  1.00  0.00     0.163 HD
ATOM     40  O   UNL     1       8.493   2.366   6.078  1.00  0.00    -0.269 OA
BRANCH  38  41
ATOM     41  C   UNL     1       7.659   2.955   8.196  1.00  0.00     0.039 A 
ATOM     42  C   UNL     1       8.257   4.177   8.453  1.00  0.00     0.014 A 
ATOM     43  C   UNL     1       7.269   2.258   9.316  1.00  0.00     0.014 A 
ATOM     44  C   UNL     1       8.591   4.416   9.855  1.00  0.00     0.010 A 
ATOM     45  C   UNL     1       7.031   2.955  10.424  1.00  0.00     0.010 A 
ATOM     46  C   UNL     1       8.211   3.443  10.871  1.00  0.00    -0.014 A 
BRANCH  46  47
ATOM     47  C   UNL     1       8.111   3.392  12.457  1.00  0.00     0.031 A 
ATOM     48  C   UNL     1       7.086   4.747  12.554  1.00  0.00     0.074 A 
ATOM     49  C   UNL     1       8.595   2.398  13.484  1.00  0.00     0.049 A 
ATOM     50  N   UNL     1       7.555   5.970  12.571  1.00  0.00    -0.248 NA
ATOM     51  C   UNL     1       5.628   4.917  12.034  1.00  0.00     0.031 C 
ATOM     52  C   UNL     1       9.439   1.046  13.554  1.00  0.00     0.029 A 
ATOM     53  N   UNL     1       8.515   2.434  14.936  1.00  0.00    -0.354 N 
ATOM     54  C   UNL     1       6.452   6.805  12.810  1.00  0.00     0.074 A 
ATOM     55  C   UNL     1       5.365   6.230  12.134  1.00  0.00     0.031 C 
ATOM     56  C   UNL     1       9.380   0.379  14.781  1.00  0.00     0.029 A 
ATOM     57  C   UNL     1       8.686   1.194  15.758  1.00  0.00     0.049 A 
ATOM     58  H   UNL     1       8.346   3.292  15.388  1.00  0.00     0.167 HD
ATOM     59  C   UNL     1       6.427   7.519  13.965  1.00  0.00     0.037 A 
ATOM     60  C   UNL     1       8.589   1.007  17.170  1.00  0.00     0.037 A 
ATOM     61  C   UNL     1       7.767   7.491  14.490  1.00  0.00     0.049 A 
ATOM     62  C   UNL     1       8.478   2.391  17.702  1.00  0.00     0.074 A 
ATOM     63  C   UNL     1       8.982   7.919  13.993  1.00  0.00     0.029 A 
ATOM     64  N   UNL     1       8.003   6.354  15.214  1.00  0.00    -0.354 N 
ATOM     65  N   UNL     1       9.493   3.207  17.631  1.00  0.00    -0.248 NA
ATOM     66  C   UNL     1       7.136   2.947  17.537  1.00  0.00     0.031 C 
ATOM     67  C   UNL     1       9.923   6.899  14.311  1.00  0.00     0.029 A 
ATOM     68  C   UNL     1       9.317   6.009  15.185  1.00  0.00     0.049 A 
ATOM     69  H   UNL     1       7.308   5.849  15.695  1.00  0.00     0.167 HD
ATOM     70  C   UNL     1       8.994   4.255  16.879  1.00  0.00     0.074 A 
ATOM     71  C   UNL     1       7.510   4.048  16.868  1.00  0.00     0.031 C 
ATOM     72  C   UNL     1       9.796   4.926  15.983  1.00  0.00     0.037 A 
BRANCH  59  73
ATOM     73  C   UNL     1       5.236   7.720  14.877  1.00  0.00     0.064 A 
ATOM     74  C   UNL     1       5.427   8.619  15.941  1.00  0.00     0.173 A 
ATOM     75  C   UNL     1       4.065   6.927  14.952  1.00  0.00     0.173 A 
ATOM     76  F   UNL     1       6.502   9.421  15.957  1.00  0.00    -0.203 F 
ATOM     77  C   UNL     1       4.561   8.677  17.031  1.00  0.00     0.198 A 
ATOM     78  C   UNL     1       3.160   7.038  16.015  1.00  0.00     0.198 A 
ATOM     79  F   UNL     1       3.784   5.967  14.061  1.00  0.00    -0.203 F 
ATOM     80  F   UNL     1       4.863   9.466  18.070  1.00  0.00    -0.200 F 
ATOM     81  C   UNL     1       3.423   7.896  17.064  1.00  0.00     0.200 A 
ATOM     82  F   UNL     1       2.063   6.266  16.043  1.00  0.00    -0.200 F 
ATOM     83  F   UNL     1       2.593   7.953  18.114  1.00  0.00    -0.200 F 
ENDBRANCH  59  73
BRANCH  60  84
ATOM     84  C   UNL     1       8.000  -0.149  18.061  1.00  0.00     0.064 A 
ATOM     85  C   UNL     1       8.043  -0.399  19.486  1.00  0.00     0.173 A 
ATOM     86  C   UNL     1       7.020  -0.905  17.412  1.00  0.00     0.173 A 
ATOM     87  F   UNL     1       8.876   0.274  20.299  1.00  0.00    -0.203 F 
ATOM     88  C   UNL     1       7.178  -1.344  20.137  1.00  0.00     0.198 A 
ATOM     89  C   UNL     1       6.147  -1.797  18.055  1.00  0.00     0.198 A 
ATOM     90  F   UNL     1       6.816  -0.709  16.106  1.00  0.00    -0.203 F 
ATOM     91  F   UNL     1       7.246  -1.571  21.463  1.00  0.00    -0.200 F 
ATOM     92  C   UNL     1       6.215  -2.021  19.413  1.00  0.00     0.200 A 
ATOM     93  F   UNL     1       5.194  -2.396  17.329  1.00  0.00    -0.200 F 
ATOM     94  F   UNL     1       5.338  -2.849  20.006  1.00  0.00    -0.200 F 
ENDBRANCH  60  84
BRANCH  72  95
ATOM     95  C   UNL     1      11.285   4.650  15.908  1.00  0.00     0.064 A 
ATOM     96  C   UNL     1      11.960   3.620  15.215  1.00  0.00     0.173 A 
ATOM     97  C   UNL     1      12.094   5.639  16.463  1.00  0.00     0.173 A 
ATOM     98  F   UNL     1      11.309   2.782  14.403  1.00  0.00    -0.203 F 
ATOM     99  C   UNL     1      13.356   3.493  15.253  1.00  0.00     0.198 A 
ATOM    100  C   UNL     1      13.480   5.561  16.431  1.00  0.00     0.198 A 
ATOM    101  F   UNL     1      11.526   6.740  16.974  1.00  0.00    -0.203 F 
ATOM    102  F   UNL     1      13.963   2.448  14.665  1.00  0.00    -0.200 F 
ATOM    103  C   UNL     1      14.114   4.465  15.875  1.00  0.00     0.200 A 
ATOM    104  F   UNL     1      14.200   6.573  16.930  1.00  0.00    -0.200 F 
ATOM    105  F   UNL     1      15.450   4.370  15.907  1.00  0.00    -0.200 F 
ENDBRANCH  72  95
ENDBRANCH  46  47
ENDBRANCH  38  41
ENDBRANCH  36  37
ENDBRANCH   1  36
TORSDOF 15
