REMARK SMILES CCC[C@@H]1CCc2nc3c(F)cccc3c(C(=O)NCCCNC(=O)c3ccc(-c4c5nc(c(-c6c(F)c(F)c(F)c(F)c6F)c6ccc([nH]6)c(-c6c(F)c(F)c(F)c(F)c6F)c6nc(c(-c7c(F)c(F)c(F)c(F)c7F)c7ccc4[nH]7)C=C6)C=C5)cc3)c2C1
REMARK SMILES IDX 21 1 20 2 19 3 17 4 18 5 16 7 4 8 5 9 90 10 6 11 89 12 7 13
REMARK SMILES IDX 8 14 15 15 9 16 14 17 10 18 13 19 11 20 12 21 3 22 2 23 1 24
REMARK SMILES IDX 22 25 23 26 24 27 25 29 26 30 27 31 88 32 28 33 87 34 29 35
REMARK SMILES IDX 30 36 31 37 81 38 32 39 86 40 80 41 82 42 33 43 85 44 79 45
REMARK SMILES IDX 78 46 34 48 66 49 46 50 65 51 47 52 50 53 64 54 83 55 48 56
REMARK SMILES IDX 49 57 63 59 84 60 51 61 35 62 36 63 44 64 37 65 38 66 42 67
REMARK SMILES IDX 45 68 39 69 40 70 43 71 41 72 67 73 68 74 76 75 69 76 70 77
REMARK SMILES IDX 74 78 77 79 71 80 72 81 75 82 73 83 52 84 53 85 61 86 54 87
REMARK SMILES IDX 55 88 59 89 62 90 56 91 57 92 60 93 58 94
REMARK H PARENT 19 6 23 28 82 47 50 58
REMARK Flexibility Score: inf
ROOT
ATOM      1  C   UNL     1       1.170   9.615   4.120  1.00  0.00     0.042 C 
ENDROOT
BRANCH   1   2
ATOM      2  C   UNL     1       2.181   8.618   3.534  1.00  0.00     0.118 C 
BRANCH   2   3
ATOM      3  N   UNL     1       1.729   7.262   3.808  1.00  0.00    -0.352 N 
ATOM      4  C   UNL     1       0.975   6.325   3.143  1.00  0.00     0.252 C 
ATOM      5  O   UNL     1       0.500   5.459   3.879  1.00  0.00    -0.269 OA
ATOM      6  H   UNL     1       2.038   6.937   4.684  1.00  0.00     0.163 HD
BRANCH   4   7
ATOM      7  C   UNL     1       0.804   6.223   1.644  1.00  0.00     0.054 A 
ATOM      8  C   UNL     1       0.650   2.325   1.075  1.00  0.00    -0.006 C 
ATOM      9  C   UNL     1       1.324   2.392  -0.294  1.00  0.00     0.010 C 
ATOM     10  C   UNL     1       0.939   3.637   1.852  1.00  0.00     0.042 C 
ATOM     11  C   UNL     1       0.768   3.567  -1.077  1.00  0.00     0.057 C 
ATOM     12  C   UNL     1       0.858   4.929   1.057  1.00  0.00    -0.013 A 
ATOM     13  C   UNL     1       0.891   4.865  -0.335  1.00  0.00     0.045 A 
ATOM     14  N   UNL     1       0.950   5.955  -1.125  1.00  0.00    -0.249 NA
ATOM     15  C   UNL     1       0.603   7.349   0.791  1.00  0.00     0.016 A 
ATOM     16  C   UNL     1       0.807   7.170  -0.587  1.00  0.00     0.107 A 
ATOM     17  C   UNL     1       0.143   8.622   1.194  1.00  0.00     0.011 A 
ATOM     18  C   UNL     1       0.816   8.289  -1.424  1.00  0.00     0.149 A 
ATOM     19  C   UNL     1       0.150   9.734   0.351  1.00  0.00     0.004 A 
ATOM     20  F   UNL     1       1.081   8.143  -2.733  1.00  0.00    -0.205 F 
ATOM     21  C   UNL     1       0.537   9.571  -0.964  1.00  0.00     0.041 A 
BRANCH   8  22
ATOM     22  C   UNL     1       1.108   1.116   1.919  1.00  0.00     0.003 C 
BRANCH  22  23
ATOM     23  C   UNL     1       0.484  -0.241   1.565  1.00  0.00    -0.003 C 
ATOM     24  C   UNL     1       0.912  -0.834   0.234  1.00  0.00     0.004 C 
ENDBRANCH  22  23
ENDBRANCH   8  22
ENDBRANCH   4   7
ENDBRANCH   2   3
ENDBRANCH   1   2
BRANCH   1  25
ATOM     25  C   UNL     1       1.299   9.810   5.625  1.00  0.00     0.118 C 
BRANCH  25  26
ATOM     26  N   UNL     1       2.294  10.815   5.950  1.00  0.00    -0.352 N 
ATOM     27  C   UNL     1       2.117  12.143   6.244  1.00  0.00     0.251 C 
ATOM     28  H   UNL     1       3.226  10.500   5.962  1.00  0.00     0.163 HD
ATOM     29  O   UNL     1       3.087  12.907   6.221  1.00  0.00    -0.269 OA
BRANCH  27  30
ATOM     30  C   UNL     1       0.778  12.677   6.576  1.00  0.00     0.039 A 
ATOM     31  C   UNL     1       0.393  13.918   6.059  1.00  0.00     0.014 A 
ATOM     32  C   UNL     1      -0.075  11.991   7.446  1.00  0.00     0.014 A 
ATOM     33  C   UNL     1      -0.857  14.451   6.386  1.00  0.00     0.010 A 
ATOM     34  C   UNL     1      -1.351  12.483   7.706  1.00  0.00     0.010 A 
ATOM     35  C   UNL     1      -1.742  13.732   7.203  1.00  0.00    -0.014 A 
BRANCH  35  36
ATOM     36  C   UNL     1      -3.046  14.307   7.617  1.00  0.00     0.031 A 
ATOM     37  C   UNL     1      -3.262  14.686   9.056  1.00  0.00     0.074 A 
ATOM     38  C   UNL     1      -4.034  14.462   6.716  1.00  0.00     0.049 A 
ATOM     39  N   UNL     1      -4.330  15.176   9.632  1.00  0.00    -0.248 NA
ATOM     40  C   UNL     1      -2.133  14.467   9.976  1.00  0.00     0.031 C 
ATOM     41  C   UNL     1      -3.947  14.108   5.300  1.00  0.00     0.029 A 
ATOM     42  N   UNL     1      -5.307  14.956   6.860  1.00  0.00    -0.354 N 
ATOM     43  C   UNL     1      -3.999  15.325  10.973  1.00  0.00     0.074 A 
ATOM     44  C   UNL     1      -2.659  14.810  11.141  1.00  0.00     0.031 C 
ATOM     45  C   UNL     1      -5.108  14.418   4.699  1.00  0.00     0.029 A 
ATOM     46  C   UNL     1      -6.030  14.963   5.693  1.00  0.00     0.049 A 
ATOM     47  H   UNL     1      -5.667  15.274   7.719  1.00  0.00     0.167 HD
ATOM     48  C   UNL     1      -4.734  15.876  11.966  1.00  0.00     0.037 A 
ATOM     49  C   UNL     1      -7.293  15.368   5.455  1.00  0.00     0.037 A 
ATOM     50  C   UNL     1      -6.060  16.401  11.790  1.00  0.00     0.049 A 
ATOM     51  C   UNL     1      -8.108  15.934   6.588  1.00  0.00     0.074 A 
ATOM     52  C   UNL     1      -6.876  17.012  12.725  1.00  0.00     0.029 A 
ATOM     53  N   UNL     1      -6.765  16.376  10.595  1.00  0.00    -0.354 N 
ATOM     54  N   UNL     1      -7.764  16.125   7.839  1.00  0.00    -0.248 NA
ATOM     55  C   UNL     1      -9.484  16.346   6.277  1.00  0.00     0.031 C 
ATOM     56  C   UNL     1      -8.094  17.311  12.110  1.00  0.00     0.029 A 
ATOM     57  C   UNL     1      -8.017  16.939  10.777  1.00  0.00     0.049 A 
ATOM     58  H   UNL     1      -6.426  16.012   9.746  1.00  0.00     0.167 HD
ATOM     59  C   UNL     1      -8.865  16.703   8.456  1.00  0.00     0.074 A 
ATOM     60  C   UNL     1      -9.886  16.845   7.439  1.00  0.00     0.031 C 
ATOM     61  C   UNL     1      -9.017  17.082   9.748  1.00  0.00     0.037 A 
BRANCH  48  62
ATOM     62  C   UNL     1      -4.114  15.959  13.331  1.00  0.00     0.064 A 
ATOM     63  C   UNL     1      -3.054  16.839  13.598  1.00  0.00     0.173 A 
ATOM     64  C   UNL     1      -4.622  15.201  14.396  1.00  0.00     0.173 A 
ATOM     65  F   UNL     1      -2.522  17.576  12.611  1.00  0.00    -0.203 F 
ATOM     66  C   UNL     1      -2.514  16.944  14.877  1.00  0.00     0.198 A 
ATOM     67  C   UNL     1      -4.100  15.332  15.681  1.00  0.00     0.198 A 
ATOM     68  F   UNL     1      -5.636  14.347  14.196  1.00  0.00    -0.203 F 
ATOM     69  F   UNL     1      -1.477  17.763  15.100  1.00  0.00    -0.200 F 
ATOM     70  C   UNL     1      -3.045  16.199  15.919  1.00  0.00     0.200 A 
ATOM     71  F   UNL     1      -4.623  14.622  16.690  1.00  0.00    -0.200 F 
ATOM     72  F   UNL     1      -2.536  16.315  17.154  1.00  0.00    -0.200 F 
ENDBRANCH  48  62
BRANCH  49  73
ATOM     73  C   UNL     1      -7.847  15.291   4.077  1.00  0.00     0.064 A 
ATOM     74  C   UNL     1      -8.102  16.457   3.341  1.00  0.00     0.173 A 
ATOM     75  C   UNL     1      -8.118  14.060   3.461  1.00  0.00     0.173 A 
ATOM     76  F   UNL     1      -7.878  17.659   3.892  1.00  0.00    -0.203 F 
ATOM     77  C   UNL     1      -8.615  16.395   2.046  1.00  0.00     0.198 A 
ATOM     78  C   UNL     1      -8.605  13.999   2.157  1.00  0.00     0.198 A 
ATOM     79  F   UNL     1      -7.889  12.915   4.120  1.00  0.00    -0.203 F 
ATOM     80  F   UNL     1      -8.881  17.526   1.379  1.00  0.00    -0.200 F 
ATOM     81  C   UNL     1      -8.859  15.166   1.453  1.00  0.00     0.200 A 
ATOM     82  F   UNL     1      -8.824  12.809   1.581  1.00  0.00    -0.200 F 
ATOM     83  F   UNL     1      -9.340  15.106   0.204  1.00  0.00    -0.200 F 
ENDBRANCH  49  73
BRANCH  61  84
ATOM     84  C   UNL     1     -10.321  17.709  10.146  1.00  0.00     0.064 A 
ATOM     85  C   UNL     1     -11.493  16.950  10.264  1.00  0.00     0.173 A 
ATOM     86  C   UNL     1     -10.376  19.065  10.507  1.00  0.00     0.173 A 
ATOM     87  F   UNL     1     -11.495  15.653   9.921  1.00  0.00    -0.203 F 
ATOM     88  C   UNL     1     -12.676  17.526  10.719  1.00  0.00     0.198 A 
ATOM     89  C   UNL     1     -11.552  19.630  10.992  1.00  0.00     0.198 A 
ATOM     90  F   UNL     1      -9.279  19.832  10.422  1.00  0.00    -0.203 F 
ATOM     91  F   UNL     1     -13.792  16.789  10.795  1.00  0.00    -0.200 F 
ATOM     92  C   UNL     1     -12.701  18.861  11.094  1.00  0.00     0.200 A 
ATOM     93  F   UNL     1     -11.569  20.915  11.372  1.00  0.00    -0.200 F 
ATOM     94  F   UNL     1     -13.834  19.408  11.555  1.00  0.00    -0.200 F 
ENDBRANCH  61  84
ENDBRANCH  35  36
ENDBRANCH  27  30
ENDBRANCH  25  26
ENDBRANCH   1  25
TORSDOF 12
