REMARK SMILES C[NH+](C)CCc1nc(Nc2ccc(O)c(C(=O)NCCCNC(=O)c3ccc(-c4c5nc(c(-c6c(F)c(F)c(F)c(F)c6F)c6ccc([nH]6)c(-c6c(F)c(F)c(F)c(F)c6F)c6nc(c(-c7c(F)c(F)c(F)c(F)c7F)c7ccc4[nH]7)C=C6)C=C5)cc3)c2)c2ccccc2n1
REMARK SMILES IDX 16 1 17 2 18 3 15 5 10 6 11 7 88 8 12 9 13 10 9 11 8 13 6 14
REMARK SMILES IDX 7 15 95 16 94 17 89 18 93 19 90 20 92 21 91 22 5 23 4 24
REMARK SMILES IDX 2 25 1 26 3 27 14 29 19 31 20 32 21 33 22 34 23 35 24 37
REMARK SMILES IDX 25 38 26 39 87 40 27 41 86 42 28 43 29 44 30 45 80 46 31 47
REMARK SMILES IDX 85 48 79 49 81 50 32 51 84 52 78 53 77 54 33 56 65 57 45 58
REMARK SMILES IDX 64 59 46 60 49 61 63 62 82 63 47 64 48 65 62 67 83 68 50 69
REMARK SMILES IDX 34 70 35 71 43 72 36 73 37 74 41 75 44 76 38 77 39 78 42 79
REMARK SMILES IDX 40 80 66 81 67 82 75 83 68 84 69 85 73 86 76 87 70 88 71 89
REMARK SMILES IDX 74 90 72 91 51 92 52 93 60 94 53 95 54 96 58 97 61 98 55 99
REMARK SMILES IDX 56 100 59 101 57 102
REMARK H PARENT 18 4 9 12 2 28 14 30 22 36 81 55 49 66
REMARK Flexibility Score: inf
ROOT
ATOM      1  C   UNL     1      -5.239   3.442  -1.391  1.00  0.00     0.255 C 
ATOM      2  O   UNL     1      -5.218   4.361  -2.217  1.00  0.00    -0.269 OA
ATOM      3  N   UNL     1      -6.465   2.889  -1.134  1.00  0.00    -0.352 N 
ATOM      4  H   UNL     1      -7.193   3.271  -1.675  1.00  0.00     0.163 HD
ENDROOT
BRANCH   1   5
ATOM      5  C   UNL     1      -3.940   2.969  -0.833  1.00  0.00     0.083 A 
ATOM      6  C   UNL     1      -1.556   2.712  -1.371  1.00  0.00     0.041 A 
ATOM      7  C   UNL     1      -1.340   2.215  -0.085  1.00  0.00     0.030 A 
ATOM      8  C   UNL     1      -2.856   3.074  -1.731  1.00  0.00     0.043 A 
ATOM      9  C   UNL     1      -2.385   2.120   0.830  1.00  0.00     0.049 A 
ATOM     10  C   UNL     1      -3.676   2.513   0.464  1.00  0.00     0.128 A 
BRANCH   6  11
ATOM     11  N   UNL     1      -0.515   2.771  -2.311  1.00  0.00    -0.340 N 
ATOM     12  H   UNL     1      -0.413   3.612  -2.811  1.00  0.00     0.168 HD
BRANCH  11  13
ATOM     13  C   UNL     1       0.399   1.738  -2.605  1.00  0.00     0.142 A 
ATOM     14  C   UNL     1       0.875  -0.512  -2.599  1.00  0.00     0.137 A 
ATOM     15  N   UNL     1       0.019   0.479  -2.325  1.00  0.00    -0.215 NA
ATOM     16  N   UNL     1       2.083  -0.340  -3.154  1.00  0.00    -0.233 NA
ATOM     17  C   UNL     1       2.461   0.915  -3.425  1.00  0.00     0.076 A 
ATOM     18  C   UNL     1       1.655   2.030  -3.155  1.00  0.00     0.043 A 
ATOM     19  C   UNL     1       3.714   1.125  -3.985  1.00  0.00     0.029 A 
ATOM     20  C   UNL     1       2.148   3.333  -3.420  1.00  0.00     0.014 A 
ATOM     21  C   UNL     1       4.197   2.408  -4.261  1.00  0.00     0.002 A 
ATOM     22  C   UNL     1       3.414   3.517  -3.969  1.00  0.00     0.001 A 
BRANCH  14  23
ATOM     23  C   UNL     1       0.448  -1.902  -2.232  1.00  0.00     0.138 C 
BRANCH  23  24
ATOM     24  C   UNL     1       1.021  -2.406  -0.895  1.00  0.00     0.269 C 
BRANCH  24  25
ATOM     25  N   UNL     1       0.587  -1.811   0.384  1.00  0.00    -0.339 N 
ATOM     26  C   UNL     1       1.339  -0.610   0.730  1.00  0.00     0.332 C 
ATOM     27  C   UNL     1      -0.852  -1.588   0.465  1.00  0.00     0.332 C 
ATOM     28  H   UNL     1       0.804  -2.515   1.089  1.00  0.00     0.347 HD
ENDBRANCH  24  25
ENDBRANCH  23  24
ENDBRANCH  14  23
ENDBRANCH  11  13
ENDBRANCH   6  11
BRANCH  10  29
ATOM     29  O   UNL     1      -4.629   2.476   1.436  1.00  0.00    -0.507 OA
ATOM     30  H   UNL     1      -4.413   2.163   2.292  1.00  0.00     0.293 HD
ENDBRANCH  10  29
ENDBRANCH   1   5
BRANCH   3  31
ATOM     31  C   UNL     1      -6.900   1.850  -0.223  1.00  0.00     0.118 C 
BRANCH  31  32
ATOM     32  C   UNL     1      -7.490   2.456   1.053  1.00  0.00     0.042 C 
BRANCH  32  33
ATOM     33  C   UNL     1      -8.851   3.117   0.863  1.00  0.00     0.118 C 
BRANCH  33  34
ATOM     34  N   UNL     1      -9.917   2.146   0.696  1.00  0.00    -0.352 N 
ATOM     35  C   UNL     1     -11.094   1.993   1.383  1.00  0.00     0.251 C 
ATOM     36  H   UNL     1      -9.772   1.494  -0.027  1.00  0.00     0.163 HD
ATOM     37  O   UNL     1     -11.760   0.978   1.200  1.00  0.00    -0.269 OA
BRANCH  35  38
ATOM     38  C   UNL     1     -11.575   3.014   2.347  1.00  0.00     0.039 A 
ATOM     39  C   UNL     1     -12.264   2.568   3.482  1.00  0.00     0.014 A 
ATOM     40  C   UNL     1     -11.438   4.387   2.123  1.00  0.00     0.014 A 
ATOM     41  C   UNL     1     -12.786   3.488   4.394  1.00  0.00     0.010 A 
ATOM     42  C   UNL     1     -11.902   5.306   3.069  1.00  0.00     0.010 A 
ATOM     43  C   UNL     1     -12.596   4.866   4.205  1.00  0.00    -0.014 A 
BRANCH  43  44
ATOM     44  C   UNL     1     -13.139   5.837   5.189  1.00  0.00     0.031 A 
ATOM     45  C   UNL     1     -14.267   6.759   4.815  1.00  0.00     0.074 A 
ATOM     46  C   UNL     1     -12.613   5.888   6.428  1.00  0.00     0.049 A 
ATOM     47  N   UNL     1     -14.900   7.636   5.556  1.00  0.00    -0.248 NA
ATOM     48  C   UNL     1     -14.736   6.705   3.422  1.00  0.00     0.031 C 
ATOM     49  C   UNL     1     -11.483   5.085   6.897  1.00  0.00     0.029 A 
ATOM     50  N   UNL     1     -12.962   6.642   7.520  1.00  0.00    -0.354 N 
ATOM     51  C   UNL     1     -15.832   8.237   4.721  1.00  0.00     0.074 A 
ATOM     52  C   UNL     1     -15.652   7.663   3.405  1.00  0.00     0.031 C 
ATOM     53  C   UNL     1     -11.254   5.362   8.191  1.00  0.00     0.029 A 
ATOM     54  C   UNL     1     -12.206   6.375   8.636  1.00  0.00     0.049 A 
ATOM     55  H   UNL     1     -13.685   7.310   7.506  1.00  0.00     0.167 HD
ATOM     56  C   UNL     1     -16.770   9.166   5.027  1.00  0.00     0.037 A 
ATOM     57  C   UNL     1     -12.284   6.880   9.881  1.00  0.00     0.037 A 
ATOM     58  C   UNL     1     -16.966   9.722   6.341  1.00  0.00     0.049 A 
ATOM     59  C   UNL     1     -13.354   7.886  10.202  1.00  0.00     0.074 A 
ATOM     60  C   UNL     1     -17.916  10.636   6.762  1.00  0.00     0.029 A 
ATOM     61  N   UNL     1     -16.194   9.411   7.451  1.00  0.00    -0.354 N 
ATOM     62  N   UNL     1     -14.273   8.396   9.419  1.00  0.00    -0.248 NA
ATOM     63  C   UNL     1     -13.407   8.374  11.587  1.00  0.00     0.031 C 
ATOM     64  C   UNL     1     -17.701  10.902   8.119  1.00  0.00     0.029 A 
ATOM     65  C   UNL     1     -16.640  10.123   8.553  1.00  0.00     0.049 A 
ATOM     66  H   UNL     1     -15.440   8.778   7.455  1.00  0.00     0.167 HD
ATOM     67  C   UNL     1     -15.024   9.247  10.217  1.00  0.00     0.074 A 
ATOM     68  C   UNL     1     -14.469   9.166  11.552  1.00  0.00     0.031 C 
ATOM     69  C   UNL     1     -16.076  10.030   9.874  1.00  0.00     0.037 A 
BRANCH  56  70
ATOM     70  C   UNL     1     -17.671   9.633   3.921  1.00  0.00     0.064 A 
ATOM     71  C   UNL     1     -18.675   8.805   3.397  1.00  0.00     0.173 A 
ATOM     72  C   UNL     1     -17.560  10.935   3.410  1.00  0.00     0.173 A 
ATOM     73  F   UNL     1     -18.815   7.548   3.844  1.00  0.00    -0.203 F 
ATOM     74  C   UNL     1     -19.519   9.255   2.385  1.00  0.00     0.198 A 
ATOM     75  C   UNL     1     -18.423  11.390   2.416  1.00  0.00     0.198 A 
ATOM     76  F   UNL     1     -16.621  11.769   3.881  1.00  0.00    -0.203 F 
ATOM     77  F   UNL     1     -20.445   8.433   1.871  1.00  0.00    -0.200 F 
ATOM     78  C   UNL     1     -19.398  10.549   1.901  1.00  0.00     0.200 A 
ATOM     79  F   UNL     1     -18.312  12.645   1.957  1.00  0.00    -0.200 F 
ATOM     80  F   UNL     1     -20.216  10.984   0.933  1.00  0.00    -0.200 F 
ENDBRANCH  56  70
BRANCH  57  81
ATOM     81  C   UNL     1     -11.348   6.406  10.933  1.00  0.00     0.064 A 
ATOM     82  C   UNL     1     -11.801   5.596  11.984  1.00  0.00     0.173 A 
ATOM     83  C   UNL     1      -9.991   6.756  10.914  1.00  0.00     0.173 A 
ATOM     84  F   UNL     1     -13.095   5.252  12.055  1.00  0.00    -0.203 F 
ATOM     85  C   UNL     1     -10.935   5.172  12.990  1.00  0.00     0.198 A 
ATOM     86  C   UNL     1      -9.121   6.311  11.907  1.00  0.00     0.198 A 
ATOM     87  F   UNL     1      -9.509   7.525   9.927  1.00  0.00    -0.203 F 
ATOM     88  F   UNL     1     -11.402   4.437  14.007  1.00  0.00    -0.200 F 
ATOM     89  C   UNL     1      -9.595   5.526  12.948  1.00  0.00     0.200 A 
ATOM     90  F   UNL     1      -7.824   6.644  11.856  1.00  0.00    -0.200 F 
ATOM     91  F   UNL     1      -8.761   5.117  13.914  1.00  0.00    -0.200 F 
ENDBRANCH  57  81
BRANCH  69  92
ATOM     92  C   UNL     1     -16.703  10.841  10.969  1.00  0.00     0.064 A 
ATOM     93  C   UNL     1     -16.057  11.962  11.512  1.00  0.00     0.173 A 
ATOM     94  C   UNL     1     -17.965  10.498  11.476  1.00  0.00     0.173 A 
ATOM     95  F   UNL     1     -14.841  12.319  11.071  1.00  0.00    -0.203 F 
ATOM     96  C   UNL     1     -16.637  12.689  12.547  1.00  0.00     0.198 A 
ATOM     97  C   UNL     1     -18.554  11.245  12.493  1.00  0.00     0.198 A 
ATOM     98  F   UNL     1     -18.626   9.439  10.986  1.00  0.00    -0.203 F 
ATOM     99  F   UNL     1     -15.977  13.722  13.089  1.00  0.00    -0.200 F 
ATOM    100  C   UNL     1     -17.886  12.333  13.034  1.00  0.00     0.200 A 
ATOM    101  F   UNL     1     -19.764  10.905  12.957  1.00  0.00    -0.200 F 
ATOM    102  F   UNL     1     -18.440  13.031  14.034  1.00  0.00    -0.200 F 
ENDBRANCH  69  92
ENDBRANCH  43  44
ENDBRANCH  35  38
ENDBRANCH  33  34
ENDBRANCH  32  33
ENDBRANCH  31  32
ENDBRANCH   3  31
TORSDOF 16
