REMARK SMILES CC1(C)O[C@](C)(C(C)(C)O)CC[C@H]1C(=O)NCCCNC(=O)c1ccc(-c2c3nc(c(-c4c(F)c(F)c(F)c(F)c4F)c4ccc([nH]4)c(-c4c(F)c(F)c(F)c(F)c4F)c4nc(c(-c5c(F)c(F)c(F)c(F)c5F)c5ccc2[nH]5)C=C4)C=C3)cc1
REMARK SMILES IDX 18 1 17 2 16 3 14 4 15 5 13 7 1 8 2 9 3 10 4 11 5 12 12 13
REMARK SMILES IDX 6 14 11 15 7 16 8 17 9 18 10 19 19 21 20 22 21 23 22 25
REMARK SMILES IDX 23 26 24 27 85 28 25 29 84 30 26 31 27 32 28 33 78 34 29 35
REMARK SMILES IDX 83 36 77 37 79 38 30 39 82 40 76 41 75 42 31 44 63 45 43 46
REMARK SMILES IDX 62 47 44 48 47 49 61 50 80 51 45 52 46 53 60 55 81 56 48 57
REMARK SMILES IDX 32 58 33 59 41 60 34 61 35 62 39 63 42 64 36 65 37 66 40 67
REMARK SMILES IDX 38 68 64 69 65 70 73 71 66 72 67 73 71 74 74 75 68 76 69 77
REMARK SMILES IDX 72 78 70 79 49 80 50 81 58 82 51 83 52 84 56 85 59 86 53 87
REMARK SMILES IDX 54 88 57 89 55 90
REMARK H PARENT 16 6 10 20 20 24 79 43 47 54
REMARK Flexibility Score: inf
ROOT
ATOM      1  C   UNL     1       4.365  -0.836  -0.403  1.00  0.00     0.042 C 
ENDROOT
BRANCH   1   2
ATOM      2  C   UNL     1       3.483  -1.510  -1.446  1.00  0.00     0.117 C 
BRANCH   2   3
ATOM      3  N   UNL     1       2.928  -2.751  -0.942  1.00  0.00    -0.356 N 
ATOM      4  C   UNL     1       1.686  -3.099  -0.525  1.00  0.00     0.226 C 
ATOM      5  O   UNL     1       1.586  -4.210   0.006  1.00  0.00    -0.275 OA
ATOM      6  H   UNL     1       3.582  -3.486  -0.894  1.00  0.00     0.163 HD
BRANCH   4   7
ATOM      7  C   UNL     1       0.446  -2.225  -0.697  1.00  0.00     0.110 C 
ATOM      8  C   UNL     1       1.339  -0.216   0.809  1.00  0.00     0.043 C 
ATOM      9  C   UNL     1       0.197  -1.140   0.387  1.00  0.00     0.075 C 
ATOM     10  C   UNL     1      -0.224  -1.856   1.695  1.00  0.00     0.043 C 
ATOM     11  O   UNL     1      -0.919  -0.298   0.053  1.00  0.00    -0.366 OA
ATOM     12  C   UNL     1      -1.052   0.223  -1.283  1.00  0.00     0.094 C 
ATOM     13  C   UNL     1       0.174  -1.827  -2.153  1.00  0.00     0.019 C 
ATOM     14  C   UNL     1       0.092   1.187  -1.678  1.00  0.00     0.045 C 
ATOM     15  C   UNL     1      -1.083  -0.966  -2.264  1.00  0.00     0.039 C 
BRANCH  12  16
ATOM     16  C   UNL     1      -2.409   1.038  -1.292  1.00  0.00     0.088 C 
ATOM     17  C   UNL     1      -3.628   0.172  -0.937  1.00  0.00     0.045 C 
ATOM     18  C   UNL     1      -2.359   2.217  -0.297  1.00  0.00     0.045 C 
BRANCH  16  19
ATOM     19  O   UNL     1      -2.638   1.581  -2.602  1.00  0.00    -0.387 OA
ATOM     20  H   UNL     1      -2.674   0.860  -3.249  1.00  0.00     0.211 HD
ENDBRANCH  16  19
ENDBRANCH  12  16
ENDBRANCH   4   7
ENDBRANCH   2   3
ENDBRANCH   1   2
BRANCH   1  21
ATOM     21  C   UNL     1       5.690  -1.536  -0.180  1.00  0.00     0.118 C 
BRANCH  21  22
ATOM     22  N   UNL     1       6.612  -1.306  -1.276  1.00  0.00    -0.352 N 
ATOM     23  C   UNL     1       7.724  -0.509  -1.341  1.00  0.00     0.251 C 
ATOM     24  H   UNL     1       6.407  -1.801  -2.102  1.00  0.00     0.163 HD
ATOM     25  O   UNL     1       8.214  -0.257  -2.445  1.00  0.00    -0.269 OA
BRANCH  23  26
ATOM     26  C   UNL     1       8.340   0.061  -0.121  1.00  0.00     0.039 A 
ATOM     27  C   UNL     1       8.959   1.312  -0.202  1.00  0.00     0.014 A 
ATOM     28  C   UNL     1       8.379  -0.647   1.083  1.00  0.00     0.014 A 
ATOM     29  C   UNL     1       9.586   1.855   0.921  1.00  0.00     0.010 A 
ATOM     30  C   UNL     1       8.894  -0.055   2.231  1.00  0.00     0.010 A 
ATOM     31  C   UNL     1       9.544   1.183   2.153  1.00  0.00    -0.014 A 
BRANCH  31  32
ATOM     32  C   UNL     1      10.243   1.719   3.349  1.00  0.00     0.031 A 
ATOM     33  C   UNL     1      11.361   0.928   3.979  1.00  0.00     0.074 A 
ATOM     34  C   UNL     1       9.850   2.887   3.891  1.00  0.00     0.049 A 
ATOM     35  N   UNL     1      12.065   1.194   5.051  1.00  0.00    -0.248 NA
ATOM     36  C   UNL     1      11.713  -0.351   3.340  1.00  0.00     0.031 C 
ATOM     37  C   UNL     1       8.744   3.714   3.408  1.00  0.00     0.029 A 
ATOM     38  N   UNL     1      10.336   3.579   4.971  1.00  0.00    -0.354 N 
ATOM     39  C   UNL     1      12.914   0.108   5.225  1.00  0.00     0.074 A 
ATOM     40  C   UNL     1      12.597  -0.849   4.190  1.00  0.00     0.031 C 
ATOM     41  C   UNL     1       8.658   4.819   4.166  1.00  0.00     0.029 A 
ATOM     42  C   UNL     1       9.679   4.761   5.208  1.00  0.00     0.049 A 
ATOM     43  H   UNL     1      11.086   3.259   5.523  1.00  0.00     0.167 HD
ATOM     44  C   UNL     1      13.893  -0.063   6.144  1.00  0.00     0.037 A 
ATOM     45  C   UNL     1       9.883   5.693   6.157  1.00  0.00     0.037 A 
ATOM     46  C   UNL     1      14.239   0.914   7.141  1.00  0.00     0.049 A 
ATOM     47  C   UNL     1      11.002   5.498   7.144  1.00  0.00     0.074 A 
ATOM     48  C   UNL     1      15.256   0.872   8.078  1.00  0.00     0.029 A 
ATOM     49  N   UNL     1      13.575   2.119   7.323  1.00  0.00    -0.354 N 
ATOM     50  N   UNL     1      11.843   4.499   7.255  1.00  0.00    -0.248 NA
ATOM     51  C   UNL     1      11.210   6.570   8.127  1.00  0.00     0.031 C 
ATOM     52  C   UNL     1      15.184   2.034   8.852  1.00  0.00     0.029 A 
ATOM     53  C   UNL     1      14.154   2.824   8.366  1.00  0.00     0.049 A 
ATOM     54  H   UNL     1      12.807   2.428   6.790  1.00  0.00     0.167 HD
ATOM     55  C   UNL     1      12.697   4.833   8.298  1.00  0.00     0.074 A 
ATOM     56  C   UNL     1      12.282   6.136   8.775  1.00  0.00     0.031 C 
ATOM     57  C   UNL     1      13.732   4.125   8.815  1.00  0.00     0.037 A 
BRANCH  44  58
ATOM     58  C   UNL     1      14.668  -1.349   6.104  1.00  0.00     0.064 A 
ATOM     59  C   UNL     1      15.550  -1.647   5.052  1.00  0.00     0.173 A 
ATOM     60  C   UNL     1      14.547  -2.287   7.140  1.00  0.00     0.173 A 
ATOM     61  F   UNL     1      15.693  -0.792   4.029  1.00  0.00    -0.203 F 
ATOM     62  C   UNL     1      16.254  -2.848   5.024  1.00  0.00     0.198 A 
ATOM     63  C   UNL     1      15.277  -3.473   7.125  1.00  0.00     0.198 A 
ATOM     64  F   UNL     1      13.722  -2.053   8.172  1.00  0.00    -0.203 F 
ATOM     65  F   UNL     1      17.046  -3.134   3.981  1.00  0.00    -0.200 F 
ATOM     66  C   UNL     1      16.123  -3.756   6.063  1.00  0.00     0.200 A 
ATOM     67  F   UNL     1      15.159  -4.344   8.136  1.00  0.00    -0.200 F 
ATOM     68  F   UNL     1      16.805  -4.909   6.037  1.00  0.00    -0.200 F 
ENDBRANCH  44  58
BRANCH  45  69
ATOM     69  C   UNL     1       9.037   6.914   6.192  1.00  0.00     0.064 A 
ATOM     70  C   UNL     1       9.568   8.167   5.852  1.00  0.00     0.173 A 
ATOM     71  C   UNL     1       7.685   6.857   6.561  1.00  0.00     0.173 A 
ATOM     72  F   UNL     1      10.860   8.275   5.509  1.00  0.00    -0.203 F 
ATOM     73  C   UNL     1       8.786   9.319   5.903  1.00  0.00     0.198 A 
ATOM     74  C   UNL     1       6.896   8.005   6.584  1.00  0.00     0.198 A 
ATOM     75  F   UNL     1       7.127   5.682   6.886  1.00  0.00    -0.203 F 
ATOM     76  F   UNL     1       9.331  10.509   5.618  1.00  0.00    -0.200 F 
ATOM     77  C   UNL     1       7.449   9.236   6.263  1.00  0.00     0.200 A 
ATOM     78  F   UNL     1       5.601   7.920   6.917  1.00  0.00    -0.200 F 
ATOM     79  F   UNL     1       6.696  10.344   6.308  1.00  0.00    -0.200 F 
ENDBRANCH  45  69
BRANCH  57  80
ATOM     80  C   UNL     1      14.512   4.766   9.925  1.00  0.00     0.064 A 
ATOM     81  C   UNL     1      13.977   4.912  11.213  1.00  0.00     0.173 A 
ATOM     82  C   UNL     1      15.825   5.207   9.703  1.00  0.00     0.173 A 
ATOM     83  F   UNL     1      12.721   4.518  11.471  1.00  0.00    -0.203 F 
ATOM     84  C   UNL     1      14.718   5.508  12.230  1.00  0.00     0.198 A 
ATOM     85  C   UNL     1      16.574   5.774  10.730  1.00  0.00     0.198 A 
ATOM     86  F   UNL     1      16.386   5.081   8.491  1.00  0.00    -0.203 F 
ATOM     87  F   UNL     1      14.168   5.686  13.439  1.00  0.00    -0.200 F 
ATOM     88  C   UNL     1      16.017   5.931  11.990  1.00  0.00     0.200 A 
ATOM     89  F   UNL     1      17.833   6.169  10.501  1.00  0.00    -0.200 F 
ATOM     90  F   UNL     1      16.729   6.500  12.972  1.00  0.00    -0.200 F 
ENDBRANCH  57  80
ENDBRANCH  31  32
ENDBRANCH  23  26
ENDBRANCH  21  22
ENDBRANCH   1  21
TORSDOF 12
