REMARK SMILES CS(=O)(=O)c1ccc(C2=NN(c3ccc(C(=O)NCCCNC(=O)c4ccc(-c5c6nc(c(-c7c(F)c(F)c(F)c(F)c7F)c7ccc([nH]7)c(-c7c(F)c(F)c(F)c(F)c7F)c7nc(c(-c8c(F)c(F)c(F)c(F)c8F)c8ccc5[nH]8)C=C7)C=C6)cc4)cc3)[C@H](c3ccc(F)cc3)C2)cc1
REMARK SMILES IDX 19 1 18 2 16 3 17 4 15 6 12 7 13 8 89 9 14 10 88 11 11 12
REMARK SMILES IDX 9 13 10 14 98 15 90 16 8 17 5 18 6 19 100 20 7 21 99 22 2 23
REMARK SMILES IDX 1 24 3 25 4 26 91 27 92 28 97 29 93 30 96 31 94 32 95 33
REMARK SMILES IDX 20 34 21 35 22 36 23 37 24 39 25 40 26 41 87 42 27 43 86 44
REMARK SMILES IDX 28 45 29 46 30 47 80 48 31 49 85 50 79 51 81 52 32 53 84 54
REMARK SMILES IDX 78 55 77 56 33 58 65 59 45 60 64 61 46 62 49 63 63 64 82 65
REMARK SMILES IDX 47 66 48 67 62 69 83 70 50 71 34 72 35 73 43 74 36 75 37 76
REMARK SMILES IDX 41 77 44 78 38 79 39 80 42 81 40 82 66 83 67 84 75 85 68 86
REMARK SMILES IDX 69 87 73 88 76 89 70 90 71 91 74 92 72 93 51 94 52 95 60 96
REMARK SMILES IDX 53 97 54 98 58 99 61 100 55 101 56 102 59 103 57 104
REMARK H PARENT 18 5 22 38 81 57 49 68
REMARK Flexibility Score: inf
ROOT
ATOM      1  C   UNL     1       3.347  -4.176 -14.444  1.00  0.00     0.118 C 
ENDROOT
BRANCH   1   2
ATOM      2  N   UNL     1       1.943  -3.828 -14.585  1.00  0.00    -0.352 N 
ATOM      3  C   UNL     1       1.054  -3.271 -13.699  1.00  0.00     0.251 C 
ATOM      4  O   UNL     1      -0.074  -2.994 -14.101  1.00  0.00    -0.269 OA
ATOM      5  H   UNL     1       1.563  -4.027 -15.471  1.00  0.00     0.163 HD
BRANCH   3   6
ATOM      6  C   UNL     1       1.440  -2.933 -12.305  1.00  0.00     0.039 A 
ATOM      7  C   UNL     1       2.249  -2.084  -9.745  1.00  0.00     0.060 A 
ATOM      8  C   UNL     1       1.301  -1.352 -10.466  1.00  0.00     0.029 A 
ATOM      9  C   UNL     1       2.708  -3.290 -10.278  1.00  0.00     0.029 A 
ATOM     10  C   UNL     1       0.897  -1.772 -11.738  1.00  0.00     0.016 A 
ATOM     11  C   UNL     1       2.297  -3.720 -11.537  1.00  0.00     0.016 A 
BRANCH   7  12
ATOM     12  N   UNL     1       2.747  -1.651  -8.531  1.00  0.00    -0.257 N 
ATOM     13  C   UNL     1       2.516  -1.113  -6.497  1.00  0.00     0.071 C 
ATOM     14  N   UNL     1       2.042  -1.900  -7.408  1.00  0.00    -0.176 NA
ATOM     15  C   UNL     1       3.590  -0.159  -6.947  1.00  0.00     0.091 C 
ATOM     16  C   UNL     1       3.825  -0.671  -8.381  1.00  0.00     0.144 C 
BRANCH  13  17
ATOM     17  C   UNL     1       2.021  -1.148  -5.115  1.00  0.00    -0.002 A 
ATOM     18  C   UNL     1       0.949  -1.310  -2.556  1.00  0.00     0.067 A 
ATOM     19  C   UNL     1       1.264  -2.483  -3.247  1.00  0.00     0.021 A 
ATOM     20  C   UNL     1       1.167  -0.055  -3.138  1.00  0.00     0.021 A 
ATOM     21  C   UNL     1       1.787  -2.400  -4.535  1.00  0.00     0.011 A 
ATOM     22  C   UNL     1       1.718   0.026  -4.421  1.00  0.00     0.011 A 
BRANCH  18  23
ATOM     23  S   UNL     1       0.253  -1.454  -0.925  1.00  0.00     0.175 S 
ATOM     24  C   UNL     1       0.919  -0.105   0.009  1.00  0.00     0.163 C 
ATOM     25  O   UNL     1       0.791  -2.672  -0.344  1.00  0.00    -0.224 OA
ATOM     26  O   UNL     1      -1.174  -1.251  -1.065  1.00  0.00    -0.224 OA
ENDBRANCH  18  23
ENDBRANCH  13  17
BRANCH  16  27
ATOM     27  C   UNL     1       5.179  -1.306  -8.707  1.00  0.00    -0.023 A 
ATOM     28  C   UNL     1       6.088  -1.767  -7.740  1.00  0.00     0.009 A 
ATOM     29  C   UNL     1       5.521  -1.488 -10.067  1.00  0.00     0.009 A 
ATOM     30  C   UNL     1       7.291  -2.377  -8.119  1.00  0.00     0.039 A 
ATOM     31  C   UNL     1       6.705  -2.126 -10.444  1.00  0.00     0.039 A 
ATOM     32  C   UNL     1       7.583  -2.560  -9.464  1.00  0.00     0.123 A 
ATOM     33  F   UNL     1       8.721  -3.170  -9.819  1.00  0.00    -0.207 F 
ENDBRANCH  16  27
ENDBRANCH   7  12
ENDBRANCH   3   6
ENDBRANCH   1   2
BRANCH   1  34
ATOM     34  C   UNL     1       3.527  -5.681 -14.257  1.00  0.00     0.042 C 
BRANCH  34  35
ATOM     35  C   UNL     1       3.299  -6.476 -15.536  1.00  0.00     0.118 C 
BRANCH  35  36
ATOM     36  N   UNL     1       4.346  -6.239 -16.518  1.00  0.00    -0.352 N 
ATOM     37  C   UNL     1       5.229  -7.115 -17.096  1.00  0.00     0.251 C 
ATOM     38  H   UNL     1       4.435  -5.304 -16.814  1.00  0.00     0.163 HD
ATOM     39  O   UNL     1       6.190  -6.681 -17.724  1.00  0.00    -0.269 OA
BRANCH  37  40
ATOM     40  C   UNL     1       5.037  -8.575 -16.964  1.00  0.00     0.039 A 
ATOM     41  C   UNL     1       6.162  -9.388 -16.797  1.00  0.00     0.014 A 
ATOM     42  C   UNL     1       3.767  -9.151 -17.053  1.00  0.00     0.014 A 
ATOM     43  C   UNL     1       6.008 -10.770 -16.675  1.00  0.00     0.010 A 
ATOM     44  C   UNL     1       3.607 -10.518 -16.846  1.00  0.00     0.010 A 
ATOM     45  C   UNL     1       4.726 -11.345 -16.670  1.00  0.00    -0.014 A 
BRANCH  45  46
ATOM     46  C   UNL     1       4.541 -12.808 -16.499  1.00  0.00     0.031 A 
ATOM     47  C   UNL     1       3.925 -13.626 -17.601  1.00  0.00     0.074 A 
ATOM     48  C   UNL     1       4.879 -13.390 -15.332  1.00  0.00     0.049 A 
ATOM     49  N   UNL     1       3.628 -14.901 -17.621  1.00  0.00    -0.248 NA
ATOM     50  C   UNL     1       3.571 -12.910 -18.837  1.00  0.00     0.031 C 
ATOM     51  C   UNL     1       5.445 -12.696 -14.175  1.00  0.00     0.029 A 
ATOM     52  N   UNL     1       4.788 -14.697 -14.923  1.00  0.00    -0.354 N 
ATOM     53  C   UNL     1       3.044 -15.134 -18.859  1.00  0.00     0.074 A 
ATOM     54  C   UNL     1       2.972 -13.860 -19.540  1.00  0.00     0.031 C 
ATOM     55  C   UNL     1       5.673 -13.586 -13.197  1.00  0.00     0.029 A 
ATOM     56  C   UNL     1       5.230 -14.904 -13.639  1.00  0.00     0.049 A 
ATOM     57  H   UNL     1       4.438 -15.418 -15.496  1.00  0.00     0.167 HD
ATOM     58  C   UNL     1       2.628 -16.309 -19.389  1.00  0.00     0.037 A 
ATOM     59  C   UNL     1       5.263 -16.028 -12.899  1.00  0.00     0.037 A 
ATOM     60  C   UNL     1       2.719 -17.577 -18.713  1.00  0.00     0.049 A 
ATOM     61  C   UNL     1       4.772 -17.317 -13.505  1.00  0.00     0.074 A 
ATOM     62  C   UNL     1       2.378 -18.832 -19.183  1.00  0.00     0.029 A 
ATOM     63  N   UNL     1       3.178 -17.748 -17.414  1.00  0.00    -0.354 N 
ATOM     64  N   UNL     1       4.290 -17.539 -14.703  1.00  0.00    -0.248 NA
ATOM     65  C   UNL     1       4.837 -18.514 -12.655  1.00  0.00     0.031 C 
ATOM     66  C   UNL     1       2.574 -19.754 -18.151  1.00  0.00     0.029 A 
ATOM     67  C   UNL     1       3.101 -19.085 -17.058  1.00  0.00     0.049 A 
ATOM     68  H   UNL     1       3.510 -17.026 -16.833  1.00  0.00     0.167 HD
ATOM     69  C   UNL     1       4.025 -18.901 -14.763  1.00  0.00     0.074 A 
ATOM     70  C   UNL     1       4.416 -19.457 -13.485  1.00  0.00     0.031 C 
ATOM     71  C   UNL     1       3.504 -19.625 -15.784  1.00  0.00     0.037 A 
BRANCH  58  72
ATOM     72  C   UNL     1       2.034 -16.280 -20.770  1.00  0.00     0.064 A 
ATOM     73  C   UNL     1       2.810 -15.987 -21.902  1.00  0.00     0.173 A 
ATOM     74  C   UNL     1       0.678 -16.584 -20.968  1.00  0.00     0.173 A 
ATOM     75  F   UNL     1       4.109 -15.680 -21.769  1.00  0.00    -0.203 F 
ATOM     76  C   UNL     1       2.245 -15.968 -23.175  1.00  0.00     0.198 A 
ATOM     77  C   UNL     1       0.125 -16.599 -22.246  1.00  0.00     0.198 A 
ATOM     78  F   UNL     1      -0.110 -16.879 -19.923  1.00  0.00    -0.203 F 
ATOM     79  F   UNL     1       2.995 -15.632 -24.233  1.00  0.00    -0.200 F 
ATOM     80  C   UNL     1       0.906 -16.282 -23.347  1.00  0.00     0.200 A 
ATOM     81  F   UNL     1      -1.166 -16.919 -22.412  1.00  0.00    -0.200 F 
ATOM     82  F   UNL     1       0.366 -16.272 -24.573  1.00  0.00    -0.200 F 
ENDBRANCH  58  72
BRANCH  59  83
ATOM     83  C   UNL     1       5.793 -15.991 -11.510  1.00  0.00     0.064 A 
ATOM     84  C   UNL     1       6.987 -16.647 -11.177  1.00  0.00     0.173 A 
ATOM     85  C   UNL     1       5.115 -15.312 -10.487  1.00  0.00     0.173 A 
ATOM     86  F   UNL     1       7.663 -17.326 -12.115  1.00  0.00    -0.203 F 
ATOM     87  C   UNL     1       7.468 -16.647  -9.869  1.00  0.00     0.198 A 
ATOM     88  C   UNL     1       5.615 -15.285  -9.186  1.00  0.00     0.198 A 
ATOM     89  F   UNL     1       3.972 -14.664 -10.753  1.00  0.00    -0.203 F 
ATOM     90  F   UNL     1       8.582 -17.327  -9.568  1.00  0.00    -0.200 F 
ATOM     91  C   UNL     1       6.785 -15.962  -8.876  1.00  0.00     0.200 A 
ATOM     92  F   UNL     1       4.960 -14.607  -8.234  1.00  0.00    -0.200 F 
ATOM     93  F   UNL     1       7.249 -15.960  -7.619  1.00  0.00    -0.200 F 
ENDBRANCH  59  83
BRANCH  71  94
ATOM     94  C   UNL     1       3.364 -21.107 -15.579  1.00  0.00     0.064 A 
ATOM     95  C   UNL     1       2.417 -21.645 -14.695  1.00  0.00     0.173 A 
ATOM     96  C   UNL     1       4.161 -22.001 -16.311  1.00  0.00     0.173 A 
ATOM     97  F   UNL     1       1.640 -20.835 -13.961  1.00  0.00    -0.203 F 
ATOM     98  C   UNL     1       2.293 -23.023 -14.532  1.00  0.00     0.198 A 
ATOM     99  C   UNL     1       4.009 -23.377 -16.172  1.00  0.00     0.198 A 
ATOM    100  F   UNL     1       5.077 -21.539 -17.175  1.00  0.00    -0.203 F 
ATOM    101  F   UNL     1       1.418 -23.514 -13.643  1.00  0.00    -0.200 F 
ATOM    102  C   UNL     1       3.082 -23.887 -15.276  1.00  0.00     0.200 A 
ATOM    103  F   UNL     1       4.760 -24.210 -16.905  1.00  0.00    -0.200 F 
ATOM    104  F   UNL     1       2.953 -25.212 -15.126  1.00  0.00    -0.200 F 
ENDBRANCH  71  94
ENDBRANCH  45  46
ENDBRANCH  37  40
ENDBRANCH  35  36
ENDBRANCH  34  35
ENDBRANCH   1  34
TORSDOF 14
