REMARK SMILES O=C(/C=C/c1ccc(NC(=O)CCc2nc(-c3cc(Br)cs3)no2)cc1)NCCCNC(=O)c1ccc(-c2c3nc(c(-c4c(F)c(F)c(F)c(F)c4F)c4ccc([nH]4)c(-c4c(F)c(F)c(F)c(F)c4F)c4nc(c(-c5c(F)c(F)c(F)c(F)c5F)c5ccc2[nH]5)C=C4)C=C3)cc1
REMARK SMILES IDX 1 1 2 2 27 3 3 5 4 6 5 7 6 8 26 9 7 10 25 11 8 12 9 13 10 14
REMARK SMILES IDX 11 16 12 17 13 18 14 19 15 20 24 21 16 22 23 23 17 24 18 25
REMARK SMILES IDX 22 26 19 27 21 28 20 29 28 30 29 31 30 32 31 33 32 34 33 36
REMARK SMILES IDX 34 37 35 38 96 39 36 40 95 41 37 42 38 43 39 44 89 45 40 46
REMARK SMILES IDX 94 47 88 48 90 49 41 50 93 51 87 52 86 53 42 55 74 56 54 57
REMARK SMILES IDX 73 58 55 59 58 60 72 61 91 62 56 63 57 64 71 66 92 67 59 68
REMARK SMILES IDX 43 69 44 70 52 71 45 72 46 73 50 74 53 75 47 76 48 77 51 78
REMARK SMILES IDX 49 79 75 80 76 81 84 82 77 83 78 84 82 85 85 86 79 87 80 88
REMARK SMILES IDX 83 89 81 90 60 91 61 92 69 93 62 94 63 95 67 96 70 97 64 98
REMARK SMILES IDX 65 99 68 100 66 101
REMARK H PARENT 27 4 9 15 31 35 90 54 58 65
REMARK Flexibility Score: inf
ROOT
ATOM      1  O   UNL     1       0.508   1.016   0.559  1.00  0.00    -0.270 OA
ATOM      2  C   UNL     1       1.720   0.836   0.548  1.00  0.00     0.244 C 
ATOM      3  N   UNL     1       2.498   0.901  -0.585  1.00  0.00    -0.352 N 
ATOM      4  H   UNL     1       3.476   0.842  -0.492  1.00  0.00     0.163 HD
ENDROOT
BRANCH   2   5
ATOM      5  C   UNL     1       2.408   0.412   1.802  1.00  0.00     0.072 C 
ATOM      6  C   UNL     1       3.724   0.525   2.032  1.00  0.00     0.014 C 
BRANCH   6   7
ATOM      7  C   UNL     1       4.449   0.023   3.209  1.00  0.00    -0.025 A 
ATOM      8  C   UNL     1       5.608   0.703   3.590  1.00  0.00     0.010 A 
ATOM      9  C   UNL     1       4.149  -1.183   3.851  1.00  0.00     0.010 A 
ATOM     10  C   UNL     1       6.499   0.149   4.512  1.00  0.00     0.027 A 
ATOM     11  C   UNL     1       5.056  -1.745   4.764  1.00  0.00     0.027 A 
ATOM     12  C   UNL     1       6.282  -1.121   5.031  1.00  0.00     0.041 A 
BRANCH  12  13
ATOM     13  N   UNL     1       7.233  -1.854   5.764  1.00  0.00    -0.326 N 
ATOM     14  C   UNL     1       8.600  -1.847   5.781  1.00  0.00     0.224 C 
ATOM     15  H   UNL     1       6.835  -2.501   6.389  1.00  0.00     0.169 HD
ATOM     16  O   UNL     1       9.167  -2.650   6.531  1.00  0.00    -0.275 OA
BRANCH  14  17
ATOM     17  C   UNL     1       9.444  -0.981   4.864  1.00  0.00     0.110 C 
BRANCH  17  18
ATOM     18  C   UNL     1       9.677  -1.504   3.444  1.00  0.00     0.110 C 
BRANCH  18  19
ATOM     19  C   UNL     1       8.520  -2.150   2.784  1.00  0.00     0.227 A 
ATOM     20  N   UNL     1       7.777  -1.746   1.776  1.00  0.00    -0.190 NA
ATOM     21  O   UNL     1       8.144  -3.365   3.276  1.00  0.00    -0.339 OA
ATOM     22  C   UNL     1       6.807  -2.724   1.726  1.00  0.00     0.212 A 
ATOM     23  N   UNL     1       6.981  -3.722   2.605  1.00  0.00    -0.056 NA
BRANCH  22  24
ATOM     24  C   UNL     1       5.597  -2.645   0.851  1.00  0.00     0.076 A 
ATOM     25  C   UNL     1       4.430  -3.339   1.107  1.00  0.00     0.039 A 
ATOM     26  S   UNL     1       5.462  -1.647  -0.530  1.00  0.00    -0.139 S 
ATOM     27  C   UNL     1       3.405  -2.973   0.203  1.00  0.00     0.029 A 
ATOM     28  C   UNL     1       3.837  -2.130  -0.788  1.00  0.00     0.081 A 
ATOM     29  Br  UNL     1       1.634  -3.585   0.399  1.00  0.00    -0.050 Br
ENDBRANCH  22  24
ENDBRANCH  18  19
ENDBRANCH  17  18
ENDBRANCH  14  17
ENDBRANCH  12  13
ENDBRANCH   6   7
ENDBRANCH   2   5
BRANCH   3  30
ATOM     30  C   UNL     1       1.930   1.052  -1.916  1.00  0.00     0.118 C 
BRANCH  30  31
ATOM     31  C   UNL     1       2.314   2.359  -2.598  1.00  0.00     0.042 C 
BRANCH  31  32
ATOM     32  C   UNL     1       3.805   2.521  -2.881  1.00  0.00     0.118 C 
BRANCH  32  33
ATOM     33  N   UNL     1       4.286   1.722  -4.003  1.00  0.00    -0.352 N 
ATOM     34  C   UNL     1       4.978   2.109  -5.129  1.00  0.00     0.251 C 
ATOM     35  H   UNL     1       4.085   0.760  -3.946  1.00  0.00     0.163 HD
ATOM     36  O   UNL     1       5.208   1.288  -6.015  1.00  0.00    -0.269 OA
BRANCH  34  37
ATOM     37  C   UNL     1       5.413   3.514  -5.309  1.00  0.00     0.039 A 
ATOM     38  C   UNL     1       5.224   4.126  -6.553  1.00  0.00     0.014 A 
ATOM     39  C   UNL     1       5.997   4.236  -4.266  1.00  0.00     0.014 A 
ATOM     40  C   UNL     1       5.530   5.480  -6.719  1.00  0.00     0.010 A 
ATOM     41  C   UNL     1       6.225   5.605  -4.408  1.00  0.00     0.010 A 
ATOM     42  C   UNL     1       5.985   6.246  -5.633  1.00  0.00    -0.014 A 
BRANCH  42  43
ATOM     43  C   UNL     1       6.193   7.715  -5.754  1.00  0.00     0.031 A 
ATOM     44  C   UNL     1       7.558   8.314  -5.550  1.00  0.00     0.074 A 
ATOM     45  C   UNL     1       5.137   8.523  -5.978  1.00  0.00     0.049 A 
ATOM     46  N   UNL     1       7.918   9.574  -5.541  1.00  0.00    -0.248 NA
ATOM     47  C   UNL     1       8.660   7.375  -5.297  1.00  0.00     0.031 C 
ATOM     48  C   UNL     1       3.752   8.079  -6.147  1.00  0.00     0.029 A 
ATOM     49  N   UNL     1       5.059   9.891  -6.090  1.00  0.00    -0.354 N 
ATOM     50  C   UNL     1       9.281   9.577  -5.271  1.00  0.00     0.074 A 
ATOM     51  C   UNL     1       9.672   8.198  -5.067  1.00  0.00     0.031 C 
ATOM     52  C   UNL     1       2.969   9.147  -6.364  1.00  0.00     0.029 A 
ATOM     53  C   UNL     1       3.784  10.357  -6.305  1.00  0.00     0.049 A 
ATOM     54  H   UNL     1       5.844  10.482  -6.022  1.00  0.00     0.167 HD
ATOM     55  C   UNL     1      10.133  10.629  -5.222  1.00  0.00     0.037 A 
ATOM     56  C   UNL     1       3.321  11.615  -6.429  1.00  0.00     0.037 A 
ATOM     57  C   UNL     1       9.748  11.999  -5.444  1.00  0.00     0.049 A 
ATOM     58  C   UNL     1       4.285  12.768  -6.346  1.00  0.00     0.074 A 
ATOM     59  C   UNL     1      10.550  13.126  -5.474  1.00  0.00     0.029 A 
ATOM     60  N   UNL     1       8.447  12.429  -5.666  1.00  0.00    -0.354 N 
ATOM     61  N   UNL     1       5.583  12.752  -6.164  1.00  0.00    -0.248 NA
ATOM     62  C   UNL     1       3.719  14.117  -6.492  1.00  0.00     0.031 C 
ATOM     63  C   UNL     1       9.729  14.244  -5.658  1.00  0.00     0.029 A 
ATOM     64  C   UNL     1       8.423  13.809  -5.804  1.00  0.00     0.049 A 
ATOM     65  H   UNL     1       7.659  11.842  -5.718  1.00  0.00     0.167 HD
ATOM     66  C   UNL     1       5.992  14.078  -6.202  1.00  0.00     0.074 A 
ATOM     67  C   UNL     1       4.806  14.873  -6.443  1.00  0.00     0.031 C 
ATOM     68  C   UNL     1       7.237  14.591  -6.049  1.00  0.00     0.037 A 
BRANCH  55  69
ATOM     69  C   UNL     1      11.576  10.341  -4.915  1.00  0.00     0.064 A 
ATOM     70  C   UNL     1      12.403   9.665  -5.825  1.00  0.00     0.173 A 
ATOM     71  C   UNL     1      12.150  10.783  -3.713  1.00  0.00     0.173 A 
ATOM     72  F   UNL     1      11.902   9.212  -6.985  1.00  0.00    -0.203 F 
ATOM     73  C   UNL     1      13.740   9.413  -5.530  1.00  0.00     0.198 A 
ATOM     74  C   UNL     1      13.496  10.559  -3.436  1.00  0.00     0.198 A 
ATOM     75  F   UNL     1      11.409  11.442  -2.810  1.00  0.00    -0.203 F 
ATOM     76  F   UNL     1      14.495   8.717  -6.391  1.00  0.00    -0.200 F 
ATOM     77  C   UNL     1      14.288   9.867  -4.340  1.00  0.00     0.200 A 
ATOM     78  F   UNL     1      14.028  11.012  -2.292  1.00  0.00    -0.200 F 
ATOM     79  F   UNL     1      15.577   9.630  -4.060  1.00  0.00    -0.200 F 
ENDBRANCH  55  69
BRANCH  56  80
ATOM     80  C   UNL     1       1.871  11.856  -6.659  1.00  0.00     0.064 A 
ATOM     81  C   UNL     1       1.411  12.370  -7.880  1.00  0.00     0.173 A 
ATOM     82  C   UNL     1       0.919  11.595  -5.663  1.00  0.00     0.173 A 
ATOM     83  F   UNL     1       2.284  12.659  -8.856  1.00  0.00    -0.203 F 
ATOM     84  C   UNL     1       0.058  12.636  -8.086  1.00  0.00     0.198 A 
ATOM     85  C   UNL     1      -0.437  11.830  -5.882  1.00  0.00     0.198 A 
ATOM     86  F   UNL     1       1.305  11.100  -4.477  1.00  0.00    -0.203 F 
ATOM     87  F   UNL     1      -0.346  13.177  -9.243  1.00  0.00    -0.200 F 
ATOM     88  C   UNL     1      -0.865  12.360  -7.090  1.00  0.00     0.200 A 
ATOM     89  F   UNL     1      -1.328  11.548  -4.921  1.00  0.00    -0.200 F 
ATOM     90  F   UNL     1      -2.166  12.613  -7.290  1.00  0.00    -0.200 F 
ENDBRANCH  56  80
BRANCH  68  91
ATOM     91  C   UNL     1       7.392  16.081  -6.172  1.00  0.00     0.064 A 
ATOM     92  C   UNL     1       6.899  16.958  -5.195  1.00  0.00     0.173 A 
ATOM     93  C   UNL     1       8.075  16.636  -7.265  1.00  0.00     0.173 A 
ATOM     94  F   UNL     1       6.225  16.481  -4.137  1.00  0.00    -0.203 F 
ATOM     95  C   UNL     1       7.059  18.336  -5.322  1.00  0.00     0.198 A 
ATOM     96  C   UNL     1       8.264  18.011  -7.372  1.00  0.00     0.198 A 
ATOM     97  F   UNL     1       8.574  15.842  -8.225  1.00  0.00    -0.203 F 
ATOM     98  F   UNL     1       6.534  19.157  -4.402  1.00  0.00    -0.200 F 
ATOM     99  C   UNL     1       7.748  18.860  -6.405  1.00  0.00     0.200 A 
ATOM    100  F   UNL     1       8.944  18.514  -8.411  1.00  0.00    -0.200 F 
ATOM    101  F   UNL     1       7.909  20.186  -6.520  1.00  0.00    -0.200 F 
ENDBRANCH  68  91
ENDBRANCH  42  43
ENDBRANCH  34  37
ENDBRANCH  32  33
ENDBRANCH  31  32
ENDBRANCH  30  31
ENDBRANCH   3  30
TORSDOF 16
