REMARK SMILES O=C(NCCCNC(=O)c1ccccc1[C@@H]1SCC(=O)N1NC(=S)Nc1ccccc1)c1ccc(-c2c3nc(c(-c4c(F)c(F)c(F)c(F)c4F)c4ccc([nH]4)c(-c4c(F)c(F)c(F)c(F)c4F)c4nc(c(-c5c(F)c(F)c(F)c(F)c5F)c5ccc2[nH]5)C=C4)C=C3)cc1
REMARK SMILES IDX 7 1 8 2 9 3 6 5 5 6 4 7 3 8 1 9 2 10 32 12 33 13 94 14 34 15
REMARK SMILES IDX 93 16 35 17 36 18 37 19 87 20 38 21 92 22 86 23 88 24 39 25
REMARK SMILES IDX 91 26 85 27 84 28 40 30 72 31 52 32 71 33 53 34 56 35 70 36
REMARK SMILES IDX 89 37 54 38 55 39 69 41 90 42 57 43 41 44 42 45 50 46 43 47
REMARK SMILES IDX 44 48 48 49 51 50 45 51 46 52 49 53 47 54 73 55 74 56 82 57
REMARK SMILES IDX 75 58 76 59 80 60 83 61 77 62 78 63 81 64 79 65 58 66 59 67
REMARK SMILES IDX 67 68 60 69 61 70 65 71 68 72 62 73 63 74 66 75 64 76 10 77
REMARK SMILES IDX 11 78 15 79 12 80 14 81 13 82 16 83 17 84 21 85 18 86 19 87
REMARK SMILES IDX 20 88 22 89 23 91 24 92 25 93 26 95 27 96 31 97 28 98 30 99
REMARK SMILES IDX 29 100
REMARK H PARENT 7 4 3 11 88 29 56 40 22 90 25 94
REMARK Flexibility Score: inf
ROOT
ATOM      1  N   UNL     1       6.118  -2.771  -3.077  1.00  0.00    -0.352 N 
ATOM      2  C   UNL     1       5.893  -3.911  -3.796  1.00  0.00     0.251 C 
ATOM      3  O   UNL     1       5.324  -3.861  -4.882  1.00  0.00    -0.269 OA
ATOM      4  H   UNL     1       5.700  -1.961  -3.449  1.00  0.00     0.163 HD
ENDROOT
BRANCH   1   5
ATOM      5  C   UNL     1       6.870  -2.555  -1.856  1.00  0.00     0.118 C 
BRANCH   5   6
ATOM      6  C   UNL     1       6.287  -1.521  -0.877  1.00  0.00     0.042 C 
BRANCH   6   7
ATOM      7  C   UNL     1       5.624  -0.281  -1.471  1.00  0.00     0.118 C 
BRANCH   7   8
ATOM      8  N   UNL     1       4.190  -0.185  -1.208  1.00  0.00    -0.352 N 
ATOM      9  O   UNL     1       2.206   0.698  -0.550  1.00  0.00    -0.269 OA
ATOM     10  C   UNL     1       3.424   0.610  -0.387  1.00  0.00     0.251 C 
ATOM     11  H   UNL     1       3.658  -0.828  -1.730  1.00  0.00     0.163 HD
BRANCH  10  12
ATOM     12  C   UNL     1       3.960   1.282   0.804  1.00  0.00     0.039 A 
ATOM     13  C   UNL     1       5.175   1.945   0.799  1.00  0.00     0.014 A 
ATOM     14  C   UNL     1       3.170   1.273   1.972  1.00  0.00     0.014 A 
ATOM     15  C   UNL     1       5.687   2.431   1.988  1.00  0.00     0.010 A 
ATOM     16  C   UNL     1       3.635   1.858   3.147  1.00  0.00     0.010 A 
ATOM     17  C   UNL     1       4.919   2.402   3.166  1.00  0.00    -0.014 A 
BRANCH  17  18
ATOM     18  C   UNL     1       5.499   3.050   4.356  1.00  0.00     0.031 A 
ATOM     19  C   UNL     1       6.012   2.229   5.493  1.00  0.00     0.074 A 
ATOM     20  C   UNL     1       5.702   4.377   4.276  1.00  0.00     0.049 A 
ATOM     21  N   UNL     1       6.806   2.587   6.468  1.00  0.00    -0.248 NA
ATOM     22  C   UNL     1       5.580   0.824   5.553  1.00  0.00     0.031 C 
ATOM     23  C   UNL     1       5.195   5.227   3.194  1.00  0.00     0.029 A 
ATOM     24  N   UNL     1       6.455   5.223   5.041  1.00  0.00    -0.354 N 
ATOM     25  C   UNL     1       6.955   1.462   7.266  1.00  0.00     0.074 A 
ATOM     26  C   UNL     1       6.160   0.410   6.672  1.00  0.00     0.031 C 
ATOM     27  C   UNL     1       5.752   6.440   3.293  1.00  0.00     0.029 A 
ATOM     28  C   UNL     1       6.604   6.467   4.475  1.00  0.00     0.049 A 
ATOM     29  H   UNL     1       6.849   4.968   5.907  1.00  0.00     0.167 HD
ATOM     30  C   UNL     1       7.694   1.340   8.395  1.00  0.00     0.037 A 
ATOM     31  C   UNL     1       7.373   7.501   4.857  1.00  0.00     0.037 A 
ATOM     32  C   UNL     1       8.477   2.417   8.945  1.00  0.00     0.049 A 
ATOM     33  C   UNL     1       8.230   7.315   6.075  1.00  0.00     0.074 A 
ATOM     34  C   UNL     1       9.264   2.428  10.082  1.00  0.00     0.029 A 
ATOM     35  N   UNL     1       8.568   3.687   8.383  1.00  0.00    -0.354 N 
ATOM     36  N   UNL     1       8.387   6.243   6.815  1.00  0.00    -0.248 NA
ATOM     37  C   UNL     1       9.008   8.476   6.517  1.00  0.00     0.031 C 
ATOM     38  C   UNL     1       9.797   3.715  10.229  1.00  0.00     0.029 A 
ATOM     39  C   UNL     1       9.384   4.493   9.157  1.00  0.00     0.049 A 
ATOM     40  H   UNL     1       8.117   3.970   7.555  1.00  0.00     0.167 HD
ATOM     41  C   UNL     1       9.276   6.597   7.816  1.00  0.00     0.074 A 
ATOM     42  C   UNL     1       9.656   7.975   7.559  1.00  0.00     0.031 C 
ATOM     43  C   UNL     1       9.726   5.864   8.865  1.00  0.00     0.037 A 
BRANCH  30  44
ATOM     44  C   UNL     1       7.646   0.026   9.121  1.00  0.00     0.064 A 
ATOM     45  C   UNL     1       8.251  -1.132   8.608  1.00  0.00     0.173 A 
ATOM     46  C   UNL     1       6.993  -0.074  10.359  1.00  0.00     0.173 A 
ATOM     47  F   UNL     1       8.877  -1.099   7.422  1.00  0.00    -0.203 F 
ATOM     48  C   UNL     1       8.181  -2.344   9.295  1.00  0.00     0.198 A 
ATOM     49  C   UNL     1       6.947  -1.280  11.055  1.00  0.00     0.198 A 
ATOM     50  F   UNL     1       6.398   1.001  10.899  1.00  0.00    -0.203 F 
ATOM     51  F   UNL     1       8.727  -3.447   8.763  1.00  0.00    -0.200 F 
ATOM     52  C   UNL     1       7.534  -2.416  10.519  1.00  0.00     0.200 A 
ATOM     53  F   UNL     1       6.329  -1.345  12.243  1.00  0.00    -0.200 F 
ATOM     54  F   UNL     1       7.469  -3.581  11.178  1.00  0.00    -0.200 F 
ENDBRANCH  30  44
BRANCH  31  55
ATOM     55  C   UNL     1       7.377   8.756   4.061  1.00  0.00     0.064 A 
ATOM     56  C   UNL     1       8.515   9.173   3.358  1.00  0.00     0.173 A 
ATOM     57  C   UNL     1       6.218   9.539   3.941  1.00  0.00     0.173 A 
ATOM     58  F   UNL     1       9.653   8.468   3.445  1.00  0.00    -0.203 F 
ATOM     59  C   UNL     1       8.496  10.325   2.573  1.00  0.00     0.198 A 
ATOM     60  C   UNL     1       6.189  10.670   3.129  1.00  0.00     0.198 A 
ATOM     61  F   UNL     1       5.096   9.181   4.584  1.00  0.00    -0.203 F 
ATOM     62  F   UNL     1       9.607  10.718   1.935  1.00  0.00    -0.200 F 
ATOM     63  C   UNL     1       7.330  11.066   2.450  1.00  0.00     0.200 A 
ATOM     64  F   UNL     1       5.052  11.367   2.995  1.00  0.00    -0.200 F 
ATOM     65  F   UNL     1       7.306  12.161   1.678  1.00  0.00    -0.200 F 
ENDBRANCH  31  55
BRANCH  43  66
ATOM     66  C   UNL     1      10.678   6.554   9.793  1.00  0.00     0.064 A 
ATOM     67  C   UNL     1      10.239   7.549  10.679  1.00  0.00     0.173 A 
ATOM     68  C   UNL     1      12.037   6.211   9.799  1.00  0.00     0.173 A 
ATOM     69  F   UNL     1       8.950   7.920  10.694  1.00  0.00    -0.203 F 
ATOM     70  C   UNL     1      11.138   8.203  11.515  1.00  0.00     0.198 A 
ATOM     71  C   UNL     1      12.927   6.847  10.658  1.00  0.00     0.198 A 
ATOM     72  F   UNL     1      12.499   5.261   8.972  1.00  0.00    -0.203 F 
ATOM     73  F   UNL     1      10.710   9.191  12.313  1.00  0.00    -0.200 F 
ATOM     74  C   UNL     1      12.479   7.848  11.507  1.00  0.00     0.200 A 
ATOM     75  F   UNL     1      14.221   6.499  10.655  1.00  0.00    -0.200 F 
ATOM     76  F   UNL     1      13.344   8.482  12.310  1.00  0.00    -0.200 F 
ENDBRANCH  43  66
ENDBRANCH  17  18
ENDBRANCH  10  12
ENDBRANCH   7   8
ENDBRANCH   6   7
ENDBRANCH   5   6
ENDBRANCH   1   5
BRANCH   2  77
ATOM     77  C   UNL     1       6.317  -5.219  -3.282  1.00  0.00     0.046 A 
ATOM     78  C   UNL     1       7.673  -5.523  -3.491  1.00  0.00     0.014 A 
ATOM     79  C   UNL     1       5.412  -6.175  -2.762  1.00  0.00    -0.001 A 
ATOM     80  C   UNL     1       8.163  -6.785  -3.175  1.00  0.00     0.001 A 
ATOM     81  C   UNL     1       5.945  -7.447  -2.458  1.00  0.00     0.007 A 
ATOM     82  C   UNL     1       7.299  -7.745  -2.661  1.00  0.00     0.000 A 
BRANCH  79  83
ATOM     83  C   UNL     1       3.909  -5.965  -2.537  1.00  0.00     0.197 C 
ATOM     84  S   UNL     1       2.946  -6.123  -4.057  1.00  0.00    -0.120 SA
ATOM     85  N   UNL     1       3.546  -4.688  -1.957  1.00  0.00    -0.236 N 
ATOM     86  C   UNL     1       2.410  -4.387  -4.024  1.00  0.00     0.174 C 
ATOM     87  C   UNL     1       3.135  -3.717  -2.868  1.00  0.00     0.252 C 
ATOM     88  O   UNL     1       3.301  -2.504  -2.776  1.00  0.00    -0.272 OA
BRANCH  85  89
ATOM     89  N   UNL     1       3.951  -4.475  -0.631  1.00  0.00    -0.270 N 
ATOM     90  H   UNL     1       4.720  -5.013  -0.335  1.00  0.00     0.191 HD
BRANCH  89  91
ATOM     91  C   UNL     1       3.435  -3.633   0.307  1.00  0.00     0.189 C 
ATOM     92  S   UNL     1       4.188  -3.607   1.808  1.00  0.00    -0.039 S 
BRANCH  91  93
ATOM     93  N   UNL     1       2.490  -2.711   0.029  1.00  0.00    -0.331 N 
ATOM     94  H   UNL     1       2.697  -1.802   0.346  1.00  0.00     0.169 HD
BRANCH  93  95
ATOM     95  C   UNL     1       1.261  -2.831  -0.636  1.00  0.00     0.040 A 
ATOM     96  C   UNL     1       0.873  -1.811  -1.511  1.00  0.00     0.026 A 
ATOM     97  C   UNL     1       0.370  -3.856  -0.353  1.00  0.00     0.026 A 
ATOM     98  C   UNL     1      -0.355  -1.827  -2.156  1.00  0.00     0.002 A 
ATOM     99  C   UNL     1      -0.901  -3.834  -0.941  1.00  0.00     0.002 A 
ATOM    100  C   UNL     1      -1.255  -2.834  -1.854  1.00  0.00     0.000 A 
ENDBRANCH  93  95
ENDBRANCH  91  93
ENDBRANCH  89  91
ENDBRANCH  85  89
ENDBRANCH  79  83
ENDBRANCH   2  77
TORSDOF 15
