REMARK SMILES C[NH2+][C@]1(C(=O)NCCCNC(=O)c2ccc(-c3c4nc(c(-c5c(F)c(F)c(F)c(F)c5F)c5ccc([nH]5)c(-c5c(F)c(F)c(F)c(F)c5F)c5nc(c(-c6c(F)c(F)c(F)c(F)c6F)c6ccc3[nH]6)C=C5)C=C4)cc2)CCC[C@H]1CCOC1C[C@@H](C)C[C@H](C)C1
REMARK SMILES IDX 7 1 6 2 4 3 5 4 3 6 76 7 79 8 77 9 78 10 2 11 1 12 80 15
REMARK SMILES IDX 81 16 82 17 83 18 84 19 90 20 85 21 88 22 86 23 87 24 89 25
REMARK SMILES IDX 8 26 9 27 10 28 11 29 12 31 13 32 14 33 75 34 15 35 74 36
REMARK SMILES IDX 16 37 17 38 18 39 68 40 19 41 73 42 67 43 69 44 20 45 72 46
REMARK SMILES IDX 66 47 65 48 21 50 53 51 33 52 52 53 34 54 37 55 51 56 70 57
REMARK SMILES IDX 35 58 36 59 50 61 71 62 38 63 22 64 23 65 31 66 24 67 25 68
REMARK SMILES IDX 29 69 32 70 26 71 27 72 30 73 28 74 54 75 55 76 63 77 56 78
REMARK SMILES IDX 57 79 61 80 64 81 58 82 59 83 62 84 60 85 39 86 40 87 48 88
REMARK SMILES IDX 41 89 42 90 46 91 49 92 43 93 44 94 47 95 45 96
REMARK H PARENT 6 5 2 13 2 14 10 30 69 49 37 60
REMARK Flexibility Score: inf
ROOT
ATOM      1  C   UNL     1       0.305   2.147  -4.205  1.00  0.00     0.118 C 
ENDROOT
BRANCH   1   2
ATOM      2  N   UNL     1       0.575   2.341  -2.804  1.00  0.00    -0.351 N 
ATOM      3  C   UNL     1      -0.183   2.289  -1.695  1.00  0.00     0.281 C 
ATOM      4  O   UNL     1       0.446   2.655  -0.696  1.00  0.00    -0.268 OA
ATOM      5  H   UNL     1       1.517   2.558  -2.618  1.00  0.00     0.163 HD
BRANCH   3   6
ATOM      6  C   UNL     1      -1.675   1.855  -1.701  1.00  0.00     0.178 C 
ATOM      7  C   UNL     1      -2.476   2.982  -2.418  1.00  0.00     0.079 C 
ATOM      8  C   UNL     1      -2.133   0.474  -2.443  1.00  0.00     0.063 C 
ATOM      9  C   UNL     1      -3.744   2.305  -2.894  1.00  0.00     0.008 C 
ATOM     10  C   UNL     1      -3.230   0.989  -3.438  1.00  0.00     0.011 C 
BRANCH   6  11
ATOM     11  N   UNL     1      -2.341   1.936  -0.353  1.00  0.00    -0.336 N 
ATOM     12  C   UNL     1      -1.683   2.534   0.791  1.00  0.00     0.331 C 
ATOM     13  H   UNL     1      -3.204   2.460  -0.492  1.00  0.00     0.346 HD
ATOM     14  H   UNL     1      -2.396   0.955  -0.081  1.00  0.00     0.346 HD
ENDBRANCH   6  11
BRANCH   8  15
ATOM     15  C   UNL     1      -1.326  -0.649  -3.272  1.00  0.00     0.039 C 
BRANCH  15  16
ATOM     16  C   UNL     1      -0.177  -1.698  -2.928  1.00  0.00     0.161 C 
BRANCH  16  17
ATOM     17  O   UNL     1      -0.468  -2.976  -2.361  1.00  0.00    -0.378 OA
BRANCH  17  18
ATOM     18  C   UNL     1      -0.225  -3.473  -1.033  1.00  0.00     0.118 C 
ATOM     19  C   UNL     1       0.602  -2.748   0.030  1.00  0.00     0.035 C 
ATOM     20  C   UNL     1      -1.603  -3.728  -0.423  1.00  0.00     0.035 C 
ATOM     21  C   UNL     1       0.045  -1.393   0.428  1.00  0.00    -0.011 C 
ATOM     22  C   UNL     1      -2.303  -2.381  -0.394  1.00  0.00    -0.011 C 
ATOM     23  C   UNL     1       0.748  -0.343  -0.419  1.00  0.00     0.008 C 
ATOM     24  C   UNL     1      -1.515  -1.387   0.498  1.00  0.00     0.006 C 
ATOM     25  C   UNL     1      -3.796  -2.498  -0.098  1.00  0.00     0.008 C 
ENDBRANCH  17  18
ENDBRANCH  16  17
ENDBRANCH  15  16
ENDBRANCH   8  15
ENDBRANCH   3   6
ENDBRANCH   1   2
BRANCH   1  26
ATOM     26  C   UNL     1       1.052   3.186  -5.015  1.00  0.00     0.042 C 
BRANCH  26  27
ATOM     27  C   UNL     1       2.557   3.009  -4.872  1.00  0.00     0.118 C 
BRANCH  27  28
ATOM     28  N   UNL     1       3.042   1.825  -5.574  1.00  0.00    -0.352 N 
ATOM     29  C   UNL     1       3.664   1.755  -6.796  1.00  0.00     0.251 C 
ATOM     30  H   UNL     1       2.905   0.966  -5.112  1.00  0.00     0.163 HD
ATOM     31  O   UNL     1       3.816   0.685  -7.377  1.00  0.00    -0.269 OA
BRANCH  29  32
ATOM     32  C   UNL     1       4.110   3.018  -7.407  1.00  0.00     0.039 A 
ATOM     33  C   UNL     1       3.692   3.351  -8.694  1.00  0.00     0.014 A 
ATOM     34  C   UNL     1       4.820   3.928  -6.623  1.00  0.00     0.014 A 
ATOM     35  C   UNL     1       3.910   4.647  -9.160  1.00  0.00     0.010 A 
ATOM     36  C   UNL     1       4.891   5.249  -7.028  1.00  0.00     0.010 A 
ATOM     37  C   UNL     1       4.459   5.622  -8.309  1.00  0.00    -0.014 A 
BRANCH  37  38
ATOM     38  C   UNL     1       4.630   7.034  -8.735  1.00  0.00     0.031 A 
ATOM     39  C   UNL     1       5.999   7.660  -8.676  1.00  0.00     0.074 A 
ATOM     40  C   UNL     1       3.559   7.775  -9.082  1.00  0.00     0.049 A 
ATOM     41  N   UNL     1       6.354   8.902  -8.880  1.00  0.00    -0.248 NA
ATOM     42  C   UNL     1       7.112   6.782  -8.275  1.00  0.00     0.031 C 
ATOM     43  C   UNL     1       2.170   7.310  -9.102  1.00  0.00     0.029 A 
ATOM     44  N   UNL     1       3.471   9.085  -9.481  1.00  0.00    -0.354 N 
ATOM     45  C   UNL     1       7.711   8.955  -8.589  1.00  0.00     0.074 A 
ATOM     46  C   UNL     1       8.098   7.647  -8.115  1.00  0.00     0.031 C 
ATOM     47  C   UNL     1       1.377   8.303  -9.537  1.00  0.00     0.029 A 
ATOM     48  C   UNL     1       2.193   9.487  -9.786  1.00  0.00     0.049 A 
ATOM     49  H   UNL     1       4.252   9.682  -9.544  1.00  0.00     0.167 HD
ATOM     50  C   UNL     1       8.571   9.989  -8.745  1.00  0.00     0.037 A 
ATOM     51  C   UNL     1       1.736  10.677 -10.220  1.00  0.00     0.037 A 
ATOM     52  C   UNL     1       8.193  11.264  -9.287  1.00  0.00     0.049 A 
ATOM     53  C   UNL     1       2.718  11.799 -10.432  1.00  0.00     0.074 A 
ATOM     54  C   UNL     1       8.996  12.351  -9.576  1.00  0.00     0.029 A 
ATOM     55  N   UNL     1       6.896  11.616  -9.633  1.00  0.00    -0.354 N 
ATOM     56  N   UNL     1       4.014  11.814 -10.232  1.00  0.00    -0.248 NA
ATOM     57  C   UNL     1       2.175  13.066 -10.938  1.00  0.00     0.031 C 
ATOM     58  C   UNL     1       8.179  13.377 -10.062  1.00  0.00     0.029 A 
ATOM     59  C   UNL     1       6.874  12.911 -10.121  1.00  0.00     0.049 A 
ATOM     60  H   UNL     1       6.109  11.031  -9.546  1.00  0.00     0.167 HD
ATOM     61  C   UNL     1       4.446  13.076 -10.615  1.00  0.00     0.074 A 
ATOM     62  C   UNL     1       3.275  13.795 -11.074  1.00  0.00     0.031 C 
ATOM     63  C   UNL     1       5.697  13.598 -10.587  1.00  0.00     0.037 A 
BRANCH  50  64
ATOM     64  C   UNL     1      10.001   9.766  -8.346  1.00  0.00     0.064 A 
ATOM     65  C   UNL     1      10.834   8.877  -9.045  1.00  0.00     0.173 A 
ATOM     66  C   UNL     1      10.550  10.452  -7.253  1.00  0.00     0.173 A 
ATOM     67  F   UNL     1      10.355   8.183 -10.089  1.00  0.00    -0.203 F 
ATOM     68  C   UNL     1      12.145   8.650  -8.638  1.00  0.00     0.198 A 
ATOM     69  C   UNL     1      11.874  10.251  -6.871  1.00  0.00     0.198 A 
ATOM     70  F   UNL     1       9.802  11.316  -6.551  1.00  0.00    -0.203 F 
ATOM     71  F   UNL     1      12.897   7.744  -9.279  1.00  0.00    -0.200 F 
ATOM     72  C   UNL     1      12.667   9.342  -7.556  1.00  0.00     0.200 A 
ATOM     73  F   UNL     1      12.381  10.930  -5.832  1.00  0.00    -0.200 F 
ATOM     74  F   UNL     1      13.930   9.125  -7.166  1.00  0.00    -0.200 F 
ENDBRANCH  50  64
BRANCH  51  75
ATOM     75  C   UNL     1       0.293  10.857 -10.529  1.00  0.00     0.064 A 
ATOM     76  C   UNL     1      -0.141  11.016 -11.854  1.00  0.00     0.173 A 
ATOM     77  C   UNL     1      -0.679  10.879  -9.519  1.00  0.00     0.173 A 
ATOM     78  F   UNL     1       0.753  11.020 -12.854  1.00  0.00    -0.203 F 
ATOM     79  C   UNL     1      -1.487  11.213 -12.154  1.00  0.00     0.198 A 
ATOM     80  C   UNL     1      -2.029  11.048  -9.823  1.00  0.00     0.198 A 
ATOM     81  F   UNL     1      -0.320  10.723  -8.237  1.00  0.00    -0.203 F 
ATOM     82  F   UNL     1      -1.867  11.409 -13.424  1.00  0.00    -0.200 F 
ATOM     83  C   UNL     1      -2.431  11.224 -11.139  1.00  0.00     0.200 A 
ATOM     84  F   UNL     1      -2.941  11.042  -8.841  1.00  0.00    -0.200 F 
ATOM     85  F   UNL     1      -3.726  11.411 -11.427  1.00  0.00    -0.200 F 
ENDBRANCH  51  75
BRANCH  63  86
ATOM     86  C   UNL     1       5.872  14.995 -11.104  1.00  0.00     0.064 A 
ATOM     87  C   UNL     1       5.413  16.108 -10.385  1.00  0.00     0.173 A 
ATOM     88  C   UNL     1       6.555  15.222 -12.308  1.00  0.00     0.173 A 
ATOM     89  F   UNL     1       4.742  15.940  -9.236  1.00  0.00    -0.203 F 
ATOM     90  C   UNL     1       5.612  17.398 -10.866  1.00  0.00     0.198 A 
ATOM     91  C   UNL     1       6.780  16.515 -12.770  1.00  0.00     0.198 A 
ATOM     92  F   UNL     1       7.021  14.190 -13.027  1.00  0.00    -0.203 F 
ATOM     93  F   UNL     1       5.126  18.446 -10.187  1.00  0.00    -0.200 F 
ATOM     94  C   UNL     1       6.302  17.602 -12.052  1.00  0.00     0.200 A 
ATOM     95  F   UNL     1       7.460  16.710 -13.907  1.00  0.00    -0.200 F 
ATOM     96  F   UNL     1       6.502  18.846 -12.508  1.00  0.00    -0.200 F 
ENDBRANCH  63  86
ENDBRANCH  37  38
ENDBRANCH  29  32
ENDBRANCH  27  28
ENDBRANCH  26  27
ENDBRANCH   1  26
TORSDOF 15
