REMARK SMILES Nc1ccc(C(=O)N2Cc3nc[nH]c3C[C@H]2C(=O)NCCCNC(=O)c2ccc(-c3c4nc(c(-c5c(F)c(F)c(F)c(F)c5F)c5ccc([nH]5)c(-c5c(F)c(F)c(F)c(F)c5F)c5nc(c(-c6c(F)c(F)c(F)c(F)c6F)c6ccc3[nH]6)C=C5)C=C4)cc2)cc1
REMARK SMILES IDX 20 1 19 2 17 3 18 4 16 6 8 7 9 8 10 9 15 10 11 11 14 12
REMARK SMILES IDX 12 13 13 14 6 16 7 17 5 18 2 19 3 20 90 21 4 22 89 23 1 24
REMARK SMILES IDX 21 27 22 28 23 29 24 30 25 32 26 33 27 34 88 35 28 36 87 37
REMARK SMILES IDX 29 38 30 39 31 40 81 41 32 42 86 43 80 44 82 45 33 46 85 47
REMARK SMILES IDX 79 48 78 49 34 51 66 52 46 53 65 54 47 55 50 56 64 57 83 58
REMARK SMILES IDX 48 59 49 60 63 62 84 63 51 64 35 65 36 66 44 67 37 68 38 69
REMARK SMILES IDX 42 70 45 71 39 72 40 73 43 74 41 75 67 76 68 77 76 78 69 79
REMARK SMILES IDX 70 80 74 81 77 82 71 83 72 84 75 85 73 86 52 87 53 88 61 89
REMARK SMILES IDX 54 90 55 91 59 92 62 93 56 94 57 95 60 96 58 97
REMARK H PARENT 19 5 13 15 1 25 1 26 23 31 82 50 50 61
REMARK Flexibility Score: inf
ROOT
ATOM      1  C   UNL     1      -4.738   4.697   0.137  1.00  0.00     0.117 C 
ENDROOT
BRANCH   1   2
ATOM      2  N   UNL     1      -3.428   4.266  -0.310  1.00  0.00    -0.354 N 
ATOM      3  C   UNL     1      -3.049   3.246  -1.126  1.00  0.00     0.243 C 
ATOM      4  O   UNL     1      -1.978   3.428  -1.723  1.00  0.00    -0.273 OA
ATOM      5  H   UNL     1      -2.682   4.806   0.038  1.00  0.00     0.163 HD
BRANCH   3   6
ATOM      6  C   UNL     1      -3.847   1.936  -1.378  1.00  0.00     0.181 C 
ATOM      7  N   UNL     1      -4.129   1.039  -0.199  1.00  0.00    -0.320 N 
ATOM      8  C   UNL     1      -5.446   1.058   0.480  1.00  0.00     0.178 C 
ATOM      9  C   UNL     1      -6.463   1.837  -0.264  1.00  0.00     0.081 A 
ATOM     10  C   UNL     1      -5.059   2.185  -2.329  1.00  0.00     0.091 C 
ATOM     11  N   UNL     1      -7.618   2.332   0.286  1.00  0.00    -0.240 NA
ATOM     12  C   UNL     1      -6.296   2.327  -1.534  1.00  0.00     0.042 A 
ATOM     13  C   UNL     1      -8.144   3.102  -0.641  1.00  0.00     0.197 A 
ATOM     14  N   UNL     1      -7.401   3.087  -1.794  1.00  0.00    -0.348 N 
ATOM     15  H   UNL     1      -7.621   3.535  -2.643  1.00  0.00     0.167 HD
BRANCH   7  16
ATOM     16  C   UNL     1      -3.285   0.009   0.245  1.00  0.00     0.254 C 
ATOM     17  O   UNL     1      -3.720  -0.947   0.891  1.00  0.00    -0.269 OA
BRANCH  16  18
ATOM     18  C   UNL     1      -1.816   0.026   0.030  1.00  0.00     0.040 A 
ATOM     19  C   UNL     1       1.008  -0.072  -0.037  1.00  0.00     0.031 A 
ATOM     20  C   UNL     1       0.254  -1.238  -0.169  1.00  0.00     0.026 A 
ATOM     21  C   UNL     1       0.338   1.131   0.189  1.00  0.00     0.026 A 
ATOM     22  C   UNL     1      -1.146  -1.191  -0.153  1.00  0.00     0.016 A 
ATOM     23  C   UNL     1      -1.060   1.176   0.249  1.00  0.00     0.016 A 
BRANCH  19  24
ATOM     24  N   UNL     1       2.391  -0.125   0.037  1.00  0.00    -0.399 N 
ATOM     25  H   UNL     1       2.860  -0.976  -0.123  1.00  0.00     0.156 HD
ATOM     26  H   UNL     1       2.904   0.688   0.249  1.00  0.00     0.156 HD
ENDBRANCH  19  24
ENDBRANCH  16  18
ENDBRANCH   7  16
ENDBRANCH   3   6
ENDBRANCH   1   2
BRANCH   1  27
ATOM     27  C   UNL     1      -5.113   4.237   1.544  1.00  0.00     0.042 C 
BRANCH  27  28
ATOM     28  C   UNL     1      -5.140   5.390   2.523  1.00  0.00     0.118 C 
BRANCH  28  29
ATOM     29  N   UNL     1      -6.213   6.374   2.269  1.00  0.00    -0.352 N 
ATOM     30  C   UNL     1      -6.447   7.599   2.905  1.00  0.00     0.251 C 
ATOM     31  H   UNL     1      -6.850   6.136   1.556  1.00  0.00     0.163 HD
ATOM     32  O   UNL     1      -7.512   8.174   2.832  1.00  0.00    -0.269 OA
BRANCH  30  33
ATOM     33  C   UNL     1      -5.318   8.195   3.647  1.00  0.00     0.039 A 
ATOM     34  C   UNL     1      -5.383   8.732   4.939  1.00  0.00     0.014 A 
ATOM     35  C   UNL     1      -4.102   7.989   3.049  1.00  0.00     0.014 A 
ATOM     36  C   UNL     1      -4.175   8.978   5.600  1.00  0.00     0.010 A 
ATOM     37  C   UNL     1      -3.127   7.654   3.921  1.00  0.00     0.010 A 
ATOM     38  C   UNL     1      -3.020   8.431   5.043  1.00  0.00    -0.014 A 
BRANCH  38  39
ATOM     39  C   UNL     1      -1.666   8.498   5.556  1.00  0.00     0.031 A 
ATOM     40  C   UNL     1      -1.490   7.901   6.894  1.00  0.00     0.074 A 
ATOM     41  C   UNL     1      -0.618   8.784   4.742  1.00  0.00     0.049 A 
ATOM     42  N   UNL     1      -1.292   8.525   8.003  1.00  0.00    -0.248 NA
ATOM     43  C   UNL     1      -1.731   6.459   7.053  1.00  0.00     0.031 C 
ATOM     44  C   UNL     1      -0.584   9.027   3.288  1.00  0.00     0.029 A 
ATOM     45  N   UNL     1       0.700   8.840   5.068  1.00  0.00    -0.354 N 
ATOM     46  C   UNL     1      -1.176   7.542   8.980  1.00  0.00     0.074 A 
ATOM     47  C   UNL     1      -1.669   6.330   8.380  1.00  0.00     0.031 C 
ATOM     48  C   UNL     1       0.693   8.988   2.840  1.00  0.00     0.029 A 
ATOM     49  C   UNL     1       1.574   8.899   3.984  1.00  0.00     0.049 A 
ATOM     50  H   UNL     1       1.014   8.839   6.001  1.00  0.00     0.167 HD
ATOM     51  C   UNL     1      -0.456   7.773  10.113  1.00  0.00     0.037 A 
ATOM     52  C   UNL     1       2.928   8.848   4.066  1.00  0.00     0.037 A 
ATOM     53  C   UNL     1      -0.154   9.182  10.239  1.00  0.00     0.049 A 
ATOM     54  C   UNL     1       3.279   9.210   5.471  1.00  0.00     0.074 A 
ATOM     55  C   UNL     1      -0.926  10.323  10.356  1.00  0.00     0.029 A 
ATOM     56  N   UNL     1       1.081   9.614   9.812  1.00  0.00    -0.354 N 
ATOM     57  N   UNL     1       3.059  10.396   5.979  1.00  0.00    -0.248 NA
ATOM     58  C   UNL     1       3.352   8.121   6.436  1.00  0.00     0.031 C 
ATOM     59  C   UNL     1      -0.292  11.280   9.506  1.00  0.00     0.029 A 
ATOM     60  C   UNL     1       0.876  10.705   9.002  1.00  0.00     0.049 A 
ATOM     61  H   UNL     1       1.950   9.216  10.043  1.00  0.00     0.167 HD
ATOM     62  C   UNL     1       2.564  10.155   7.255  1.00  0.00     0.074 A 
ATOM     63  C   UNL     1       2.808   8.731   7.494  1.00  0.00     0.031 C 
ATOM     64  C   UNL     1       1.723  11.037   7.876  1.00  0.00     0.037 A 
BRANCH  51  65
ATOM     65  C   UNL     1       0.287   6.728  10.911  1.00  0.00     0.064 A 
ATOM     66  C   UNL     1       0.920   7.119  12.109  1.00  0.00     0.173 A 
ATOM     67  C   UNL     1       0.650   5.453  10.426  1.00  0.00     0.173 A 
ATOM     68  F   UNL     1       0.646   8.306  12.672  1.00  0.00    -0.203 F 
ATOM     69  C   UNL     1       1.915   6.345  12.710  1.00  0.00     0.198 A 
ATOM     70  C   UNL     1       1.606   4.659  11.058  1.00  0.00     0.198 A 
ATOM     71  F   UNL     1       0.185   4.962   9.273  1.00  0.00    -0.203 F 
ATOM     72  F   UNL     1       2.581   6.824  13.768  1.00  0.00    -0.200 F 
ATOM     73  C   UNL     1       2.267   5.120  12.176  1.00  0.00     0.200 A 
ATOM     74  F   UNL     1       1.939   3.477  10.519  1.00  0.00    -0.200 F 
ATOM     75  F   UNL     1       3.268   4.407  12.706  1.00  0.00    -0.200 F 
ENDBRANCH  51  65
BRANCH  52  76
ATOM     76  C   UNL     1       3.865   8.158   3.144  1.00  0.00     0.064 A 
ATOM     77  C   UNL     1       5.245   8.417   3.174  1.00  0.00     0.173 A 
ATOM     78  C   UNL     1       3.459   7.028   2.404  1.00  0.00     0.173 A 
ATOM     79  F   UNL     1       5.721   9.446   3.890  1.00  0.00    -0.203 F 
ATOM     80  C   UNL     1       6.164   7.584   2.522  1.00  0.00     0.198 A 
ATOM     81  C   UNL     1       4.376   6.199   1.753  1.00  0.00     0.198 A 
ATOM     82  F   UNL     1       2.172   6.652   2.374  1.00  0.00    -0.203 F 
ATOM     83  F   UNL     1       7.478   7.831   2.618  1.00  0.00    -0.200 F 
ATOM     84  C   UNL     1       5.729   6.470   1.822  1.00  0.00     0.200 A 
ATOM     85  F   UNL     1       3.943   5.104   1.113  1.00  0.00    -0.200 F 
ATOM     86  F   UNL     1       6.611   5.637   1.251  1.00  0.00    -0.200 F 
ENDBRANCH  52  76
BRANCH  64  87
ATOM     87  C   UNL     1       1.483  12.377   7.225  1.00  0.00     0.064 A 
ATOM     88  C   UNL     1       0.869  12.548   5.971  1.00  0.00     0.173 A 
ATOM     89  C   UNL     1       1.717  13.534   7.978  1.00  0.00     0.173 A 
ATOM     90  F   UNL     1       0.517  11.495   5.227  1.00  0.00    -0.203 F 
ATOM     91  C   UNL     1       0.541  13.813   5.482  1.00  0.00     0.198 A 
ATOM     92  C   UNL     1       1.358  14.795   7.505  1.00  0.00     0.198 A 
ATOM     93  F   UNL     1       2.245  13.437   9.208  1.00  0.00    -0.203 F 
ATOM     94  F   UNL     1      -0.044  13.940   4.281  1.00  0.00    -0.200 F 
ATOM     95  C   UNL     1       0.779  14.935   6.254  1.00  0.00     0.200 A 
ATOM     96  F   UNL     1       1.544  15.872   8.279  1.00  0.00    -0.200 F 
ATOM     97  F   UNL     1       0.425  16.148   5.807  1.00  0.00    -0.200 F 
ENDBRANCH  64  87
ENDBRANCH  38  39
ENDBRANCH  30  33
ENDBRANCH  28  29
ENDBRANCH  27  28
ENDBRANCH   1  27
TORSDOF 13
