REMARK SMILES COc1ccc(/C=C2/SC(=S)N(CC(=O)NCCCNC(=O)c3ccc(-c4c5nc(c(-c6c(F)c(F)c(F)c(F)c6F)c6ccc([nH]6)c(-c6c(F)c(F)c(F)c(F)c6F)c6nc(c(-c7c(F)c(F)c(F)c(F)c7F)c7ccc4[nH]7)C=C6)C=C5)cc3)C2=O)cc1[N+](=O)[O-]
REMARK SMILES IDX 17 1 16 2 14 3 15 4 13 6 12 7 7 8 8 9 9 10 86 11 10 12 87 13
REMARK SMILES IDX 11 14 6 15 3 16 4 17 89 18 5 19 88 20 2 21 1 22 90 23 91 24
REMARK SMILES IDX 92 25 18 26 19 27 20 28 21 29 22 31 23 32 24 33 85 34 25 35
REMARK SMILES IDX 84 36 26 37 27 38 28 39 78 40 29 41 83 42 77 43 79 44 30 45
REMARK SMILES IDX 82 46 76 47 75 48 31 50 63 51 43 52 62 53 44 54 47 55 61 56
REMARK SMILES IDX 80 57 45 58 46 59 60 61 81 62 48 63 32 64 33 65 41 66 34 67
REMARK SMILES IDX 35 68 39 69 42 70 36 71 37 72 40 73 38 74 64 75 65 76 73 77
REMARK SMILES IDX 66 78 67 79 71 80 74 81 68 82 69 83 72 84 70 85 49 86 50 87
REMARK SMILES IDX 58 88 51 89 52 90 56 91 59 92 53 93 54 94 57 95 55 96
REMARK H PARENT 16 5 20 30 79 49 47 60
REMARK Flexibility Score: inf
ROOT
ATOM      1  C   UNL     1       7.200  -5.836  -5.081  1.00  0.00     0.117 C 
ENDROOT
BRANCH   1   2
ATOM      2  N   UNL     1       6.958  -5.607  -3.673  1.00  0.00    -0.354 N 
ATOM      3  C   UNL     1       6.138  -6.273  -2.810  1.00  0.00     0.240 C 
ATOM      4  O   UNL     1       6.332  -6.096  -1.605  1.00  0.00    -0.273 OA
ATOM      5  H   UNL     1       7.462  -4.859  -3.278  1.00  0.00     0.163 HD
BRANCH   3   6
ATOM      6  C   UNL     1       5.110  -7.300  -3.306  1.00  0.00     0.227 C 
BRANCH   6   7
ATOM      7  N   UNL     1       4.166  -6.742  -4.278  1.00  0.00    -0.283 N 
ATOM      8  C   UNL     1       1.625  -4.188  -4.909  1.00  0.00     0.029 C 
ATOM      9  C   UNL     1       2.469  -5.233  -4.939  1.00  0.00     0.081 C 
ATOM     10  S   UNL     1       2.726  -6.199  -6.343  1.00  0.00    -0.054 SA
ATOM     11  C   UNL     1       3.317  -5.749  -3.827  1.00  0.00     0.266 C 
ATOM     12  C   UNL     1       3.912  -7.226  -5.540  1.00  0.00     0.148 C 
ATOM     13  O   UNL     1       3.256  -5.360  -2.669  1.00  0.00    -0.268 OA
ATOM     14  S   UNL     1       4.553  -8.572  -6.286  1.00  0.00    -0.052 S 
BRANCH   8  15
ATOM     15  C   UNL     1       1.380  -3.349  -3.730  1.00  0.00    -0.017 A 
ATOM     16  C   UNL     1       0.921  -1.948  -1.327  1.00  0.00     0.196 A 
ATOM     17  C   UNL     1      -0.130  -2.594  -1.986  1.00  0.00     0.054 A 
ATOM     18  C   UNL     1       2.202  -2.010  -1.880  1.00  0.00     0.311 A 
ATOM     19  C   UNL     1       0.096  -3.290  -3.179  1.00  0.00     0.012 A 
ATOM     20  C   UNL     1       2.425  -2.661  -3.104  1.00  0.00     0.098 A 
BRANCH  16  21
ATOM     21  O   UNL     1       0.609  -1.373  -0.127  1.00  0.00    -0.490 OA
ATOM     22  C   UNL     1       0.638   0.052  -0.183  1.00  0.00     0.278 C 
ENDBRANCH  16  21
BRANCH  18  23
ATOM     23  N   UNL     1       3.369  -1.476  -1.190  1.00  0.00     0.066 N 
ATOM     24  O   UNL     1       4.232  -0.929  -1.895  1.00  0.00    -0.258 OA
ATOM     25  O   UNL     1       3.438  -1.602   0.039  1.00  0.00    -0.258 OA
ENDBRANCH  18  23
ENDBRANCH   8  15
ENDBRANCH   6   7
ENDBRANCH   3   6
ENDBRANCH   1   2
BRANCH   1  26
ATOM     26  C   UNL     1       6.745  -4.669  -5.949  1.00  0.00     0.042 C 
BRANCH  26  27
ATOM     27  C   UNL     1       7.589  -3.406  -5.782  1.00  0.00     0.118 C 
BRANCH  27  28
ATOM     28  N   UNL     1       8.976  -3.599  -6.187  1.00  0.00    -0.352 N 
ATOM     29  C   UNL     1       9.712  -3.010  -7.186  1.00  0.00     0.251 C 
ATOM     30  H   UNL     1       9.469  -4.264  -5.654  1.00  0.00     0.163 HD
ATOM     31  O   UNL     1      10.814  -3.467  -7.473  1.00  0.00    -0.269 OA
BRANCH  29  32
ATOM     32  C   UNL     1       9.184  -1.851  -7.937  1.00  0.00     0.039 A 
ATOM     33  C   UNL     1       9.374  -1.807  -9.322  1.00  0.00     0.014 A 
ATOM     34  C   UNL     1       8.528  -0.801  -7.290  1.00  0.00     0.014 A 
ATOM     35  C   UNL     1       8.824  -0.762 -10.066  1.00  0.00     0.010 A 
ATOM     36  C   UNL     1       7.919   0.203  -8.040  1.00  0.00     0.010 A 
ATOM     37  C   UNL     1       8.043   0.221  -9.437  1.00  0.00    -0.014 A 
BRANCH  37  38
ATOM     38  C   UNL     1       7.289   1.225 -10.231  1.00  0.00     0.031 A 
ATOM     39  C   UNL     1       7.585   2.691 -10.104  1.00  0.00     0.074 A 
ATOM     40  C   UNL     1       6.266   0.808 -11.003  1.00  0.00     0.049 A 
ATOM     41  N   UNL     1       6.968   3.709 -10.651  1.00  0.00    -0.248 NA
ATOM     42  C   UNL     1       8.705   3.066  -9.229  1.00  0.00     0.031 C 
ATOM     43  C   UNL     1       5.850  -0.586 -11.168  1.00  0.00     0.029 A 
ATOM     44  N   UNL     1       5.377   1.513 -11.776  1.00  0.00    -0.354 N 
ATOM     45  C   UNL     1       7.616   4.842 -10.178  1.00  0.00     0.074 A 
ATOM     46  C   UNL     1       8.645   4.389  -9.267  1.00  0.00     0.031 C 
ATOM     47  C   UNL     1       4.796  -0.635 -11.996  1.00  0.00     0.029 A 
ATOM     48  C   UNL     1       4.429   0.724 -12.380  1.00  0.00     0.049 A 
ATOM     49  H   UNL     1       5.415   2.491 -11.886  1.00  0.00     0.167 HD
ATOM     50  C   UNL     1       7.378   6.140 -10.489  1.00  0.00     0.037 A 
ATOM     51  C   UNL     1       3.367   1.056 -13.139  1.00  0.00     0.037 A 
ATOM     52  C   UNL     1       6.357   6.580 -11.405  1.00  0.00     0.049 A 
ATOM     53  C   UNL     1       3.111   2.504 -13.449  1.00  0.00     0.074 A 
ATOM     54  C   UNL     1       6.094   7.864 -11.851  1.00  0.00     0.029 A 
ATOM     55  N   UNL     1       5.417   5.752 -12.003  1.00  0.00    -0.354 N 
ATOM     56  N   UNL     1       3.785   3.562 -13.069  1.00  0.00    -0.248 NA
ATOM     57  C   UNL     1       1.947   2.806 -14.293  1.00  0.00     0.031 C 
ATOM     58  C   UNL     1       4.953   7.823 -12.659  1.00  0.00     0.029 A 
ATOM     59  C   UNL     1       4.543   6.504 -12.773  1.00  0.00     0.049 A 
ATOM     60  H   UNL     1       5.377   4.774 -11.896  1.00  0.00     0.167 HD
ATOM     61  C   UNL     1       3.138   4.651 -13.635  1.00  0.00     0.074 A 
ATOM     62  C   UNL     1       2.032   4.124 -14.407  1.00  0.00     0.031 C 
ATOM     63  C   UNL     1       3.433   5.970 -13.522  1.00  0.00     0.037 A 
BRANCH  50  64
ATOM     64  C   UNL     1       8.226   7.185  -9.819  1.00  0.00     0.064 A 
ATOM     65  C   UNL     1       9.592   7.328 -10.107  1.00  0.00     0.173 A 
ATOM     66  C   UNL     1       7.653   8.084  -8.907  1.00  0.00     0.173 A 
ATOM     67  F   UNL     1      10.193   6.492 -10.967  1.00  0.00    -0.203 F 
ATOM     68  C   UNL     1      10.358   8.309  -9.482  1.00  0.00     0.198 A 
ATOM     69  C   UNL     1       8.414   9.086  -8.309  1.00  0.00     0.198 A 
ATOM     70  F   UNL     1       6.349   8.000  -8.602  1.00  0.00    -0.203 F 
ATOM     71  F   UNL     1      11.672   8.393  -9.733  1.00  0.00    -0.200 F 
ATOM     72  C   UNL     1       9.768   9.191  -8.590  1.00  0.00     0.200 A 
ATOM     73  F   UNL     1       7.837   9.948  -7.461  1.00  0.00    -0.200 F 
ATOM     74  F   UNL     1      10.505  10.140  -7.995  1.00  0.00    -0.200 F 
ENDBRANCH  50  64
BRANCH  51  75
ATOM     75  C   UNL     1       2.464  -0.011 -13.645  1.00  0.00     0.064 A 
ATOM     76  C   UNL     1       2.407  -0.324 -15.010  1.00  0.00     0.173 A 
ATOM     77  C   UNL     1       1.653  -0.752 -12.772  1.00  0.00     0.173 A 
ATOM     78  F   UNL     1       3.148   0.369 -15.887  1.00  0.00    -0.203 F 
ATOM     79  C   UNL     1       1.563  -1.327 -15.483  1.00  0.00     0.198 A 
ATOM     80  C   UNL     1       0.834  -1.775 -13.242  1.00  0.00     0.198 A 
ATOM     81  F   UNL     1       1.675  -0.496 -11.455  1.00  0.00    -0.203 F 
ATOM     82  F   UNL     1       1.497  -1.578 -16.798  1.00  0.00    -0.200 F 
ATOM     83  C   UNL     1       0.784  -2.057 -14.598  1.00  0.00     0.200 A 
ATOM     84  F   UNL     1       0.098  -2.490 -12.380  1.00  0.00    -0.200 F 
ATOM     85  F   UNL     1      -0.018  -3.030 -15.053  1.00  0.00    -0.200 F 
ENDBRANCH  51  75
BRANCH  63  86
ATOM     86  C   UNL     1       2.545   6.938 -14.251  1.00  0.00     0.064 A 
ATOM     87  C   UNL     1       1.227   7.182 -13.834  1.00  0.00     0.173 A 
ATOM     88  C   UNL     1       3.027   7.661 -15.352  1.00  0.00     0.173 A 
ATOM     89  F   UNL     1       0.711   6.504 -12.797  1.00  0.00    -0.203 F 
ATOM     90  C   UNL     1       0.420   8.096 -14.506  1.00  0.00     0.198 A 
ATOM     91  C   UNL     1       2.229   8.599 -16.001  1.00  0.00     0.198 A 
ATOM     92  F   UNL     1       4.281   7.471 -15.790  1.00  0.00    -0.203 F 
ATOM     93  F   UNL     1      -0.851   8.275 -14.120  1.00  0.00    -0.200 F 
ATOM     94  C   UNL     1       0.924   8.810 -15.583  1.00  0.00     0.200 A 
ATOM     95  F   UNL     1       2.723   9.299 -17.032  1.00  0.00    -0.200 F 
ATOM     96  F   UNL     1       0.149   9.697 -16.222  1.00  0.00    -0.200 F 
ENDBRANCH  63  86
ENDBRANCH  37  38
ENDBRANCH  29  32
ENDBRANCH  27  28
ENDBRANCH  26  27
ENDBRANCH   1  26
TORSDOF 14
