REMARK SMILES O=C(NCCCNC(=O)[C@@H](CCOCCO)c1cccc(F)c1)c1ccc(-c2c3nc(c(-c4c(F)c(F)c(F)c(F)c4F)c4ccc([nH]4)c(-c4c(F)c(F)c(F)c(F)c4F)c4nc(c(-c5c(F)c(F)c(F)c(F)c5F)c5ccc2[nH]5)C=C4)C=C3)cc1
REMARK SMILES IDX 7 1 8 2 9 3 6 5 5 6 4 7 3 8 1 9 2 10 24 12 25 13 86 14 26 15
REMARK SMILES IDX 85 16 27 17 28 18 29 19 79 20 30 21 84 22 78 23 80 24 31 25
REMARK SMILES IDX 83 26 77 27 76 28 32 30 64 31 44 32 63 33 45 34 48 35 62 36
REMARK SMILES IDX 81 37 46 38 47 39 61 41 82 42 49 43 33 44 34 45 42 46 35 47
REMARK SMILES IDX 36 48 40 49 43 50 37 51 38 52 41 53 39 54 65 55 66 56 74 57
REMARK SMILES IDX 67 58 68 59 72 60 75 61 69 62 70 63 73 64 71 65 50 66 51 67
REMARK SMILES IDX 59 68 52 69 53 70 57 71 60 72 54 73 55 74 58 75 56 76 10 77
REMARK SMILES IDX 11 78 12 79 13 80 14 81 15 82 16 83 17 85 18 86 23 87 19 88
REMARK SMILES IDX 21 89 20 90 22 91
REMARK H PARENT 7 4 3 11 80 29 48 40 16 84
REMARK Flexibility Score: inf
ROOT
ATOM      1  N   UNL     1       5.131   4.316   1.505  1.00  0.00    -0.356 N 
ATOM      2  C   UNL     1       5.699   5.525   1.327  1.00  0.00     0.227 C 
ATOM      3  O   UNL     1       6.311   5.894   2.348  1.00  0.00    -0.274 OA
ATOM      4  H   UNL     1       5.505   3.872   2.300  1.00  0.00     0.163 HD
ENDROOT
BRANCH   1   5
ATOM      5  C   UNL     1       4.132   3.472   0.873  1.00  0.00     0.117 C 
BRANCH   5   6
ATOM      6  C   UNL     1       4.699   2.115   0.463  1.00  0.00     0.042 C 
BRANCH   6   7
ATOM      7  C   UNL     1       4.293   0.996   1.417  1.00  0.00     0.118 C 
BRANCH   7   8
ATOM      8  N   UNL     1       2.889   0.622   1.248  1.00  0.00    -0.352 N 
ATOM      9  O   UNL     1       1.088  -0.314   0.281  1.00  0.00    -0.269 OA
ATOM     10  C   UNL     1       2.293  -0.372   0.502  1.00  0.00     0.251 C 
ATOM     11  H   UNL     1       2.257   1.179   1.758  1.00  0.00     0.163 HD
BRANCH  10  12
ATOM     12  C   UNL     1       3.079  -1.516  -0.019  1.00  0.00     0.039 A 
ATOM     13  C   UNL     1       4.157  -2.010   0.707  1.00  0.00     0.014 A 
ATOM     14  C   UNL     1       2.686  -2.174  -1.193  1.00  0.00     0.014 A 
ATOM     15  C   UNL     1       4.950  -3.016   0.185  1.00  0.00     0.010 A 
ATOM     16  C   UNL     1       3.388  -3.307  -1.634  1.00  0.00     0.010 A 
ATOM     17  C   UNL     1       4.530  -3.734  -0.945  1.00  0.00    -0.014 A 
BRANCH  17  18
ATOM     18  C   UNL     1       5.239  -5.006  -1.244  1.00  0.00     0.031 A 
ATOM     19  C   UNL     1       5.970  -5.218  -2.533  1.00  0.00     0.074 A 
ATOM     20  C   UNL     1       5.281  -5.936  -0.264  1.00  0.00     0.049 A 
ATOM     21  N   UNL     1       6.675  -6.255  -2.909  1.00  0.00    -0.248 NA
ATOM     22  C   UNL     1       5.904  -4.144  -3.536  1.00  0.00     0.031 C 
ATOM     23  C   UNL     1       4.592  -5.820   1.027  1.00  0.00     0.029 A 
ATOM     24  N   UNL     1       5.965  -7.119  -0.159  1.00  0.00    -0.354 N 
ATOM     25  C   UNL     1       7.111  -5.974  -4.196  1.00  0.00     0.074 A 
ATOM     26  C   UNL     1       6.587  -4.671  -4.545  1.00  0.00     0.031 C 
ATOM     27  C   UNL     1       4.976  -6.819   1.829  1.00  0.00     0.029 A 
ATOM     28  C   UNL     1       5.834  -7.720   1.073  1.00  0.00     0.049 A 
ATOM     29  H   UNL     1       6.497  -7.503  -0.892  1.00  0.00     0.167 HD
ATOM     30  C   UNL     1       7.879  -6.744  -5.001  1.00  0.00     0.037 A 
ATOM     31  C   UNL     1       6.319  -8.885   1.537  1.00  0.00     0.037 A 
ATOM     32  C   UNL     1       8.412  -8.027  -4.616  1.00  0.00     0.049 A 
ATOM     33  C   UNL     1       7.149  -9.721   0.610  1.00  0.00     0.074 A 
ATOM     34  C   UNL     1       9.213  -8.882  -5.353  1.00  0.00     0.029 A 
ATOM     35  N   UNL     1       8.202  -8.637  -3.386  1.00  0.00    -0.354 N 
ATOM     36  N   UNL     1       7.542  -9.447  -0.610  1.00  0.00    -0.248 NA
ATOM     37  C   UNL     1       7.579 -11.033   1.104  1.00  0.00     0.031 C 
ATOM     38  C   UNL     1       9.446 -10.029  -4.590  1.00  0.00     0.029 A 
ATOM     39  C   UNL     1       8.840  -9.867  -3.354  1.00  0.00     0.049 A 
ATOM     40  H   UNL     1       7.677  -8.252  -2.647  1.00  0.00     0.167 HD
ATOM     41  C   UNL     1       8.264 -10.550  -1.033  1.00  0.00     0.074 A 
ATOM     42  C   UNL     1       8.283 -11.485   0.075  1.00  0.00     0.031 C 
ATOM     43  C   UNL     1       8.844 -10.776  -2.236  1.00  0.00     0.037 A 
BRANCH  30  44
ATOM     44  C   UNL     1       8.185  -6.250  -6.385  1.00  0.00     0.064 A 
ATOM     45  C   UNL     1       7.633  -6.896  -7.503  1.00  0.00     0.173 A 
ATOM     46  C   UNL     1       9.106  -5.218  -6.614  1.00  0.00     0.173 A 
ATOM     47  F   UNL     1       6.751  -7.894  -7.340  1.00  0.00    -0.203 F 
ATOM     48  C   UNL     1       8.010  -6.543  -8.796  1.00  0.00     0.198 A 
ATOM     49  C   UNL     1       9.463  -4.851  -7.910  1.00  0.00     0.198 A 
ATOM     50  F   UNL     1       9.655  -4.562  -5.581  1.00  0.00    -0.203 F 
ATOM     51  F   UNL     1       7.501  -7.204  -9.846  1.00  0.00    -0.200 F 
ATOM     52  C   UNL     1       8.925  -5.522  -8.999  1.00  0.00     0.200 A 
ATOM     53  F   UNL     1      10.335  -3.852  -8.106  1.00  0.00    -0.200 F 
ATOM     54  F   UNL     1       9.293  -5.187 -10.244  1.00  0.00    -0.200 F 
ENDBRANCH  30  44
BRANCH  31  55
ATOM     55  C   UNL     1       5.988  -9.330   2.918  1.00  0.00     0.064 A 
ATOM     56  C   UNL     1       4.662  -9.604   3.294  1.00  0.00     0.173 A 
ATOM     57  C   UNL     1       6.978  -9.454   3.901  1.00  0.00     0.173 A 
ATOM     58  F   UNL     1       3.673  -9.498   2.394  1.00  0.00    -0.203 F 
ATOM     59  C   UNL     1       4.336  -9.945   4.604  1.00  0.00     0.198 A 
ATOM     60  C   UNL     1       6.655  -9.835   5.204  1.00  0.00     0.198 A 
ATOM     61  F   UNL     1       8.262  -9.223   3.593  1.00  0.00    -0.203 F 
ATOM     62  F   UNL     1       3.055 -10.141   4.944  1.00  0.00    -0.200 F 
ATOM     63  C   UNL     1       5.334 -10.067   5.557  1.00  0.00     0.200 A 
ATOM     64  F   UNL     1       7.626  -9.978   6.117  1.00  0.00    -0.200 F 
ATOM     65  F   UNL     1       5.023 -10.410   6.814  1.00  0.00    -0.200 F 
ENDBRANCH  31  55
BRANCH  43  66
ATOM     66  C   UNL     1       9.562 -12.079  -2.412  1.00  0.00     0.064 A 
ATOM     67  C   UNL     1      10.960 -12.111  -2.508  1.00  0.00     0.173 A 
ATOM     68  C   UNL     1       8.860 -13.285  -2.554  1.00  0.00     0.173 A 
ATOM     69  F   UNL     1      11.673 -10.982  -2.383  1.00  0.00    -0.203 F 
ATOM     70  C   UNL     1      11.631 -13.304  -2.759  1.00  0.00     0.198 A 
ATOM     71  C   UNL     1       9.536 -14.480  -2.775  1.00  0.00     0.198 A 
ATOM     72  F   UNL     1       7.522 -13.304  -2.452  1.00  0.00    -0.203 F 
ATOM     73  F   UNL     1      12.965 -13.306  -2.884  1.00  0.00    -0.200 F 
ATOM     74  C   UNL     1      10.919 -14.487  -2.888  1.00  0.00     0.200 A 
ATOM     75  F   UNL     1       8.850 -15.627  -2.872  1.00  0.00    -0.200 F 
ATOM     76  F   UNL     1      11.567 -15.637  -3.119  1.00  0.00    -0.200 F 
ENDBRANCH  43  66
ENDBRANCH  17  18
ENDBRANCH  10  12
ENDBRANCH   7   8
ENDBRANCH   6   7
ENDBRANCH   5   6
ENDBRANCH   1   5
BRANCH   2  77
ATOM     77  C   UNL     1       5.816   6.414   0.073  1.00  0.00     0.111 C 
BRANCH  77  78
ATOM     78  C   UNL     1       7.036   6.098  -0.837  1.00  0.00     0.047 C 
BRANCH  78  79
ATOM     79  C   UNL     1       6.950   5.139  -2.019  1.00  0.00     0.161 C 
BRANCH  79  80
ATOM     80  O   UNL     1       6.289   5.642  -3.165  1.00  0.00    -0.379 OA
BRANCH  80  81
ATOM     81  C   UNL     1       4.934   5.306  -3.458  1.00  0.00     0.188 C 
BRANCH  81  82
ATOM     82  C   UNL     1       4.254   4.224  -2.636  1.00  0.00     0.184 C 
BRANCH  82  83
ATOM     83  O   UNL     1       4.783   2.925  -2.861  1.00  0.00    -0.394 OA
ATOM     84  H   UNL     1       4.648   2.677  -3.789  1.00  0.00     0.210 HD
ENDBRANCH  82  83
ENDBRANCH  81  82
ENDBRANCH  80  81
ENDBRANCH  79  80
ENDBRANCH  78  79
ENDBRANCH  77  78
BRANCH  77  85
ATOM     85  C   UNL     1       4.643   7.156  -0.555  1.00  0.00    -0.033 A 
ATOM     86  C   UNL     1       3.299   6.787  -0.470  1.00  0.00     0.005 A 
ATOM     87  C   UNL     1       4.938   8.354  -1.252  1.00  0.00     0.043 A 
ATOM     88  C   UNL     1       2.303   7.529  -1.130  1.00  0.00     0.003 A 
ATOM     89  C   UNL     1       3.945   9.099  -1.877  1.00  0.00     0.123 A 
ATOM     90  C   UNL     1       2.628   8.683  -1.841  1.00  0.00     0.039 A 
ATOM     91  F   UNL     1       4.273  10.228  -2.520  1.00  0.00    -0.207 F 
ENDBRANCH  77  85
ENDBRANCH   2  77
TORSDOF 17
