REMARK SMILES CCCCCNc1cncc(C(=O)NCCCNC(=O)c2ccc(-c3c4nc(c(-c5c(F)c(F)c(F)c(F)c5F)c5ccc([nH]5)c(-c5c(F)c(F)c(F)c(F)c5F)c5nc(c(-c6c(F)c(F)c(F)c(F)c6F)c6ccc3[nH]6)C=C5)C=C4)cc2)n1
REMARK SMILES IDX 12 1 13 2 14 3 11 5 7 6 8 7 84 8 9 9 10 10 6 11 5 13 4 14
REMARK SMILES IDX 3 15 2 16 1 17 15 18 16 19 17 20 18 21 19 22 20 24 21 25
REMARK SMILES IDX 22 26 83 27 23 28 82 29 24 30 25 31 26 32 76 33 27 34 81 35
REMARK SMILES IDX 75 36 77 37 28 38 80 39 74 40 73 41 29 43 61 44 41 45 60 46
REMARK SMILES IDX 42 47 45 48 59 49 78 50 43 51 44 52 58 54 79 55 46 56 30 57
REMARK SMILES IDX 31 58 39 59 32 60 33 61 37 62 40 63 34 64 35 65 38 66 36 67
REMARK SMILES IDX 62 68 63 69 71 70 64 71 65 72 69 73 72 74 66 75 67 76 70 77
REMARK SMILES IDX 68 78 47 79 48 80 56 81 49 82 50 83 54 84 57 85 51 86 52 87
REMARK SMILES IDX 55 88 53 89
REMARK H PARENT 14 4 6 12 18 23 77 42 45 53
REMARK Flexibility Score: inf
ROOT
ATOM      1  C   UNL     1      -2.865   3.458   7.608  1.00  0.00     0.271 C 
ATOM      2  O   UNL     1      -3.507   4.291   8.252  1.00  0.00    -0.267 OA
ATOM      3  N   UNL     1      -1.961   2.684   8.303  1.00  0.00    -0.351 N 
ATOM      4  H   UNL     1      -1.909   2.889   9.264  1.00  0.00     0.163 HD
ENDROOT
BRANCH   1   5
ATOM      5  C   UNL     1      -3.097   3.336   6.141  1.00  0.00     0.148 A 
ATOM      6  C   UNL     1      -2.554   2.450   4.085  1.00  0.00     0.145 A 
ATOM      7  C   UNL     1      -3.573   3.212   3.515  1.00  0.00     0.157 A 
ATOM      8  N   UNL     1      -2.315   2.505   5.409  1.00  0.00    -0.223 NA
ATOM      9  N   UNL     1      -4.367   4.051   4.226  1.00  0.00    -0.258 NA
ATOM     10  C   UNL     1      -4.101   4.096   5.555  1.00  0.00     0.145 A 
BRANCH   6  11
ATOM     11  N   UNL     1      -1.723   1.605   3.391  1.00  0.00    -0.369 N 
ATOM     12  H   UNL     1      -1.515   0.719   3.766  1.00  0.00     0.162 HD
BRANCH  11  13
ATOM     13  C   UNL     1      -1.147   1.988   2.117  1.00  0.00     0.114 C 
BRANCH  13  14
ATOM     14  C   UNL     1       0.381   1.881   2.180  1.00  0.00     0.021 C 
BRANCH  14  15
ATOM     15  C   UNL     1       0.933   0.457   2.335  1.00  0.00     0.002 C 
BRANCH  15  16
ATOM     16  C   UNL     1       0.532  -0.528   1.235  1.00  0.00    -0.003 C 
ATOM     17  C   UNL     1       0.966  -0.090  -0.155  1.00  0.00     0.004 C 
ENDBRANCH  15  16
ENDBRANCH  14  15
ENDBRANCH  13  14
ENDBRANCH  11  13
ENDBRANCH   6  11
ENDBRANCH   1   5
BRANCH   3  18
ATOM     18  C   UNL     1      -1.070   1.617   7.872  1.00  0.00     0.118 C 
BRANCH  18  19
ATOM     19  C   UNL     1       0.376   2.092   7.745  1.00  0.00     0.042 C 
BRANCH  19  20
ATOM     20  C   UNL     1       1.034   2.422   9.086  1.00  0.00     0.118 C 
BRANCH  20  21
ATOM     21  N   UNL     1       1.136   1.259   9.962  1.00  0.00    -0.352 N 
ATOM     22  C   UNL     1       2.226   0.654  10.529  1.00  0.00     0.251 C 
ATOM     23  H   UNL     1       0.274   0.837  10.182  1.00  0.00     0.163 HD
ATOM     24  O   UNL     1       2.092  -0.440  11.077  1.00  0.00    -0.269 OA
BRANCH  22  25
ATOM     25  C   UNL     1       3.562   1.285  10.489  1.00  0.00     0.039 A 
ATOM     26  C   UNL     1       4.682   0.472  10.282  1.00  0.00     0.014 A 
ATOM     27  C   UNL     1       3.728   2.654  10.713  1.00  0.00     0.014 A 
ATOM     28  C   UNL     1       5.958   1.038  10.239  1.00  0.00     0.010 A 
ATOM     29  C   UNL     1       4.994   3.228  10.604  1.00  0.00     0.010 A 
ATOM     30  C   UNL     1       6.121   2.426  10.368  1.00  0.00    -0.014 A 
BRANCH  30  31
ATOM     31  C   UNL     1       7.459   3.058  10.251  1.00  0.00     0.031 A 
ATOM     32  C   UNL     1       8.073   3.760  11.430  1.00  0.00     0.074 A 
ATOM     33  C   UNL     1       8.090   3.062   9.061  1.00  0.00     0.049 A 
ATOM     34  N   UNL     1       9.190   4.441  11.499  1.00  0.00    -0.248 NA
ATOM     35  C   UNL     1       7.320   3.713  12.692  1.00  0.00     0.031 C 
ATOM     36  C   UNL     1       7.579   2.451   7.833  1.00  0.00     0.029 A 
ATOM     37  N   UNL     1       9.291   3.608   8.686  1.00  0.00    -0.354 N 
ATOM     38  C   UNL     1       9.260   4.921  12.800  1.00  0.00     0.074 A 
ATOM     39  C   UNL     1       8.055   4.489  13.475  1.00  0.00     0.031 C 
ATOM     40  C   UNL     1       8.469   2.638   6.846  1.00  0.00     0.029 A 
ATOM     41  C   UNL     1       9.594   3.414   7.361  1.00  0.00     0.049 A 
ATOM     42  H   UNL     1       9.881   4.093   9.308  1.00  0.00     0.167 HD
ATOM     43  C   UNL     1      10.248   5.641  13.383  1.00  0.00     0.037 A 
ATOM     44  C   UNL     1      10.655   3.823   6.639  1.00  0.00     0.037 A 
ATOM     45  C   UNL     1      11.461   6.041  12.719  1.00  0.00     0.049 A 
ATOM     46  C   UNL     1      11.739   4.619   7.311  1.00  0.00     0.074 A 
ATOM     47  C   UNL     1      12.555   6.707  13.244  1.00  0.00     0.029 A 
ATOM     48  N   UNL     1      11.739   5.811  11.379  1.00  0.00    -0.354 N 
ATOM     49  N   UNL     1      11.826   5.010   8.559  1.00  0.00    -0.248 NA
ATOM     50  C   UNL     1      12.874   5.028   6.473  1.00  0.00     0.031 C 
ATOM     51  C   UNL     1      13.476   6.918  12.212  1.00  0.00     0.029 A 
ATOM     52  C   UNL     1      12.977   6.344  11.055  1.00  0.00     0.049 A 
ATOM     53  H   UNL     1      11.145   5.340  10.751  1.00  0.00     0.167 HD
ATOM     54  C   UNL     1      13.034   5.685   8.664  1.00  0.00     0.074 A 
ATOM     55  C   UNL     1      13.652   5.641   7.355  1.00  0.00     0.031 C 
ATOM     56  C   UNL     1      13.582   6.287   9.748  1.00  0.00     0.037 A 
BRANCH  43  57
ATOM     57  C   UNL     1      10.058   6.047  14.816  1.00  0.00     0.064 A 
ATOM     58  C   UNL     1      10.108   5.110  15.860  1.00  0.00     0.173 A 
ATOM     59  C   UNL     1       9.856   7.394  15.153  1.00  0.00     0.173 A 
ATOM     60  F   UNL     1      10.290   3.809  15.591  1.00  0.00    -0.203 F 
ATOM     61  C   UNL     1       9.931   5.503  17.184  1.00  0.00     0.198 A 
ATOM     62  C   UNL     1       9.708   7.787  16.481  1.00  0.00     0.198 A 
ATOM     63  F   UNL     1       9.807   8.331  14.195  1.00  0.00    -0.203 F 
ATOM     64  F   UNL     1       9.933   4.584  18.160  1.00  0.00    -0.200 F 
ATOM     65  C   UNL     1       9.737   6.840  17.494  1.00  0.00     0.200 A 
ATOM     66  F   UNL     1       9.534   9.081  16.780  1.00  0.00    -0.200 F 
ATOM     67  F   UNL     1       9.572   7.217  18.770  1.00  0.00    -0.200 F 
ENDBRANCH  43  57
BRANCH  44  68
ATOM     68  C   UNL     1      10.756   3.458   5.203  1.00  0.00     0.064 A 
ATOM     69  C   UNL     1      11.701   2.517   4.770  1.00  0.00     0.173 A 
ATOM     70  C   UNL     1       9.913   4.029   4.240  1.00  0.00     0.173 A 
ATOM     71  F   UNL     1      12.542   1.959   5.653  1.00  0.00    -0.203 F 
ATOM     72  C   UNL     1      11.809   2.173   3.425  1.00  0.00     0.198 A 
ATOM     73  C   UNL     1      10.005   3.665   2.898  1.00  0.00     0.198 A 
ATOM     74  F   UNL     1       8.990   4.930   4.605  1.00  0.00    -0.203 F 
ATOM     75  F   UNL     1      12.746   1.300   3.032  1.00  0.00    -0.200 F 
ATOM     76  C   UNL     1      10.957   2.743   2.491  1.00  0.00     0.200 A 
ATOM     77  F   UNL     1       9.171   4.207   2.001  1.00  0.00    -0.200 F 
ATOM     78  F   UNL     1      11.056   2.406   1.198  1.00  0.00    -0.200 F 
ENDBRANCH  44  68
BRANCH  56  79
ATOM     79  C   UNL     1      14.932   6.917   9.574  1.00  0.00     0.064 A 
ATOM     80  C   UNL     1      15.098   8.114   8.861  1.00  0.00     0.173 A 
ATOM     81  C   UNL     1      16.067   6.337  10.160  1.00  0.00     0.173 A 
ATOM     82  F   UNL     1      14.046   8.698   8.269  1.00  0.00    -0.203 F 
ATOM     83  C   UNL     1      16.356   8.694   8.722  1.00  0.00     0.198 A 
ATOM     84  C   UNL     1      17.318   6.934  10.042  1.00  0.00     0.198 A 
ATOM     85  F   UNL     1      15.960   5.195  10.856  1.00  0.00    -0.203 F 
ATOM     86  F   UNL     1      16.499   9.813   7.999  1.00  0.00    -0.200 F 
ATOM     87  C   UNL     1      17.463   8.108   9.318  1.00  0.00     0.200 A 
ATOM     88  F   UNL     1      18.385   6.373  10.628  1.00  0.00    -0.200 F 
ATOM     89  F   UNL     1      18.672   8.672   9.189  1.00  0.00    -0.200 F 
ENDBRANCH  56  79
ENDBRANCH  30  31
ENDBRANCH  22  25
ENDBRANCH  20  21
ENDBRANCH  19  20
ENDBRANCH  18  19
ENDBRANCH   3  18
TORSDOF 15
