REMARK SMILES CC(=O)N[C@@H](C(=O)NCCCNC(=O)c1ccc(-c2c3nc(c(-c4c(F)c(F)c(F)c(F)c4F)c4ccc([nH]4)c(-c4c(F)c(F)c(F)c(F)c4F)c4nc(c(-c5c(F)c(F)c(F)c(F)c5F)c5ccc2[nH]5)C=C4)C=C3)cc1)C(c1ccccc1)c1ccccc1
REMARK SMILES IDX 10 1 9 2 8 3 6 4 7 5 5 7 4 8 1 9 2 10 3 11 78 13 79 14 80 15
REMARK SMILES IDX 84 16 81 17 83 18 82 19 85 20 86 21 90 22 87 23 89 24 88 25
REMARK SMILES IDX 11 26 12 27 13 28 14 30 15 31 16 32 77 33 17 34 76 35 18 36
REMARK SMILES IDX 19 37 20 38 70 39 21 40 75 41 69 42 71 43 22 44 74 45 68 46
REMARK SMILES IDX 67 47 23 49 55 50 35 51 54 52 36 53 39 54 53 55 72 56 37 57
REMARK SMILES IDX 38 58 52 60 73 61 40 62 24 63 25 64 33 65 26 66 27 67 31 68
REMARK SMILES IDX 34 69 28 70 29 71 32 72 30 73 56 74 57 75 65 76 58 77 59 78
REMARK SMILES IDX 63 79 66 80 60 81 61 82 64 83 62 84 41 85 42 86 50 87 43 88
REMARK SMILES IDX 44 89 48 90 51 91 45 92 46 93 49 94 47 95
REMARK H PARENT 8 6 4 12 12 29 71 48 39 59
REMARK Flexibility Score: inf
ROOT
ATOM      1  C   UNL     1       3.594   2.038  -2.066  1.00  0.00     0.042 C 
ENDROOT
BRANCH   1   2
ATOM      2  C   UNL     1       3.865   1.683  -0.607  1.00  0.00     0.117 C 
BRANCH   2   3
ATOM      3  N   UNL     1       3.801   2.856   0.241  1.00  0.00    -0.354 N 
ATOM      4  C   UNL     1       2.784   3.276   1.051  1.00  0.00     0.243 C 
ATOM      5  O   UNL     1       2.806   4.457   1.406  1.00  0.00    -0.273 OA
ATOM      6  H   UNL     1       4.601   3.430   0.232  1.00  0.00     0.163 HD
BRANCH   4   7
ATOM      7  C   UNL     1       1.615   2.315   1.387  1.00  0.00     0.183 C 
BRANCH   7   8
ATOM      8  N   UNL     1       0.756   2.319   0.185  1.00  0.00    -0.344 N 
ATOM      9  C   UNL     1       0.530  -0.133  -0.190  1.00  0.00     0.114 C 
ATOM     10  C   UNL     1       0.288   1.300  -0.582  1.00  0.00     0.217 C 
ATOM     11  O   UNL     1      -0.344   1.574  -1.603  1.00  0.00    -0.275 OA
ATOM     12  H   UNL     1       0.473   3.214  -0.111  1.00  0.00     0.164 HD
ENDBRANCH   7   8
BRANCH   7  13
ATOM     13  C   UNL     1       0.855   2.830   2.653  1.00  0.00     0.081 C 
BRANCH  13  14
ATOM     14  C   UNL     1      -0.459   2.092   2.937  1.00  0.00    -0.038 A 
ATOM     15  C   UNL     1      -1.622   2.831   3.208  1.00  0.00     0.004 A 
ATOM     16  C   UNL     1      -0.540   0.692   2.978  1.00  0.00     0.004 A 
ATOM     17  C   UNL     1      -2.829   2.188   3.489  1.00  0.00     0.000 A 
ATOM     18  C   UNL     1      -1.747   0.049   3.257  1.00  0.00     0.000 A 
ATOM     19  C   UNL     1      -2.892   0.797   3.510  1.00  0.00     0.000 A 
ENDBRANCH  13  14
BRANCH  13  20
ATOM     20  C   UNL     1       1.734   2.882   3.909  1.00  0.00    -0.038 A 
ATOM     21  C   UNL     1       2.250   1.726   4.516  1.00  0.00     0.004 A 
ATOM     22  C   UNL     1       2.025   4.125   4.500  1.00  0.00     0.004 A 
ATOM     23  C   UNL     1       2.997   1.807   5.694  1.00  0.00     0.000 A 
ATOM     24  C   UNL     1       2.785   4.205   5.669  1.00  0.00     0.000 A 
ATOM     25  C   UNL     1       3.262   3.045   6.272  1.00  0.00     0.000 A 
ENDBRANCH  13  20
ENDBRANCH   7  13
ENDBRANCH   4   7
ENDBRANCH   2   3
ENDBRANCH   1   2
BRANCH   1  26
ATOM     26  C   UNL     1       4.737   2.811  -2.717  1.00  0.00     0.118 C 
BRANCH  26  27
ATOM     27  N   UNL     1       5.964   2.024  -2.791  1.00  0.00    -0.352 N 
ATOM     28  C   UNL     1       6.677   1.604  -3.884  1.00  0.00     0.251 C 
ATOM     29  H   UNL     1       6.337   1.752  -1.922  1.00  0.00     0.163 HD
ATOM     30  O   UNL     1       7.559   0.758  -3.753  1.00  0.00    -0.269 OA
BRANCH  28  31
ATOM     31  C   UNL     1       6.377   2.154  -5.220  1.00  0.00     0.039 A 
ATOM     32  C   UNL     1       6.311   1.286  -6.313  1.00  0.00     0.014 A 
ATOM     33  C   UNL     1       6.162   3.523  -5.394  1.00  0.00     0.014 A 
ATOM     34  C   UNL     1       5.942   1.780  -7.565  1.00  0.00     0.010 A 
ATOM     35  C   UNL     1       5.720   4.001  -6.622  1.00  0.00     0.010 A 
ATOM     36  C   UNL     1       5.593   3.132  -7.716  1.00  0.00    -0.014 A 
BRANCH  36  37
ATOM     37  C   UNL     1       5.055   3.656  -8.996  1.00  0.00     0.031 A 
ATOM     38  C   UNL     1       5.799   4.719  -9.752  1.00  0.00     0.074 A 
ATOM     39  C   UNL     1       3.849   3.236  -9.424  1.00  0.00     0.049 A 
ATOM     40  N   UNL     1       5.436   5.383 -10.820  1.00  0.00    -0.248 NA
ATOM     41  C   UNL     1       7.115   5.107  -9.221  1.00  0.00     0.031 C 
ATOM     42  C   UNL     1       3.014   2.239  -8.752  1.00  0.00     0.029 A 
ATOM     43  N   UNL     1       3.103   3.612 -10.514  1.00  0.00    -0.354 N 
ATOM     44  C   UNL     1       6.469   6.272 -11.080  1.00  0.00     0.074 A 
ATOM     45  C   UNL     1       7.451   6.101 -10.031  1.00  0.00     0.031 C 
ATOM     46  C   UNL     1       1.881   2.071  -9.451  1.00  0.00     0.029 A 
ATOM     47  C   UNL     1       1.884   2.983 -10.589  1.00  0.00     0.049 A 
ATOM     48  H   UNL     1       3.413   4.268 -11.179  1.00  0.00     0.167 HD
ATOM     49  C   UNL     1       6.593   7.139 -12.113  1.00  0.00     0.037 A 
ATOM     50  C   UNL     1       0.872   3.143 -11.464  1.00  0.00     0.037 A 
ATOM     51  C   UNL     1       5.617   7.294 -13.160  1.00  0.00     0.049 A 
ATOM     52  C   UNL     1       1.019   4.144 -12.577  1.00  0.00     0.074 A 
ATOM     53  C   UNL     1       5.679   8.097 -14.285  1.00  0.00     0.029 A 
ATOM     54  N   UNL     1       4.394   6.639 -13.203  1.00  0.00    -0.354 N 
ATOM     55  N   UNL     1       2.033   4.925 -12.859  1.00  0.00    -0.248 NA
ATOM     56  C   UNL     1      -0.121   4.289 -13.493  1.00  0.00     0.031 C 
ATOM     57  C   UNL     1       4.470   7.975 -14.976  1.00  0.00     0.029 A 
ATOM     58  C   UNL     1       3.678   7.050 -14.316  1.00  0.00     0.049 A 
ATOM     59  H   UNL     1       4.082   5.980 -12.541  1.00  0.00     0.167 HD
ATOM     60  C   UNL     1       1.665   5.635 -13.994  1.00  0.00     0.074 A 
ATOM     61  C   UNL     1       0.341   5.178 -14.361  1.00  0.00     0.031 C 
ATOM     62  C   UNL     1       2.361   6.583 -14.669  1.00  0.00     0.037 A 
BRANCH  49  63
ATOM     63  C   UNL     1       7.827   7.994 -12.162  1.00  0.00     0.064 A 
ATOM     64  C   UNL     1       9.094   7.447 -12.422  1.00  0.00     0.173 A 
ATOM     65  C   UNL     1       7.737   9.384 -11.992  1.00  0.00     0.173 A 
ATOM     66  F   UNL     1       9.237   6.123 -12.584  1.00  0.00    -0.203 F 
ATOM     67  C   UNL     1      10.226   8.256 -12.479  1.00  0.00     0.198 A 
ATOM     68  C   UNL     1       8.867  10.193 -12.083  1.00  0.00     0.198 A 
ATOM     69  F   UNL     1       6.551   9.961 -11.748  1.00  0.00    -0.203 F 
ATOM     70  F   UNL     1      11.431   7.704 -12.679  1.00  0.00    -0.200 F 
ATOM     71  C   UNL     1      10.111   9.628 -12.318  1.00  0.00     0.200 A 
ATOM     72  F   UNL     1       8.752  11.521 -11.942  1.00  0.00    -0.200 F 
ATOM     73  F   UNL     1      11.200  10.406 -12.383  1.00  0.00    -0.200 F 
ENDBRANCH  49  63
BRANCH  50  74
ATOM     74  C   UNL     1      -0.369   2.337 -11.320  1.00  0.00     0.064 A 
ATOM     75  C   UNL     1      -0.707   1.363 -12.270  1.00  0.00     0.173 A 
ATOM     76  C   UNL     1      -1.244   2.525 -10.240  1.00  0.00     0.173 A 
ATOM     77  F   UNL     1       0.086   1.160 -13.332  1.00  0.00    -0.203 F 
ATOM     78  C   UNL     1      -1.883   0.623 -12.156  1.00  0.00     0.198 A 
ATOM     79  C   UNL     1      -2.403   1.762 -10.111  1.00  0.00     0.198 A 
ATOM     80  F   UNL     1      -0.966   3.442  -9.302  1.00  0.00    -0.203 F 
ATOM     81  F   UNL     1      -2.206  -0.266 -13.105  1.00  0.00    -0.200 F 
ATOM     82  C   UNL     1      -2.726   0.819 -11.073  1.00  0.00     0.200 A 
ATOM     83  F   UNL     1      -3.208   1.945  -9.055  1.00  0.00    -0.200 F 
ATOM     84  F   UNL     1      -3.855   0.105 -10.963  1.00  0.00    -0.200 F 
ENDBRANCH  50  74
BRANCH  62  85
ATOM     85  C   UNL     1       1.716   7.177 -15.888  1.00  0.00     0.064 A 
ATOM     86  C   UNL     1       0.631   8.060 -15.789  1.00  0.00     0.173 A 
ATOM     87  C   UNL     1       2.230   6.908 -17.166  1.00  0.00     0.173 A 
ATOM     88  F   UNL     1       0.093   8.336 -14.592  1.00  0.00    -0.203 F 
ATOM     89  C   UNL     1       0.074   8.640 -16.926  1.00  0.00     0.198 A 
ATOM     90  C   UNL     1       1.692   7.515 -18.297  1.00  0.00     0.198 A 
ATOM     91  F   UNL     1       3.271   6.075 -17.315  1.00  0.00    -0.203 F 
ATOM     92  F   UNL     1      -0.988   9.449 -16.811  1.00  0.00    -0.200 F 
ATOM     93  C   UNL     1       0.612   8.375 -18.177  1.00  0.00     0.200 A 
ATOM     94  F   UNL     1       2.223   7.271 -19.503  1.00  0.00    -0.200 F 
ATOM     95  F   UNL     1       0.085   8.948 -19.268  1.00  0.00    -0.200 F 
ENDBRANCH  62  85
ENDBRANCH  36  37
ENDBRANCH  28  31
ENDBRANCH  26  27
ENDBRANCH   1  26
TORSDOF 14
