REMARK SMILES Cc1ccc(N2C(=O)[NH+]=C(NCCCNC(=O)c3ccc(-c4c5nc(c(-c6c(F)c(F)c(F)c(F)c6F)c6ccc([nH]6)c(-c6c(F)c(F)c(F)c(F)c6F)c6nc(c(-c7c(F)c(F)c(F)c(F)c7F)c7ccc4[nH]7)C=C6)C=C5)cc3)/C(=C\c3ccccc3OCc3cccc(C(=O)[O-])c3)C2=O)cc1
REMARK SMILES IDX 12 1 11 2 6 3 7 4 100 5 8 6 9 7 81 8 101 9 10 10 82 12 5 14
REMARK SMILES IDX 1 15 2 16 3 17 103 18 4 19 102 20 83 21 84 22 88 23 85 24
REMARK SMILES IDX 87 25 86 26 89 27 90 28 91 29 92 30 99 31 93 32 95 33 94 34
REMARK SMILES IDX 96 35 97 36 98 37 13 38 14 39 15 40 16 41 17 43 18 44 19 45
REMARK SMILES IDX 80 46 20 47 79 48 21 49 22 50 23 51 73 52 24 53 78 54 72 55
REMARK SMILES IDX 74 56 25 57 77 58 71 59 70 60 26 62 58 63 38 64 57 65 39 66
REMARK SMILES IDX 42 67 56 68 75 69 40 70 41 71 55 73 76 74 43 75 27 76 28 77
REMARK SMILES IDX 36 78 29 79 30 80 34 81 37 82 31 83 32 84 35 85 33 86 59 87
REMARK SMILES IDX 60 88 68 89 61 90 62 91 66 92 69 93 63 94 64 95 67 96 65 97
REMARK SMILES IDX 44 98 45 99 53 100 46 101 47 102 51 103 54 104 48 105 49 106
REMARK SMILES IDX 52 107 50 108
REMARK H PARENT 9 11 11 13 15 42 74 61 42 72
REMARK Flexibility Score: inf
ROOT
ATOM      1  C   UNL     1      -7.791  -0.260   1.632  1.00  0.00     0.195 C 
ENDROOT
BRANCH   1   2
ATOM      2  N   UNL     1      -7.096   0.864   0.988  1.00  0.00    -0.305 N 
ATOM      3  N   UNL     1      -2.953   0.739   0.519  1.00  0.00    -0.155 N 
ATOM      4  C   UNL     1      -3.655   0.035   1.511  1.00  0.00     0.448 C 
ATOM      5  C   UNL     1      -3.580   1.603  -0.366  1.00  0.00     0.328 C 
ATOM      6  O   UNL     1      -3.096  -0.717   2.307  1.00  0.00    -0.212 OA
ATOM      7  N   UNL     1      -5.003   0.215   1.646  1.00  0.00    -0.209 N 
ATOM      8  C   UNL     1      -5.047   1.421  -0.427  1.00  0.00     0.129 C 
ATOM      9  O   UNL     1      -3.033   2.370  -1.159  1.00  0.00    -0.249 OA
ATOM     10  C   UNL     1      -5.727   0.828   0.763  1.00  0.00     0.236 C 
ATOM     11  H   UNL     1      -5.445  -0.138   2.452  1.00  0.00     0.270 HD
ATOM     12  C   UNL     1      -5.551   1.579  -1.667  1.00  0.00     0.034 C 
ATOM     13  H   UNL     1      -7.611   1.657   0.713  1.00  0.00     0.256 HD
BRANCH   3  14
ATOM     14  C   UNL     1      -1.539   0.539   0.388  1.00  0.00     0.111 A 
ATOM     15  C   UNL     1       2.709  -0.096  -0.070  1.00  0.00     0.044 C 
ATOM     16  C   UNL     1       1.236   0.128   0.078  1.00  0.00    -0.051 A 
ATOM     17  C   UNL     1       0.383  -0.954   0.309  1.00  0.00     0.007 A 
ATOM     18  C   UNL     1       0.695   1.411  -0.022  1.00  0.00     0.007 A 
ATOM     19  C   UNL     1      -0.988  -0.749   0.472  1.00  0.00     0.044 A 
ATOM     20  C   UNL     1      -0.677   1.612   0.127  1.00  0.00     0.044 A 
ENDBRANCH   3  14
BRANCH  12  21
ATOM     21  C   UNL     1      -6.915   1.265  -2.053  1.00  0.00     0.018 A 
ATOM     22  C   UNL     1      -7.675   2.393  -2.370  1.00  0.00     0.012 A 
ATOM     23  C   UNL     1      -7.531   0.013  -1.897  1.00  0.00     0.127 A 
ATOM     24  C   UNL     1      -9.050   2.314  -2.309  1.00  0.00     0.001 A 
ATOM     25  C   UNL     1      -8.918  -0.057  -1.891  1.00  0.00     0.047 A 
ATOM     26  C   UNL     1      -9.662   1.100  -2.015  1.00  0.00     0.004 A 
BRANCH  23  27
ATOM     27  O   UNL     1      -6.968  -1.157  -1.499  1.00  0.00    -0.488 OA
BRANCH  27  28
ATOM     28  C   UNL     1      -5.663  -1.516  -1.918  1.00  0.00     0.265 C 
BRANCH  28  29
ATOM     29  C   UNL     1      -5.301  -2.806  -1.221  1.00  0.00    -0.010 A 
ATOM     30  C   UNL     1      -3.954  -3.124  -1.004  1.00  0.00     0.007 A 
ATOM     31  C   UNL     1      -6.289  -3.717  -0.814  1.00  0.00     0.017 A 
ATOM     32  C   UNL     1      -3.600  -4.327  -0.394  1.00  0.00     0.001 A 
ATOM     33  C   UNL     1      -5.939  -4.934  -0.223  1.00  0.00    -0.002 A 
ATOM     34  C   UNL     1      -4.589  -5.236  -0.014  1.00  0.00     0.010 A 
BRANCH  33  35
ATOM     35  C   UNL     1      -6.966  -5.933   0.138  1.00  0.00     0.071 C 
ATOM     36  O   UNL     1      -6.750  -7.096   0.462  1.00  0.00    -0.545 OA
ATOM     37  O   UNL     1      -8.218  -5.453   0.066  1.00  0.00    -0.545 OA
ENDBRANCH  33  35
ENDBRANCH  28  29
ENDBRANCH  27  28
ENDBRANCH  23  27
ENDBRANCH  12  21
ENDBRANCH   1   2
BRANCH   1  38
ATOM     38  C   UNL     1      -8.925   0.187   2.546  1.00  0.00     0.059 C 
BRANCH  38  39
ATOM     39  C   UNL     1     -10.155   0.707   1.819  1.00  0.00     0.119 C 
BRANCH  39  40
ATOM     40  N   UNL     1     -11.225  -0.261   1.606  1.00  0.00    -0.352 N 
ATOM     41  C   UNL     1     -12.512  -0.085   1.128  1.00  0.00     0.251 C 
ATOM     42  H   UNL     1     -10.994  -1.189   1.840  1.00  0.00     0.163 HD
ATOM     43  O   UNL     1     -13.309  -1.016   1.224  1.00  0.00    -0.269 OA
BRANCH  41  44
ATOM     44  C   UNL     1     -12.904   1.123   0.347  1.00  0.00     0.039 A 
ATOM     45  C   UNL     1     -13.903   0.976  -0.635  1.00  0.00     0.014 A 
ATOM     46  C   UNL     1     -12.160   2.290   0.372  1.00  0.00     0.014 A 
ATOM     47  C   UNL     1     -13.940   1.834  -1.734  1.00  0.00     0.010 A 
ATOM     48  C   UNL     1     -12.106   3.059  -0.761  1.00  0.00     0.010 A 
ATOM     49  C   UNL     1     -12.938   2.778  -1.851  1.00  0.00    -0.014 A 
BRANCH  49  50
ATOM     50  C   UNL     1     -12.620   3.550  -3.040  1.00  0.00     0.031 A 
ATOM     51  C   UNL     1     -12.831   5.006  -2.962  1.00  0.00     0.074 A 
ATOM     52  C   UNL     1     -11.820   2.996  -3.983  1.00  0.00     0.049 A 
ATOM     53  N   UNL     1     -12.579   5.813  -3.923  1.00  0.00    -0.248 NA
ATOM     54  C   UNL     1     -13.341   5.679  -1.770  1.00  0.00     0.031 C 
ATOM     55  C   UNL     1     -10.868   3.671  -4.868  1.00  0.00     0.029 A 
ATOM     56  N   UNL     1     -11.706   1.652  -4.355  1.00  0.00    -0.354 N 
ATOM     57  C   UNL     1     -12.637   7.094  -3.432  1.00  0.00     0.074 A 
ATOM     58  C   UNL     1     -13.160   6.962  -2.095  1.00  0.00     0.031 C 
ATOM     59  C   UNL     1     -10.456   2.815  -5.820  1.00  0.00     0.029 A 
ATOM     60  C   UNL     1     -11.272   1.624  -5.699  1.00  0.00     0.049 A 
ATOM     61  H   UNL     1     -11.894   0.871  -3.785  1.00  0.00     0.167 HD
ATOM     62  C   UNL     1     -12.131   8.089  -4.212  1.00  0.00     0.037 A 
ATOM     63  C   UNL     1     -12.122   1.117  -6.641  1.00  0.00     0.037 A 
ATOM     64  C   UNL     1     -11.676   7.542  -5.494  1.00  0.00     0.049 A 
ATOM     65  C   UNL     1     -12.651   2.213  -7.540  1.00  0.00     0.074 A 
ATOM     66  C   UNL     1     -10.454   7.128  -5.996  1.00  0.00     0.029 A 
ATOM     67  N   UNL     1     -12.629   7.002  -6.336  1.00  0.00    -0.354 N 
ATOM     68  N   UNL     1     -12.395   3.480  -7.356  1.00  0.00    -0.248 NA
ATOM     69  C   UNL     1     -13.543   1.993  -8.672  1.00  0.00     0.031 C 
ATOM     70  C   UNL     1     -10.704   6.314  -7.146  1.00  0.00     0.029 A 
ATOM     71  C   UNL     1     -12.073   6.250  -7.348  1.00  0.00     0.049 A 
ATOM     72  H   UNL     1     -13.598   7.139  -6.225  1.00  0.00     0.167 HD
ATOM     73  C   UNL     1     -13.057   4.233  -8.272  1.00  0.00     0.074 A 
ATOM     74  C   UNL     1     -13.792   3.257  -9.062  1.00  0.00     0.031 C 
ATOM     75  C   UNL     1     -12.963   5.595  -8.298  1.00  0.00     0.037 A 
BRANCH  62  76
ATOM     76  C   UNL     1     -11.901   9.520  -3.798  1.00  0.00     0.064 A 
ATOM     77  C   UNL     1     -10.982  10.316  -4.515  1.00  0.00     0.173 A 
ATOM     78  C   UNL     1     -12.540  10.178  -2.729  1.00  0.00     0.173 A 
ATOM     79  F   UNL     1     -10.334   9.842  -5.587  1.00  0.00    -0.203 F 
ATOM     80  C   UNL     1     -10.690  11.634  -4.162  1.00  0.00     0.198 A 
ATOM     81  C   UNL     1     -12.217  11.485  -2.349  1.00  0.00     0.198 A 
ATOM     82  F   UNL     1     -13.540   9.612  -2.047  1.00  0.00    -0.203 F 
ATOM     83  F   UNL     1      -9.815  12.337  -4.894  1.00  0.00    -0.200 F 
ATOM     84  C   UNL     1     -11.293  12.214  -3.067  1.00  0.00     0.200 A 
ATOM     85  F   UNL     1     -12.822  12.036  -1.287  1.00  0.00    -0.200 F 
ATOM     86  F   UNL     1     -11.002  13.474  -2.718  1.00  0.00    -0.200 F 
ENDBRANCH  62  76
BRANCH  63  87
ATOM     87  C   UNL     1     -12.889  -0.037  -6.061  1.00  0.00     0.064 A 
ATOM     88  C   UNL     1     -12.113  -1.123  -5.588  1.00  0.00     0.173 A 
ATOM     89  C   UNL     1     -14.127   0.185  -5.440  1.00  0.00     0.173 A 
ATOM     90  F   UNL     1     -10.923  -1.389  -6.152  1.00  0.00    -0.203 F 
ATOM     91  C   UNL     1     -12.441  -1.780  -4.402  1.00  0.00     0.198 A 
ATOM     92  C   UNL     1     -14.472  -0.513  -4.279  1.00  0.00     0.198 A 
ATOM     93  F   UNL     1     -14.914   1.194  -5.842  1.00  0.00    -0.203 F 
ATOM     94  F   UNL     1     -11.573  -2.642  -3.853  1.00  0.00    -0.200 F 
ATOM     95  C   UNL     1     -13.599  -1.441  -3.726  1.00  0.00     0.200 A 
ATOM     96  F   UNL     1     -15.596  -0.194  -3.621  1.00  0.00    -0.200 F 
ATOM     97  F   UNL     1     -13.844  -1.959  -2.514  1.00  0.00    -0.200 F 
ENDBRANCH  63  87
BRANCH  75  98
ATOM     98  C   UNL     1     -13.751   6.430  -9.257  1.00  0.00     0.064 A 
ATOM     99  C   UNL     1     -13.822   6.120 -10.619  1.00  0.00     0.173 A 
ATOM    100  C   UNL     1     -14.402   7.614  -8.848  1.00  0.00     0.173 A 
ATOM    101  F   UNL     1     -13.156   5.068 -11.119  1.00  0.00    -0.203 F 
ATOM    102  C   UNL     1     -14.579   6.890 -11.499  1.00  0.00     0.198 A 
ATOM    103  C   UNL     1     -15.089   8.424  -9.743  1.00  0.00     0.198 A 
ATOM    104  F   UNL     1     -14.429   8.003  -7.565  1.00  0.00    -0.203 F 
ATOM    105  F   UNL     1     -14.705   6.503 -12.776  1.00  0.00    -0.200 F 
ATOM    106  C   UNL     1     -15.206   8.045 -11.063  1.00  0.00     0.200 A 
ATOM    107  F   UNL     1     -15.654   9.560  -9.309  1.00  0.00    -0.200 F 
ATOM    108  F   UNL     1     -15.928   8.787 -11.911  1.00  0.00    -0.200 F 
ENDBRANCH  75  98
ENDBRANCH  49  50
ENDBRANCH  41  44
ENDBRANCH  39  40
ENDBRANCH  38  39
ENDBRANCH   1  38
TORSDOF 15
