REMARK SMILES C[C@@]1(C(=O)N[C@@H](CO)C(=O)NCCCNC(=O)c2ccc(-c3c4nc(c(-c5c(F)c(F)c(F)c(F)c5F)c5ccc([nH]5)c(-c5c(F)c(F)c(F)c(F)c5F)c5nc(c(-c6c(F)c(F)c(F)c(F)c6F)c6ccc3[nH]6)C=C5)C=C4)cc2)CCCO1
REMARK SMILES IDX 13 1 12 2 11 3 9 4 10 5 6 7 5 8 3 9 4 10 2 12 1 13 81 14
REMARK SMILES IDX 84 15 82 16 83 17 7 18 8 19 14 21 15 22 16 23 17 25 18 26
REMARK SMILES IDX 19 27 80 28 20 29 79 30 21 31 22 32 23 33 73 34 24 35 78 36
REMARK SMILES IDX 72 37 74 38 25 39 77 40 71 41 70 42 26 44 58 45 38 46 57 47
REMARK SMILES IDX 39 48 42 49 56 50 75 51 40 52 41 53 55 55 76 56 43 57 27 58
REMARK SMILES IDX 28 59 36 60 29 61 30 62 34 63 37 64 31 65 32 66 35 67 33 68
REMARK SMILES IDX 59 69 60 70 68 71 61 72 62 73 66 74 69 75 63 76 64 77 67 78
REMARK SMILES IDX 65 79 44 80 45 81 53 82 46 83 47 84 51 85 54 86 48 87 49 88
REMARK SMILES IDX 52 89 50 90
REMARK H PARENT 11 6 5 11 8 20 15 24 74 43 42 54
REMARK Flexibility Score: inf
ROOT
ATOM      1  C   UNL     1      -4.331  -0.783   4.891  1.00  0.00     0.042 C 
ENDROOT
BRANCH   1   2
ATOM      2  C   UNL     1      -3.772   0.623   5.016  1.00  0.00     0.117 C 
BRANCH   2   3
ATOM      3  N   UNL     1      -2.430   0.625   5.562  1.00  0.00    -0.354 N 
ATOM      4  C   UNL     1      -1.268   1.108   5.054  1.00  0.00     0.244 C 
ATOM      5  O   UNL     1      -0.265   1.022   5.771  1.00  0.00    -0.273 OA
ATOM      6  H   UNL     1      -2.348   0.207   6.450  1.00  0.00     0.163 HD
BRANCH   4   7
ATOM      7  C   UNL     1      -1.178   1.756   3.666  1.00  0.00     0.197 C 
BRANCH   7   8
ATOM      8  N   UNL     1      -1.551   0.828   2.602  1.00  0.00    -0.340 N 
ATOM      9  C   UNL     1      -0.777   0.275   1.622  1.00  0.00     0.252 C 
ATOM     10  O   UNL     1      -1.294  -0.640   0.974  1.00  0.00    -0.272 OA
ATOM     11  H   UNL     1      -2.499   0.561   2.590  1.00  0.00     0.164 HD
BRANCH   9  12
ATOM     12  C   UNL     1       0.684   0.752   1.358  1.00  0.00     0.143 C 
ATOM     13  C   UNL     1       1.076   0.347  -0.071  1.00  0.00     0.053 C 
ATOM     14  C   UNL     1       1.683   0.156   2.357  1.00  0.00     0.048 C 
ATOM     15  O   UNL     1       0.797   2.183   1.438  1.00  0.00    -0.365 OA
ATOM     16  C   UNL     1       2.324   1.339   3.045  1.00  0.00     0.032 C 
ATOM     17  C   UNL     1       1.982   2.520   2.165  1.00  0.00     0.162 C 
ENDBRANCH   9  12
ENDBRANCH   7   8
BRANCH   7  18
ATOM     18  C   UNL     1      -1.825   3.144   3.580  1.00  0.00     0.191 C 
BRANCH  18  19
ATOM     19  O   UNL     1      -3.236   3.128   3.396  1.00  0.00    -0.394 OA
ATOM     20  H   UNL     1      -3.447   2.702   2.551  1.00  0.00     0.210 HD
ENDBRANCH  18  19
ENDBRANCH   7  18
ENDBRANCH   4   7
ENDBRANCH   2   3
ENDBRANCH   1   2
BRANCH   1  21
ATOM     21  C   UNL     1      -4.411  -1.521   6.217  1.00  0.00     0.118 C 
BRANCH  21  22
ATOM     22  N   UNL     1      -5.282  -0.855   7.178  1.00  0.00    -0.352 N 
ATOM     23  C   UNL     1      -6.505  -1.241   7.670  1.00  0.00     0.251 C 
ATOM     24  H   UNL     1      -4.942   0.001   7.528  1.00  0.00     0.163 HD
ATOM     25  O   UNL     1      -7.192  -0.456   8.315  1.00  0.00    -0.269 OA
BRANCH  23  26
ATOM     26  C   UNL     1      -6.996  -2.605   7.398  1.00  0.00     0.039 A 
ATOM     27  C   UNL     1      -8.323  -2.794   7.007  1.00  0.00     0.014 A 
ATOM     28  C   UNL     1      -6.130  -3.693   7.509  1.00  0.00     0.014 A 
ATOM     29  C   UNL     1      -8.760  -4.073   6.655  1.00  0.00     0.010 A 
ATOM     30  C   UNL     1      -6.531  -4.937   7.049  1.00  0.00     0.010 A 
ATOM     31  C   UNL     1      -7.855  -5.146   6.636  1.00  0.00    -0.014 A 
BRANCH  31  32
ATOM     32  C   UNL     1      -8.260  -6.516   6.239  1.00  0.00     0.031 A 
ATOM     33  C   UNL     1      -8.119  -7.638   7.230  1.00  0.00     0.074 A 
ATOM     34  C   UNL     1      -8.650  -6.767   4.976  1.00  0.00     0.049 A 
ATOM     35  N   UNL     1      -8.256  -8.927   7.053  1.00  0.00    -0.248 NA
ATOM     36  C   UNL     1      -7.721  -7.259   8.596  1.00  0.00     0.031 C 
ATOM     37  C   UNL     1      -8.787  -5.769   3.914  1.00  0.00     0.029 A 
ATOM     38  N   UNL     1      -8.986  -7.950   4.366  1.00  0.00    -0.354 N 
ATOM     39  C   UNL     1      -7.927  -9.508   8.270  1.00  0.00     0.074 A 
ATOM     40  C   UNL     1      -7.520  -8.441   9.156  1.00  0.00     0.031 C 
ATOM     41  C   UNL     1      -9.202  -6.377   2.791  1.00  0.00     0.029 A 
ATOM     42  C   UNL     1      -9.314  -7.811   3.040  1.00  0.00     0.049 A 
ATOM     43  H   UNL     1      -8.992  -8.815   4.835  1.00  0.00     0.167 HD
ATOM     44  C   UNL     1      -7.985 -10.813   8.626  1.00  0.00     0.037 A 
ATOM     45  C   UNL     1      -9.656  -8.741   2.128  1.00  0.00     0.037 A 
ATOM     46  C   UNL     1      -8.429 -11.863   7.748  1.00  0.00     0.049 A 
ATOM     47  C   UNL     1      -9.713 -10.186   2.544  1.00  0.00     0.074 A 
ATOM     48  C   UNL     1      -8.591 -13.208   8.023  1.00  0.00     0.029 A 
ATOM     49  N   UNL     1      -8.783 -11.678   6.419  1.00  0.00    -0.354 N 
ATOM     50  N   UNL     1      -9.457 -10.723   3.712  1.00  0.00    -0.248 NA
ATOM     51  C   UNL     1     -10.111 -11.155   1.513  1.00  0.00     0.031 C 
ATOM     52  C   UNL     1      -8.996 -13.847   6.846  1.00  0.00     0.029 A 
ATOM     53  C   UNL     1      -9.144 -12.890   5.854  1.00  0.00     0.049 A 
ATOM     54  H   UNL     1      -8.779 -10.814   5.947  1.00  0.00     0.167 HD
ATOM     55  C   UNL     1      -9.699 -12.082   3.571  1.00  0.00     0.074 A 
ATOM     56  C   UNL     1     -10.125 -12.288   2.201  1.00  0.00     0.031 C 
ATOM     57  C   UNL     1      -9.584 -13.070   4.493  1.00  0.00     0.037 A 
BRANCH  44  58
ATOM     58  C   UNL     1      -7.553 -11.168  10.021  1.00  0.00     0.064 A 
ATOM     59  C   UNL     1      -8.276 -10.748  11.149  1.00  0.00     0.173 A 
ATOM     60  C   UNL     1      -6.397 -11.933  10.234  1.00  0.00     0.173 A 
ATOM     61  F   UNL     1      -9.383 -10.003  11.004  1.00  0.00    -0.203 F 
ATOM     62  C   UNL     1      -7.831 -11.038  12.436  1.00  0.00     0.198 A 
ATOM     63  C   UNL     1      -5.976 -12.254  11.522  1.00  0.00     0.198 A 
ATOM     64  F   UNL     1      -5.670 -12.366   9.193  1.00  0.00    -0.203 F 
ATOM     65  F   UNL     1      -8.497 -10.561  13.497  1.00  0.00    -0.200 F 
ATOM     66  C   UNL     1      -6.684 -11.795  12.622  1.00  0.00     0.200 A 
ATOM     67  F   UNL     1      -4.875 -12.998  11.699  1.00  0.00    -0.200 F 
ATOM     68  F   UNL     1      -6.255 -12.071  13.861  1.00  0.00    -0.200 F 
ENDBRANCH  44  58
BRANCH  45  69
ATOM     69  C   UNL     1     -10.011  -8.325   0.746  1.00  0.00     0.064 A 
ATOM     70  C   UNL     1     -11.336  -8.401   0.297  1.00  0.00     0.173 A 
ATOM     71  C   UNL     1      -9.047  -7.829  -0.144  1.00  0.00     0.173 A 
ATOM     72  F   UNL     1     -12.290  -8.886   1.105  1.00  0.00    -0.203 F 
ATOM     73  C   UNL     1     -11.683  -8.010  -0.995  1.00  0.00     0.198 A 
ATOM     74  C   UNL     1      -9.399  -7.413  -1.427  1.00  0.00     0.198 A 
ATOM     75  F   UNL     1      -7.766  -7.730   0.239  1.00  0.00    -0.203 F 
ATOM     76  F   UNL     1     -12.951  -8.128  -1.410  1.00  0.00    -0.200 F 
ATOM     77  C   UNL     1     -10.716  -7.510  -1.853  1.00  0.00     0.200 A 
ATOM     78  F   UNL     1      -8.465  -6.916  -2.248  1.00  0.00    -0.200 F 
ATOM     79  F   UNL     1     -11.051  -7.126  -3.092  1.00  0.00    -0.200 F 
ENDBRANCH  45  69
BRANCH  57  80
ATOM     80  C   UNL     1      -9.977 -14.457   4.073  1.00  0.00     0.064 A 
ATOM     81  C   UNL     1      -9.190 -15.217   3.197  1.00  0.00     0.173 A 
ATOM     82  C   UNL     1     -11.130 -15.052   4.608  1.00  0.00     0.173 A 
ATOM     83  F   UNL     1      -8.086 -14.688   2.649  1.00  0.00    -0.203 F 
ATOM     84  C   UNL     1      -9.555 -16.517   2.855  1.00  0.00     0.198 A 
ATOM     85  C   UNL     1     -11.474 -16.362   4.289  1.00  0.00     0.198 A 
ATOM     86  F   UNL     1     -11.913 -14.369   5.457  1.00  0.00    -0.203 F 
ATOM     87  F   UNL     1      -8.811 -17.212   1.983  1.00  0.00    -0.200 F 
ATOM     88  C   UNL     1     -10.690 -17.091   3.409  1.00  0.00     0.200 A 
ATOM     89  F   UNL     1     -12.562 -16.921   4.838  1.00  0.00    -0.200 F 
ATOM     90  F   UNL     1     -11.030 -18.347   3.089  1.00  0.00    -0.200 F 
ENDBRANCH  57  80
ENDBRANCH  31  32
ENDBRANCH  23  26
ENDBRANCH  21  22
ENDBRANCH   1  21
TORSDOF 14
