REMARK SMILES CC[C@](C)(NC(=O)N[C@@H]1C=CS(=O)(=O)C1)C(=O)NCCCNC(=O)c1ccc(-c2c3nc(c(-c4c(F)c(F)c(F)c(F)c4F)c4ccc([nH]4)c(-c4c(F)c(F)c(F)c(F)c4F)c4nc(c(-c5c(F)c(F)c(F)c(F)c5F)c5ccc2[nH]5)C=C4)C=C3)cc1
REMARK SMILES IDX 20 1 19 2 18 3 16 4 17 5 3 7 4 8 2 9 1 10 5 11 6 12 7 14
REMARK SMILES IDX 8 15 9 17 10 18 15 19 11 20 12 21 13 22 14 23 21 24 22 25
REMARK SMILES IDX 23 26 24 28 25 29 26 30 87 31 27 32 86 33 28 34 29 35 30 36
REMARK SMILES IDX 80 37 31 38 85 39 79 40 81 41 32 42 84 43 78 44 77 45 33 47
REMARK SMILES IDX 65 48 45 49 64 50 46 51 49 52 63 53 82 54 47 55 48 56 62 58
REMARK SMILES IDX 83 59 50 60 34 61 35 62 43 63 36 64 37 65 41 66 44 67 38 68
REMARK SMILES IDX 39 69 42 70 40 71 66 72 67 73 75 74 68 75 69 76 73 77 76 78
REMARK SMILES IDX 70 79 71 80 74 81 72 82 51 83 52 84 60 85 53 86 54 87 58 88
REMARK SMILES IDX 61 89 55 90 56 91 59 92 57 93
REMARK H PARENT 18 6 5 13 8 16 22 27 81 46 49 57
REMARK Flexibility Score: inf
ROOT
ATOM      1  C   UNL     1       0.651  -3.424   2.509  1.00  0.00     0.042 C 
ENDROOT
BRANCH   1   2
ATOM      2  C   UNL     1       0.378  -4.213   1.234  1.00  0.00     0.117 C 
BRANCH   2   3
ATOM      3  N   UNL     1       1.167  -3.875   0.061  1.00  0.00    -0.354 N 
ATOM      4  C   UNL     1       2.189  -4.536  -0.568  1.00  0.00     0.245 C 
ATOM      5  O   UNL     1       2.418  -4.191  -1.733  1.00  0.00    -0.272 OA
ATOM      6  H   UNL     1       0.924  -3.017  -0.356  1.00  0.00     0.163 HD
BRANCH   4   7
ATOM      7  C   UNL     1       2.976  -5.713   0.088  1.00  0.00     0.117 C 
ATOM      8  C   UNL     1       4.316  -6.063  -0.599  1.00  0.00     0.045 C 
BRANCH   7   9
ATOM      9  C   UNL     1       2.077  -6.987  -0.021  1.00  0.00     0.035 C 
ATOM     10  C   UNL     1       1.718  -7.388  -1.454  1.00  0.00     0.007 C 
ENDBRANCH   7   9
BRANCH   7  11
ATOM     11  N   UNL     1       3.250  -5.392   1.501  1.00  0.00    -0.324 N 
ATOM     12  C   UNL     1       4.007  -4.481   2.125  1.00  0.00     0.316 C 
ATOM     13  H   UNL     1       2.768  -5.981   2.126  1.00  0.00     0.166 HD
ATOM     14  O   UNL     1       4.168  -4.626   3.340  1.00  0.00    -0.249 OA
ATOM     15  N   UNL     1       4.577  -3.410   1.560  1.00  0.00    -0.331 N 
ATOM     16  H   UNL     1       5.162  -2.933   2.192  1.00  0.00     0.166 HD
BRANCH  15  17
ATOM     17  C   UNL     1       4.558  -2.765   0.253  1.00  0.00     0.123 C 
ATOM     18  C   UNL     1       5.943  -2.302  -0.079  1.00  0.00     0.011 C 
ATOM     19  C   UNL     1       3.612  -1.569   0.195  1.00  0.00     0.170 C 
ATOM     20  C   UNL     1       6.073  -1.028  -0.462  1.00  0.00     0.104 C 
ATOM     21  S   UNL     1       4.574  -0.180  -0.362  1.00  0.00     0.173 S 
ATOM     22  O   UNL     1       4.131   0.196  -1.686  1.00  0.00    -0.224 OA
ATOM     23  O   UNL     1       4.642   0.781   0.722  1.00  0.00    -0.224 OA
ENDBRANCH  15  17
ENDBRANCH   7  11
ENDBRANCH   4   7
ENDBRANCH   2   3
ENDBRANCH   1   2
BRANCH   1  24
ATOM     24  C   UNL     1       0.488  -1.912   2.481  1.00  0.00     0.118 C 
BRANCH  24  25
ATOM     25  N   UNL     1      -0.686  -1.418   1.792  1.00  0.00    -0.352 N 
ATOM     26  C   UNL     1      -1.509  -0.376   2.150  1.00  0.00     0.251 C 
ATOM     27  H   UNL     1      -0.926  -1.889   0.961  1.00  0.00     0.163 HD
ATOM     28  O   UNL     1      -2.477  -0.084   1.455  1.00  0.00    -0.269 OA
BRANCH  26  29
ATOM     29  C   UNL     1      -1.255   0.354   3.409  1.00  0.00     0.039 A 
ATOM     30  C   UNL     1      -2.278   0.408   4.359  1.00  0.00     0.014 A 
ATOM     31  C   UNL     1      -0.013   0.940   3.671  1.00  0.00     0.014 A 
ATOM     32  C   UNL     1      -2.034   0.989   5.604  1.00  0.00     0.010 A 
ATOM     33  C   UNL     1       0.244   1.473   4.935  1.00  0.00     0.010 A 
ATOM     34  C   UNL     1      -0.760   1.492   5.917  1.00  0.00    -0.014 A 
BRANCH  34  35
ATOM     35  C   UNL     1      -0.463   2.007   7.279  1.00  0.00     0.031 A 
ATOM     36  C   UNL     1      -0.157   3.462   7.496  1.00  0.00     0.074 A 
ATOM     37  C   UNL     1      -0.424   1.151   8.319  1.00  0.00     0.049 A 
ATOM     38  N   UNL     1       0.163   4.084   8.604  1.00  0.00    -0.248 NA
ATOM     39  C   UNL     1      -0.200   4.329   6.310  1.00  0.00     0.031 C 
ATOM     40  C   UNL     1      -0.669  -0.289   8.236  1.00  0.00     0.029 A 
ATOM     41  N   UNL     1      -0.155   1.365   9.649  1.00  0.00    -0.354 N 
ATOM     42  C   UNL     1       0.363   5.411   8.248  1.00  0.00     0.074 A 
ATOM     43  C   UNL     1       0.177   5.495   6.815  1.00  0.00     0.031 C 
ATOM     44  C   UNL     1      -0.555  -0.827   9.460  1.00  0.00     0.029 A 
ATOM     45  C   UNL     1      -0.190   0.221  10.409  1.00  0.00     0.049 A 
ATOM     46  H   UNL     1       0.043   2.254  10.023  1.00  0.00     0.167 HD
ATOM     47  C   UNL     1       0.657   6.466   9.046  1.00  0.00     0.037 A 
ATOM     48  C   UNL     1       0.060   0.033  11.720  1.00  0.00     0.037 A 
ATOM     49  C   UNL     1       0.837   6.380  10.473  1.00  0.00     0.049 A 
ATOM     50  C   UNL     1       0.425   1.216  12.577  1.00  0.00     0.074 A 
ATOM     51  C   UNL     1       1.082   7.402  11.374  1.00  0.00     0.029 A 
ATOM     52  N   UNL     1       0.806   5.203  11.206  1.00  0.00    -0.354 N 
ATOM     53  N   UNL     1       0.537   2.478  12.242  1.00  0.00    -0.248 NA
ATOM     54  C   UNL     1       0.698   0.947  13.996  1.00  0.00     0.031 C 
ATOM     55  C   UNL     1       1.258   6.837  12.642  1.00  0.00     0.029 A 
ATOM     56  C   UNL     1       1.063   5.470  12.543  1.00  0.00     0.049 A 
ATOM     57  H   UNL     1       0.629   4.309  10.832  1.00  0.00     0.167 HD
ATOM     58  C   UNL     1       0.868   3.155  13.408  1.00  0.00     0.074 A 
ATOM     59  C   UNL     1       0.917   2.167  14.465  1.00  0.00     0.031 C 
ATOM     60  C   UNL     1       1.112   4.477  13.587  1.00  0.00     0.037 A 
BRANCH  47  61
ATOM     61  C   UNL     1       0.809   7.810   8.394  1.00  0.00     0.064 A 
ATOM     62  C   UNL     1      -0.288   8.493   7.848  1.00  0.00     0.173 A 
ATOM     63  C   UNL     1       2.061   8.445   8.354  1.00  0.00     0.173 A 
ATOM     64  F   UNL     1      -1.506   7.929   7.854  1.00  0.00    -0.203 F 
ATOM     65  C   UNL     1      -0.134   9.746   7.260  1.00  0.00     0.198 A 
ATOM     66  C   UNL     1       2.205   9.712   7.795  1.00  0.00     0.198 A 
ATOM     67  F   UNL     1       3.142   7.842   8.870  1.00  0.00    -0.203 F 
ATOM     68  F   UNL     1      -1.188  10.358   6.703  1.00  0.00    -0.200 F 
ATOM     69  C   UNL     1       1.111  10.358   7.241  1.00  0.00     0.200 A 
ATOM     70  F   UNL     1       3.406  10.308   7.792  1.00  0.00    -0.200 F 
ATOM     71  F   UNL     1       1.256  11.568   6.685  1.00  0.00    -0.200 F 
ENDBRANCH  47  61
BRANCH  48  72
ATOM     72  C   UNL     1      -0.030  -1.330  12.308  1.00  0.00     0.064 A 
ATOM     73  C   UNL     1      -1.033  -1.653  13.232  1.00  0.00     0.173 A 
ATOM     74  C   UNL     1       0.892  -2.332  11.970  1.00  0.00     0.173 A 
ATOM     75  F   UNL     1      -1.924  -0.722  13.605  1.00  0.00    -0.203 F 
ATOM     76  C   UNL     1      -1.098  -2.918  13.813  1.00  0.00     0.198 A 
ATOM     77  C   UNL     1       0.806  -3.607  12.527  1.00  0.00     0.198 A 
ATOM     78  F   UNL     1       1.870  -2.077  11.090  1.00  0.00    -0.203 F 
ATOM     79  F   UNL     1      -2.036  -3.183  14.732  1.00  0.00    -0.200 F 
ATOM     80  C   UNL     1      -0.182  -3.896  13.455  1.00  0.00     0.200 A 
ATOM     81  F   UNL     1       1.685  -4.553  12.168  1.00  0.00    -0.200 F 
ATOM     82  F   UNL     1      -0.247  -5.113  14.011  1.00  0.00    -0.200 F 
ENDBRANCH  48  72
BRANCH  60  83
ATOM     83  C   UNL     1       1.433   4.937  14.981  1.00  0.00     0.064 A 
ATOM     84  C   UNL     1       2.650   4.616  15.601  1.00  0.00     0.173 A 
ATOM     85  C   UNL     1       0.528   5.740  15.692  1.00  0.00     0.173 A 
ATOM     86  F   UNL     1       3.543   3.837  14.972  1.00  0.00    -0.203 F 
ATOM     87  C   UNL     1       2.936   5.058  16.890  1.00  0.00     0.198 A 
ATOM     88  C   UNL     1       0.831   6.208  16.967  1.00  0.00     0.198 A 
ATOM     89  F   UNL     1      -0.648   6.082  15.144  1.00  0.00    -0.203 F 
ATOM     90  F   UNL     1       4.082   4.694  17.482  1.00  0.00    -0.200 F 
ATOM     91  C   UNL     1       2.031   5.860  17.569  1.00  0.00     0.200 A 
ATOM     92  F   UNL     1      -0.038   6.995  17.615  1.00  0.00    -0.200 F 
ATOM     93  F   UNL     1       2.312   6.291  18.806  1.00  0.00    -0.200 F 
ENDBRANCH  60  83
ENDBRANCH  34  35
ENDBRANCH  26  29
ENDBRANCH  24  25
ENDBRANCH   1  24
TORSDOF 13
