REMARK SMILES O=C(NCCCNC(=O)c1cc(NC(=O)c2cccc(Cl)c2)ccc1N1CC[NH+](CC(=O)N2CCOCC2)CC1)c1ccc(-c2c3nc(c(-c4c(F)c(F)c(F)c(F)c4F)c4ccc([nH]4)c(-c4c(F)c(F)c(F)c(F)c4F)c4nc(c(-c5c(F)c(F)c(F)c(F)c5F)c5ccc2[nH]5)C=C4)C=C3)cc1
REMARK SMILES IDX 5 1 4 2 3 3 1 4 2 5 41 7 42 8 103 9 43 10 102 11 44 12 45 13
REMARK SMILES IDX 46 14 96 15 47 16 101 17 95 18 97 19 48 20 100 21 94 22
REMARK SMILES IDX 93 23 49 25 81 26 61 27 80 28 62 29 65 30 79 31 98 32 63 33
REMARK SMILES IDX 64 34 78 36 99 37 66 38 50 39 51 40 59 41 52 42 53 43 57 44
REMARK SMILES IDX 60 45 54 46 55 47 58 48 56 49 82 50 83 51 91 52 84 53 85 54
REMARK SMILES IDX 89 55 92 56 86 57 87 58 90 59 88 60 67 61 68 62 76 63 69 64
REMARK SMILES IDX 70 65 74 66 77 67 71 68 72 69 75 70 73 71 6 72 7 73 8 74
REMARK SMILES IDX 9 76 10 77 11 78 25 79 12 80 24 81 23 82 26 83 27 84 40 85
REMARK SMILES IDX 28 86 39 87 29 88 30 90 31 91 32 92 33 93 34 94 38 95 35 96
REMARK SMILES IDX 37 97 36 98 13 99 14 100 15 102 16 103 17 104 22 105 18 106
REMARK SMILES IDX 20 107 19 108 21 109
REMARK H PARENT 3 6 97 24 65 35 7 75 29 89 13 101
REMARK Flexibility Score: inf
ROOT
ATOM      1  C   UNL     1       5.725   0.716  -1.381  1.00  0.00     0.042 C 
ENDROOT
BRANCH   1   2
ATOM      2  C   UNL     1       4.710   1.258  -0.374  1.00  0.00     0.118 C 
BRANCH   2   3
ATOM      3  N   UNL     1       3.325   0.864  -0.604  1.00  0.00    -0.352 N 
ATOM      4  O   UNL     1       1.395  -0.285  -0.485  1.00  0.00    -0.269 OA
ATOM      5  C   UNL     1       2.560  -0.187  -0.146  1.00  0.00     0.251 C 
ATOM      6  H   UNL     1       2.839   1.471  -1.208  1.00  0.00     0.163 HD
BRANCH   5   7
ATOM      7  C   UNL     1       3.170  -1.247   0.684  1.00  0.00     0.039 A 
ATOM      8  C   UNL     1       4.119  -0.952   1.649  1.00  0.00     0.014 A 
ATOM      9  C   UNL     1       2.811  -2.580   0.457  1.00  0.00     0.014 A 
ATOM     10  C   UNL     1       4.922  -1.961   2.144  1.00  0.00     0.010 A 
ATOM     11  C   UNL     1       3.494  -3.608   1.115  1.00  0.00     0.010 A 
ATOM     12  C   UNL     1       4.605  -3.308   1.912  1.00  0.00    -0.014 A 
BRANCH  12  13
ATOM     13  C   UNL     1       5.449  -4.344   2.562  1.00  0.00     0.031 A 
ATOM     14  C   UNL     1       6.183  -5.377   1.753  1.00  0.00     0.074 A 
ATOM     15  C   UNL     1       5.633  -4.263   3.896  1.00  0.00     0.049 A 
ATOM     16  N   UNL     1       7.006  -6.308   2.166  1.00  0.00    -0.248 NA
ATOM     17  C   UNL     1       5.958  -5.387   0.299  1.00  0.00     0.031 C 
ATOM     18  C   UNL     1       4.955  -3.309   4.781  1.00  0.00     0.029 A 
ATOM     19  N   UNL     1       6.486  -4.933   4.733  1.00  0.00    -0.354 N 
ATOM     20  C   UNL     1       7.362  -7.034   1.037  1.00  0.00     0.074 A 
ATOM     21  C   UNL     1       6.659  -6.446  -0.082  1.00  0.00     0.031 C 
ATOM     22  C   UNL     1       5.503  -3.369   6.000  1.00  0.00     0.029 A 
ATOM     23  C   UNL     1       6.488  -4.441   6.017  1.00  0.00     0.049 A 
ATOM     24  H   UNL     1       7.042  -5.692   4.444  1.00  0.00     0.167 HD
ATOM     25  C   UNL     1       8.202  -8.092   0.950  1.00  0.00     0.037 A 
ATOM     26  C   UNL     1       7.194  -4.819   7.097  1.00  0.00     0.037 A 
ATOM     27  C   UNL     1       8.927  -8.641   2.067  1.00  0.00     0.049 A 
ATOM     28  C   UNL     1       8.145  -5.968   6.957  1.00  0.00     0.074 A 
ATOM     29  C   UNL     1       9.798  -9.717   2.090  1.00  0.00     0.029 A 
ATOM     30  N   UNL     1       8.877  -8.141   3.361  1.00  0.00    -0.354 N 
ATOM     31  N   UNL     1       8.441  -6.666   5.888  1.00  0.00    -0.248 NA
ATOM     32  C   UNL     1       8.842  -6.398   8.174  1.00  0.00     0.031 C 
ATOM     33  C   UNL     1      10.253  -9.884   3.403  1.00  0.00     0.029 A 
ATOM     34  C   UNL     1       9.697  -8.889   4.190  1.00  0.00     0.049 A 
ATOM     35  H   UNL     1       8.337  -7.369   3.647  1.00  0.00     0.167 HD
ATOM     36  C   UNL     1       9.345  -7.630   6.304  1.00  0.00     0.074 A 
ATOM     37  C   UNL     1       9.587  -7.392   7.713  1.00  0.00     0.031 C 
ATOM     38  C   UNL     1       9.905  -8.637   5.592  1.00  0.00     0.037 A 
BRANCH  25  39
ATOM     39  C   UNL     1       8.374  -8.744  -0.392  1.00  0.00     0.064 A 
ATOM     40  C   UNL     1       9.120  -8.143  -1.416  1.00  0.00     0.173 A 
ATOM     41  C   UNL     1       7.835 -10.018  -0.635  1.00  0.00     0.173 A 
ATOM     42  F   UNL     1       9.642  -6.920  -1.241  1.00  0.00    -0.203 F 
ATOM     43  C   UNL     1       9.312  -8.788  -2.636  1.00  0.00     0.198 A 
ATOM     44  C   UNL     1       8.049 -10.669  -1.847  1.00  0.00     0.198 A 
ATOM     45  F   UNL     1       7.116 -10.639   0.312  1.00  0.00    -0.203 F 
ATOM     46  F   UNL     1      10.003  -8.181  -3.612  1.00  0.00    -0.200 F 
ATOM     47  C   UNL     1       8.784 -10.053  -2.847  1.00  0.00     0.200 A 
ATOM     48  F   UNL     1       7.547 -11.896  -2.045  1.00  0.00    -0.200 F 
ATOM     49  F   UNL     1       8.982 -10.677  -4.017  1.00  0.00    -0.200 F 
ENDBRANCH  25  39
BRANCH  26  50
ATOM     50  C   UNL     1       6.992  -4.124   8.395  1.00  0.00     0.064 A 
ATOM     51  C   UNL     1       8.009  -3.354   8.973  1.00  0.00     0.173 A 
ATOM     52  C   UNL     1       5.764  -4.196   9.071  1.00  0.00     0.173 A 
ATOM     53  F   UNL     1       9.207  -3.268   8.376  1.00  0.00    -0.203 F 
ATOM     54  C   UNL     1       7.809  -2.691  10.183  1.00  0.00     0.198 A 
ATOM     55  C   UNL     1       5.553  -3.503  10.260  1.00  0.00     0.198 A 
ATOM     56  F   UNL     1       4.755  -4.914   8.557  1.00  0.00    -0.203 F 
ATOM     57  F   UNL     1       8.810  -1.992  10.735  1.00  0.00    -0.200 F 
ATOM     58  C   UNL     1       6.578  -2.757  10.819  1.00  0.00     0.200 A 
ATOM     59  F   UNL     1       4.355  -3.552  10.857  1.00  0.00    -0.200 F 
ATOM     60  F   UNL     1       6.382  -2.106  11.973  1.00  0.00    -0.200 F 
ENDBRANCH  26  50
BRANCH  38  61
ATOM     61  C   UNL     1      10.824  -9.550   6.344  1.00  0.00     0.064 A 
ATOM     62  C   UNL     1      10.325 -10.486   7.263  1.00  0.00     0.173 A 
ATOM     63  C   UNL     1      12.210  -9.486   6.151  1.00  0.00     0.173 A 
ATOM     64  F   UNL     1       9.006 -10.568   7.493  1.00  0.00    -0.203 F 
ATOM     65  C   UNL     1      11.187 -11.301   7.988  1.00  0.00     0.198 A 
ATOM     66  C   UNL     1      13.068 -10.321   6.859  1.00  0.00     0.198 A 
ATOM     67  F   UNL     1      12.732  -8.608   5.280  1.00  0.00    -0.203 F 
ATOM     68  F   UNL     1      10.694 -12.147   8.904  1.00  0.00    -0.200 F 
ATOM     69  C   UNL     1      12.556 -11.220   7.784  1.00  0.00     0.200 A 
ATOM     70  F   UNL     1      14.390 -10.248   6.657  1.00  0.00    -0.200 F 
ATOM     71  F   UNL     1      13.386 -12.001   8.489  1.00  0.00    -0.200 F 
ENDBRANCH  38  61
ENDBRANCH  12  13
ENDBRANCH   5   7
ENDBRANCH   2   3
ENDBRANCH   1   2
BRANCH   1  72
ATOM     72  C   UNL     1       5.832   1.596  -2.615  1.00  0.00     0.118 C 
BRANCH  72  73
ATOM     73  N   UNL     1       6.112   2.983  -2.274  1.00  0.00    -0.352 N 
ATOM     74  C   UNL     1       6.242   4.065  -3.098  1.00  0.00     0.253 C 
ATOM     75  H   UNL     1       6.225   3.167  -1.314  1.00  0.00     0.163 HD
ATOM     76  O   UNL     1       6.375   5.183  -2.605  1.00  0.00    -0.269 OA
BRANCH  74  77
ATOM     77  C   UNL     1       6.349   3.878  -4.564  1.00  0.00     0.065 A 
ATOM     78  C   UNL     1       7.510   4.436  -5.092  1.00  0.00     0.042 A 
ATOM     79  C   UNL     1       5.426   3.189  -5.373  1.00  0.00     0.050 A 
ATOM     80  C   UNL     1       7.953   4.103  -6.355  1.00  0.00     0.042 A 
ATOM     81  C   UNL     1       5.843   2.913  -6.682  1.00  0.00     0.029 A 
ATOM     82  C   UNL     1       7.098   3.349  -7.162  1.00  0.00     0.028 A 
BRANCH  79  83
ATOM     83  N   UNL     1       4.148   2.904  -4.913  1.00  0.00    -0.360 N 
ATOM     84  C   UNL     1       3.214   1.930  -5.508  1.00  0.00     0.178 C 
ATOM     85  C   UNL     1       3.460   4.062  -4.341  1.00  0.00     0.178 C 
ATOM     86  C   UNL     1       2.036   1.605  -4.520  1.00  0.00     0.284 C 
ATOM     87  C   UNL     1       2.511   3.614  -3.231  1.00  0.00     0.284 C 
ATOM     88  N   UNL     1       1.470   2.697  -3.689  1.00  0.00    -0.324 N 
ATOM     89  H   UNL     1       1.087   2.225  -2.870  1.00  0.00     0.348 HD
BRANCH  88  90
ATOM     90  C   UNL     1       0.278   3.379  -4.232  1.00  0.00     0.363 C 
BRANCH  90  91
ATOM     91  C   UNL     1       0.444   4.017  -5.616  1.00  0.00     0.277 C 
ATOM     92  O   UNL     1       0.399   3.289  -6.616  1.00  0.00    -0.268 OA
ATOM     93  N   UNL     1       0.639   5.396  -5.740  1.00  0.00    -0.333 N 
ATOM     94  C   UNL     1       1.058   6.319  -4.667  1.00  0.00     0.148 C 
ATOM     95  C   UNL     1       0.856   5.897  -7.102  1.00  0.00     0.148 C 
ATOM     96  C   UNL     1       0.789   7.797  -4.959  1.00  0.00     0.181 C 
ATOM     97  C   UNL     1       0.520   7.379  -7.248  1.00  0.00     0.181 C 
ATOM     98  O   UNL     1       1.223   8.159  -6.274  1.00  0.00    -0.378 OA
ENDBRANCH  90  91
ENDBRANCH  88  90
ENDBRANCH  79  83
BRANCH  80  99
ATOM     99  N   UNL     1       9.221   4.484  -6.836  1.00  0.00    -0.322 N 
ATOM    100  C   UNL     1      10.331   4.992  -6.175  1.00  0.00     0.255 C 
ATOM    101  H   UNL     1       9.340   4.372  -7.807  1.00  0.00     0.170 HD
ATOM    102  O   UNL     1      11.282   5.436  -6.814  1.00  0.00    -0.269 OA
BRANCH 100 103
ATOM    103  C   UNL     1      10.424   4.987  -4.695  1.00  0.00     0.041 A 
ATOM    104  C   UNL     1      10.546   6.212  -4.026  1.00  0.00     0.014 A 
ATOM    105  C   UNL     1      10.276   3.796  -3.971  1.00  0.00     0.034 A 
ATOM    106  C   UNL     1      10.436   6.256  -2.634  1.00  0.00     0.002 A 
ATOM    107  C   UNL     1      10.147   3.856  -2.583  1.00  0.00     0.041 A 
ATOM    108  C   UNL     1      10.217   5.079  -1.914  1.00  0.00     0.020 A 
ATOM    109  Cl  UNL     1       9.820   2.417  -1.694  1.00  0.00    -0.084 Cl
ENDBRANCH 100 103
ENDBRANCH  80  99
ENDBRANCH  74  77
ENDBRANCH  72  73
ENDBRANCH   1  72
TORSDOF 15
