REMARK SMILES COc1ccccc1NC(=O)c1ccc(NC(=O)Cn2nc(C(=O)NCCCNC(=O)c3ccc(-c4c5nc(c(-c6c(F)c(F)c(F)c(F)c6F)c6ccc([nH]6)c(-c6c(F)c(F)c(F)c(F)c6F)c6nc(c(-c7c(F)c(F)c(F)c(F)c7F)c7ccc4[nH]7)C=C6)C=C5)cc3)c3ccccc3c2=O)cc1
REMARK SMILES IDX 23 1 24 2 25 3 22 5 20 6 21 7 101 8 100 9 102 10 95 11 99 12
REMARK SMILES IDX 96 13 98 14 97 15 19 16 17 17 16 18 18 20 15 21 12 22 13 23
REMARK SMILES IDX 104 24 14 25 103 26 10 27 9 28 11 30 8 31 3 32 4 33 5 34
REMARK SMILES IDX 7 35 6 36 2 37 1 38 26 39 27 40 28 41 29 42 30 43 31 45
REMARK SMILES IDX 32 46 33 47 94 48 34 49 93 50 35 51 36 52 37 53 87 54 38 55
REMARK SMILES IDX 92 56 86 57 88 58 39 59 91 60 85 61 84 62 40 64 72 65 52 66
REMARK SMILES IDX 71 67 53 68 56 69 70 70 89 71 54 72 55 73 69 75 90 76 57 77
REMARK SMILES IDX 41 78 42 79 50 80 43 81 44 82 48 83 51 84 45 85 46 86 49 87
REMARK SMILES IDX 47 88 73 89 74 90 82 91 75 92 76 93 80 94 83 95 77 96 78 97
REMARK SMILES IDX 81 98 79 99 58 100 59 101 67 102 60 103 61 104 65 105 68 106
REMARK SMILES IDX 62 107 63 108 66 109 64 110
REMARK H PARENT 25 4 16 19 9 29 29 44 88 63 56 74
REMARK Flexibility Score: inf
ROOT
ATOM      1  C   UNL     1      10.750  -3.609  -0.940  1.00  0.00     0.272 C 
ATOM      2  O   UNL     1      11.843  -3.240  -1.333  1.00  0.00    -0.267 OA
ATOM      3  N   UNL     1       9.773  -2.692  -0.620  1.00  0.00    -0.351 N 
ATOM      4  H   UNL     1       9.892  -1.780  -0.971  1.00  0.00     0.163 HD
ENDROOT
BRANCH   1   5
ATOM      5  C   UNL     1      10.406  -5.103  -0.849  1.00  0.00     0.156 A 
ATOM      6  N   UNL     1       9.296  -6.804   0.266  1.00  0.00    -0.219 N 
ATOM      7  N   UNL     1       9.827  -5.531   0.238  1.00  0.00    -0.163 NA
ATOM      8  C   UNL     1       9.344  -7.678  -0.819  1.00  0.00     0.275 A 
ATOM      9  C   UNL     1      10.084  -7.224  -2.008  1.00  0.00     0.051 A 
ATOM     10  O   UNL     1       8.830  -8.793  -0.830  1.00  0.00    -0.267 OA
ATOM     11  C   UNL     1      10.684  -5.971  -2.010  1.00  0.00     0.020 A 
ATOM     12  C   UNL     1      10.248  -8.091  -3.098  1.00  0.00     0.014 A 
ATOM     13  C   UNL     1      11.524  -5.616  -3.075  1.00  0.00     0.011 A 
ATOM     14  C   UNL     1      11.067  -7.726  -4.164  1.00  0.00     0.001 A 
ATOM     15  C   UNL     1      11.723  -6.499  -4.141  1.00  0.00     0.001 A 
BRANCH   6  16
ATOM     16  C   UNL     1       8.874  -7.312   1.578  1.00  0.00     0.248 C 
BRANCH  16  17
ATOM     17  C   UNL     1       7.579  -8.140   1.581  1.00  0.00     0.246 C 
ATOM     18  N   UNL     1       6.425  -7.646   1.034  1.00  0.00    -0.324 N 
ATOM     19  H   UNL     1       5.832  -8.318   0.628  1.00  0.00     0.169 HD
ATOM     20  O   UNL     1       7.555  -9.268   2.084  1.00  0.00    -0.273 OA
BRANCH  18  21
ATOM     21  C   UNL     1       5.965  -6.328   0.968  1.00  0.00     0.041 A 
ATOM     22  C   UNL     1       4.911  -3.750   0.830  1.00  0.00     0.040 A 
ATOM     23  C   UNL     1       5.713  -4.118   1.910  1.00  0.00     0.016 A 
ATOM     24  C   UNL     1       4.593  -4.675  -0.166  1.00  0.00     0.016 A 
ATOM     25  C   UNL     1       6.252  -5.402   1.971  1.00  0.00     0.027 A 
ATOM     26  C   UNL     1       5.090  -5.979  -0.069  1.00  0.00     0.027 A 
BRANCH  22  27
ATOM     27  C   UNL     1       4.494  -2.349   0.735  1.00  0.00     0.255 C 
ATOM     28  N   UNL     1       3.215  -1.946   1.001  1.00  0.00    -0.319 N 
ATOM     29  H   UNL     1       3.073  -0.984   0.846  1.00  0.00     0.170 HD
ATOM     30  O   UNL     1       5.359  -1.541   0.392  1.00  0.00    -0.269 OA
BRANCH  28  31
ATOM     31  C   UNL     1       2.056  -2.610   1.449  1.00  0.00     0.084 A 
ATOM     32  C   UNL     1       0.855  -1.876   1.442  1.00  0.00     0.142 A 
ATOM     33  C   UNL     1      -0.348  -2.447   1.865  1.00  0.00     0.048 A 
ATOM     34  C   UNL     1      -0.369  -3.769   2.299  1.00  0.00     0.004 A 
ATOM     35  C   UNL     1       2.019  -3.922   1.922  1.00  0.00     0.030 A 
ATOM     36  C   UNL     1       0.814  -4.501   2.337  1.00  0.00     0.002 A 
BRANCH  32  37
ATOM     37  O   UNL     1       0.843  -0.543   1.111  1.00  0.00    -0.495 OA
ATOM     38  C   UNL     1       0.743  -0.343  -0.299  1.00  0.00     0.278 C 
ENDBRANCH  32  37
ENDBRANCH  28  31
ENDBRANCH  22  27
ENDBRANCH  18  21
ENDBRANCH  16  17
ENDBRANCH   6  16
ENDBRANCH   1   5
BRANCH   3  39
ATOM     39  C   UNL     1       8.586  -2.931   0.180  1.00  0.00     0.118 C 
BRANCH  39  40
ATOM     40  C   UNL     1       8.948  -2.834   1.662  1.00  0.00     0.042 C 
BRANCH  40  41
ATOM     41  C   UNL     1       8.774  -1.419   2.189  1.00  0.00     0.118 C 
BRANCH  41  42
ATOM     42  N   UNL     1       7.371  -1.086   2.396  1.00  0.00    -0.352 N 
ATOM     43  C   UNL     1       6.751  -0.664   3.547  1.00  0.00     0.251 C 
ATOM     44  H   UNL     1       6.790  -1.176   1.607  1.00  0.00     0.163 HD
ATOM     45  O   UNL     1       5.534  -0.751   3.675  1.00  0.00    -0.269 OA
BRANCH  43  46
ATOM     46  C   UNL     1       7.565  -0.092   4.639  1.00  0.00     0.039 A 
ATOM     47  C   UNL     1       7.202  -0.319   5.970  1.00  0.00     0.014 A 
ATOM     48  C   UNL     1       8.663   0.719   4.340  1.00  0.00     0.014 A 
ATOM     49  C   UNL     1       7.955   0.250   6.999  1.00  0.00     0.010 A 
ATOM     50  C   UNL     1       9.466   1.203   5.360  1.00  0.00     0.010 A 
ATOM     51  C   UNL     1       9.098   1.007   6.698  1.00  0.00    -0.014 A 
BRANCH  51  52
ATOM     52  C   UNL     1       9.884   1.703   7.744  1.00  0.00     0.031 A 
ATOM     53  C   UNL     1       9.966   3.206   7.706  1.00  0.00     0.074 A 
ATOM     54  C   UNL     1      10.588   0.998   8.647  1.00  0.00     0.049 A 
ATOM     55  N   UNL     1      10.744   4.016   8.379  1.00  0.00    -0.248 NA
ATOM     56  C   UNL     1       9.089   3.887   6.738  1.00  0.00     0.031 C 
ATOM     57  C   UNL     1      10.621  -0.461   8.748  1.00  0.00     0.029 A 
ATOM     58  N   UNL     1      11.430   1.421   9.643  1.00  0.00    -0.354 N 
ATOM     59  C   UNL     1      10.479   5.287   7.883  1.00  0.00     0.074 A 
ATOM     60  C   UNL     1       9.515   5.138   6.816  1.00  0.00     0.031 C 
ATOM     61  C   UNL     1      11.430  -0.812   9.762  1.00  0.00     0.029 A 
ATOM     62  C   UNL     1      11.996   0.394  10.356  1.00  0.00     0.049 A 
ATOM     63  H   UNL     1      11.610   2.371   9.829  1.00  0.00     0.167 HD
ATOM     64  C   UNL     1      10.973   6.475   8.303  1.00  0.00     0.037 A 
ATOM     65  C   UNL     1      12.878   0.433  11.372  1.00  0.00     0.037 A 
ATOM     66  C   UNL     1      11.885   6.616   9.406  1.00  0.00     0.049 A 
ATOM     67  C   UNL     1      13.356   1.772  11.867  1.00  0.00     0.074 A 
ATOM     68  C   UNL     1      12.436   7.768   9.937  1.00  0.00     0.029 A 
ATOM     69  N   UNL     1      12.357   5.556  10.168  1.00  0.00    -0.354 N 
ATOM     70  N   UNL     1      13.089   2.970  11.404  1.00  0.00    -0.248 NA
ATOM     71  C   UNL     1      14.244   1.766  13.037  1.00  0.00     0.031 C 
ATOM     72  C   UNL     1      13.245   7.405  11.019  1.00  0.00     0.029 A 
ATOM     73  C   UNL     1      13.172   6.030  11.180  1.00  0.00     0.049 A 
ATOM     74  H   UNL     1      12.143   4.608  10.011  1.00  0.00     0.167 HD
ATOM     75  C   UNL     1      13.742   3.859  12.245  1.00  0.00     0.074 A 
ATOM     76  C   UNL     1      14.410   3.063  13.255  1.00  0.00     0.031 C 
ATOM     77  C   UNL     1      13.791   5.212  12.190  1.00  0.00     0.037 A 
BRANCH  64  78
ATOM     78  C   UNL     1      10.513   7.710   7.583  1.00  0.00     0.064 A 
ATOM     79  C   UNL     1       9.191   8.171   7.693  1.00  0.00     0.173 A 
ATOM     80  C   UNL     1      11.399   8.449   6.786  1.00  0.00     0.173 A 
ATOM     81  F   UNL     1       8.299   7.491   8.430  1.00  0.00    -0.203 F 
ATOM     82  C   UNL     1       8.766   9.304   7.006  1.00  0.00     0.198 A 
ATOM     83  C   UNL     1      10.978   9.602   6.125  1.00  0.00     0.198 A 
ATOM     84  F   UNL     1      12.674   8.057   6.647  1.00  0.00    -0.203 F 
ATOM     85  F   UNL     1       7.485   9.690   7.082  1.00  0.00    -0.200 F 
ATOM     86  C   UNL     1       9.661  10.023   6.228  1.00  0.00     0.200 A 
ATOM     87  F   UNL     1      11.847  10.302   5.383  1.00  0.00    -0.200 F 
ATOM     88  F   UNL     1       9.251  11.116   5.571  1.00  0.00    -0.200 F 
ENDBRANCH  64  78
BRANCH  65  89
ATOM     89  C   UNL     1      13.326  -0.825  12.022  1.00  0.00     0.064 A 
ATOM     90  C   UNL     1      12.908  -1.146  13.321  1.00  0.00     0.173 A 
ATOM     91  C   UNL     1      14.185  -1.723  11.373  1.00  0.00     0.173 A 
ATOM     92  F   UNL     1      12.099  -0.310  13.989  1.00  0.00    -0.203 F 
ATOM     93  C   UNL     1      13.357  -2.300  13.959  1.00  0.00     0.198 A 
ATOM     94  C   UNL     1      14.611  -2.892  12.001  1.00  0.00     0.198 A 
ATOM     95  F   UNL     1      14.606  -1.468  10.125  1.00  0.00    -0.203 F 
ATOM     96  F   UNL     1      12.983  -2.554  15.220  1.00  0.00    -0.200 F 
ATOM     97  C   UNL     1      14.206  -3.174  13.297  1.00  0.00     0.200 A 
ATOM     98  F   UNL     1      15.421  -3.741  11.354  1.00  0.00    -0.200 F 
ATOM     99  F   UNL     1      14.640  -4.283  13.912  1.00  0.00    -0.200 F 
ENDBRANCH  65  89
BRANCH  77 100
ATOM    100  C   UNL     1      14.532   5.912  13.288  1.00  0.00     0.064 A 
ATOM    101  C   UNL     1      15.932   5.904  13.355  1.00  0.00     0.173 A 
ATOM    102  C   UNL     1      13.826   6.624  14.270  1.00  0.00     0.173 A 
ATOM    103  F   UNL     1      16.647   5.226  12.445  1.00  0.00    -0.203 F 
ATOM    104  C   UNL     1      16.599   6.560  14.385  1.00  0.00     0.198 A 
ATOM    105  C   UNL     1      14.498   7.300  15.283  1.00  0.00     0.198 A 
ATOM    106  F   UNL     1      12.486   6.666  14.243  1.00  0.00    -0.203 F 
ATOM    107  F   UNL     1      17.936   6.499  14.459  1.00  0.00    -0.200 F 
ATOM    108  C   UNL     1      15.883   7.261  15.344  1.00  0.00     0.200 A 
ATOM    109  F   UNL     1      13.806   7.986  16.203  1.00  0.00    -0.200 F 
ATOM    110  F   UNL     1      16.529   7.892  16.334  1.00  0.00    -0.200 F 
ENDBRANCH  77 100
ENDBRANCH  51  52
ENDBRANCH  43  46
ENDBRANCH  41  42
ENDBRANCH  40  41
ENDBRANCH  39  40
ENDBRANCH   3  39
TORSDOF 16
