REMARK SMILES CC[C@@H](NC(=O)[C@H](C)C[NH2+]C)C(=O)NCCCNC(=O)c1ccc(-c2c3nc(c(-c4c(F)c(F)c(F)c(F)c4F)c4ccc([nH]4)c(-c4c(F)c(F)c(F)c(F)c4F)c4nc(c(-c5c(F)c(F)c(F)c(F)c5F)c5ccc2[nH]5)C=C4)C=C3)cc1
REMARK SMILES IDX 15 1 14 2 12 3 13 4 3 6 2 7 1 8 4 9 5 10 6 12 7 13 8 14 9 15
REMARK SMILES IDX 10 16 11 17 16 20 17 21 18 22 19 23 20 25 21 26 22 27 83 28
REMARK SMILES IDX 23 29 82 30 24 31 25 32 26 33 76 34 27 35 81 36 75 37 77 38
REMARK SMILES IDX 28 39 80 40 74 41 73 42 29 44 61 45 41 46 60 47 42 48 45 49
REMARK SMILES IDX 59 50 78 51 43 52 44 53 58 55 79 56 46 57 30 58 31 59 39 60
REMARK SMILES IDX 32 61 33 62 37 63 40 64 34 65 35 66 38 67 36 68 62 69 63 70
REMARK SMILES IDX 71 71 64 72 65 73 69 74 72 75 66 76 67 77 70 78 68 79 47 80
REMARK SMILES IDX 48 81 56 82 49 83 50 84 54 85 57 86 51 87 52 88 55 89 53 90
REMARK H PARENT 14 5 4 11 10 18 10 19 18 24 77 43 45 54
REMARK Flexibility Score: inf
ROOT
ATOM      1  C   UNL     1       2.062  -3.227   2.030  1.00  0.00     0.117 C 
ENDROOT
BRANCH   1   2
ATOM      2  N   UNL     1       2.154  -1.830   2.421  1.00  0.00    -0.354 N 
ATOM      3  C   UNL     1       1.217  -0.845   2.293  1.00  0.00     0.242 C 
ATOM      4  O   UNL     1       1.526   0.289   2.667  1.00  0.00    -0.273 OA
ATOM      5  H   UNL     1       3.006  -1.558   2.834  1.00  0.00     0.163 HD
BRANCH   3   6
ATOM      6  C   UNL     1      -0.089  -1.103   1.518  1.00  0.00     0.171 C 
BRANCH   6   7
ATOM      7  C   UNL     1       0.301  -0.991   0.021  1.00  0.00     0.031 C 
ATOM      8  C   UNL     1      -0.709  -1.509  -0.988  1.00  0.00     0.006 C 
ENDBRANCH   6   7
BRANCH   6   9
ATOM      9  N   UNL     1      -0.734  -2.374   1.862  1.00  0.00    -0.344 N 
ATOM     10  C   UNL     1      -1.390  -2.801   2.972  1.00  0.00     0.229 C 
ATOM     11  H   UNL     1      -0.682  -3.050   1.148  1.00  0.00     0.164 HD
ATOM     12  O   UNL     1      -2.030  -3.851   2.831  1.00  0.00    -0.275 OA
BRANCH  10  13
ATOM     13  C   UNL     1      -1.268  -2.181   4.367  1.00  0.00     0.130 C 
ATOM     14  C   UNL     1      -1.353  -0.664   4.441  1.00  0.00     0.024 C 
BRANCH  13  15
ATOM     15  C   UNL     1      -0.039  -2.785   5.071  1.00  0.00     0.273 C 
BRANCH  15  16
ATOM     16  N   UNL     1       0.130  -2.366   6.467  1.00  0.00    -0.348 N 
ATOM     17  C   UNL     1       1.309  -3.004   7.051  1.00  0.00     0.330 C 
ATOM     18  H   UNL     1      -0.697  -2.635   7.001  1.00  0.00     0.346 HD
ATOM     19  H   UNL     1       0.252  -1.354   6.497  1.00  0.00     0.346 HD
ENDBRANCH  15  16
ENDBRANCH  13  15
ENDBRANCH  10  13
ENDBRANCH   6   9
ENDBRANCH   3   6
ENDBRANCH   1   2
BRANCH   1  20
ATOM     20  C   UNL     1       3.412  -3.919   1.991  1.00  0.00     0.042 C 
BRANCH  20  21
ATOM     21  C   UNL     1       4.116  -3.982   3.336  1.00  0.00     0.118 C 
BRANCH  21  22
ATOM     22  N   UNL     1       3.443  -4.788   4.345  1.00  0.00    -0.352 N 
ATOM     23  C   UNL     1       4.039  -5.432   5.412  1.00  0.00     0.251 C 
ATOM     24  H   UNL     1       2.467  -4.884   4.258  1.00  0.00     0.163 HD
ATOM     25  O   UNL     1       3.395  -6.102   6.204  1.00  0.00    -0.269 OA
BRANCH  23  26
ATOM     26  C   UNL     1       5.507  -5.329   5.528  1.00  0.00     0.039 A 
ATOM     27  C   UNL     1       6.272  -6.481   5.339  1.00  0.00     0.014 A 
ATOM     28  C   UNL     1       6.105  -4.069   5.613  1.00  0.00     0.014 A 
ATOM     29  C   UNL     1       7.643  -6.357   5.120  1.00  0.00     0.010 A 
ATOM     30  C   UNL     1       7.458  -3.944   5.325  1.00  0.00     0.010 A 
ATOM     31  C   UNL     1       8.231  -5.083   5.046  1.00  0.00    -0.014 A 
BRANCH  31  32
ATOM     32  C   UNL     1       9.638  -4.910   4.613  1.00  0.00     0.031 A 
ATOM     33  C   UNL     1      10.650  -4.341   5.559  1.00  0.00     0.074 A 
ATOM     34  C   UNL     1       9.971  -5.162   3.332  1.00  0.00     0.049 A 
ATOM     35  N   UNL     1      11.898  -4.018   5.339  1.00  0.00    -0.248 NA
ATOM     36  C   UNL     1      10.186  -4.064   6.927  1.00  0.00     0.031 C 
ATOM     37  C   UNL     1       9.053  -5.647   2.298  1.00  0.00     0.029 A 
ATOM     38  N   UNL     1      11.167  -5.022   2.673  1.00  0.00    -0.354 N 
ATOM     39  C   UNL     1      12.362  -3.482   6.531  1.00  0.00     0.074 A 
ATOM     40  C   UNL     1      11.250  -3.481   7.458  1.00  0.00     0.031 C 
ATOM     41  C   UNL     1       9.721  -5.771   1.140  1.00  0.00     0.029 A 
ATOM     42  C   UNL     1      11.104  -5.349   1.341  1.00  0.00     0.049 A 
ATOM     43  H   UNL     1      11.992  -4.716   3.114  1.00  0.00     0.167 HD
ATOM     44  C   UNL     1      13.609  -3.049   6.830  1.00  0.00     0.037 A 
ATOM     45  C   UNL     1      12.053  -5.305   0.387  1.00  0.00     0.037 A 
ATOM     46  C   UNL     1      14.718  -3.082   5.916  1.00  0.00     0.049 A 
ATOM     47  C   UNL     1      13.441  -4.859   0.752  1.00  0.00     0.074 A 
ATOM     48  C   UNL     1      16.039  -2.744   6.147  1.00  0.00     0.029 A 
ATOM     49  N   UNL     1      14.631  -3.477   4.589  1.00  0.00    -0.354 N 
ATOM     50  N   UNL     1      13.891  -4.436   1.908  1.00  0.00    -0.248 NA
ATOM     51  C   UNL     1      14.453  -4.891  -0.312  1.00  0.00     0.031 C 
ATOM     52  C   UNL     1      16.747  -2.906   4.951  1.00  0.00     0.029 A 
ATOM     53  C   UNL     1      15.872  -3.375   3.983  1.00  0.00     0.049 A 
ATOM     54  H   UNL     1      13.808  -3.784   4.143  1.00  0.00     0.167 HD
ATOM     55  C   UNL     1      15.239  -4.169   1.718  1.00  0.00     0.074 A 
ATOM     56  C   UNL     1      15.538  -4.487   0.336  1.00  0.00     0.031 C 
ATOM     57  C   UNL     1      16.148  -3.703   2.608  1.00  0.00     0.037 A 
BRANCH  44  58
ATOM     58  C   UNL     1      13.831  -2.508   8.210  1.00  0.00     0.064 A 
ATOM     59  C   UNL     1      13.846  -3.350   9.333  1.00  0.00     0.173 A 
ATOM     60  C   UNL     1      14.034  -1.136   8.413  1.00  0.00     0.173 A 
ATOM     61  F   UNL     1      13.641  -4.668   9.191  1.00  0.00    -0.203 F 
ATOM     62  C   UNL     1      14.020  -2.831  10.613  1.00  0.00     0.198 A 
ATOM     63  C   UNL     1      14.234  -0.624   9.692  1.00  0.00     0.198 A 
ATOM     64  F   UNL     1      14.031  -0.290   7.372  1.00  0.00    -0.203 F 
ATOM     65  F   UNL     1      13.975  -3.647  11.676  1.00  0.00    -0.200 F 
ATOM     66  C   UNL     1      14.218  -1.470  10.791  1.00  0.00     0.200 A 
ATOM     67  F   UNL     1      14.432   0.690   9.863  1.00  0.00    -0.200 F 
ATOM     68  F   UNL     1      14.382  -0.972  12.024  1.00  0.00    -0.200 F 
ENDBRANCH  44  58
BRANCH  45  69
ATOM     69  C   UNL     1      11.722  -5.723  -0.999  1.00  0.00     0.064 A 
ATOM     70  C   UNL     1      12.174  -6.948  -1.508  1.00  0.00     0.173 A 
ATOM     71  C   UNL     1      10.926  -4.923  -1.830  1.00  0.00     0.173 A 
ATOM     72  F   UNL     1      12.952  -7.739  -0.754  1.00  0.00    -0.203 F 
ATOM     73  C   UNL     1      11.850  -7.353  -2.801  1.00  0.00     0.198 A 
ATOM     74  C   UNL     1      10.585  -5.338  -3.116  1.00  0.00     0.198 A 
ATOM     75  F   UNL     1      10.462  -3.746  -1.385  1.00  0.00    -0.203 F 
ATOM     76  F   UNL     1      12.316  -8.517  -3.273  1.00  0.00    -0.200 F 
ATOM     77  C   UNL     1      11.050  -6.551  -3.602  1.00  0.00     0.200 A 
ATOM     78  F   UNL     1       9.801  -4.567  -3.881  1.00  0.00    -0.200 F 
ATOM     79  F   UNL     1      10.730  -6.946  -4.841  1.00  0.00    -0.200 F 
ENDBRANCH  45  69
BRANCH  57  80
ATOM     80  C   UNL     1      17.555  -3.526   2.126  1.00  0.00     0.064 A 
ATOM     81  C   UNL     1      17.920  -2.436   1.324  1.00  0.00     0.173 A 
ATOM     82  C   UNL     1      18.559  -4.421   2.525  1.00  0.00     0.173 A 
ATOM     83  F   UNL     1      16.990  -1.565   0.906  1.00  0.00    -0.203 F 
ATOM     84  C   UNL     1      19.242  -2.252   0.931  1.00  0.00     0.198 A 
ATOM     85  C   UNL     1      19.883  -4.222   2.147  1.00  0.00     0.198 A 
ATOM     86  F   UNL     1      18.256  -5.477   3.294  1.00  0.00    -0.203 F 
ATOM     87  F   UNL     1      19.567  -1.218   0.143  1.00  0.00    -0.200 F 
ATOM     88  C   UNL     1      20.224  -3.140   1.349  1.00  0.00     0.200 A 
ATOM     89  F   UNL     1      20.831  -5.075   2.558  1.00  0.00    -0.200 F 
ATOM     90  F   UNL     1      21.498  -2.953   0.980  1.00  0.00    -0.200 F 
ENDBRANCH  57  80
ENDBRANCH  31  32
ENDBRANCH  23  26
ENDBRANCH  21  22
ENDBRANCH  20  21
ENDBRANCH   1  20
TORSDOF 15
