REMARK SMILES C[C@@H]([NH2+]C[C@H]1CCC[C@@H]1C(=O)NCCCNC(=O)c1ccc(-c2c3nc(c(-c4c(F)c(F)c(F)c(F)c4F)c4ccc([nH]4)c(-c4c(F)c(F)c(F)c(F)c4F)c4nc(c(-c5c(F)c(F)c(F)c(F)c5F)c5ccc2[nH]5)C=C4)C=C3)cc1)c1cc(F)ccc1O
REMARK SMILES IDX 10 1 11 2 12 3 9 5 5 6 6 7 7 8 8 9 4 10 3 11 2 14 1 15 82 16
REMARK SMILES IDX 83 17 88 18 84 19 87 20 85 21 86 22 89 23 13 25 14 26 15 27
REMARK SMILES IDX 16 28 17 29 18 31 19 32 20 33 81 34 21 35 80 36 22 37 23 38
REMARK SMILES IDX 24 39 74 40 25 41 79 42 73 43 75 44 26 45 78 46 72 47 71 48
REMARK SMILES IDX 27 50 59 51 39 52 58 53 40 54 43 55 57 56 76 57 41 58 42 59
REMARK SMILES IDX 56 61 77 62 44 63 28 64 29 65 37 66 30 67 31 68 35 69 38 70
REMARK SMILES IDX 32 71 33 72 36 73 34 74 60 75 61 76 69 77 62 78 63 79 67 80
REMARK SMILES IDX 70 81 64 82 65 83 68 84 66 85 45 86 46 87 54 88 47 89 48 90
REMARK SMILES IDX 52 91 55 92 49 93 50 94 53 95 51 96
REMARK H PARENT 12 4 3 12 3 13 89 24 16 30 75 49 43 60
REMARK Flexibility Score: inf
ROOT
ATOM      1  C   UNL     1       1.073  -0.427   2.126  1.00  0.00     0.223 C 
ATOM      2  O   UNL     1       0.053  -0.320   1.433  1.00  0.00    -0.275 OA
ATOM      3  N   UNL     1       2.232  -0.602   1.448  1.00  0.00    -0.356 N 
ATOM      4  H   UNL     1       2.113  -0.660   0.473  1.00  0.00     0.163 HD
ENDROOT
BRANCH   1   5
ATOM      5  C   UNL     1       0.948  -0.290   3.647  1.00  0.00     0.087 C 
ATOM      6  C   UNL     1       1.000   1.176   4.103  1.00  0.00     0.057 C 
ATOM      7  C   UNL     1       2.483   1.344   4.480  1.00  0.00     0.010 C 
ATOM      8  C   UNL     1       2.847   0.021   5.159  1.00  0.00     0.001 C 
ATOM      9  C   UNL     1       1.930  -1.035   4.540  1.00  0.00     0.014 C 
BRANCH   6  10
ATOM     10  C   UNL     1       0.173   1.562   5.352  1.00  0.00     0.265 C 
BRANCH  10  11
ATOM     11  N   UNL     1      -1.241   1.234   5.473  1.00  0.00    -0.340 N 
ATOM     12  H   UNL     1      -1.642   1.887   6.146  1.00  0.00     0.346 HD
ATOM     13  H   UNL     1      -1.585   1.292   4.514  1.00  0.00     0.346 HD
BRANCH  11  14
ATOM     14  C   UNL     1      -1.635  -0.119   5.902  1.00  0.00     0.214 C 
ATOM     15  C   UNL     1      -3.118  -0.079   6.285  1.00  0.00     0.081 C 
BRANCH  14  16
ATOM     16  C   UNL     1      -0.838  -0.764   7.030  1.00  0.00     0.054 A 
ATOM     17  C   UNL     1      -0.339   0.005   8.098  1.00  0.00     0.053 A 
ATOM     18  C   UNL     1      -0.538  -2.140   7.038  1.00  0.00     0.124 A 
ATOM     19  C   UNL     1       0.531  -0.553   9.034  1.00  0.00     0.123 A 
ATOM     20  C   UNL     1       0.320  -2.698   7.991  1.00  0.00     0.050 A 
ATOM     21  F   UNL     1       1.071   0.227   9.979  1.00  0.00    -0.207 F 
ATOM     22  C   UNL     1       0.877  -1.895   8.981  1.00  0.00     0.043 A 
BRANCH  18  23
ATOM     23  O   UNL     1      -1.012  -3.018   6.104  1.00  0.00    -0.507 OA
ATOM     24  H   UNL     1      -1.593  -2.719   5.432  1.00  0.00     0.293 HD
ENDBRANCH  18  23
ENDBRANCH  14  16
ENDBRANCH  11  14
ENDBRANCH  10  11
ENDBRANCH   6  10
ENDBRANCH   1   5
BRANCH   3  25
ATOM     25  C   UNL     1       3.611  -0.719   1.873  1.00  0.00     0.117 C 
BRANCH  25  26
ATOM     26  C   UNL     1       4.095  -2.161   1.924  1.00  0.00     0.042 C 
BRANCH  26  27
ATOM     27  C   UNL     1       4.424  -2.729   0.555  1.00  0.00     0.118 C 
BRANCH  27  28
ATOM     28  N   UNL     1       5.511  -2.002  -0.088  1.00  0.00    -0.352 N 
ATOM     29  C   UNL     1       6.814  -2.363  -0.319  1.00  0.00     0.251 C 
ATOM     30  H   UNL     1       5.271  -1.104  -0.411  1.00  0.00     0.163 HD
ATOM     31  O   UNL     1       7.636  -1.503  -0.615  1.00  0.00    -0.269 OA
BRANCH  29  32
ATOM     32  C   UNL     1       7.231  -3.777  -0.218  1.00  0.00     0.039 A 
ATOM     33  C   UNL     1       8.510  -4.074   0.261  1.00  0.00     0.014 A 
ATOM     34  C   UNL     1       6.389  -4.806  -0.643  1.00  0.00     0.014 A 
ATOM     35  C   UNL     1       8.919  -5.404   0.360  1.00  0.00     0.010 A 
ATOM     36  C   UNL     1       6.754  -6.131  -0.446  1.00  0.00     0.010 A 
ATOM     37  C   UNL     1       8.032  -6.443   0.036  1.00  0.00    -0.014 A 
BRANCH  37  38
ATOM     38  C   UNL     1       8.428  -7.865   0.167  1.00  0.00     0.031 A 
ATOM     39  C   UNL     1       8.476  -8.747  -1.050  1.00  0.00     0.074 A 
ATOM     40  C   UNL     1       8.675  -8.371   1.390  1.00  0.00     0.049 A 
ATOM     41  N   UNL     1       8.738 -10.027  -1.135  1.00  0.00    -0.248 NA
ATOM     42  C   UNL     1       8.150  -8.117  -2.340  1.00  0.00     0.031 C 
ATOM     43  C   UNL     1       8.590  -7.625   2.647  1.00  0.00     0.029 A 
ATOM     44  N   UNL     1       9.042  -9.634   1.777  1.00  0.00    -0.354 N 
ATOM     45  C   UNL     1       8.586 -10.354  -2.476  1.00  0.00     0.074 A 
ATOM     46  C   UNL     1       8.151  -9.157  -3.160  1.00  0.00     0.031 C 
ATOM     47  C   UNL     1       8.928  -8.434   3.662  1.00  0.00     0.029 A 
ATOM     48  C   UNL     1       9.220  -9.762   3.132  1.00  0.00     0.049 A 
ATOM     49  H   UNL     1       9.165 -10.377   1.144  1.00  0.00     0.167 HD
ATOM     50  C   UNL     1       8.817 -11.540  -3.087  1.00  0.00     0.037 A 
ATOM     51  C   UNL     1       9.582 -10.833   3.861  1.00  0.00     0.037 A 
ATOM     52  C   UNL     1       9.288 -12.716  -2.404  1.00  0.00     0.049 A 
ATOM     53  C   UNL     1       9.871 -12.128   3.155  1.00  0.00     0.074 A 
ATOM     54  C   UNL     1       9.623 -13.949  -2.933  1.00  0.00     0.029 A 
ATOM     55  N   UNL     1       9.496 -12.798  -1.034  1.00  0.00    -0.354 N 
ATOM     56  N   UNL     1       9.795 -12.408   1.876  1.00  0.00    -0.248 NA
ATOM     57  C   UNL     1      10.306 -13.254   3.991  1.00  0.00     0.031 C 
ATOM     58  C   UNL     1       9.998 -14.789  -1.879  1.00  0.00     0.029 A 
ATOM     59  C   UNL     1       9.941 -14.066  -0.698  1.00  0.00     0.049 A 
ATOM     60  H   UNL     1       9.350 -12.063  -0.395  1.00  0.00     0.167 HD
ATOM     61  C   UNL     1      10.194 -13.731   1.750  1.00  0.00     0.074 A 
ATOM     62  C   UNL     1      10.531 -14.191   3.082  1.00  0.00     0.031 C 
ATOM     63  C   UNL     1      10.271 -14.499   0.635  1.00  0.00     0.037 A 
BRANCH  50  64
ATOM     64  C   UNL     1       8.576 -11.618  -4.567  1.00  0.00     0.064 A 
ATOM     65  C   UNL     1       9.400 -10.947  -5.483  1.00  0.00     0.173 A 
ATOM     66  C   UNL     1       7.523 -12.391  -5.079  1.00  0.00     0.173 A 
ATOM     67  F   UNL     1      10.412 -10.182  -5.046  1.00  0.00    -0.203 F 
ATOM     68  C   UNL     1       9.161 -11.020  -6.853  1.00  0.00     0.198 A 
ATOM     69  C   UNL     1       7.305 -12.488  -6.451  1.00  0.00     0.198 A 
ATOM     70  F   UNL     1       6.706 -13.057  -4.248  1.00  0.00    -0.203 F 
ATOM     71  F   UNL     1       9.929 -10.326  -7.704  1.00  0.00    -0.200 F 
ATOM     72  C   UNL     1       8.118 -11.796  -7.336  1.00  0.00     0.200 A 
ATOM     73  F   UNL     1       6.304 -13.247  -6.918  1.00  0.00    -0.200 F 
ATOM     74  F   UNL     1       7.892 -11.870  -8.655  1.00  0.00    -0.200 F 
ENDBRANCH  50  64
BRANCH  51  75
ATOM     75  C   UNL     1       9.736 -10.710   5.334  1.00  0.00     0.064 A 
ATOM     76  C   UNL     1      11.005 -10.750   5.928  1.00  0.00     0.173 A 
ATOM     77  C   UNL     1       8.627 -10.539   6.174  1.00  0.00     0.173 A 
ATOM     78  F   UNL     1      12.095 -10.928   5.166  1.00  0.00    -0.203 F 
ATOM     79  C   UNL     1      11.158 -10.646   7.308  1.00  0.00     0.198 A 
ATOM     80  C   UNL     1       8.782 -10.408   7.552  1.00  0.00     0.198 A 
ATOM     81  F   UNL     1       7.392 -10.484   5.654  1.00  0.00    -0.203 F 
ATOM     82  F   UNL     1      12.379 -10.729   7.853  1.00  0.00    -0.200 F 
ATOM     83  C   UNL     1      10.047 -10.469   8.119  1.00  0.00     0.200 A 
ATOM     84  F   UNL     1       7.708 -10.221   8.331  1.00  0.00    -0.200 F 
ATOM     85  F   UNL     1      10.194 -10.363   9.447  1.00  0.00    -0.200 F 
ENDBRANCH  51  75
BRANCH  63  86
ATOM     86  C   UNL     1      10.761 -15.905   0.812  1.00  0.00     0.064 A 
ATOM     87  C   UNL     1       9.970 -16.886   1.428  1.00  0.00     0.173 A 
ATOM     88  C   UNL     1      12.028 -16.280   0.340  1.00  0.00     0.173 A 
ATOM     89  F   UNL     1       8.758 -16.571   1.910  1.00  0.00    -0.203 F 
ATOM     90  C   UNL     1      10.442 -18.184   1.593  1.00  0.00     0.198 A 
ATOM     91  C   UNL     1      12.484 -17.587   0.479  1.00  0.00     0.198 A 
ATOM     92  F   UNL     1      12.819 -15.380  -0.263  1.00  0.00    -0.203 F 
ATOM     93  F   UNL     1       9.692 -19.092   2.232  1.00  0.00    -0.200 F 
ATOM     94  C   UNL     1      11.696 -18.535   1.114  1.00  0.00     0.200 A 
ATOM     95  F   UNL     1      13.690 -17.928   0.005  1.00  0.00    -0.200 F 
ATOM     96  F   UNL     1      12.148 -19.786   1.272  1.00  0.00    -0.200 F 
ENDBRANCH  63  86
ENDBRANCH  37  38
ENDBRANCH  29  32
ENDBRANCH  27  28
ENDBRANCH  26  27
ENDBRANCH  25  26
ENDBRANCH   3  25
TORSDOF 15
