REMARK SMILES O=C1C[N@@H+](Cc2ccc(C(=O)NCCCNC(=O)c3ccc(-c4c5nc(c(-c6c(F)c(F)c(F)c(F)c6F)c6ccc([nH]6)c(-c6c(F)c(F)c(F)c(F)c6F)c6nc(c(-c7c(F)c(F)c(F)c(F)c7F)c7ccc4[nH]7)C=C6)C=C5)cc3)cc2)CCN1
REMARK SMILES IDX 14 1 13 2 12 3 10 4 11 5 9 7 6 8 7 9 83 10 8 11 82 12 5 13
REMARK SMILES IDX 4 14 1 15 2 16 3 17 86 18 85 19 84 21 15 23 16 24 17 25
REMARK SMILES IDX 18 27 19 28 20 29 81 30 21 31 80 32 22 33 23 34 24 35 74 36
REMARK SMILES IDX 25 37 79 38 73 39 75 40 26 41 78 42 72 43 71 44 27 46 59 47
REMARK SMILES IDX 39 48 58 49 40 50 43 51 57 52 76 53 41 54 42 55 56 57 77 58
REMARK SMILES IDX 44 59 28 60 29 61 37 62 30 63 31 64 35 65 38 66 32 67 33 68
REMARK SMILES IDX 36 69 34 70 60 71 61 72 69 73 62 74 63 75 67 76 70 77 64 78
REMARK SMILES IDX 65 79 68 80 66 81 45 82 46 83 54 84 47 85 48 86 52 87 55 88
REMARK SMILES IDX 49 89 50 90 53 91 51 92
REMARK H PARENT 12 6 86 20 4 22 16 26 75 45 43 56
REMARK Flexibility Score: inf
ROOT
ATOM      1  C   UNL     1      -1.425   5.840   2.550  1.00  0.00     0.042 C 
ENDROOT
BRANCH   1   2
ATOM      2  C   UNL     1      -0.136   5.025   2.468  1.00  0.00     0.118 C 
BRANCH   2   3
ATOM      3  N   UNL     1       0.374   4.693   3.788  1.00  0.00    -0.352 N 
ATOM      4  C   UNL     1       0.401   3.492   4.455  1.00  0.00     0.251 C 
ATOM      5  O   UNL     1       0.985   3.412   5.532  1.00  0.00    -0.269 OA
ATOM      6  H   UNL     1       0.763   5.449   4.284  1.00  0.00     0.163 HD
BRANCH   4   7
ATOM      7  C   UNL     1      -0.205   2.284   3.857  1.00  0.00     0.039 A 
ATOM      8  C   UNL     1      -1.175   0.022   2.519  1.00  0.00     0.006 A 
ATOM      9  C   UNL     1       0.088  -0.001   3.128  1.00  0.00     0.010 A 
ATOM     10  C   UNL     1      -1.991   1.151   2.691  1.00  0.00     0.010 A 
ATOM     11  C   UNL     1       0.573   1.126   3.792  1.00  0.00     0.014 A 
ATOM     12  C   UNL     1      -1.511   2.275   3.364  1.00  0.00     0.014 A 
BRANCH   8  13
ATOM     13  C   UNL     1      -1.642  -1.132   1.666  1.00  0.00     0.299 C 
BRANCH  13  14
ATOM     14  N   UNL     1      -1.223  -1.131   0.262  1.00  0.00    -0.322 N 
ATOM     15  O   UNL     1       2.312  -0.234   0.225  1.00  0.00    -0.269 OA
ATOM     16  C   UNL     1       1.107  -0.172  -0.015  1.00  0.00     0.275 C 
ATOM     17  C   UNL     1       0.204  -1.407   0.028  1.00  0.00     0.363 C 
ATOM     18  N   UNL     1       0.566   1.007  -0.447  1.00  0.00    -0.346 N 
ATOM     19  C   UNL     1      -0.854   1.242  -0.564  1.00  0.00     0.177 C 
ATOM     20  H   UNL     1       1.179   1.737  -0.692  1.00  0.00     0.163 HD
ATOM     21  C   UNL     1      -1.710  -0.035  -0.577  1.00  0.00     0.284 C 
ATOM     22  H   UNL     1      -1.736  -1.949  -0.069  1.00  0.00     0.348 HD
ENDBRANCH  13  14
ENDBRANCH   8  13
ENDBRANCH   4   7
ENDBRANCH   2   3
ENDBRANCH   1   2
BRANCH   1  23
ATOM     23  C   UNL     1      -1.236   7.239   3.130  1.00  0.00     0.118 C 
BRANCH  23  24
ATOM     24  N   UNL     1      -0.527   8.126   2.221  1.00  0.00    -0.352 N 
ATOM     25  C   UNL     1      -0.892   9.345   1.707  1.00  0.00     0.251 C 
ATOM     26  H   UNL     1       0.355   7.800   1.927  1.00  0.00     0.163 HD
ATOM     27  O   UNL     1      -0.223   9.843   0.806  1.00  0.00    -0.269 OA
BRANCH  25  28
ATOM     28  C   UNL     1      -2.091  10.059   2.206  1.00  0.00     0.039 A 
ATOM     29  C   UNL     1      -2.893  10.739   1.283  1.00  0.00     0.014 A 
ATOM     30  C   UNL     1      -2.408  10.107   3.566  1.00  0.00     0.014 A 
ATOM     31  C   UNL     1      -4.037  11.414   1.714  1.00  0.00     0.010 A 
ATOM     32  C   UNL     1      -3.588  10.719   3.987  1.00  0.00     0.010 A 
ATOM     33  C   UNL     1      -4.413  11.383   3.066  1.00  0.00    -0.014 A 
BRANCH  33  34
ATOM     34  C   UNL     1      -5.671  12.028   3.525  1.00  0.00     0.031 A 
ATOM     35  C   UNL     1      -5.633  13.189   4.479  1.00  0.00     0.074 A 
ATOM     36  C   UNL     1      -6.855  11.520   3.134  1.00  0.00     0.049 A 
ATOM     37  N   UNL     1      -6.627  13.845   5.025  1.00  0.00    -0.248 NA
ATOM     38  C   UNL     1      -4.304  13.656   4.899  1.00  0.00     0.031 C 
ATOM     39  C   UNL     1      -7.027  10.357   2.263  1.00  0.00     0.029 A 
ATOM     40  N   UNL     1      -8.139  11.906   3.432  1.00  0.00    -0.354 N 
ATOM     41  C   UNL     1      -6.044  14.785   5.865  1.00  0.00     0.074 A 
ATOM     42  C   UNL     1      -4.613  14.584   5.792  1.00  0.00     0.031 C 
ATOM     43  C   UNL     1      -8.338  10.131   2.086  1.00  0.00     0.029 A 
ATOM     44  C   UNL     1      -9.099  11.111   2.855  1.00  0.00     0.049 A 
ATOM     45  H   UNL     1      -8.351  12.679   4.003  1.00  0.00     0.167 HD
ATOM     46  C   UNL     1      -6.648  15.739   6.614  1.00  0.00     0.037 A 
ATOM     47  C   UNL     1     -10.442  11.159   2.943  1.00  0.00     0.037 A 
ATOM     48  C   UNL     1      -8.071  15.955   6.661  1.00  0.00     0.049 A 
ATOM     49  C   UNL     1     -11.089  12.243   3.758  1.00  0.00     0.074 A 
ATOM     50  C   UNL     1      -8.772  16.954   7.313  1.00  0.00     0.029 A 
ATOM     51  N   UNL     1      -9.013  15.149   6.037  1.00  0.00    -0.354 N 
ATOM     52  N   UNL     1     -10.526  13.186   4.474  1.00  0.00    -0.248 NA
ATOM     53  C   UNL     1     -12.558  12.277   3.768  1.00  0.00     0.031 C 
ATOM     54  C   UNL     1     -10.140  16.723   7.128  1.00  0.00     0.029 A 
ATOM     55  C   UNL     1     -10.290  15.611   6.316  1.00  0.00     0.049 A 
ATOM     56  H   UNL     1      -8.805  14.365   5.479  1.00  0.00     0.167 HD
ATOM     57  C   UNL     1     -11.567  13.934   5.006  1.00  0.00     0.074 A 
ATOM     58  C   UNL     1     -12.796  13.348   4.514  1.00  0.00     0.031 C 
ATOM     59  C   UNL     1     -11.507  15.011   5.829  1.00  0.00     0.037 A 
BRANCH  46  60
ATOM     60  C   UNL     1      -5.767  16.621   7.454  1.00  0.00     0.064 A 
ATOM     61  C   UNL     1      -4.906  17.569   6.881  1.00  0.00     0.173 A 
ATOM     62  C   UNL     1      -5.804  16.533   8.854  1.00  0.00     0.173 A 
ATOM     63  F   UNL     1      -4.826  17.689   5.547  1.00  0.00    -0.203 F 
ATOM     64  C   UNL     1      -4.088  18.368   7.676  1.00  0.00     0.198 A 
ATOM     65  C   UNL     1      -5.008  17.356   9.647  1.00  0.00     0.198 A 
ATOM     66  F   UNL     1      -6.615  15.650   9.456  1.00  0.00    -0.203 F 
ATOM     67  F   UNL     1      -3.232  19.226   7.103  1.00  0.00    -0.200 F 
ATOM     68  C   UNL     1      -4.143  18.265   9.057  1.00  0.00     0.200 A 
ATOM     69  F   UNL     1      -5.072  17.264  10.982  1.00  0.00    -0.200 F 
ATOM     70  F   UNL     1      -3.356  19.036   9.820  1.00  0.00    -0.200 F 
ENDBRANCH  46  60
BRANCH  47  71
ATOM     71  C   UNL     1     -11.257  10.153   2.216  1.00  0.00     0.064 A 
ATOM     72  C   UNL     1     -11.998  10.509   1.081  1.00  0.00     0.173 A 
ATOM     73  C   UNL     1     -11.286   8.810   2.621  1.00  0.00     0.173 A 
ATOM     74  F   UNL     1     -12.016  11.784   0.666  1.00  0.00    -0.203 F 
ATOM     75  C   UNL     1     -12.745   9.562   0.384  1.00  0.00     0.198 A 
ATOM     76  C   UNL     1     -12.011   7.859   1.908  1.00  0.00     0.198 A 
ATOM     77  F   UNL     1     -10.586   8.418   3.696  1.00  0.00    -0.203 F 
ATOM     78  F   UNL     1     -13.469   9.934  -0.680  1.00  0.00    -0.200 F 
ATOM     79  C   UNL     1     -12.744   8.236   0.793  1.00  0.00     0.200 A 
ATOM     80  F   UNL     1     -11.993   6.577   2.295  1.00  0.00    -0.200 F 
ATOM     81  F   UNL     1     -13.450   7.323   0.113  1.00  0.00    -0.200 F 
ENDBRANCH  47  71
BRANCH  59  82
ATOM     82  C   UNL     1     -12.811  15.633   6.240  1.00  0.00     0.064 A 
ATOM     83  C   UNL     1     -13.676  14.996   7.143  1.00  0.00     0.173 A 
ATOM     84  C   UNL     1     -13.183  16.895   5.752  1.00  0.00     0.173 A 
ATOM     85  F   UNL     1     -13.373  13.782   7.625  1.00  0.00    -0.203 F 
ATOM     86  C   UNL     1     -14.877  15.590   7.522  1.00  0.00     0.198 A 
ATOM     87  C   UNL     1     -14.370  17.498   6.157  1.00  0.00     0.198 A 
ATOM     88  F   UNL     1     -12.389  17.548   4.891  1.00  0.00    -0.203 F 
ATOM     89  F   UNL     1     -15.710  14.942   8.348  1.00  0.00    -0.200 F 
ATOM     90  C   UNL     1     -15.220  16.842   7.035  1.00  0.00     0.200 A 
ATOM     91  F   UNL     1     -14.694  18.714   5.694  1.00  0.00    -0.200 F 
ATOM     92  F   UNL     1     -16.374  17.414   7.405  1.00  0.00    -0.200 F 
ENDBRANCH  59  82
ENDBRANCH  33  34
ENDBRANCH  25  28
ENDBRANCH  23  24
ENDBRANCH   1  23
TORSDOF 12
