REMARK SMILES O=C(NCCCNC(=O)c1cc(-c2cncnc2)cc(S(=O)(=O)N2CCCC2)c1)c1ccc(-c2c3nc(c(-c4c(F)c(F)c(F)c(F)c4F)c4ccc([nH]4)c(-c4c(F)c(F)c(F)c(F)c4F)c4nc(c(-c5c(F)c(F)c(F)c(F)c5F)c5ccc2[nH]5)C=C4)C=C3)cc1
REMARK SMILES IDX 5 1 4 2 3 3 1 4 2 5 30 7 31 8 92 9 32 10 91 11 33 12 34 13
REMARK SMILES IDX 35 14 85 15 36 16 90 17 84 18 86 19 37 20 89 21 83 22 82 23
REMARK SMILES IDX 38 25 70 26 50 27 69 28 51 29 54 30 68 31 87 32 52 33 53 34
REMARK SMILES IDX 67 36 88 37 55 38 39 39 40 40 48 41 41 42 42 43 46 44 49 45
REMARK SMILES IDX 43 46 44 47 47 48 45 49 71 50 72 51 80 52 73 53 74 54 78 55
REMARK SMILES IDX 81 56 75 57 76 58 79 59 77 60 56 61 57 62 65 63 58 64 59 65
REMARK SMILES IDX 63 66 66 67 60 68 61 69 64 70 62 71 6 72 7 73 8 74 9 76
REMARK SMILES IDX 10 77 11 78 29 79 12 80 20 81 19 82 13 83 14 84 18 85 15 86
REMARK SMILES IDX 17 87 16 88 21 89 22 90 23 91 24 92 25 93 28 94 26 95 27 96
REMARK H PARENT 3 6 86 24 54 35 7 75
REMARK Flexibility Score: inf
ROOT
ATOM      1  C   UNL     1       5.213  -2.191  -0.324  1.00  0.00     0.042 C 
ENDROOT
BRANCH   1   2
ATOM      2  C   UNL     1       4.751  -0.866  -0.908  1.00  0.00     0.118 C 
BRANCH   2   3
ATOM      3  N   UNL     1       3.305  -0.683  -0.855  1.00  0.00    -0.352 N 
ATOM      4  O   UNL     1       1.307   0.011  -0.082  1.00  0.00    -0.269 OA
ATOM      5  C   UNL     1       2.528   0.136  -0.066  1.00  0.00     0.251 C 
ATOM      6  H   UNL     1       2.798  -1.239  -1.490  1.00  0.00     0.163 HD
BRANCH   5   7
ATOM      7  C   UNL     1       3.155   1.131   0.834  1.00  0.00     0.039 A 
ATOM      8  C   UNL     1       4.270   1.859   0.429  1.00  0.00     0.014 A 
ATOM      9  C   UNL     1       2.626   1.333   2.113  1.00  0.00     0.014 A 
ATOM     10  C   UNL     1       4.995   2.586   1.363  1.00  0.00     0.010 A 
ATOM     11  C   UNL     1       3.283   2.178   3.014  1.00  0.00     0.010 A 
ATOM     12  C   UNL     1       4.511   2.761   2.669  1.00  0.00    -0.014 A 
BRANCH  12  13
ATOM     13  C   UNL     1       5.314   3.566   3.630  1.00  0.00     0.031 A 
ATOM     14  C   UNL     1       5.854   2.958   4.897  1.00  0.00     0.074 A 
ATOM     15  C   UNL     1       5.620   4.840   3.312  1.00  0.00     0.049 A 
ATOM     16  N   UNL     1       6.626   3.499   5.808  1.00  0.00    -0.248 NA
ATOM     17  C   UNL     1       5.474   1.568   5.191  1.00  0.00     0.031 C 
ATOM     18  C   UNL     1       5.147   5.546   2.119  1.00  0.00     0.029 A 
ATOM     19  N   UNL     1       6.432   5.753   3.936  1.00  0.00    -0.354 N 
ATOM     20  C   UNL     1       6.792   2.534   6.793  1.00  0.00     0.074 A 
ATOM     21  C   UNL     1       6.026   1.377   6.382  1.00  0.00     0.031 C 
ATOM     22  C   UNL     1       5.738   6.747   2.055  1.00  0.00     0.029 A 
ATOM     23  C   UNL     1       6.574   6.926   3.236  1.00  0.00     0.049 A 
ATOM     24  H   UNL     1       6.870   5.583   4.802  1.00  0.00     0.167 HD
ATOM     25  C   UNL     1       7.521   2.604   7.933  1.00  0.00     0.037 A 
ATOM     26  C   UNL     1       7.293   8.029   3.514  1.00  0.00     0.037 A 
ATOM     27  C   UNL     1       8.318   3.740   8.320  1.00  0.00     0.049 A 
ATOM     28  C   UNL     1       8.107   8.070   4.774  1.00  0.00     0.074 A 
ATOM     29  C   UNL     1       9.123   3.891   9.436  1.00  0.00     0.029 A 
ATOM     30  N   UNL     1       8.414   4.920   7.597  1.00  0.00    -0.354 N 
ATOM     31  N   UNL     1       8.269   7.141   5.684  1.00  0.00    -0.248 NA
ATOM     32  C   UNL     1       8.833   9.316   5.048  1.00  0.00     0.031 C 
ATOM     33  C   UNL     1       9.677   5.176   9.408  1.00  0.00     0.029 A 
ATOM     34  C   UNL     1       9.253   5.809   8.251  1.00  0.00     0.049 A 
ATOM     35  H   UNL     1       7.955   5.100   6.745  1.00  0.00     0.167 HD
ATOM     36  C   UNL     1       9.129   7.681   6.628  1.00  0.00     0.074 A 
ATOM     37  C   UNL     1       9.470   9.012   6.170  1.00  0.00     0.031 C 
ATOM     38  C   UNL     1       9.589   7.126   7.776  1.00  0.00     0.037 A 
BRANCH  25  39
ATOM     39  C   UNL     1       7.480   1.425   8.863  1.00  0.00     0.064 A 
ATOM     40  C   UNL     1       8.128   0.218   8.559  1.00  0.00     0.173 A 
ATOM     41  C   UNL     1       6.818   1.521  10.097  1.00  0.00     0.173 A 
ATOM     42  F   UNL     1       8.763   0.070   7.387  1.00  0.00    -0.203 F 
ATOM     43  C   UNL     1       8.095  -0.856   9.447  1.00  0.00     0.198 A 
ATOM     44  C   UNL     1       6.809   0.455  10.993  1.00  0.00     0.198 A 
ATOM     45  F   UNL     1       6.187   2.654  10.439  1.00  0.00    -0.203 F 
ATOM     46  F   UNL     1       8.684  -2.013   9.117  1.00  0.00    -0.200 F 
ATOM     47  C   UNL     1       7.442  -0.735  10.664  1.00  0.00     0.200 A 
ATOM     48  F   UNL     1       6.188   0.578  12.174  1.00  0.00    -0.200 F 
ATOM     49  F   UNL     1       7.417  -1.767  11.519  1.00  0.00    -0.200 F 
ENDBRANCH  25  39
BRANCH  26  50
ATOM     50  C   UNL     1       7.282   9.174   2.569  1.00  0.00     0.064 A 
ATOM     51  C   UNL     1       8.423   9.507   1.827  1.00  0.00     0.173 A 
ATOM     52  C   UNL     1       6.127   9.947   2.375  1.00  0.00     0.173 A 
ATOM     53  F   UNL     1       9.556   8.808   1.990  1.00  0.00    -0.203 F 
ATOM     54  C   UNL     1       8.413  10.578   0.936  1.00  0.00     0.198 A 
ATOM     55  C   UNL     1       6.110  10.998   1.462  1.00  0.00     0.198 A 
ATOM     56  F   UNL     1       5.007   9.663   3.056  1.00  0.00    -0.203 F 
ATOM     57  F   UNL     1       9.528  10.899   0.266  1.00  0.00    -0.200 F 
ATOM     58  C   UNL     1       7.255  11.317   0.748  1.00  0.00     0.200 A 
ATOM     59  F   UNL     1       4.983  11.697   1.271  1.00  0.00    -0.200 F 
ATOM     60  F   UNL     1       7.243  12.340  -0.117  1.00  0.00    -0.200 F 
ENDBRANCH  26  50
BRANCH  38  61
ATOM     61  C   UNL     1      10.541   7.948   8.593  1.00  0.00     0.064 A 
ATOM     62  C   UNL     1      10.108   9.061   9.327  1.00  0.00     0.173 A 
ATOM     63  C   UNL     1      11.900   7.606   8.652  1.00  0.00     0.173 A 
ATOM     64  F   UNL     1       8.821   9.437   9.288  1.00  0.00    -0.203 F 
ATOM     65  C   UNL     1      11.008   9.822  10.068  1.00  0.00     0.198 A 
ATOM     66  C   UNL     1      12.792   8.353   9.416  1.00  0.00     0.198 A 
ATOM     67  F   UNL     1      12.362   6.547   7.971  1.00  0.00    -0.203 F 
ATOM     68  F   UNL     1      10.583  10.913  10.720  1.00  0.00    -0.200 F 
ATOM     69  C   UNL     1      12.348   9.464  10.116  1.00  0.00     0.200 A 
ATOM     70  F   UNL     1      14.084   8.001   9.469  1.00  0.00    -0.200 F 
ATOM     71  F   UNL     1      13.213  10.199  10.829  1.00  0.00    -0.200 F 
ENDBRANCH  38  61
ENDBRANCH  12  13
ENDBRANCH   5   7
ENDBRANCH   2   3
ENDBRANCH   1   2
BRANCH   1  72
ATOM     72  C   UNL     1       4.817  -3.398  -1.154  1.00  0.00     0.118 C 
BRANCH  72  73
ATOM     73  N   UNL     1       5.400  -3.388  -2.485  1.00  0.00    -0.352 N 
ATOM     74  C   UNL     1       6.138  -4.335  -3.146  1.00  0.00     0.251 C 
ATOM     75  H   UNL     1       5.238  -2.563  -2.997  1.00  0.00     0.163 HD
ATOM     76  O   UNL     1       6.678  -4.037  -4.207  1.00  0.00    -0.269 OA
BRANCH  74  77
ATOM     77  C   UNL     1       6.290  -5.707  -2.610  1.00  0.00     0.041 A 
ATOM     78  C   UNL     1       7.502  -6.372  -2.818  1.00  0.00     0.022 A 
ATOM     79  C   UNL     1       5.226  -6.374  -2.005  1.00  0.00     0.035 A 
ATOM     80  C   UNL     1       7.680  -7.699  -2.393  1.00  0.00    -0.013 A 
ATOM     81  C   UNL     1       5.404  -7.660  -1.510  1.00  0.00     0.084 A 
ATOM     82  C   UNL     1       6.625  -8.324  -1.703  1.00  0.00     0.030 A 
BRANCH  80  83
ATOM     83  C   UNL     1       8.907  -8.419  -2.736  1.00  0.00     0.018 A 
ATOM     84  C   UNL     1       8.899  -9.579  -3.494  1.00  0.00     0.123 A 
ATOM     85  C   UNL     1      10.177  -7.973  -2.411  1.00  0.00     0.123 A 
ATOM     86  N   UNL     1      10.006 -10.235  -3.902  1.00  0.00    -0.244 NA
ATOM     87  N   UNL     1      11.322  -8.583  -2.788  1.00  0.00    -0.244 NA
ATOM     88  C   UNL     1      11.173  -9.692  -3.528  1.00  0.00     0.221 A 
ENDBRANCH  80  83
BRANCH  81  89
ATOM     89  S   UNL     1       4.117  -8.518  -0.623  1.00  0.00     0.243 S 
ATOM     90  O   UNL     1       3.668  -9.576  -1.504  1.00  0.00    -0.207 OA
ATOM     91  O   UNL     1       4.662  -8.789   0.687  1.00  0.00    -0.207 OA
BRANCH  89  92
ATOM     92  N   UNL     1       2.847  -7.445  -0.423  1.00  0.00    -0.198 NA
ATOM     93  C   UNL     1       1.895  -7.144  -1.501  1.00  0.00     0.102 C 
ATOM     94  C   UNL     1       2.892  -6.369   0.575  1.00  0.00     0.102 C 
ATOM     95  C   UNL     1       1.553  -5.672  -1.303  1.00  0.00     0.018 C 
ATOM     96  C   UNL     1       1.741  -5.445   0.187  1.00  0.00     0.018 C 
ENDBRANCH  89  92
ENDBRANCH  81  89
ENDBRANCH  74  77
ENDBRANCH  72  73
ENDBRANCH   1  72
TORSDOF 13
