REMARK SMILES O=C(NCCCNC(=O)c1[nH]c2ccc(Cl)cc2c1-c1ccccc1)c1ccc(-c2c3nc(c(-c4c(F)c(F)c(F)c(F)c4F)c4ccc([nH]4)c(-c4c(F)c(F)c(F)c(F)c4F)c4nc(c(-c5c(F)c(F)c(F)c(F)c5F)c5ccc2[nH]5)C=C4)C=C3)cc1
REMARK SMILES IDX 4 1 3 2 1 3 2 4 26 6 27 7 88 8 28 9 87 10 29 11 30 12 31 13
REMARK SMILES IDX 81 14 32 15 86 16 80 17 82 18 33 19 85 20 79 21 78 22 34 24
REMARK SMILES IDX 66 25 46 26 65 27 47 28 50 29 64 30 83 31 48 32 49 33 63 35
REMARK SMILES IDX 84 36 51 37 35 38 36 39 44 40 37 41 38 42 42 43 45 44 39 45
REMARK SMILES IDX 40 46 43 47 41 48 67 49 68 50 76 51 69 52 70 53 74 54 77 55
REMARK SMILES IDX 71 56 72 57 75 58 73 59 52 60 53 61 61 62 54 63 55 64 59 65
REMARK SMILES IDX 62 66 56 67 57 68 60 69 58 70 5 71 6 72 7 73 8 74 9 76 10 77
REMARK SMILES IDX 11 78 19 79 12 80 18 82 13 83 17 84 14 85 15 86 16 87 20 88
REMARK SMILES IDX 21 89 25 90 22 91 24 92 23 93
REMARK H PARENT 3 5 82 23 50 34 7 75 11 81
REMARK Flexibility Score: inf
ROOT
ATOM      1  C   UNL     1       4.520   0.279   1.234  1.00  0.00     0.118 C 
ENDROOT
BRANCH   1   2
ATOM      2  N   UNL     1       3.074   0.227   1.057  1.00  0.00    -0.352 N 
ATOM      3  O   UNL     1       1.109   0.129  -0.044  1.00  0.00    -0.269 OA
ATOM      4  C   UNL     1       2.324  -0.039  -0.064  1.00  0.00     0.251 C 
ATOM      5  H   UNL     1       2.551   0.411   1.870  1.00  0.00     0.163 HD
BRANCH   4   6
ATOM      6  C   UNL     1       2.983  -0.501  -1.304  1.00  0.00     0.039 A 
ATOM      7  C   UNL     1       4.021  -1.430  -1.254  1.00  0.00     0.014 A 
ATOM      8  C   UNL     1       2.547  -0.009  -2.538  1.00  0.00     0.014 A 
ATOM      9  C   UNL     1       4.747  -1.720  -2.399  1.00  0.00     0.010 A 
ATOM     10  C   UNL     1       3.195  -0.406  -3.711  1.00  0.00     0.010 A 
ATOM     11  C   UNL     1       4.319  -1.244  -3.646  1.00  0.00    -0.014 A 
BRANCH  11  12
ATOM     12  C   UNL     1       4.999  -1.731  -4.870  1.00  0.00     0.031 A 
ATOM     13  C   UNL     1       5.710  -0.791  -5.798  1.00  0.00     0.074 A 
ATOM     14  C   UNL     1       4.972  -3.054  -5.125  1.00  0.00     0.049 A 
ATOM     15  N   UNL     1       6.329  -1.057  -6.922  1.00  0.00    -0.248 NA
ATOM     16  C   UNL     1       5.726   0.633  -5.429  1.00  0.00     0.031 C 
ATOM     17  C   UNL     1       4.299  -4.057  -4.293  1.00  0.00     0.029 A 
ATOM     18  N   UNL     1       5.524  -3.788  -6.142  1.00  0.00    -0.354 N 
ATOM     19  C   UNL     1       6.782   0.163  -7.406  1.00  0.00     0.074 A 
ATOM     20  C   UNL     1       6.355   1.175  -6.463  1.00  0.00     0.031 C 
ATOM     21  C   UNL     1       4.510  -5.274  -4.810  1.00  0.00     0.029 A 
ATOM     22  C   UNL     1       5.257  -5.133  -6.052  1.00  0.00     0.049 A 
ATOM     23  H   UNL     1       6.059  -3.391  -6.867  1.00  0.00     0.167 HD
ATOM     24  C   UNL     1       7.490   0.405  -8.535  1.00  0.00     0.037 A 
ATOM     25  C   UNL     1       5.546  -6.140  -6.895  1.00  0.00     0.037 A 
ATOM     26  C   UNL     1       7.926  -0.618  -9.451  1.00  0.00     0.049 A 
ATOM     27  C   UNL     1       6.299  -5.830  -8.155  1.00  0.00     0.074 A 
ATOM     28  C   UNL     1       8.705  -0.483 -10.588  1.00  0.00     0.029 A 
ATOM     29  N   UNL     1       7.611  -1.966  -9.343  1.00  0.00    -0.354 N 
ATOM     30  N   UNL     1       6.768  -4.681  -8.575  1.00  0.00    -0.248 NA
ATOM     31  C   UNL     1       6.555  -6.955  -9.064  1.00  0.00     0.031 C 
ATOM     32  C   UNL     1       8.808  -1.736 -11.200  1.00  0.00     0.029 A 
ATOM     33  C   UNL     1       8.145  -2.664 -10.415  1.00  0.00     0.049 A 
ATOM     34  H   UNL     1       7.085  -2.366  -8.613  1.00  0.00     0.167 HD
ATOM     35  C   UNL     1       7.385  -4.943  -9.788  1.00  0.00     0.074 A 
ATOM     36  C   UNL     1       7.254  -6.366 -10.024  1.00  0.00     0.031 C 
ATOM     37  C   UNL     1       8.001  -4.081 -10.633  1.00  0.00     0.037 A 
BRANCH  24  38
ATOM     38  C   UNL     1       7.822   1.831  -8.870  1.00  0.00     0.064 A 
ATOM     39  C   UNL     1       8.776   2.561  -8.148  1.00  0.00     0.173 A 
ATOM     40  C   UNL     1       7.226   2.451  -9.980  1.00  0.00     0.173 A 
ATOM     41  F   UNL     1       9.371   2.020  -7.074  1.00  0.00    -0.203 F 
ATOM     42  C   UNL     1       9.110   3.864  -8.514  1.00  0.00     0.198 A 
ATOM     43  C   UNL     1       7.581   3.743 -10.359  1.00  0.00     0.198 A 
ATOM     44  F   UNL     1       6.312   1.795 -10.711  1.00  0.00    -0.203 F 
ATOM     45  F   UNL     1      10.001   4.555  -7.788  1.00  0.00    -0.200 F 
ATOM     46  C   UNL     1       8.519   4.450  -9.623  1.00  0.00     0.200 A 
ATOM     47  F   UNL     1       7.020   4.301 -11.441  1.00  0.00    -0.200 F 
ATOM     48  F   UNL     1       8.853   5.698  -9.982  1.00  0.00    -0.200 F 
ENDBRANCH  24  38
BRANCH  25  49
ATOM     49  C   UNL     1       5.082  -7.517  -6.587  1.00  0.00     0.064 A 
ATOM     50  C   UNL     1       5.994  -8.540  -6.295  1.00  0.00     0.173 A 
ATOM     51  C   UNL     1       3.715  -7.836  -6.570  1.00  0.00     0.173 A 
ATOM     52  F   UNL     1       7.311  -8.289  -6.314  1.00  0.00    -0.203 F 
ATOM     53  C   UNL     1       5.556  -9.834  -6.019  1.00  0.00     0.198 A 
ATOM     54  C   UNL     1       3.278  -9.120  -6.259  1.00  0.00     0.198 A 
ATOM     55  F   UNL     1       2.801  -6.890  -6.834  1.00  0.00    -0.203 F 
ATOM     56  F   UNL     1       6.451 -10.805  -5.791  1.00  0.00    -0.200 F 
ATOM     57  C   UNL     1       4.200 -10.121  -5.994  1.00  0.00     0.200 A 
ATOM     58  F   UNL     1       1.966  -9.387  -6.215  1.00  0.00    -0.200 F 
ATOM     59  F   UNL     1       3.781 -11.364  -5.722  1.00  0.00    -0.200 F 
ENDBRANCH  25  49
BRANCH  37  60
ATOM     60  C   UNL     1       8.595  -4.660 -11.883  1.00  0.00     0.064 A 
ATOM     61  C   UNL     1       7.789  -5.110 -12.938  1.00  0.00     0.173 A 
ATOM     62  C   UNL     1       9.987  -4.732 -12.041  1.00  0.00     0.173 A 
ATOM     63  F   UNL     1       6.452  -5.081 -12.826  1.00  0.00    -0.203 F 
ATOM     64  C   UNL     1       8.355  -5.628 -14.099  1.00  0.00     0.198 A 
ATOM     65  C   UNL     1      10.550  -5.221 -13.215  1.00  0.00     0.198 A 
ATOM     66  F   UNL     1      10.802  -4.312 -11.061  1.00  0.00    -0.203 F 
ATOM     67  F   UNL     1       7.566  -6.096 -15.076  1.00  0.00    -0.200 F 
ATOM     68  C   UNL     1       9.734  -5.675 -14.240  1.00  0.00     0.200 A 
ATOM     69  F   UNL     1      11.882  -5.253 -13.355  1.00  0.00    -0.200 F 
ATOM     70  F   UNL     1      10.277  -6.165 -15.363  1.00  0.00    -0.200 F 
ENDBRANCH  37  60
ENDBRANCH  11  12
ENDBRANCH   4   6
ENDBRANCH   1   2
BRANCH   1  71
ATOM     71  C   UNL     1       5.045   1.687   1.429  1.00  0.00     0.042 C 
BRANCH  71  72
ATOM     72  C   UNL     1       4.589   2.325   2.725  1.00  0.00     0.118 C 
BRANCH  72  73
ATOM     73  N   UNL     1       5.062   1.628   3.907  1.00  0.00    -0.351 N 
ATOM     74  C   UNL     1       5.724   2.133   4.994  1.00  0.00     0.268 C 
ATOM     75  H   UNL     1       4.883   0.660   3.930  1.00  0.00     0.163 HD
ATOM     76  O   UNL     1       6.181   1.337   5.814  1.00  0.00    -0.268 OA
BRANCH  74  77
ATOM     77  C   UNL     1       5.947   3.553   5.096  1.00  0.00     0.113 A 
ATOM     78  N   UNL     1       7.198   4.031   5.413  1.00  0.00    -0.350 N 
ATOM     79  C   UNL     1       5.114   4.664   4.969  1.00  0.00     0.020 A 
ATOM     80  C   UNL     1       7.253   5.393   5.266  1.00  0.00     0.047 A 
ATOM     81  H   UNL     1       7.952   3.470   5.707  1.00  0.00     0.167 HD
ATOM     82  C   UNL     1       5.953   5.826   5.004  1.00  0.00     0.010 A 
ATOM     83  C   UNL     1       8.348   6.260   5.349  1.00  0.00     0.028 A 
ATOM     84  C   UNL     1       5.732   7.208   4.830  1.00  0.00     0.031 A 
ATOM     85  C   UNL     1       8.107   7.621   5.146  1.00  0.00     0.022 A 
ATOM     86  C   UNL     1       6.819   8.084   4.892  1.00  0.00     0.041 A 
ATOM     87  Cl  UNL     1       6.560   9.768   4.638  1.00  0.00    -0.084 Cl
BRANCH  79  88
ATOM     88  C   UNL     1       3.680   4.574   4.705  1.00  0.00    -0.015 A 
ATOM     89  C   UNL     1       2.854   3.773   5.505  1.00  0.00     0.009 A 
ATOM     90  C   UNL     1       3.134   5.195   3.571  1.00  0.00     0.009 A 
ATOM     91  C   UNL     1       1.520   3.558   5.149  1.00  0.00     0.001 A 
ATOM     92  C   UNL     1       1.802   4.972   3.212  1.00  0.00     0.001 A 
ATOM     93  C   UNL     1       0.999   4.146   3.997  1.00  0.00     0.000 A 
ENDBRANCH  79  88
ENDBRANCH  74  77
ENDBRANCH  72  73
ENDBRANCH  71  72
ENDBRANCH   1  71
TORSDOF 11
