REMARK SMILES C[C@@H](C(=O)NCCCNC(=O)c1ccc(-c2c3nc(c(-c4c(F)c(F)c(F)c(F)c4F)c4ccc([nH]4)c(-c4c(F)c(F)c(F)c(F)c4F)c4nc(c(-c5c(F)c(F)c(F)c(F)c5F)c5ccc2[nH]5)C=C4)C=C3)cc1)c1ccc(C[SiH](C)C)cc1
REMARK SMILES IDX 6 1 5 2 3 3 4 4 2 6 1 7 75 8 76 9 84 10 77 11 83 12 78 13
REMARK SMILES IDX 79 14 80 15 81 16 82 17 7 19 8 20 9 21 10 22 11 24 12 25
REMARK SMILES IDX 13 26 74 27 14 28 73 29 15 30 16 31 17 32 67 33 18 34 72 35
REMARK SMILES IDX 66 36 68 37 19 38 71 39 65 40 64 41 20 43 52 44 32 45 51 46
REMARK SMILES IDX 33 47 36 48 50 49 69 50 34 51 35 52 49 54 70 55 37 56 21 57
REMARK SMILES IDX 22 58 30 59 23 60 24 61 28 62 31 63 25 64 26 65 29 66 27 67
REMARK SMILES IDX 53 68 54 69 62 70 55 71 56 72 60 73 63 74 57 75 58 76 61 77
REMARK SMILES IDX 59 78 38 79 39 80 47 81 40 82 41 83 45 84 48 85 42 86 43 87
REMARK SMILES IDX 46 88 44 89
REMARK H PARENT 5 5 80 18 9 23 68 42 36 53
REMARK Flexibility Score: inf
ROOT
ATOM      1  C   UNL     1       3.393  -1.792  -0.880  1.00  0.00     0.117 C 
ENDROOT
BRANCH   1   2
ATOM      2  N   UNL     1       2.364  -2.546  -0.188  1.00  0.00    -0.356 N 
ATOM      3  C   UNL     1       1.072  -2.218   0.117  1.00  0.00     0.227 C 
ATOM      4  O   UNL     1       0.519  -2.935   0.953  1.00  0.00    -0.274 OA
ATOM      5  H   UNL     1       2.642  -3.442   0.111  1.00  0.00     0.163 HD
BRANCH   3   6
ATOM      6  C   UNL     1       0.409  -0.996  -0.544  1.00  0.00     0.105 C 
ATOM      7  C   UNL     1       0.841   0.241   0.259  1.00  0.00     0.023 C 
BRANCH   6   8
ATOM      8  C   UNL     1      -1.119  -1.055  -0.688  1.00  0.00    -0.036 A 
ATOM      9  C   UNL     1      -1.848   0.118  -0.953  1.00  0.00     0.005 A 
ATOM     10  C   UNL     1      -1.849  -2.249  -0.592  1.00  0.00     0.005 A 
ATOM     11  C   UNL     1      -3.245   0.120  -0.983  1.00  0.00     0.004 A 
ATOM     12  C   UNL     1      -3.250  -2.248  -0.599  1.00  0.00     0.004 A 
ATOM     13  C   UNL     1      -3.962  -1.056  -0.752  1.00  0.00    -0.051 A 
BRANCH  13  14
ATOM     14  C   UNL     1      -5.467  -1.030  -0.628  1.00  0.00     0.021 C 
BRANCH  14  15
ATOM     15  Si  UNL     1      -6.128  -0.367   1.025  1.00  0.00     0.035 Si
ATOM     16  C   UNL     1      -5.563   1.387   1.319  1.00  0.00    -0.013 C 
ATOM     17  C   UNL     1      -7.992  -0.438   1.037  1.00  0.00    -0.013 C 
ATOM     18  H   UNL     1      -5.614  -1.184   2.067  1.00  0.00     0.014 H 
ENDBRANCH  14  15
ENDBRANCH  13  14
ENDBRANCH   6   8
ENDBRANCH   3   6
ENDBRANCH   1   2
BRANCH   1  19
ATOM     19  C   UNL     1       4.381  -1.147   0.097  1.00  0.00     0.042 C 
BRANCH  19  20
ATOM     20  C   UNL     1       5.120  -2.126   1.005  1.00  0.00     0.118 C 
BRANCH  20  21
ATOM     21  N   UNL     1       6.064  -2.959   0.282  1.00  0.00    -0.352 N 
ATOM     22  C   UNL     1       7.395  -3.188   0.522  1.00  0.00     0.251 C 
ATOM     23  H   UNL     1       5.693  -3.431  -0.498  1.00  0.00     0.163 HD
ATOM     24  O   UNL     1       8.059  -3.803  -0.312  1.00  0.00    -0.269 OA
BRANCH  22  25
ATOM     25  C   UNL     1       8.053  -2.695   1.754  1.00  0.00     0.039 A 
ATOM     26  C   UNL     1       9.354  -2.190   1.655  1.00  0.00     0.014 A 
ATOM     27  C   UNL     1       7.439  -2.781   3.008  1.00  0.00     0.014 A 
ATOM     28  C   UNL     1      10.022  -1.742   2.798  1.00  0.00     0.010 A 
ATOM     29  C   UNL     1       8.082  -2.276   4.139  1.00  0.00     0.010 A 
ATOM     30  C   UNL     1       9.385  -1.766   4.048  1.00  0.00    -0.014 A 
BRANCH  30  31
ATOM     31  C   UNL     1      10.088  -1.293   5.269  1.00  0.00     0.031 A 
ATOM     32  C   UNL     1      10.457  -2.266   6.356  1.00  0.00     0.074 A 
ATOM     33  C   UNL     1      10.364   0.016   5.420  1.00  0.00     0.049 A 
ATOM     34  N   UNL     1      11.039  -2.042   7.507  1.00  0.00    -0.248 NA
ATOM     35  C   UNL     1      10.103  -3.676   6.128  1.00  0.00     0.031 C 
ATOM     36  C   UNL     1      10.021   1.067   4.462  1.00  0.00     0.029 A 
ATOM     37  N   UNL     1      10.991   0.687   6.440  1.00  0.00    -0.354 N 
ATOM     38  C   UNL     1      11.102  -3.273   8.146  1.00  0.00     0.074 A 
ATOM     39  C   UNL     1      10.463  -4.235   7.274  1.00  0.00     0.031 C 
ATOM     40  C   UNL     1      10.459   2.247   4.930  1.00  0.00     0.029 A 
ATOM     41  C   UNL     1      11.090   2.040   6.230  1.00  0.00     0.049 A 
ATOM     42  H   UNL     1      11.337   0.240   7.246  1.00  0.00     0.167 HD
ATOM     43  C   UNL     1      11.661  -3.580   9.341  1.00  0.00     0.037 A 
ATOM     44  C   UNL     1      11.632   3.004   6.999  1.00  0.00     0.037 A 
ATOM     45  C   UNL     1      12.330  -2.633  10.194  1.00  0.00     0.049 A 
ATOM     46  C   UNL     1      12.274   2.633   8.308  1.00  0.00     0.074 A 
ATOM     47  C   UNL     1      12.978  -2.859  11.396  1.00  0.00     0.029 A 
ATOM     48  N   UNL     1      12.441  -1.276   9.928  1.00  0.00    -0.354 N 
ATOM     49  N   UNL     1      12.380   1.455   8.872  1.00  0.00    -0.248 NA
ATOM     50  C   UNL     1      12.881   3.726   9.081  1.00  0.00     0.031 C 
ATOM     51  C   UNL     1      13.457  -1.633  11.873  1.00  0.00     0.029 A 
ATOM     52  C   UNL     1      13.139  -0.651  10.950  1.00  0.00     0.049 A 
ATOM     53  H   UNL     1      12.079  -0.824   9.133  1.00  0.00     0.167 HD
ATOM     54  C   UNL     1      13.087   1.659  10.049  1.00  0.00     0.074 A 
ATOM     55  C   UNL     1      13.395   3.072  10.113  1.00  0.00     0.031 C 
ATOM     56  C   UNL     1      13.447   0.755  10.992  1.00  0.00     0.037 A 
BRANCH  43  57
ATOM     57  C   UNL     1      11.577  -5.006   9.798  1.00  0.00     0.064 A 
ATOM     58  C   UNL     1      12.342  -6.016   9.195  1.00  0.00     0.173 A 
ATOM     59  C   UNL     1      10.748  -5.363  10.872  1.00  0.00     0.173 A 
ATOM     60  F   UNL     1      13.140  -5.728   8.156  1.00  0.00    -0.203 F 
ATOM     61  C   UNL     1      12.259  -7.335   9.632  1.00  0.00     0.198 A 
ATOM     62  C   UNL     1      10.687  -6.679  11.324  1.00  0.00     0.198 A 
ATOM     63  F   UNL     1      10.001  -4.434  11.488  1.00  0.00    -0.203 F 
ATOM     64  F   UNL     1      12.964  -8.291   9.011  1.00  0.00    -0.200 F 
ATOM     65  C   UNL     1      11.437  -7.665  10.700  1.00  0.00     0.200 A 
ATOM     66  F   UNL     1       9.901  -6.994  12.363  1.00  0.00    -0.200 F 
ATOM     67  F   UNL     1      11.362  -8.934  11.122  1.00  0.00    -0.200 F 
ENDBRANCH  43  57
BRANCH  44  68
ATOM     68  C   UNL     1      11.625   4.412   6.530  1.00  0.00     0.064 A 
ATOM     69  C   UNL     1      12.807   5.031   6.099  1.00  0.00     0.173 A 
ATOM     70  C   UNL     1      10.443   5.166   6.503  1.00  0.00     0.173 A 
ATOM     71  F   UNL     1      13.964   4.354   6.128  1.00  0.00    -0.203 F 
ATOM     72  C   UNL     1      12.810   6.357   5.673  1.00  0.00     0.198 A 
ATOM     73  C   UNL     1      10.444   6.486   6.054  1.00  0.00     0.198 A 
ATOM     74  F   UNL     1       9.287   4.617   6.902  1.00  0.00    -0.203 F 
ATOM     75  F   UNL     1      13.960   6.936   5.303  1.00  0.00    -0.200 F 
ATOM     76  C   UNL     1      11.628   7.082   5.646  1.00  0.00     0.200 A 
ATOM     77  F   UNL     1       9.298   7.179   6.019  1.00  0.00    -0.200 F 
ATOM     78  F   UNL     1      11.631   8.356   5.233  1.00  0.00    -0.200 F 
ENDBRANCH  44  68
BRANCH  56  79
ATOM     79  C   UNL     1      14.246   1.261  12.156  1.00  0.00     0.064 A 
ATOM     80  C   UNL     1      13.656   2.021  13.176  1.00  0.00     0.173 A 
ATOM     81  C   UNL     1      15.610   0.952  12.268  1.00  0.00     0.173 A 
ATOM     82  F   UNL     1      12.359   2.354  13.105  1.00  0.00    -0.203 F 
ATOM     83  C   UNL     1      14.409   2.474  14.256  1.00  0.00     0.198 A 
ATOM     84  C   UNL     1      16.354   1.386  13.361  1.00  0.00     0.198 A 
ATOM     85  F   UNL     1      16.218   0.223  11.321  1.00  0.00    -0.203 F 
ATOM     86  F   UNL     1      13.836   3.236  15.198  1.00  0.00    -0.200 F 
ATOM     87  C   UNL     1      15.755   2.152  14.350  1.00  0.00     0.200 A 
ATOM     88  F   UNL     1      17.652   1.067  13.456  1.00  0.00    -0.200 F 
ATOM     89  F   UNL     1      16.478   2.587  15.392  1.00  0.00    -0.200 F 
ENDBRANCH  56  79
ENDBRANCH  30  31
ENDBRANCH  22  25
ENDBRANCH  20  21
ENDBRANCH  19  20
ENDBRANCH   1  19
TORSDOF 13
