REMARK SMILES O=C(NCCCNC(=O)[C@H]1CSCN1C(=O)Nc1ccc(F)cc1F)c1ccc(-c2c3nc(c(-c4c(F)c(F)c(F)c(F)c4F)c4ccc([nH]4)c(-c4c(F)c(F)c(F)c(F)c4F)c4nc(c(-c5c(F)c(F)c(F)c(F)c5F)c5ccc2[nH]5)C=C4)C=C3)cc1
REMARK SMILES IDX 5 1 4 2 3 3 1 4 2 5 26 7 27 8 88 9 28 10 87 11 29 12 30 13
REMARK SMILES IDX 31 14 81 15 32 16 86 17 80 18 82 19 33 20 85 21 79 22 78 23
REMARK SMILES IDX 34 25 66 26 46 27 65 28 47 29 50 30 64 31 83 32 48 33 49 34
REMARK SMILES IDX 63 36 84 37 51 38 35 39 36 40 44 41 37 42 38 43 42 44 45 45
REMARK SMILES IDX 39 46 40 47 43 48 41 49 67 50 68 51 76 52 69 53 70 54 74 55
REMARK SMILES IDX 77 56 71 57 72 58 75 59 73 60 52 61 53 62 61 63 54 64 55 65
REMARK SMILES IDX 59 66 62 67 56 68 57 69 60 70 58 71 6 72 7 73 8 74 9 76
REMARK SMILES IDX 10 77 11 78 14 79 12 80 13 81 15 82 16 83 17 84 18 86 19 87
REMARK SMILES IDX 24 88 20 89 23 90 25 91 21 92 22 93
REMARK H PARENT 3 6 82 24 50 35 7 75 17 85
REMARK Flexibility Score: inf
ROOT
ATOM      1  C   UNL     1       5.065  -1.895   0.705  1.00  0.00     0.042 C 
ENDROOT
BRANCH   1   2
ATOM      2  C   UNL     1       4.480  -1.252  -0.537  1.00  0.00     0.118 C 
BRANCH   2   3
ATOM      3  N   UNL     1       3.045  -1.020  -0.449  1.00  0.00    -0.352 N 
ATOM      4  O   UNL     1       1.111   0.040  -0.010  1.00  0.00    -0.269 OA
ATOM      5  C   UNL     1       2.319   0.119  -0.172  1.00  0.00     0.251 C 
ATOM      6  H   UNL     1       2.495  -1.819  -0.618  1.00  0.00     0.163 HD
BRANCH   5   7
ATOM      7  C   UNL     1       2.994   1.431  -0.032  1.00  0.00     0.039 A 
ATOM      8  C   UNL     1       4.045   1.792  -0.868  1.00  0.00     0.014 A 
ATOM      9  C   UNL     1       2.547   2.332   0.941  1.00  0.00     0.014 A 
ATOM     10  C   UNL     1       4.785   2.935  -0.600  1.00  0.00     0.010 A 
ATOM     11  C   UNL     1       3.206   3.555   1.119  1.00  0.00     0.010 A 
ATOM     12  C   UNL     1       4.357   3.849   0.374  1.00  0.00    -0.014 A 
BRANCH  12  13
ATOM     13  C   UNL     1       5.092   5.133   0.521  1.00  0.00     0.031 A 
ATOM     14  C   UNL     1       5.770   5.505   1.809  1.00  0.00     0.074 A 
ATOM     15  C   UNL     1       5.184   5.942  -0.554  1.00  0.00     0.049 A 
ATOM     16  N   UNL     1       6.462   6.581   2.091  1.00  0.00    -0.248 NA
ATOM     17  C   UNL     1       5.657   4.559   2.930  1.00  0.00     0.031 C 
ATOM     18  C   UNL     1       4.562   5.683  -1.856  1.00  0.00     0.029 A 
ATOM     19  N   UNL     1       5.856   7.123  -0.741  1.00  0.00    -0.354 N 
ATOM     20  C   UNL     1       6.846   6.452   3.419  1.00  0.00     0.074 A 
ATOM     21  C   UNL     1       6.294   5.204   3.899  1.00  0.00     0.031 C 
ATOM     22  C   UNL     1       4.937   6.632  -2.722  1.00  0.00     0.029 A 
ATOM     23  C   UNL     1       5.750   7.616  -2.020  1.00  0.00     0.049 A 
ATOM     24  H   UNL     1       6.364   7.574  -0.029  1.00  0.00     0.167 HD
ATOM     25  C   UNL     1       7.597   7.300   4.162  1.00  0.00     0.037 A 
ATOM     26  C   UNL     1       6.232   8.747  -2.566  1.00  0.00     0.037 A 
ATOM     27  C   UNL     1       8.165   8.528   3.665  1.00  0.00     0.049 A 
ATOM     28  C   UNL     1       7.038   9.678  -1.708  1.00  0.00     0.074 A 
ATOM     29  C   UNL     1       8.964   9.439   4.334  1.00  0.00     0.029 A 
ATOM     30  N   UNL     1       7.996   9.016   2.377  1.00  0.00    -0.354 N 
ATOM     31  N   UNL     1       7.400   9.537  -0.457  1.00  0.00    -0.248 NA
ATOM     32  C   UNL     1       7.490  10.928  -2.331  1.00  0.00     0.031 C 
ATOM     33  C   UNL     1       9.239  10.500   3.468  1.00  0.00     0.029 A 
ATOM     34  C   UNL     1       8.657  10.226   2.241  1.00  0.00     0.049 A 
ATOM     35  H   UNL     1       7.483   8.568   1.666  1.00  0.00     0.167 HD
ATOM     36  C   UNL     1       8.130  10.673  -0.143  1.00  0.00     0.074 A 
ATOM     37  C   UNL     1       8.181  11.482  -1.344  1.00  0.00     0.031 C 
ATOM     38  C   UNL     1       8.700  11.017   1.037  1.00  0.00     0.037 A 
BRANCH  25  39
ATOM     39  C   UNL     1       7.856   6.949   5.598  1.00  0.00     0.064 A 
ATOM     40  C   UNL     1       7.281   7.710   6.628  1.00  0.00     0.173 A 
ATOM     41  C   UNL     1       8.753   5.932   5.957  1.00  0.00     0.173 A 
ATOM     42  F   UNL     1       6.423   8.699   6.339  1.00  0.00    -0.203 F 
ATOM     43  C   UNL     1       7.610   7.479   7.962  1.00  0.00     0.198 A 
ATOM     44  C   UNL     1       9.060   5.688   7.294  1.00  0.00     0.198 A 
ATOM     45  F   UNL     1       9.322   5.170   5.012  1.00  0.00    -0.203 F 
ATOM     46  F   UNL     1       7.078   8.245   8.925  1.00  0.00    -0.200 F 
ATOM     47  C   UNL     1       8.499   6.468   8.293  1.00  0.00     0.200 A 
ATOM     48  F   UNL     1       9.905   4.697   7.615  1.00  0.00    -0.200 F 
ATOM     49  F   UNL     1       8.816   6.247   9.577  1.00  0.00    -0.200 F 
ENDBRANCH  25  39
BRANCH  26  50
ATOM     50  C   UNL     1       5.946   9.054  -3.991  1.00  0.00     0.064 A 
ATOM     51  C   UNL     1       4.640   9.322  -4.429  1.00  0.00     0.173 A 
ATOM     52  C   UNL     1       6.966   9.047  -4.951  1.00  0.00     0.173 A 
ATOM     53  F   UNL     1       3.626   9.334  -3.551  1.00  0.00    -0.203 F 
ATOM     54  C   UNL     1       4.362   9.544  -5.776  1.00  0.00     0.198 A 
ATOM     55  C   UNL     1       6.692   9.302  -6.293  1.00  0.00     0.198 A 
ATOM     56  F   UNL     1       8.234   8.813  -4.580  1.00  0.00    -0.203 F 
ATOM     57  F   UNL     1       3.099   9.750  -6.171  1.00  0.00    -0.200 F 
ATOM     58  C   UNL     1       5.389   9.540  -6.706  1.00  0.00     0.200 A 
ATOM     59  F   UNL     1       7.691   9.322  -7.186  1.00  0.00    -0.200 F 
ATOM     60  F   UNL     1       5.124   9.767  -7.999  1.00  0.00    -0.200 F 
ENDBRANCH  26  50
BRANCH  38  61
ATOM     61  C   UNL     1       9.444  12.318   1.088  1.00  0.00     0.064 A 
ATOM     62  C   UNL     1      10.842  12.332   1.202  1.00  0.00     0.173 A 
ATOM     63  C   UNL     1       8.768  13.546   1.091  1.00  0.00     0.173 A 
ATOM     64  F   UNL     1      11.532  11.182   1.211  1.00  0.00    -0.203 F 
ATOM     65  C   UNL     1      11.535  13.532   1.332  1.00  0.00     0.198 A 
ATOM     66  C   UNL     1       9.468  14.745   1.192  1.00  0.00     0.198 A 
ATOM     67  F   UNL     1       7.433  13.582   0.969  1.00  0.00    -0.203 F 
ATOM     68  F   UNL     1      12.868  13.521   1.474  1.00  0.00    -0.200 F 
ATOM     69  C   UNL     1      10.849  14.736   1.323  1.00  0.00     0.200 A 
ATOM     70  F   UNL     1       8.806  15.909   1.157  1.00  0.00    -0.200 F 
ATOM     71  F   UNL     1      11.519  15.891   1.436  1.00  0.00    -0.200 F 
ENDBRANCH  38  61
ENDBRANCH  12  13
ENDBRANCH   5   7
ENDBRANCH   2   3
ENDBRANCH   1   2
BRANCH   1  72
ATOM     72  C   UNL     1       4.605  -3.314   0.969  1.00  0.00     0.117 C 
BRANCH  72  73
ATOM     73  N   UNL     1       4.779  -4.247  -0.131  1.00  0.00    -0.354 N 
ATOM     74  C   UNL     1       5.059  -5.594  -0.069  1.00  0.00     0.243 C 
ATOM     75  H   UNL     1       4.686  -3.869  -1.034  1.00  0.00     0.163 HD
ATOM     76  O   UNL     1       4.766  -6.277  -1.051  1.00  0.00    -0.273 OA
BRANCH  74  77
ATOM     77  C   UNL     1       5.719  -6.163   1.209  1.00  0.00     0.187 C 
ATOM     78  C   UNL     1       4.712  -6.066   2.376  1.00  0.00     0.106 C 
ATOM     79  N   UNL     1       6.159  -7.567   1.171  1.00  0.00    -0.302 N 
ATOM     80  S   UNL     1       4.966  -7.486   3.462  1.00  0.00    -0.138 SA
ATOM     81  C   UNL     1       6.378  -8.052   2.518  1.00  0.00     0.192 C 
BRANCH  79  82
ATOM     82  C   UNL     1       6.921  -8.050   0.129  1.00  0.00     0.323 C 
ATOM     83  O   UNL     1       7.524  -7.302  -0.639  1.00  0.00    -0.248 OA
ATOM     84  N   UNL     1       7.088  -9.408   0.018  1.00  0.00    -0.305 N 
ATOM     85  H   UNL     1       7.818  -9.693  -0.579  1.00  0.00     0.171 HD
BRANCH  84  86
ATOM     86  C   UNL     1       6.371 -10.455   0.630  1.00  0.00     0.079 A 
ATOM     87  C   UNL     1       5.007 -10.363   0.932  1.00  0.00     0.032 A 
ATOM     88  C   UNL     1       7.100 -11.560   1.090  1.00  0.00     0.149 A 
ATOM     89  C   UNL     1       4.426 -11.289   1.802  1.00  0.00     0.041 A 
ATOM     90  C   UNL     1       6.532 -12.472   1.972  1.00  0.00     0.080 A 
ATOM     91  F   UNL     1       8.406 -11.664   0.800  1.00  0.00    -0.205 F 
ATOM     92  C   UNL     1       5.203 -12.311   2.340  1.00  0.00     0.126 A 
ATOM     93  F   UNL     1       4.667 -13.136   3.248  1.00  0.00    -0.207 F 
ENDBRANCH  84  86
ENDBRANCH  79  82
ENDBRANCH  74  77
ENDBRANCH  72  73
ENDBRANCH   1  72
TORSDOF 12
