REMARK SMILES CC(C)(C)c1cc(Nc2ccccc2C(=O)NCCCNC(=O)c2ccc(-c3c4nc(c(-c5c(F)c(F)c(F)c(F)c5F)c5ccc([nH]5)c(-c5c(F)c(F)c(F)c(F)c5F)c5nc(c(-c6c(F)c(F)c(F)c(F)c6F)c6ccc3[nH]6)C=C5)C=C4)cc2)cc2c1OCC2(C)C
REMARK SMILES IDX 18 1 17 2 15 3 16 4 14 6 9 7 10 8 11 9 13 10 12 11 8 12 7 14
REMARK SMILES IDX 5 15 6 16 89 17 88 18 90 19 87 20 92 21 91 22 93 23 94 24
REMARK SMILES IDX 2 25 1 26 3 27 4 28 19 29 20 30 21 31 22 32 23 34 24 35
REMARK SMILES IDX 25 36 86 37 26 38 85 39 27 40 28 41 29 42 79 43 30 44 84 45
REMARK SMILES IDX 78 46 80 47 31 48 83 49 77 50 76 51 32 53 64 54 44 55 63 56
REMARK SMILES IDX 45 57 48 58 62 59 81 60 46 61 47 62 61 64 82 65 49 66 33 67
REMARK SMILES IDX 34 68 42 69 35 70 36 71 40 72 43 73 37 74 38 75 41 76 39 77
REMARK SMILES IDX 65 78 66 79 74 80 67 81 68 82 72 83 75 84 69 85 70 86 73 87
REMARK SMILES IDX 71 88 50 89 51 90 59 91 52 92 53 93 57 94 60 95 54 96 55 97
REMARK SMILES IDX 58 98 56 99
REMARK H PARENT 17 5 8 13 21 33 80 52 48 63
REMARK Flexibility Score: inf
ROOT
ATOM      1  C   UNL     1       0.953   5.158  -0.367  1.00  0.00     0.118 C 
ENDROOT
BRANCH   1   2
ATOM      2  N   UNL     1       1.914   6.144  -0.806  1.00  0.00    -0.352 N 
ATOM      3  C   UNL     1       2.270   6.727  -1.991  1.00  0.00     0.253 C 
ATOM      4  O   UNL     1       3.248   7.481  -1.873  1.00  0.00    -0.269 OA
ATOM      5  H   UNL     1       2.453   6.485  -0.057  1.00  0.00     0.163 HD
BRANCH   3   6
ATOM      6  C   UNL     1       1.620   6.631  -3.348  1.00  0.00     0.063 A 
ATOM      7  C   UNL     1       0.701   5.704  -3.873  1.00  0.00     0.051 A 
ATOM      8  C   UNL     1       0.192   5.889  -5.187  1.00  0.00     0.027 A 
ATOM      9  C   UNL     1       0.668   6.885  -6.032  1.00  0.00     0.002 A 
ATOM     10  C   UNL     1       2.083   7.634  -4.244  1.00  0.00     0.016 A 
ATOM     11  C   UNL     1       1.638   7.749  -5.565  1.00  0.00     0.001 A 
BRANCH   7  12
ATOM     12  N   UNL     1       0.261   4.536  -3.217  1.00  0.00    -0.355 N 
ATOM     13  H   UNL     1      -0.339   4.648  -2.445  1.00  0.00     0.167 HD
BRANCH  12  14
ATOM     14  C   UNL     1       0.613   3.215  -3.582  1.00  0.00     0.039 A 
ATOM     15  C   UNL     1       0.487   0.788  -3.072  1.00  0.00     0.002 A 
ATOM     16  C   UNL     1       0.080   2.128  -2.861  1.00  0.00     0.034 A 
ATOM     17  C   UNL     1       1.406   0.596  -4.101  1.00  0.00     0.127 A 
ATOM     18  C   UNL     1       1.932   1.655  -4.829  1.00  0.00     0.006 A 
ATOM     19  O   UNL     1       1.879  -0.614  -4.536  1.00  0.00    -0.492 OA
ATOM     20  C   UNL     1       1.581   2.962  -4.553  1.00  0.00     0.034 A 
ATOM     21  C   UNL     1       2.820   1.160  -5.919  1.00  0.00     0.028 C 
ATOM     22  C   UNL     1       2.926  -0.312  -5.487  1.00  0.00     0.240 C 
ATOM     23  C   UNL     1       2.110   1.310  -7.271  1.00  0.00     0.020 C 
ATOM     24  C   UNL     1       4.187   1.845  -5.952  1.00  0.00     0.020 C 
BRANCH  15  25
ATOM     25  C   UNL     1      -0.001  -0.312  -2.120  1.00  0.00    -0.009 C 
ATOM     26  C   UNL     1       0.689  -0.093  -0.759  1.00  0.00     0.016 C 
ATOM     27  C   UNL     1       0.317  -1.751  -2.571  1.00  0.00     0.016 C 
ATOM     28  C   UNL     1      -1.529  -0.251  -1.899  1.00  0.00     0.016 C 
ENDBRANCH  15  25
ENDBRANCH  12  14
ENDBRANCH   7  12
ENDBRANCH   3   6
ENDBRANCH   1   2
BRANCH   1  29
ATOM     29  C   UNL     1       1.593   3.775  -0.282  1.00  0.00     0.042 C 
BRANCH  29  30
ATOM     30  C   UNL     1       2.224   3.456   1.071  1.00  0.00     0.118 C 
BRANCH  30  31
ATOM     31  N   UNL     1       1.223   3.184   2.103  1.00  0.00    -0.352 N 
ATOM     32  C   UNL     1       0.830   2.037   2.752  1.00  0.00     0.251 C 
ATOM     33  H   UNL     1       0.731   3.986   2.392  1.00  0.00     0.163 HD
ATOM     34  O   UNL     1      -0.187   2.082   3.446  1.00  0.00    -0.269 OA
BRANCH  32  35
ATOM     35  C   UNL     1       1.555   0.746   2.627  1.00  0.00     0.039 A 
ATOM     36  C   UNL     1       2.930   0.680   2.424  1.00  0.00     0.014 A 
ATOM     37  C   UNL     1       0.836  -0.453   2.758  1.00  0.00     0.014 A 
ATOM     38  C   UNL     1       3.540  -0.542   2.148  1.00  0.00     0.010 A 
ATOM     39  C   UNL     1       1.470  -1.693   2.589  1.00  0.00     0.010 A 
ATOM     40  C   UNL     1       2.821  -1.748   2.225  1.00  0.00    -0.014 A 
BRANCH  40  41
ATOM     41  C   UNL     1       3.540  -3.028   1.981  1.00  0.00     0.031 A 
ATOM     42  C   UNL     1       3.234  -3.900   0.794  1.00  0.00     0.074 A 
ATOM     43  C   UNL     1       4.562  -3.357   2.793  1.00  0.00     0.049 A 
ATOM     44  N   UNL     1       3.916  -4.912   0.311  1.00  0.00    -0.248 NA
ATOM     45  C   UNL     1       2.014  -3.598   0.040  1.00  0.00     0.031 C 
ATOM     46  C   UNL     1       4.963  -2.604   3.982  1.00  0.00     0.029 A 
ATOM     47  N   UNL     1       5.470  -4.383   2.724  1.00  0.00    -0.354 N 
ATOM     48  C   UNL     1       3.241  -5.313  -0.835  1.00  0.00     0.074 A 
ATOM     49  C   UNL     1       2.062  -4.487  -0.941  1.00  0.00     0.031 C 
ATOM     50  C   UNL     1       6.069  -3.157   4.497  1.00  0.00     0.029 A 
ATOM     51  C   UNL     1       6.421  -4.337   3.712  1.00  0.00     0.049 A 
ATOM     52  H   UNL     1       5.441  -5.085   2.034  1.00  0.00     0.167 HD
ATOM     53  C   UNL     1       3.575  -6.276  -1.726  1.00  0.00     0.037 A 
ATOM     54  C   UNL     1       7.457  -5.156   3.968  1.00  0.00     0.037 A 
ATOM     55  C   UNL     1       4.687  -7.173  -1.568  1.00  0.00     0.049 A 
ATOM     56  C   UNL     1       7.713  -6.322   3.058  1.00  0.00     0.074 A 
ATOM     57  C   UNL     1       5.088  -8.207  -2.396  1.00  0.00     0.029 A 
ATOM     58  N   UNL     1       5.550  -7.169  -0.483  1.00  0.00    -0.354 N 
ATOM     59  N   UNL     1       7.112  -6.642   1.939  1.00  0.00    -0.248 NA
ATOM     60  C   UNL     1       8.783  -7.246   3.453  1.00  0.00     0.031 C 
ATOM     61  C   UNL     1       6.150  -8.873  -1.775  1.00  0.00     0.029 A 
ATOM     62  C   UNL     1       6.447  -8.218  -0.590  1.00  0.00     0.049 A 
ATOM     63  H   UNL     1       5.527  -6.517   0.254  1.00  0.00     0.167 HD
ATOM     64  C   UNL     1       7.733  -7.798   1.489  1.00  0.00     0.074 A 
ATOM     65  C   UNL     1       8.772  -8.113   2.449  1.00  0.00     0.031 C 
ATOM     66  C   UNL     1       7.465  -8.530   0.381  1.00  0.00     0.037 A 
BRANCH  53  67
ATOM     67  C   UNL     1       2.717  -6.424  -2.949  1.00  0.00     0.064 A 
ATOM     68  C   UNL     1       2.806  -5.512  -4.012  1.00  0.00     0.173 A 
ATOM     69  C   UNL     1       1.854  -7.520  -3.092  1.00  0.00     0.173 A 
ATOM     70  F   UNL     1       3.615  -4.446  -3.921  1.00  0.00    -0.203 F 
ATOM     71  C   UNL     1       2.058  -5.691  -5.174  1.00  0.00     0.198 A 
ATOM     72  C   UNL     1       1.121  -7.705  -4.262  1.00  0.00     0.198 A 
ATOM     73  F   UNL     1       1.735  -8.421  -2.106  1.00  0.00    -0.203 F 
ATOM     74  F   UNL     1       2.151  -4.803  -6.173  1.00  0.00    -0.200 F 
ATOM     75  C   UNL     1       1.223  -6.791  -5.301  1.00  0.00     0.200 A 
ATOM     76  F   UNL     1       0.322  -8.774  -4.388  1.00  0.00    -0.200 F 
ATOM     77  F   UNL     1       0.517  -6.973  -6.426  1.00  0.00    -0.200 F 
ENDBRANCH  53  67
BRANCH  54  78
ATOM     78  C   UNL     1       8.314  -4.885   5.149  1.00  0.00     0.064 A 
ATOM     79  C   UNL     1       9.631  -4.434   5.001  1.00  0.00     0.173 A 
ATOM     80  C   UNL     1       7.805  -5.007   6.452  1.00  0.00     0.173 A 
ATOM     81  F   UNL     1      10.166  -4.320   3.776  1.00  0.00    -0.203 F 
ATOM     82  C   UNL     1      10.405  -4.105   6.112  1.00  0.00     0.198 A 
ATOM     83  C   UNL     1       8.569  -4.651   7.559  1.00  0.00     0.198 A 
ATOM     84  F   UNL     1       6.548  -5.433   6.644  1.00  0.00    -0.203 F 
ATOM     85  F   UNL     1      11.668  -3.690   5.946  1.00  0.00    -0.200 F 
ATOM     86  C   UNL     1       9.869  -4.201   7.388  1.00  0.00     0.200 A 
ATOM     87  F   UNL     1       8.040  -4.727   8.788  1.00  0.00    -0.200 F 
ATOM     88  F   UNL     1      10.605  -3.858   8.454  1.00  0.00    -0.200 F 
ENDBRANCH  54  78
BRANCH  66  89
ATOM     89  C   UNL     1       8.298  -9.753   0.142  1.00  0.00     0.064 A 
ATOM     90  C   UNL     1       8.127 -10.913   0.910  1.00  0.00     0.173 A 
ATOM     91  C   UNL     1       9.229  -9.788  -0.907  1.00  0.00     0.173 A 
ATOM     92  F   UNL     1       7.258 -10.924   1.932  1.00  0.00    -0.203 F 
ATOM     93  C   UNL     1       8.869 -12.061   0.645  1.00  0.00     0.198 A 
ATOM     94  C   UNL     1       9.949 -10.945  -1.187  1.00  0.00     0.198 A 
ATOM     95  F   UNL     1       9.423  -8.705  -1.676  1.00  0.00    -0.203 F 
ATOM     96  F   UNL     1       8.714 -13.148   1.413  1.00  0.00    -0.200 F 
ATOM     97  C   UNL     1       9.771 -12.079  -0.408  1.00  0.00     0.200 A 
ATOM     98  F   UNL     1      10.809 -10.966  -2.214  1.00  0.00    -0.200 F 
ATOM     99  F   UNL     1      10.474 -13.189  -0.670  1.00  0.00    -0.200 F 
ENDBRANCH  66  89
ENDBRANCH  40  41
ENDBRANCH  32  35
ENDBRANCH  30  31
ENDBRANCH  29  30
ENDBRANCH   1  29
TORSDOF 13
