REMARK SMILES CC[C@H]1CCCC[N@H+]1[C@@H]1CC(=O)N(c2nc(CC(=O)NCCCNC(=O)c3ccc(-c4c5nc(c(-c6c(F)c(F)c(F)c(F)c6F)c6ccc([nH]6)c(-c6c(F)c(F)c(F)c(F)c6F)c6nc(c(-c7c(F)c(F)c(F)c(F)c7F)c7ccc4[nH]7)C=C6)C=C5)cc3)cs2)C1=O
REMARK SMILES IDX 21 1 20 2 18 3 19 4 17 6 16 7 14 8 15 9 91 10 90 11 13 12
REMARK SMILES IDX 9 13 10 14 92 15 11 16 93 17 12 18 8 19 3 20 4 21 5 22 7 23
REMARK SMILES IDX 6 25 2 26 1 27 22 28 23 29 24 30 25 31 26 33 27 34 28 35
REMARK SMILES IDX 89 36 29 37 88 38 30 39 31 40 32 41 82 42 33 43 87 44 81 45
REMARK SMILES IDX 83 46 34 47 86 48 80 49 79 50 35 52 67 53 47 54 66 55 48 56
REMARK SMILES IDX 51 57 65 58 84 59 49 60 50 61 64 63 85 64 52 65 36 66 37 67
REMARK SMILES IDX 45 68 38 69 39 70 43 71 46 72 40 73 41 74 44 75 42 76 68 77
REMARK SMILES IDX 69 78 77 79 70 80 71 81 75 82 78 83 72 84 73 85 76 86 74 87
REMARK SMILES IDX 53 88 54 89 62 90 55 91 56 92 60 93 63 94 57 95 58 96 61 97
REMARK SMILES IDX 59 98
REMARK H PARENT 20 5 8 24 24 32 83 51 51 62
REMARK Flexibility Score: inf
ROOT
ATOM      1  C   UNL     1      -0.197   9.748  -1.765  1.00  0.00     0.117 C 
ENDROOT
BRANCH   1   2
ATOM      2  N   UNL     1       0.305  10.956  -2.398  1.00  0.00    -0.356 N 
ATOM      3  C   UNL     1       0.640  11.176  -3.705  1.00  0.00     0.226 C 
ATOM      4  O   UNL     1       1.106  12.277  -4.008  1.00  0.00    -0.275 OA
ATOM      5  H   UNL     1       0.422  11.728  -1.799  1.00  0.00     0.163 HD
BRANCH   3   6
ATOM      6  C   UNL     1       0.414  10.105  -4.753  1.00  0.00     0.157 C 
BRANCH   6   7
ATOM      7  C   UNL     1       1.325   8.941  -4.572  1.00  0.00     0.063 A 
ATOM      8  C   UNL     1       1.626   6.795  -4.066  1.00  0.00     0.199 A 
ATOM      9  N   UNL     1       0.735   7.722  -4.325  1.00  0.00    -0.224 NA
ATOM     10  S   UNL     1       3.248   7.323  -4.159  1.00  0.00    -0.104 S 
ATOM     11  C   UNL     1       2.706   8.901  -4.591  1.00  0.00     0.093 A 
BRANCH   8  12
ATOM     12  N   UNL     1       1.289   5.501  -3.751  1.00  0.00    -0.219 N 
ATOM     13  C   UNL     1       1.106   3.408  -2.709  1.00  0.00     0.285 C 
ATOM     14  C   UNL     1      -0.108   3.662  -3.588  1.00  0.00     0.176 C 
ATOM     15  C   UNL     1       2.004   4.632  -2.963  1.00  0.00     0.294 C 
ATOM     16  C   UNL     1       0.065   5.029  -4.131  1.00  0.00     0.242 C 
ATOM     17  O   UNL     1       3.096   4.803  -2.440  1.00  0.00    -0.267 OA
ATOM     18  O   UNL     1      -0.785   5.530  -4.858  1.00  0.00    -0.274 OA
BRANCH  13  19
ATOM     19  N   UNL     1       1.791   2.103  -2.871  1.00  0.00    -0.322 N 
ATOM     20  C   UNL     1       1.005   0.915  -2.427  1.00  0.00     0.184 C 
ATOM     21  C   UNL     1       1.914  -0.331  -2.442  1.00  0.00     0.065 C 
ATOM     22  C   UNL     1       2.521  -0.569  -3.818  1.00  0.00     0.012 C 
ATOM     23  C   UNL     1       2.466   1.931  -4.165  1.00  0.00     0.263 C 
ATOM     24  H   UNL     1       2.551   2.151  -2.192  1.00  0.00     0.349 HD
ATOM     25  C   UNL     1       3.317   0.660  -4.227  1.00  0.00     0.062 C 
BRANCH  20  26
ATOM     26  C   UNL     1      -0.326   0.676  -3.189  1.00  0.00     0.061 C 
ATOM     27  C   UNL     1      -1.080  -0.601  -2.847  1.00  0.00     0.010 C 
ENDBRANCH  20  26
ENDBRANCH  13  19
ENDBRANCH   8  12
ENDBRANCH   6   7
ENDBRANCH   3   6
ENDBRANCH   1   2
BRANCH   1  28
ATOM     28  C   UNL     1       0.897   8.982  -1.021  1.00  0.00     0.042 C 
BRANCH  28  29
ATOM     29  C   UNL     1       1.517   9.736   0.153  1.00  0.00     0.118 C 
BRANCH  29  30
ATOM     30  N   UNL     1       0.569   9.986   1.228  1.00  0.00    -0.352 N 
ATOM     31  C   UNL     1       0.612   9.641   2.555  1.00  0.00     0.251 C 
ATOM     32  H   UNL     1      -0.236  10.485   0.958  1.00  0.00     0.163 HD
ATOM     33  O   UNL     1      -0.388   9.808   3.250  1.00  0.00    -0.269 OA
BRANCH  31  34
ATOM     34  C   UNL     1       1.828   9.052   3.160  1.00  0.00     0.039 A 
ATOM     35  C   UNL     1       1.673   8.031   4.104  1.00  0.00     0.014 A 
ATOM     36  C   UNL     1       3.108   9.517   2.849  1.00  0.00     0.014 A 
ATOM     37  C   UNL     1       2.797   7.438   4.685  1.00  0.00     0.010 A 
ATOM     38  C   UNL     1       4.231   8.873   3.370  1.00  0.00     0.010 A 
ATOM     39  C   UNL     1       4.088   7.829   4.295  1.00  0.00    -0.014 A 
BRANCH  39  40
ATOM     40  C   UNL     1       5.288   7.135   4.831  1.00  0.00     0.031 A 
ATOM     41  C   UNL     1       6.299   7.874   5.661  1.00  0.00     0.074 A 
ATOM     42  C   UNL     1       5.501   5.843   4.512  1.00  0.00     0.049 A 
ATOM     43  N   UNL     1       7.424   7.443   6.177  1.00  0.00    -0.248 NA
ATOM     44  C   UNL     1       6.026   9.295   5.921  1.00  0.00     0.031 C 
ATOM     45  C   UNL     1       4.632   5.033   3.658  1.00  0.00     0.029 A 
ATOM     46  N   UNL     1       6.522   4.991   4.852  1.00  0.00    -0.354 N 
ATOM     47  C   UNL     1       7.997   8.539   6.808  1.00  0.00     0.074 A 
ATOM     48  C   UNL     1       7.124   9.668   6.563  1.00  0.00     0.031 C 
ATOM     49  C   UNL     1       5.147   3.799   3.551  1.00  0.00     0.029 A 
ATOM     50  C   UNL     1       6.401   3.741   4.296  1.00  0.00     0.049 A 
ATOM     51  H   UNL     1       7.269   5.250   5.439  1.00  0.00     0.167 HD
ATOM     52  C   UNL     1       9.136   8.596   7.541  1.00  0.00     0.037 A 
ATOM     53  C   UNL     1       7.215   2.670   4.364  1.00  0.00     0.037 A 
ATOM     54  C   UNL     1       9.996   7.466   7.790  1.00  0.00     0.049 A 
ATOM     55  C   UNL     1       8.469   2.751   5.190  1.00  0.00     0.074 A 
ATOM     56  C   UNL     1      11.128   7.401   8.583  1.00  0.00     0.029 A 
ATOM     57  N   UNL     1       9.828   6.206   7.232  1.00  0.00    -0.354 N 
ATOM     58  N   UNL     1       8.952   3.766   5.863  1.00  0.00    -0.248 NA
ATOM     59  C   UNL     1       9.284   1.532   5.275  1.00  0.00     0.031 C 
ATOM     60  C   UNL     1      11.680   6.121   8.456  1.00  0.00     0.029 A 
ATOM     61  C   UNL     1      10.856   5.366   7.636  1.00  0.00     0.049 A 
ATOM     62  H   UNL     1       9.087   5.946   6.638  1.00  0.00     0.167 HD
ATOM     63  C   UNL     1      10.117   3.308   6.463  1.00  0.00     0.074 A 
ATOM     64  C   UNL     1      10.255   1.915   6.093  1.00  0.00     0.031 C 
ATOM     65  C   UNL     1      10.993   3.983   7.249  1.00  0.00     0.037 A 
BRANCH  52  66
ATOM     66  C   UNL     1       9.525   9.931   8.113  1.00  0.00     0.064 A 
ATOM     67  C   UNL     1       8.766  10.559   9.114  1.00  0.00     0.173 A 
ATOM     68  C   UNL     1      10.678  10.590   7.660  1.00  0.00     0.173 A 
ATOM     69  F   UNL     1       7.650   9.978   9.580  1.00  0.00    -0.203 F 
ATOM     70  C   UNL     1       9.120  11.815   9.603  1.00  0.00     0.198 A 
ATOM     71  C   UNL     1      11.049  11.829   8.178  1.00  0.00     0.198 A 
ATOM     72  F   UNL     1      11.448  10.034   6.713  1.00  0.00    -0.203 F 
ATOM     73  F   UNL     1       8.340  12.423  10.508  1.00  0.00    -0.200 F 
ATOM     74  C   UNL     1      10.263  12.446   9.139  1.00  0.00     0.200 A 
ATOM     75  F   UNL     1      12.164  12.430   7.740  1.00  0.00    -0.200 F 
ATOM     76  F   UNL     1      10.601  13.654   9.609  1.00  0.00    -0.200 F 
ENDBRANCH  52  66
BRANCH  53  77
ATOM     77  C   UNL     1       6.849   1.429   3.634  1.00  0.00     0.064 A 
ATOM     78  C   UNL     1       6.431   0.281   4.320  1.00  0.00     0.173 A 
ATOM     79  C   UNL     1       6.876   1.379   2.232  1.00  0.00     0.173 A 
ATOM     80  F   UNL     1       6.408   0.274   5.661  1.00  0.00    -0.203 F 
ATOM     81  C   UNL     1       6.062  -0.873   3.633  1.00  0.00     0.198 A 
ATOM     82  C   UNL     1       6.478   0.234   1.545  1.00  0.00     0.198 A 
ATOM     83  F   UNL     1       7.265   2.453   1.530  1.00  0.00    -0.203 F 
ATOM     84  F   UNL     1       5.699  -1.969   4.314  1.00  0.00    -0.200 F 
ATOM     85  C   UNL     1       6.077  -0.893   2.246  1.00  0.00     0.200 A 
ATOM     86  F   UNL     1       6.479   0.224   0.205  1.00  0.00    -0.200 F 
ATOM     87  F   UNL     1       5.706  -1.998   1.585  1.00  0.00    -0.200 F 
ENDBRANCH  53  77
BRANCH  65  88
ATOM     88  C   UNL     1      12.174   3.218   7.776  1.00  0.00     0.064 A 
ATOM     89  C   UNL     1      13.216   2.797   6.935  1.00  0.00     0.173 A 
ATOM     90  C   UNL     1      12.280   2.926   9.145  1.00  0.00     0.173 A 
ATOM     91  F   UNL     1      13.158   3.037   5.616  1.00  0.00    -0.203 F 
ATOM     92  C   UNL     1      14.303   2.087   7.440  1.00  0.00     0.198 A 
ATOM     93  C   UNL     1      13.385   2.247   9.651  1.00  0.00     0.198 A 
ATOM     94  F   UNL     1      11.316   3.310   9.995  1.00  0.00    -0.203 F 
ATOM     95  F   UNL     1      15.258   1.648   6.609  1.00  0.00    -0.200 F 
ATOM     96  C   UNL     1      14.390   1.819   8.798  1.00  0.00     0.200 A 
ATOM     97  F   UNL     1      13.474   2.002  10.966  1.00  0.00    -0.200 F 
ATOM     98  F   UNL     1      15.440   1.142   9.283  1.00  0.00    -0.200 F 
ENDBRANCH  65  88
ENDBRANCH  39  40
ENDBRANCH  31  34
ENDBRANCH  29  30
ENDBRANCH  28  29
ENDBRANCH   1  28
TORSDOF 14
