REMARK SMILES CC(=O)N[C@@H](CCC(=O)NCCCNC(=O)c1ccc(-c2c3nc(c(-c4c(F)c(F)c(F)c(F)c4F)c4ccc([nH]4)c(-c4c(F)c(F)c(F)c(F)c4F)c4nc(c(-c5c(F)c(F)c(F)c(F)c5F)c5ccc2[nH]5)C=C4)C=C3)cc1)Cc1nc(C)ccc1O
REMARK SMILES IDX 8 1 9 2 10 3 7 5 6 6 5 7 4 8 1 9 2 10 3 11 80 13 81 14 82 15
REMARK SMILES IDX 87 16 83 17 86 18 84 19 85 20 88 21 11 23 12 24 13 25 14 26
REMARK SMILES IDX 15 27 16 29 17 30 18 31 79 32 19 33 78 34 20 35 21 36 22 37
REMARK SMILES IDX 72 38 23 39 77 40 71 41 73 42 24 43 76 44 70 45 69 46 25 48
REMARK SMILES IDX 57 49 37 50 56 51 38 52 41 53 55 54 74 55 39 56 40 57 54 59
REMARK SMILES IDX 75 60 42 61 26 62 27 63 35 64 28 65 29 66 33 67 36 68 30 69
REMARK SMILES IDX 31 70 34 71 32 72 58 73 59 74 67 75 60 76 61 77 65 78 68 79
REMARK SMILES IDX 62 80 63 81 66 82 64 83 43 84 44 85 52 86 45 87 46 88 50 89
REMARK SMILES IDX 53 90 47 91 48 92 51 93 49 94
REMARK H PARENT 10 4 4 12 88 22 14 28 73 47 41 58
REMARK Flexibility Score: inf
ROOT
ATOM      1  C   UNL     1       1.835   4.567   3.633  1.00  0.00     0.220 C 
ATOM      2  O   UNL     1       2.695   4.529   4.515  1.00  0.00    -0.275 OA
ATOM      3  N   UNL     1       0.610   5.060   3.958  1.00  0.00    -0.356 N 
ATOM      4  H   UNL     1       0.559   5.458   4.857  1.00  0.00     0.163 HD
ENDROOT
BRANCH   1   5
ATOM      5  C   UNL     1       2.150   4.135   2.216  1.00  0.00     0.102 C 
BRANCH   5   6
ATOM      6  C   UNL     1       2.795   2.738   2.112  1.00  0.00     0.035 C 
BRANCH   6   7
ATOM      7  C   UNL     1       1.852   1.545   1.809  1.00  0.00     0.088 C 
BRANCH   7   8
ATOM      8  N   UNL     1       0.978   1.868   0.677  1.00  0.00    -0.353 N 
ATOM      9  C   UNL     1       1.238  -0.257  -0.549  1.00  0.00     0.114 C 
ATOM     10  C   UNL     1       0.622   1.102  -0.391  1.00  0.00     0.217 C 
ATOM     11  O   UNL     1      -0.187   1.548  -1.206  1.00  0.00    -0.275 OA
ATOM     12  H   UNL     1       0.590   2.773   0.692  1.00  0.00     0.163 HD
ENDBRANCH   7   8
BRANCH   7  13
ATOM     13  C   UNL     1       1.114   1.056   3.078  1.00  0.00     0.085 C 
BRANCH  13  14
ATOM     14  C   UNL     1      -0.081   0.170   2.820  1.00  0.00     0.084 A 
ATOM     15  N   UNL     1      -1.219   0.809   2.440  1.00  0.00    -0.254 NA
ATOM     16  C   UNL     1      -0.032  -1.211   2.927  1.00  0.00     0.137 A 
ATOM     17  C   UNL     1      -2.321   0.091   2.137  1.00  0.00     0.038 A 
ATOM     18  C   UNL     1      -1.166  -1.949   2.603  1.00  0.00     0.050 A 
ATOM     19  C   UNL     1      -3.519   0.863   1.673  1.00  0.00     0.067 C 
ATOM     20  C   UNL     1      -2.329  -1.293   2.200  1.00  0.00     0.027 A 
BRANCH  16  21
ATOM     21  O   UNL     1       1.115  -1.834   3.317  1.00  0.00    -0.506 OA
ATOM     22  H   UNL     1       1.873  -1.328   3.533  1.00  0.00     0.293 HD
ENDBRANCH  16  21
ENDBRANCH  13  14
ENDBRANCH   7  13
ENDBRANCH   6   7
ENDBRANCH   5   6
ENDBRANCH   1   5
BRANCH   3  23
ATOM     23  C   UNL     1      -0.638   5.104   3.214  1.00  0.00     0.117 C 
BRANCH  23  24
ATOM     24  C   UNL     1      -1.395   3.777   3.245  1.00  0.00     0.042 C 
BRANCH  24  25
ATOM     25  C   UNL     1      -1.628   3.167   4.644  1.00  0.00     0.118 C 
BRANCH  25  26
ATOM     26  N   UNL     1      -3.043   3.091   4.968  1.00  0.00    -0.352 N 
ATOM     27  C   UNL     1      -3.892   2.048   5.233  1.00  0.00     0.251 C 
ATOM     28  H   UNL     1      -3.483   3.970   5.004  1.00  0.00     0.163 HD
ATOM     29  O   UNL     1      -5.098   2.310   5.244  1.00  0.00    -0.269 OA
BRANCH  27  30
ATOM     30  C   UNL     1      -3.490   0.640   5.534  1.00  0.00     0.039 A 
ATOM     31  C   UNL     1      -4.425  -0.361   5.210  1.00  0.00     0.014 A 
ATOM     32  C   UNL     1      -2.374   0.277   6.293  1.00  0.00     0.014 A 
ATOM     33  C   UNL     1      -4.284  -1.678   5.670  1.00  0.00     0.010 A 
ATOM     34  C   UNL     1      -2.221  -1.056   6.742  1.00  0.00     0.010 A 
ATOM     35  C   UNL     1      -3.196  -2.037   6.472  1.00  0.00    -0.014 A 
BRANCH  35  36
ATOM     36  C   UNL     1      -3.163  -3.383   7.128  1.00  0.00     0.031 A 
ATOM     37  C   UNL     1      -3.531  -3.520   8.585  1.00  0.00     0.074 A 
ATOM     38  C   UNL     1      -2.867  -4.504   6.441  1.00  0.00     0.049 A 
ATOM     39  N   UNL     1      -3.581  -4.595   9.336  1.00  0.00    -0.248 NA
ATOM     40  C   UNL     1      -3.906  -2.283   9.283  1.00  0.00     0.031 C 
ATOM     41  C   UNL     1      -2.570  -4.559   5.016  1.00  0.00     0.029 A 
ATOM     42  N   UNL     1      -2.772  -5.815   6.852  1.00  0.00    -0.354 N 
ATOM     43  C   UNL     1      -3.996  -4.166  10.590  1.00  0.00     0.074 A 
ATOM     44  C   UNL     1      -4.145  -2.727  10.508  1.00  0.00     0.031 C 
ATOM     45  C   UNL     1      -2.304  -5.830   4.669  1.00  0.00     0.029 A 
ATOM     46  C   UNL     1      -2.401  -6.683   5.854  1.00  0.00     0.049 A 
ATOM     47  H   UNL     1      -2.953  -6.103   7.776  1.00  0.00     0.167 HD
ATOM     48  C   UNL     1      -4.247  -4.896  11.706  1.00  0.00     0.037 A 
ATOM     49  C   UNL     1      -2.162  -8.010   5.882  1.00  0.00     0.037 A 
ATOM     50  C   UNL     1      -4.107  -6.326  11.811  1.00  0.00     0.049 A 
ATOM     51  C   UNL     1      -2.338  -8.787   7.162  1.00  0.00     0.074 A 
ATOM     52  C   UNL     1      -4.367  -7.141  12.900  1.00  0.00     0.029 A 
ATOM     53  N   UNL     1      -3.657  -7.156  10.796  1.00  0.00    -0.354 N 
ATOM     54  N   UNL     1      -2.759  -8.372   8.330  1.00  0.00    -0.248 NA
ATOM     55  C   UNL     1      -2.014 -10.222   7.120  1.00  0.00     0.031 C 
ATOM     56  C   UNL     1      -4.023  -8.456  12.562  1.00  0.00     0.029 A 
ATOM     57  C   UNL     1      -3.597  -8.468  11.245  1.00  0.00     0.049 A 
ATOM     58  H   UNL     1      -3.415  -6.858   9.889  1.00  0.00     0.167 HD
ATOM     59  C   UNL     1      -2.787  -9.495   9.149  1.00  0.00     0.074 A 
ATOM     60  C   UNL     1      -2.341 -10.612   8.344  1.00  0.00     0.031 C 
ATOM     61  C   UNL     1      -3.160  -9.586  10.449  1.00  0.00     0.037 A 
BRANCH  48  62
ATOM     62  C   UNL     1      -4.680  -4.142  12.930  1.00  0.00     0.064 A 
ATOM     63  C   UNL     1      -5.954  -3.562  13.027  1.00  0.00     0.173 A 
ATOM     64  C   UNL     1      -3.813  -4.012  14.026  1.00  0.00     0.173 A 
ATOM     65  F   UNL     1      -6.816  -3.654  12.004  1.00  0.00    -0.203 F 
ATOM     66  C   UNL     1      -6.329  -2.846  14.161  1.00  0.00     0.198 A 
ATOM     67  C   UNL     1      -4.203  -3.320  15.169  1.00  0.00     0.198 A 
ATOM     68  F   UNL     1      -2.589  -4.559  13.989  1.00  0.00    -0.203 F 
ATOM     69  F   UNL     1      -7.530  -2.253  14.209  1.00  0.00    -0.200 F 
ATOM     70  C   UNL     1      -5.455  -2.728  15.231  1.00  0.00     0.200 A 
ATOM     71  F   UNL     1      -3.363  -3.218  16.208  1.00  0.00    -0.200 F 
ATOM     72  F   UNL     1      -5.817  -2.035  16.320  1.00  0.00    -0.200 F 
ENDBRANCH  48  62
BRANCH  49  73
ATOM     73  C   UNL     1      -1.732  -8.709   4.642  1.00  0.00     0.064 A 
ATOM     74  C   UNL     1      -2.588  -9.602   3.983  1.00  0.00     0.173 A 
ATOM     75  C   UNL     1      -0.454  -8.509   4.103  1.00  0.00     0.173 A 
ATOM     76  F   UNL     1      -3.810  -9.847   4.479  1.00  0.00    -0.203 F 
ATOM     77  C   UNL     1      -2.177 -10.277   2.835  1.00  0.00     0.198 A 
ATOM     78  C   UNL     1      -0.052  -9.167   2.943  1.00  0.00     0.198 A 
ATOM     79  F   UNL     1       0.403  -7.666   4.699  1.00  0.00    -0.203 F 
ATOM     80  F   UNL     1      -3.001 -11.152   2.244  1.00  0.00    -0.200 F 
ATOM     81  C   UNL     1      -0.911 -10.054   2.312  1.00  0.00     0.200 A 
ATOM     82  F   UNL     1       1.168  -8.941   2.436  1.00  0.00    -0.200 F 
ATOM     83  F   UNL     1      -0.519 -10.698   1.205  1.00  0.00    -0.200 F 
ENDBRANCH  49  73
BRANCH  61  84
ATOM     84  C   UNL     1      -3.143 -10.947  11.088  1.00  0.00     0.064 A 
ATOM     85  C   UNL     1      -1.943 -11.595  11.415  1.00  0.00     0.173 A 
ATOM     86  C   UNL     1      -4.346 -11.594  11.414  1.00  0.00     0.173 A 
ATOM     87  F   UNL     1      -0.766 -11.030  11.110  1.00  0.00    -0.203 F 
ATOM     88  C   UNL     1      -1.948 -12.848  12.027  1.00  0.00     0.198 A 
ATOM     89  C   UNL     1      -4.347 -12.834  12.049  1.00  0.00     0.198 A 
ATOM     90  F   UNL     1      -5.523 -11.018  11.126  1.00  0.00    -0.203 F 
ATOM     91  F   UNL     1      -0.788 -13.466  12.292  1.00  0.00    -0.200 F 
ATOM     92  C   UNL     1      -3.148 -13.462  12.350  1.00  0.00     0.200 A 
ATOM     93  F   UNL     1      -5.508 -13.421  12.370  1.00  0.00    -0.200 F 
ATOM     94  F   UNL     1      -3.150 -14.664  12.944  1.00  0.00    -0.200 F 
ENDBRANCH  61  84
ENDBRANCH  35  36
ENDBRANCH  27  30
ENDBRANCH  25  26
ENDBRANCH  24  25
ENDBRANCH  23  24
ENDBRANCH   3  23
TORSDOF 16
