REMARK SMILES Cc1ccccc1[C@@H](Cc1c(Cl)cccc1Cl)C(=O)NCCCNC(=O)c1ccc(-c2c3nc(c(-c4c(F)c(F)c(F)c(F)c4F)c4ccc([nH]4)c(-c4c(F)c(F)c(F)c(F)c4F)c4nc(c(-c5c(F)c(F)c(F)c(F)c5F)c5ccc2[nH]5)C=C4)C=C3)cc1
REMARK SMILES IDX 22 1 21 2 20 3 18 4 19 5 8 7 7 8 1 9 2 10 3 11 4 12 6 13
REMARK SMILES IDX 5 14 9 15 10 16 11 17 16 18 12 19 13 20 15 21 17 22 14 23
REMARK SMILES IDX 23 24 24 25 25 26 26 28 27 29 28 30 89 31 29 32 88 33 30 34
REMARK SMILES IDX 31 35 32 36 82 37 33 38 87 39 81 40 83 41 34 42 86 43 80 44
REMARK SMILES IDX 79 45 35 47 67 48 47 49 66 50 48 51 51 52 65 53 84 54 49 55
REMARK SMILES IDX 50 56 64 58 85 59 52 60 36 61 37 62 45 63 38 64 39 65 43 66
REMARK SMILES IDX 46 67 40 68 41 69 44 70 42 71 68 72 69 73 77 74 70 75 71 76
REMARK SMILES IDX 75 77 78 78 72 79 73 80 76 81 74 82 53 83 54 84 62 85 55 86
REMARK SMILES IDX 56 87 60 88 63 89 57 90 58 91 61 92 59 93
REMARK H PARENT 20 6 24 27 83 46 51 57
REMARK Flexibility Score: inf
ROOT
ATOM      1  C   UNL     1      -2.872   3.013   0.317  1.00  0.00     0.042 C 
ENDROOT
BRANCH   1   2
ATOM      2  C   UNL     1      -1.695   3.981   0.255  1.00  0.00     0.117 C 
BRANCH   2   3
ATOM      3  N   UNL     1      -0.710   3.682   1.275  1.00  0.00    -0.355 N 
ATOM      4  C   UNL     1       0.406   2.905   1.265  1.00  0.00     0.227 C 
ATOM      5  O   UNL     1       0.879   2.655   2.383  1.00  0.00    -0.274 OA
ATOM      6  H   UNL     1      -0.880   4.125   2.138  1.00  0.00     0.163 HD
BRANCH   4   7
ATOM      7  C   UNL     1       1.084   2.330  -0.000  1.00  0.00     0.113 C 
BRANCH   7   8
ATOM      8  C   UNL     1       0.571   0.915  -0.326  1.00  0.00    -0.032 A 
ATOM      9  C   UNL     1       2.764  -0.290   0.322  1.00  0.00     0.044 C 
ATOM     10  C   UNL     1       1.303  -0.261  -0.043  1.00  0.00    -0.047 A 
ATOM     11  C   UNL     1       0.654  -1.512  -0.100  1.00  0.00     0.004 A 
ATOM     12  C   UNL     1      -0.675  -1.623  -0.497  1.00  0.00     0.000 A 
ATOM     13  C   UNL     1      -0.724   0.755  -0.851  1.00  0.00     0.005 A 
ATOM     14  C   UNL     1      -1.354  -0.490  -0.909  1.00  0.00     0.000 A 
ENDBRANCH   7   8
BRANCH   7  15
ATOM     15  C   UNL     1       1.260   3.252  -1.234  1.00  0.00     0.057 C 
BRANCH  15  16
ATOM     16  C   UNL     1       1.424   4.761  -1.060  1.00  0.00    -0.010 A 
ATOM     17  C   UNL     1       0.759   5.653  -1.938  1.00  0.00     0.045 A 
ATOM     18  C   UNL     1       2.250   5.353  -0.083  1.00  0.00     0.045 A 
ATOM     19  Cl  UNL     1      -0.159   5.110  -3.307  1.00  0.00    -0.084 Cl
ATOM     20  C   UNL     1       0.820   7.043  -1.767  1.00  0.00     0.021 A 
ATOM     21  C   UNL     1       2.282   6.745   0.104  1.00  0.00     0.021 A 
ATOM     22  Cl  UNL     1       3.354   4.458   0.898  1.00  0.00    -0.084 Cl
ATOM     23  C   UNL     1       1.556   7.590  -0.726  1.00  0.00     0.003 A 
ENDBRANCH  15  16
ENDBRANCH   7  15
ENDBRANCH   4   7
ENDBRANCH   2   3
ENDBRANCH   1   2
BRANCH   1  24
ATOM     24  C   UNL     1      -3.939   3.399   1.325  1.00  0.00     0.118 C 
BRANCH  24  25
ATOM     25  N   UNL     1      -5.232   3.689   0.708  1.00  0.00    -0.352 N 
ATOM     26  C   UNL     1      -6.443   3.957   1.326  1.00  0.00     0.251 C 
ATOM     27  H   UNL     1      -5.244   3.695  -0.276  1.00  0.00     0.163 HD
ATOM     28  O   UNL     1      -7.433   4.247   0.679  1.00  0.00    -0.269 OA
BRANCH  26  29
ATOM     29  C   UNL     1      -6.460   4.014   2.803  1.00  0.00     0.039 A 
ATOM     30  C   UNL     1      -6.788   5.235   3.398  1.00  0.00     0.014 A 
ATOM     31  C   UNL     1      -5.863   2.994   3.537  1.00  0.00     0.014 A 
ATOM     32  C   UNL     1      -6.276   5.524   4.658  1.00  0.00     0.010 A 
ATOM     33  C   UNL     1      -5.258   3.322   4.734  1.00  0.00     0.010 A 
ATOM     34  C   UNL     1      -5.405   4.613   5.257  1.00  0.00    -0.014 A 
BRANCH  34  35
ATOM     35  C   UNL     1      -4.516   4.983   6.353  1.00  0.00     0.031 A 
ATOM     36  C   UNL     1      -4.748   4.460   7.715  1.00  0.00     0.074 A 
ATOM     37  C   UNL     1      -3.445   5.774   6.115  1.00  0.00     0.049 A 
ATOM     38  N   UNL     1      -4.342   5.038   8.796  1.00  0.00    -0.248 NA
ATOM     39  C   UNL     1      -5.525   3.256   7.969  1.00  0.00     0.031 C 
ATOM     40  C   UNL     1      -2.322   6.028   7.015  1.00  0.00     0.029 A 
ATOM     41  N   UNL     1      -3.256   6.683   5.057  1.00  0.00    -0.354 N 
ATOM     42  C   UNL     1      -4.545   4.168   9.845  1.00  0.00     0.074 A 
ATOM     43  C   UNL     1      -5.366   3.119   9.288  1.00  0.00     0.031 C 
ATOM     44  C   UNL     1      -1.741   7.186   6.667  1.00  0.00     0.029 A 
ATOM     45  C   UNL     1      -2.554   7.775   5.619  1.00  0.00     0.049 A 
ATOM     46  H   UNL     1      -3.551   6.580   4.124  1.00  0.00     0.167 HD
ATOM     47  C   UNL     1      -3.874   4.378  11.017  1.00  0.00     0.037 A 
ATOM     48  C   UNL     1      -3.073   9.036   5.647  1.00  0.00     0.037 A 
ATOM     49  C   UNL     1      -3.135   5.642  10.980  1.00  0.00     0.049 A 
ATOM     50  C   UNL     1      -3.174   9.632   7.029  1.00  0.00     0.074 A 
ATOM     51  C   UNL     1      -1.798   5.942  10.766  1.00  0.00     0.029 A 
ATOM     52  N   UNL     1      -3.825   6.847  10.900  1.00  0.00    -0.354 N 
ATOM     53  N   UNL     1      -3.155   8.926   8.124  1.00  0.00    -0.248 NA
ATOM     54  C   UNL     1      -3.355  11.058   7.286  1.00  0.00     0.031 C 
ATOM     55  C   UNL     1      -1.691   7.334  10.532  1.00  0.00     0.029 A 
ATOM     56  C   UNL     1      -2.959   7.883  10.611  1.00  0.00     0.049 A 
ATOM     57  H   UNL     1      -4.796   6.947  11.031  1.00  0.00     0.167 HD
ATOM     58  C   UNL     1      -3.350   9.750   9.202  1.00  0.00     0.074 A 
ATOM     59  C   UNL     1      -3.445  11.078   8.628  1.00  0.00     0.031 C 
ATOM     60  C   UNL     1      -3.436   9.251  10.471  1.00  0.00     0.037 A 
BRANCH  47  61
ATOM     61  C   UNL     1      -3.626   3.316  12.081  1.00  0.00     0.064 A 
ATOM     62  C   UNL     1      -2.523   3.423  12.961  1.00  0.00     0.173 A 
ATOM     63  C   UNL     1      -4.371   2.133  12.242  1.00  0.00     0.173 A 
ATOM     64  F   UNL     1      -1.794   4.543  13.040  1.00  0.00    -0.203 F 
ATOM     65  C   UNL     1      -2.124   2.384  13.809  1.00  0.00     0.198 A 
ATOM     66  C   UNL     1      -3.950   1.074  13.056  1.00  0.00     0.198 A 
ATOM     67  F   UNL     1      -5.574   1.978  11.685  1.00  0.00    -0.203 F 
ATOM     68  F   UNL     1      -1.055   2.545  14.601  1.00  0.00    -0.200 F 
ATOM     69  C   UNL     1      -2.815   1.192  13.826  1.00  0.00     0.200 A 
ATOM     70  F   UNL     1      -4.665  -0.060  13.089  1.00  0.00    -0.200 F 
ATOM     71  F   UNL     1      -2.413   0.180  14.606  1.00  0.00    -0.200 F 
ENDBRANCH  47  61
BRANCH  48  72
ATOM     72  C   UNL     1      -4.014   9.316   4.535  1.00  0.00     0.064 A 
ATOM     73  C   UNL     1      -3.515   9.316   3.220  1.00  0.00     0.173 A 
ATOM     74  C   UNL     1      -5.399   9.208   4.705  1.00  0.00     0.173 A 
ATOM     75  F   UNL     1      -2.193   9.414   3.004  1.00  0.00    -0.203 F 
ATOM     76  C   UNL     1      -4.352   9.099   2.128  1.00  0.00     0.198 A 
ATOM     77  C   UNL     1      -6.237   9.002   3.607  1.00  0.00     0.198 A 
ATOM     78  F   UNL     1      -5.931   9.180   5.935  1.00  0.00    -0.203 F 
ATOM     79  F   UNL     1      -3.831   8.992   0.897  1.00  0.00    -0.200 F 
ATOM     80  C   UNL     1      -5.710   8.915   2.327  1.00  0.00     0.200 A 
ATOM     81  F   UNL     1      -7.546   8.790   3.800  1.00  0.00    -0.200 F 
ATOM     82  F   UNL     1      -6.503   8.608   1.291  1.00  0.00    -0.200 F 
ENDBRANCH  48  72
BRANCH  60  83
ATOM     83  C   UNL     1      -3.876  10.003  11.706  1.00  0.00     0.064 A 
ATOM     84  C   UNL     1      -4.736  11.113  11.691  1.00  0.00     0.173 A 
ATOM     85  C   UNL     1      -3.540   9.516  12.995  1.00  0.00     0.173 A 
ATOM     86  F   UNL     1      -5.228  11.600  10.544  1.00  0.00    -0.203 F 
ATOM     87  C   UNL     1      -5.174  11.729  12.868  1.00  0.00     0.198 A 
ATOM     88  C   UNL     1      -4.025  10.097  14.167  1.00  0.00     0.198 A 
ATOM     89  F   UNL     1      -2.752   8.444  13.157  1.00  0.00    -0.203 F 
ATOM     90  F   UNL     1      -5.961  12.812  12.796  1.00  0.00    -0.200 F 
ATOM     91  C   UNL     1      -4.829  11.215  14.104  1.00  0.00     0.200 A 
ATOM     92  F   UNL     1      -3.724   9.553  15.354  1.00  0.00    -0.200 F 
ATOM     93  F   UNL     1      -5.290  11.780  15.228  1.00  0.00    -0.200 F 
ENDBRANCH  60  83
ENDBRANCH  34  35
ENDBRANCH  26  29
ENDBRANCH  24  25
ENDBRANCH   1  24
TORSDOF 13
