REMARK SMILES C[C@](NC(=O)N1CCC[NH2+]CC1)(C(=O)NCCCNC(=O)c1ccc(-c2c3nc(c(-c4c(F)c(F)c(F)c(F)c4F)c4ccc([nH]4)c(-c4c(F)c(F)c(F)c(F)c4F)c4nc(c(-c5c(F)c(F)c(F)c(F)c5F)c5ccc2[nH]5)C=C4)C=C3)cc1)C(F)(F)F
REMARK SMILES IDX 13 1 14 2 15 3 2 5 1 6 85 7 86 8 87 9 88 10 3 11 4 12 5 14
REMARK SMILES IDX 6 15 7 16 8 17 12 19 11 20 10 21 9 24 16 26 17 27 18 28
REMARK SMILES IDX 19 29 20 30 21 32 22 33 23 34 84 35 24 36 83 37 25 38 26 39
REMARK SMILES IDX 27 40 77 41 28 42 82 43 76 44 78 45 29 46 81 47 75 48 74 49
REMARK SMILES IDX 30 51 62 52 42 53 61 54 43 55 46 56 60 57 79 58 44 59 45 60
REMARK SMILES IDX 59 62 80 63 47 64 31 65 32 66 40 67 33 68 34 69 38 70 41 71
REMARK SMILES IDX 35 72 36 73 39 74 37 75 63 76 64 77 72 78 65 79 66 80 70 81
REMARK SMILES IDX 73 82 67 83 68 84 71 85 69 86 48 87 49 88 57 89 50 90 51 91
REMARK SMILES IDX 55 92 58 93 52 94 53 95 56 96 54 97
REMARK H PARENT 15 4 3 13 10 22 10 23 19 31 78 50 46 61
REMARK Flexibility Score: 80.00
ROOT
ATOM      1  C   UNL     1      -0.999   0.790  -1.098  1.00  0.00     0.255 C 
ATOM      2  O   UNL     1      -1.912   1.621  -1.069  1.00  0.00    -0.272 OA
ATOM      3  N   UNL     1      -1.425  -0.505  -1.083  1.00  0.00    -0.354 N 
ATOM      4  H   UNL     1      -2.383  -0.605  -0.881  1.00  0.00     0.163 HD
ENDROOT
BRANCH   1   5
ATOM      5  C   UNL     1       0.482   1.181  -1.345  1.00  0.00     0.213 C 
ATOM      6  C   UNL     1       0.728   0.890  -2.838  1.00  0.00     0.056 C 
BRANCH   5   7
ATOM      7  C   UNL     1       0.527   2.694  -1.007  1.00  0.00     0.420 C 
ATOM      8  F   UNL     1       0.031   2.948   0.229  1.00  0.00    -0.168 F 
ATOM      9  F   UNL     1       1.792   3.180  -0.990  1.00  0.00    -0.168 F 
ATOM     10  F   UNL     1      -0.148   3.447  -1.904  1.00  0.00    -0.168 F 
ENDBRANCH   5   7
BRANCH   5  11
ATOM     11  N   UNL     1       1.340   0.371  -0.420  1.00  0.00    -0.316 N 
ATOM     12  C   UNL     1       2.554  -0.209  -0.433  1.00  0.00     0.318 C 
ATOM     13  H   UNL     1       0.887   0.221   0.441  1.00  0.00     0.166 HD
ATOM     14  O   UNL     1       2.740  -1.044   0.458  1.00  0.00    -0.249 OA
BRANCH  12  15
ATOM     15  N   UNL     1       3.476   0.013  -1.414  1.00  0.00    -0.319 N 
BRANCH  15  16
ATOM     16  C   UNL     1       3.835   1.317  -1.960  1.00  0.00     0.127 C 
BRANCH  16  17
ATOM     17  C   UNL     1       4.770   2.108  -1.051  1.00  0.00     0.083 CG0
ATOM     18  G   UNL     1       6.224   1.633  -0.987  1.00  0.00     0.000 G0
ENDBRANCH  16  17
ENDBRANCH  15  16
BRANCH  15  19
ATOM     19  C   UNL     1       4.465  -1.044  -1.652  1.00  0.00     0.182 C 
BRANCH  19  20
ATOM     20  C   UNL     1       5.855  -0.778  -1.047  1.00  0.00     0.282 C 
BRANCH  20  21
ATOM     21  N   UNL     1       6.561   0.369  -1.630  1.00  0.00    -0.345 N 
ATOM     22  H   UNL     1       7.565   0.215  -1.537  1.00  0.00     0.346 HD
ATOM     23  H   UNL     1       6.275   0.439  -2.607  1.00  0.00     0.346 HD
BRANCH  21  24
ATOM     24  C   UNL     1       6.224   1.633  -0.987  1.00  0.00     0.262 CG0
ATOM     25  G   UNL     1       4.770   2.108  -1.051  1.00  0.00     0.000 G0
ENDBRANCH  21  24
ENDBRANCH  20  21
ENDBRANCH  19  20
ENDBRANCH  15  19
ENDBRANCH  12  15
ENDBRANCH   5  11
ENDBRANCH   1   5
BRANCH   3  26
ATOM     26  C   UNL     1      -0.742  -1.768  -1.308  1.00  0.00     0.117 C 
BRANCH  26  27
ATOM     27  C   UNL     1      -1.025  -2.768  -0.192  1.00  0.00     0.042 C 
BRANCH  27  28
ATOM     28  C   UNL     1      -2.501  -3.109   0.008  1.00  0.00     0.118 C 
BRANCH  28  29
ATOM     29  N   UNL     1      -3.115  -3.723  -1.159  1.00  0.00    -0.352 N 
ATOM     30  C   UNL     1      -3.886  -4.855  -1.257  1.00  0.00     0.251 C 
ATOM     31  H   UNL     1      -2.954  -3.254  -2.010  1.00  0.00     0.163 HD
ATOM     32  O   UNL     1      -4.202  -5.279  -2.365  1.00  0.00    -0.269 OA
BRANCH  30  33
ATOM     33  C   UNL     1      -4.322  -5.583  -0.043  1.00  0.00     0.039 A 
ATOM     34  C   UNL     1      -4.294  -6.981  -0.059  1.00  0.00     0.014 A 
ATOM     35  C   UNL     1      -4.790  -4.910   1.088  1.00  0.00     0.014 A 
ATOM     36  C   UNL     1      -4.687  -7.699   1.073  1.00  0.00     0.010 A 
ATOM     37  C   UNL     1      -5.111  -5.623   2.241  1.00  0.00     0.010 A 
ATOM     38  C   UNL     1      -5.076  -7.026   2.242  1.00  0.00    -0.014 A 
BRANCH  38  39
ATOM     39  C   UNL     1      -5.474  -7.780   3.458  1.00  0.00     0.031 A 
ATOM     40  C   UNL     1      -6.887  -7.705   3.969  1.00  0.00     0.074 A 
ATOM     41  C   UNL     1      -4.555  -8.502   4.127  1.00  0.00     0.049 A 
ATOM     42  N   UNL     1      -7.420  -8.275   5.020  1.00  0.00    -0.248 NA
ATOM     43  C   UNL     1      -7.818  -6.852   3.214  1.00  0.00     0.031 C 
ATOM     44  C   UNL     1      -3.139  -8.609   3.771  1.00  0.00     0.029 A 
ATOM     45  N   UNL     1      -4.674  -9.283   5.250  1.00  0.00    -0.354 N 
ATOM     46  C   UNL     1      -8.737  -7.836   5.062  1.00  0.00     0.074 A 
ATOM     47  C   UNL     1      -8.909  -6.912   3.962  1.00  0.00     0.031 C 
ATOM     48  C   UNL     1      -2.528  -9.431   4.639  1.00  0.00     0.029 A 
ATOM     49  C   UNL     1      -3.502  -9.890   5.625  1.00  0.00     0.049 A 
ATOM     50  H   UNL     1      -5.521  -9.396   5.739  1.00  0.00     0.167 HD
ATOM     51  C   UNL     1      -9.722  -8.191   5.921  1.00  0.00     0.037 A 
ATOM     52  C   UNL     1      -3.245 -10.732   6.644  1.00  0.00     0.037 A 
ATOM     53  C   UNL     1      -9.561  -9.138   6.994  1.00  0.00     0.049 A 
ATOM     54  C   UNL     1      -4.367 -11.148   7.556  1.00  0.00     0.074 A 
ATOM     55  C   UNL     1     -10.509  -9.603   7.888  1.00  0.00     0.029 A 
ATOM     56  N   UNL     1      -8.368  -9.771   7.311  1.00  0.00    -0.354 N 
ATOM     57  N   UNL     1      -5.624 -10.779   7.543  1.00  0.00    -0.248 NA
ATOM     58  C   UNL     1      -4.035 -12.113   8.613  1.00  0.00     0.031 C 
ATOM     59  C   UNL     1      -9.884 -10.496   8.765  1.00  0.00     0.029 A 
ATOM     60  C   UNL     1      -8.556 -10.620   8.390  1.00  0.00     0.049 A 
ATOM     61  H   UNL     1      -7.515  -9.638   6.839  1.00  0.00     0.167 HD
ATOM     62  C   UNL     1      -6.240 -11.488   8.565  1.00  0.00     0.074 A 
ATOM     63  C   UNL     1      -5.220 -12.321   9.169  1.00  0.00     0.031 C 
ATOM     64  C   UNL     1      -7.534 -11.454   8.968  1.00  0.00     0.037 A 
BRANCH  51  65
ATOM     65  C   UNL     1     -11.069  -7.558   5.727  1.00  0.00     0.064 A 
ATOM     66  C   UNL     1     -11.883  -7.885   4.631  1.00  0.00     0.173 A 
ATOM     67  C   UNL     1     -11.563  -6.631   6.658  1.00  0.00     0.173 A 
ATOM     68  F   UNL     1     -11.450  -8.755   3.706  1.00  0.00    -0.203 F 
ATOM     69  C   UNL     1     -13.127  -7.285   4.458  1.00  0.00     0.198 A 
ATOM     70  C   UNL     1     -12.821  -6.055   6.496  1.00  0.00     0.198 A 
ATOM     71  F   UNL     1     -10.829  -6.287   7.726  1.00  0.00    -0.203 F 
ATOM     72  F   UNL     1     -13.863  -7.574   3.376  1.00  0.00    -0.200 F 
ATOM     73  C   UNL     1     -13.598  -6.375   5.393  1.00  0.00     0.200 A 
ATOM     74  F   UNL     1     -13.280  -5.185   7.406  1.00  0.00    -0.200 F 
ATOM     75  F   UNL     1     -14.797  -5.801   5.226  1.00  0.00    -0.200 F 
ENDBRANCH  51  65
BRANCH  52  76
ATOM     76  C   UNL     1      -1.877 -11.283   6.824  1.00  0.00     0.064 A 
ATOM     77  C   UNL     1      -1.604 -12.629   6.544  1.00  0.00     0.173 A 
ATOM     78  C   UNL     1      -0.821 -10.482   7.280  1.00  0.00     0.173 A 
ATOM     79  F   UNL     1      -2.588 -13.438   6.124  1.00  0.00    -0.203 F 
ATOM     80  C   UNL     1      -0.331 -13.161   6.736  1.00  0.00     0.198 A 
ATOM     81  C   UNL     1       0.459 -11.009   7.447  1.00  0.00     0.198 A 
ATOM     82  F   UNL     1      -1.030  -9.187   7.555  1.00  0.00    -0.203 F 
ATOM     83  F   UNL     1      -0.109 -14.461   6.504  1.00  0.00    -0.200 F 
ATOM     84  C   UNL     1       0.701 -12.349   7.182  1.00  0.00     0.200 A 
ATOM     85  F   UNL     1       1.456 -10.219   7.867  1.00  0.00    -0.200 F 
ATOM     86  F   UNL     1       1.926 -12.860   7.365  1.00  0.00    -0.200 F 
ENDBRANCH  52  76
BRANCH  64  87
ATOM     87  C   UNL     1      -7.928 -12.376  10.083  1.00  0.00     0.064 A 
ATOM     88  C   UNL     1      -7.526 -12.148  11.407  1.00  0.00     0.173 A 
ATOM     89  C   UNL     1      -8.735 -13.494   9.824  1.00  0.00     0.173 A 
ATOM     90  F   UNL     1      -6.741 -11.100  11.703  1.00  0.00    -0.203 F 
ATOM     91  C   UNL     1      -7.890 -13.024  12.426  1.00  0.00     0.198 A 
ATOM     92  C   UNL     1      -9.121 -14.352  10.850  1.00  0.00     0.198 A 
ATOM     93  F   UNL     1      -9.152 -13.753   8.575  1.00  0.00    -0.203 F 
ATOM     94  F   UNL     1      -7.450 -12.816  13.675  1.00  0.00    -0.200 F 
ATOM     95  C   UNL     1      -8.691 -14.121  12.148  1.00  0.00     0.200 A 
ATOM     96  F   UNL     1      -9.904 -15.406  10.581  1.00  0.00    -0.200 F 
ATOM     97  F   UNL     1      -9.040 -14.964  13.130  1.00  0.00    -0.200 F 
ENDBRANCH  64  87
ENDBRANCH  38  39
ENDBRANCH  30  33
ENDBRANCH  28  29
ENDBRANCH  27  28
ENDBRANCH  26  27
ENDBRANCH   3  26
TORSDOF 13
