REMARK SMILES CC(C)(C)c1csc(C[NH+]2CC(C(=O)NCCCNC(=O)c3ccc(-c4c5nc(c(-c6c(F)c(F)c(F)c(F)c6F)c6ccc([nH]6)c(-c6c(F)c(F)c(F)c(F)c6F)c6nc(c(-c7c(F)c(F)c(F)c(F)c7F)c7ccc4[nH]7)C=C6)C=C5)cc3)C2)n1
REMARK SMILES IDX 16 1 15 2 13 3 14 4 12 6 10 7 11 8 85 9 9 11 8 12 5 13 6 14
REMARK SMILES IDX 86 15 7 16 2 17 1 18 3 19 4 20 17 21 18 22 19 23 20 24 21 26
REMARK SMILES IDX 22 27 23 28 84 29 24 30 83 31 25 32 26 33 27 34 77 35 28 36
REMARK SMILES IDX 82 37 76 38 78 39 29 40 81 41 75 42 74 43 30 45 62 46 42 47
REMARK SMILES IDX 61 48 43 49 46 50 60 51 79 52 44 53 45 54 59 56 80 57 47 58
REMARK SMILES IDX 31 59 32 60 40 61 33 62 34 63 38 64 41 65 35 66 36 67 39 68
REMARK SMILES IDX 37 69 63 70 64 71 72 72 65 73 66 74 70 75 73 76 67 77 68 78
REMARK SMILES IDX 71 79 69 80 48 81 49 82 57 83 50 84 51 85 55 86 58 87 52 88
REMARK SMILES IDX 53 89 56 90 54 91
REMARK H PARENT 15 5 10 10 19 25 78 44 46 55
REMARK Flexibility Score: inf
ROOT
ATOM      1  C   UNL     1      -0.137   1.933   4.534  1.00  0.00     0.117 C 
ENDROOT
BRANCH   1   2
ATOM      2  N   UNL     1      -0.970   2.411   5.617  1.00  0.00    -0.355 N 
ATOM      3  C   UNL     1      -1.365   3.682   5.956  1.00  0.00     0.234 C 
ATOM      4  O   UNL     1      -2.073   3.750   6.974  1.00  0.00    -0.274 OA
ATOM      5  H   UNL     1      -1.311   1.704   6.211  1.00  0.00     0.163 HD
BRANCH   3   6
ATOM      6  C   UNL     1      -0.976   4.931   5.165  1.00  0.00     0.188 C 
ATOM      7  N   UNL     1      -0.001   5.890   3.585  1.00  0.00    -0.327 N 
ATOM      8  C   UNL     1      -1.224   5.064   3.643  1.00  0.00     0.282 C 
ATOM      9  C   UNL     1       0.493   5.268   4.827  1.00  0.00     0.282 C 
ATOM     10  H   UNL     1      -0.073   6.905   3.518  1.00  0.00     0.348 HD
BRANCH   7  11
ATOM     11  C   UNL     1       0.843   5.691   2.396  1.00  0.00     0.331 C 
BRANCH  11  12
ATOM     12  C   UNL     1       1.197   4.296   1.933  1.00  0.00     0.147 A 
ATOM     13  C   UNL     1       1.082   2.364   0.809  1.00  0.00     0.057 A 
ATOM     14  C   UNL     1       2.313   2.205   1.420  1.00  0.00     0.091 A 
ATOM     15  N   UNL     1       0.444   3.556   1.141  1.00  0.00    -0.240 NA
ATOM     16  S   UNL     1       2.724   3.602   2.324  1.00  0.00    -0.121 S 
BRANCH  13  17
ATOM     17  C   UNL     1       0.434   1.448  -0.224  1.00  0.00     0.005 C 
ATOM     18  C   UNL     1       0.879  -0.020  -0.063  1.00  0.00     0.017 C 
ATOM     19  C   UNL     1       0.842   1.934  -1.630  1.00  0.00     0.017 C 
ATOM     20  C   UNL     1      -1.103   1.485  -0.116  1.00  0.00     0.017 C 
ENDBRANCH  13  17
ENDBRANCH  11  12
ENDBRANCH   7  11
ENDBRANCH   3   6
ENDBRANCH   1   2
BRANCH   1  21
ATOM     21  C   UNL     1       1.190   1.381   5.035  1.00  0.00     0.042 C 
BRANCH  21  22
ATOM     22  C   UNL     1       1.064   0.042   5.748  1.00  0.00     0.118 C 
BRANCH  22  23
ATOM     23  N   UNL     1       0.623  -1.021   4.851  1.00  0.00    -0.352 N 
ATOM     24  C   UNL     1       1.287  -2.099   4.330  1.00  0.00     0.251 C 
ATOM     25  H   UNL     1      -0.318  -0.950   4.572  1.00  0.00     0.163 HD
ATOM     26  O   UNL     1       0.772  -2.722   3.395  1.00  0.00    -0.269 OA
BRANCH  24  27
ATOM     27  C   UNL     1       2.608  -2.525   4.842  1.00  0.00     0.039 A 
ATOM     28  C   UNL     1       3.529  -3.085   3.950  1.00  0.00     0.014 A 
ATOM     29  C   UNL     1       2.935  -2.430   6.196  1.00  0.00     0.014 A 
ATOM     30  C   UNL     1       4.791  -3.481   4.401  1.00  0.00     0.010 A 
ATOM     31  C   UNL     1       4.226  -2.725   6.625  1.00  0.00     0.010 A 
ATOM     32  C   UNL     1       5.166  -3.265   5.736  1.00  0.00    -0.014 A 
BRANCH  32  33
ATOM     33  C   UNL     1       6.529  -3.596   6.224  1.00  0.00     0.031 A 
ATOM     34  C   UNL     1       6.720  -4.599   7.329  1.00  0.00     0.074 A 
ATOM     35  C   UNL     1       7.590  -2.926   5.735  1.00  0.00     0.049 A 
ATOM     36  N   UNL     1       7.819  -4.951   7.949  1.00  0.00    -0.248 NA
ATOM     37  C   UNL     1       5.510  -5.266   7.831  1.00  0.00     0.031 C 
ATOM     38  C   UNL     1       7.530  -1.879   4.714  1.00  0.00     0.029 A 
ATOM     39  N   UNL     1       8.924  -3.010   6.047  1.00  0.00    -0.354 N 
ATOM     40  C   UNL     1       7.427  -5.853   8.929  1.00  0.00     0.074 A 
ATOM     41  C   UNL     1       5.986  -5.952   8.858  1.00  0.00     0.031 C 
ATOM     42  C   UNL     1       8.771  -1.429   4.473  1.00  0.00     0.029 A 
ATOM     43  C   UNL     1       9.708  -2.126   5.348  1.00  0.00     0.049 A 
ATOM     44  H   UNL     1       9.285  -3.644   6.709  1.00  0.00     0.167 HD
ATOM     45  C   UNL     1       8.200  -6.552   9.796  1.00  0.00     0.037 A 
ATOM     46  C   UNL     1      11.032  -1.891   5.413  1.00  0.00     0.037 A 
ATOM     47  C   UNL     1       9.637  -6.475   9.837  1.00  0.00     0.049 A 
ATOM     48  C   UNL     1      11.877  -2.700   6.356  1.00  0.00     0.074 A 
ATOM     49  C   UNL     1      10.520  -7.213  10.606  1.00  0.00     0.029 A 
ATOM     50  N   UNL     1      10.403  -5.598   9.081  1.00  0.00    -0.354 N 
ATOM     51  N   UNL     1      11.507  -3.620   7.214  1.00  0.00    -0.248 NA
ATOM     52  C   UNL     1      13.324  -2.448   6.332  1.00  0.00     0.031 C 
ATOM     53  C   UNL     1      11.814  -6.744  10.356  1.00  0.00     0.029 A 
ATOM     54  C   UNL     1      11.745  -5.754   9.389  1.00  0.00     0.049 A 
ATOM     55  H   UNL     1      10.045  -4.960   8.422  1.00  0.00     0.167 HD
ATOM     56  C   UNL     1      12.672  -4.069   7.820  1.00  0.00     0.074 A 
ATOM     57  C   UNL     1      13.765  -3.332   7.217  1.00  0.00     0.031 C 
ATOM     58  C   UNL     1      12.822  -5.007   8.788  1.00  0.00     0.037 A 
BRANCH  45  59
ATOM     59  C   UNL     1       7.501  -7.453  10.775  1.00  0.00     0.064 A 
ATOM     60  C   UNL     1       6.810  -8.604  10.363  1.00  0.00     0.173 A 
ATOM     61  C   UNL     1       7.525  -7.163  12.148  1.00  0.00     0.173 A 
ATOM     62  F   UNL     1       6.747  -8.925   9.062  1.00  0.00    -0.203 F 
ATOM     63  C   UNL     1       6.131  -9.402  11.281  1.00  0.00     0.198 A 
ATOM     64  C   UNL     1       6.875  -7.983  13.067  1.00  0.00     0.198 A 
ATOM     65  F   UNL     1       8.177  -6.082  12.600  1.00  0.00    -0.203 F 
ATOM     66  F   UNL     1       5.421 -10.455  10.854  1.00  0.00    -0.200 F 
ATOM     67  C   UNL     1       6.168  -9.093  12.632  1.00  0.00     0.200 A 
ATOM     68  F   UNL     1       6.924  -7.692  14.374  1.00  0.00    -0.200 F 
ATOM     69  F   UNL     1       5.511  -9.860  13.514  1.00  0.00    -0.200 F 
ENDBRANCH  45  59
BRANCH  46  70
ATOM     70  C   UNL     1      11.631  -0.855   4.534  1.00  0.00     0.064 A 
ATOM     71  C   UNL     1      12.425  -1.212   3.436  1.00  0.00     0.173 A 
ATOM     72  C   UNL     1      11.383   0.510   4.745  1.00  0.00     0.173 A 
ATOM     73  F   UNL     1      12.703  -2.503   3.203  1.00  0.00    -0.203 F 
ATOM     74  C   UNL     1      12.954  -0.243   2.586  1.00  0.00     0.198 A 
ATOM     75  C   UNL     1      11.890   1.476   3.879  1.00  0.00     0.198 A 
ATOM     76  F   UNL     1      10.620   0.902   5.776  1.00  0.00    -0.203 F 
ATOM     77  F   UNL     1      13.732  -0.609   1.558  1.00  0.00    -0.200 F 
ATOM     78  C   UNL     1      12.679   1.099   2.802  1.00  0.00     0.200 A 
ATOM     79  F   UNL     1      11.605   2.770   4.081  1.00  0.00    -0.200 F 
ATOM     80  F   UNL     1      13.172   2.029   1.974  1.00  0.00    -0.200 F 
ENDBRANCH  46  70
BRANCH  58  81
ATOM     81  C   UNL     1      14.221  -5.304   9.246  1.00  0.00     0.064 A 
ATOM     82  C   UNL     1      14.952  -4.390  10.020  1.00  0.00     0.173 A 
ATOM     83  C   UNL     1      14.823  -6.534   8.941  1.00  0.00     0.173 A 
ATOM     84  F   UNL     1      14.428  -3.193  10.326  1.00  0.00    -0.203 F 
ATOM     85  C   UNL     1      16.243  -4.688  10.450  1.00  0.00     0.198 A 
ATOM     86  C   UNL     1      16.101  -6.841   9.399  1.00  0.00     0.198 A 
ATOM     87  F   UNL     1      14.165  -7.446   8.209  1.00  0.00    -0.203 F 
ATOM     88  F   UNL     1      16.941  -3.780  11.147  1.00  0.00    -0.200 F 
ATOM     89  C   UNL     1      16.813  -5.915  10.146  1.00  0.00     0.200 A 
ATOM     90  F   UNL     1      16.644  -8.033   9.116  1.00  0.00    -0.200 F 
ATOM     91  F   UNL     1      18.052  -6.203  10.568  1.00  0.00    -0.200 F 
ENDBRANCH  58  81
ENDBRANCH  32  33
ENDBRANCH  24  27
ENDBRANCH  22  23
ENDBRANCH  21  22
ENDBRANCH   1  21
TORSDOF 13
