REMARK SMILES O=C(NCCCNC(=O)[C@@H]1CN(C(=O)C[NH+]2CCOCC2)C[C@H]1c1ccc2c(c1)OCO2)c1ccc(-c2c3nc(c(-c4c(F)c(F)c(F)c(F)c4F)c4ccc([nH]4)c(-c4c(F)c(F)c(F)c(F)c4F)c4nc(c(-c5c(F)c(F)c(F)c(F)c5F)c5ccc2[nH]5)C=C4)C=C3)cc1
REMARK SMILES IDX 5 1 4 2 3 3 1 4 2 5 33 7 34 8 95 9 35 10 94 11 36 12 37 13
REMARK SMILES IDX 38 14 88 15 39 16 93 17 87 18 89 19 40 20 92 21 86 22 85 23
REMARK SMILES IDX 41 25 73 26 53 27 72 28 54 29 57 30 71 31 90 32 55 33 56 34
REMARK SMILES IDX 70 36 91 37 58 38 42 39 43 40 51 41 44 42 45 43 49 44 52 45
REMARK SMILES IDX 46 46 47 47 50 48 48 49 74 50 75 51 83 52 76 53 77 54 81 55
REMARK SMILES IDX 84 56 78 57 79 58 82 59 80 60 59 61 60 62 68 63 61 64 62 65
REMARK SMILES IDX 66 66 69 67 63 68 64 69 67 70 65 71 6 72 7 73 8 74 9 76
REMARK SMILES IDX 10 77 11 78 23 79 12 80 22 81 24 82 25 83 29 84 26 85 28 86
REMARK SMILES IDX 27 87 30 88 32 89 31 90 13 91 14 92 15 93 16 94 17 95 21 96
REMARK SMILES IDX 18 98 20 99 19 100
REMARK H PARENT 3 6 89 24 57 35 7 75 16 97
REMARK Flexibility Score: inf
ROOT
ATOM      1  C   UNL     1       4.465  -1.425   2.313  1.00  0.00     0.042 C 
ENDROOT
BRANCH   1   2
ATOM      2  C   UNL     1       4.367  -1.309   0.793  1.00  0.00     0.118 C 
BRANCH   2   3
ATOM      3  N   UNL     1       2.981  -1.246   0.356  1.00  0.00    -0.352 N 
ATOM      4  O   UNL     1       1.062  -0.257  -0.261  1.00  0.00    -0.269 OA
ATOM      5  C   UNL     1       2.296  -0.218  -0.233  1.00  0.00     0.251 C 
ATOM      6  H   UNL     1       2.457  -2.066   0.506  1.00  0.00     0.163 HD
BRANCH   5   7
ATOM      7  C   UNL     1       3.000   0.934  -0.837  1.00  0.00     0.039 A 
ATOM      8  C   UNL     1       4.157   0.761  -1.604  1.00  0.00     0.014 A 
ATOM      9  C   UNL     1       2.432   2.207  -0.713  1.00  0.00     0.014 A 
ATOM     10  C   UNL     1       4.789   1.866  -2.175  1.00  0.00     0.010 A 
ATOM     11  C   UNL     1       3.033   3.304  -1.334  1.00  0.00     0.010 A 
ATOM     12  C   UNL     1       4.224   3.145  -2.059  1.00  0.00    -0.014 A 
BRANCH  12  13
ATOM     13  C   UNL     1       4.843   4.309  -2.741  1.00  0.00     0.031 A 
ATOM     14  C   UNL     1       5.440   5.432  -1.945  1.00  0.00     0.074 A 
ATOM     15  C   UNL     1       4.828   4.369  -4.086  1.00  0.00     0.049 A 
ATOM     16  N   UNL     1       5.944   6.566  -2.362  1.00  0.00    -0.248 NA
ATOM     17  C   UNL     1       5.462   5.263  -0.485  1.00  0.00     0.031 C 
ATOM     18  C   UNL     1       4.267   3.344  -4.968  1.00  0.00     0.029 A 
ATOM     19  N   UNL     1       5.282   5.337  -4.947  1.00  0.00    -0.354 N 
ATOM     20  C   UNL     1       6.324   7.255  -1.218  1.00  0.00     0.074 A 
ATOM     21  C   UNL     1       5.970   6.422  -0.088  1.00  0.00     0.031 C 
ATOM     22  C   UNL     1       4.416   3.733  -6.243  1.00  0.00     0.029 A 
ATOM     23  C   UNL     1       5.033   5.055  -6.267  1.00  0.00     0.049 A 
ATOM     24  H   UNL     1       5.741   6.154  -4.646  1.00  0.00     0.167 HD
ATOM     25  C   UNL     1       6.917   8.470  -1.124  1.00  0.00     0.037 A 
ATOM     26  C   UNL     1       5.251   5.791  -7.373  1.00  0.00     0.037 A 
ATOM     27  C   UNL     1       7.275   9.288  -2.253  1.00  0.00     0.049 A 
ATOM     28  C   UNL     1       5.887   7.145  -7.243  1.00  0.00     0.074 A 
ATOM     29  C   UNL     1       7.917  10.515  -2.263  1.00  0.00     0.029 A 
ATOM     30  N   UNL     1       7.013   8.965  -3.578  1.00  0.00    -0.354 N 
ATOM     31  N   UNL     1       6.276   7.772  -6.159  1.00  0.00    -0.248 NA
ATOM     32  C   UNL     1       6.114   7.895  -8.485  1.00  0.00     0.031 C 
ATOM     33  C   UNL     1       8.002  10.954  -3.588  1.00  0.00     0.029 A 
ATOM     34  C   UNL     1       7.460   9.979  -4.410  1.00  0.00     0.049 A 
ATOM     35  H   UNL     1       6.575   8.137  -3.881  1.00  0.00     0.167 HD
ATOM     36  C   UNL     1       6.816   8.976  -6.588  1.00  0.00     0.074 A 
ATOM     37  C   UNL     1       6.708   8.991  -8.032  1.00  0.00     0.031 C 
ATOM     38  C   UNL     1       7.356   9.975  -5.848  1.00  0.00     0.037 A 
BRANCH  25  39
ATOM     39  C   UNL     1       7.191   8.998   0.255  1.00  0.00     0.064 A 
ATOM     40  C   UNL     1       8.186   8.444   1.075  1.00  0.00     0.173 A 
ATOM     41  C   UNL     1       6.462  10.088   0.754  1.00  0.00     0.173 A 
ATOM     42  F   UNL     1       8.904   7.394   0.649  1.00  0.00    -0.203 F 
ATOM     43  C   UNL     1       8.416   8.939   2.356  1.00  0.00     0.198 A 
ATOM     44  C   UNL     1       6.715  10.599   2.025  1.00  0.00     0.198 A 
ATOM     45  F   UNL     1       5.506  10.662   0.008  1.00  0.00    -0.203 F 
ATOM     46  F   UNL     1       9.335   8.360   3.141  1.00  0.00    -0.200 F 
ATOM     47  C   UNL     1       7.684  10.018   2.828  1.00  0.00     0.200 A 
ATOM     48  F   UNL     1       6.016  11.650   2.474  1.00  0.00    -0.200 F 
ATOM     49  F   UNL     1       7.908  10.494   4.061  1.00  0.00    -0.200 F 
ENDBRANCH  25  39
BRANCH  26  50
ATOM     50  C   UNL     1       4.857   5.245  -8.697  1.00  0.00     0.064 A 
ATOM     51  C   UNL     1       5.822   4.809  -9.613  1.00  0.00     0.173 A 
ATOM     52  C   UNL     1       3.506   5.104  -9.050  1.00  0.00     0.173 A 
ATOM     53  F   UNL     1       7.125   4.941  -9.326  1.00  0.00    -0.203 F 
ATOM     54  C   UNL     1       5.451   4.253 -10.836  1.00  0.00     0.198 A 
ATOM     55  C   UNL     1       3.137   4.526 -10.262  1.00  0.00     0.198 A 
ATOM     56  F   UNL     1       2.546   5.502  -8.203  1.00  0.00    -0.203 F 
ATOM     57  F   UNL     1       6.394   3.865 -11.706  1.00  0.00    -0.200 F 
ATOM     58  C   UNL     1       4.109   4.103 -11.155  1.00  0.00     0.200 A 
ATOM     59  F   UNL     1       1.840   4.367 -10.559  1.00  0.00    -0.200 F 
ATOM     60  F   UNL     1       3.754   3.552 -12.323  1.00  0.00    -0.200 F 
ENDBRANCH  26  50
BRANCH  38  61
ATOM     61  C   UNL     1       7.913  11.156  -6.586  1.00  0.00     0.064 A 
ATOM     62  C   UNL     1       7.080  12.123  -7.165  1.00  0.00     0.173 A 
ATOM     63  C   UNL     1       9.301  11.352  -6.659  1.00  0.00     0.173 A 
ATOM     64  F   UNL     1       5.747  11.972  -7.135  1.00  0.00    -0.203 F 
ATOM     65  C   UNL     1       7.617  13.239  -7.801  1.00  0.00     0.198 A 
ATOM     66  C   UNL     1       9.833  12.481  -7.274  1.00  0.00     0.198 A 
ATOM     67  F   UNL     1      10.139  10.456  -6.116  1.00  0.00    -0.203 F 
ATOM     68  F   UNL     1       6.804  14.136  -8.376  1.00  0.00    -0.200 F 
ATOM     69  C   UNL     1       8.992  13.421  -7.847  1.00  0.00     0.200 A 
ATOM     70  F   UNL     1      11.161  12.660  -7.307  1.00  0.00    -0.200 F 
ATOM     71  F   UNL     1       9.506  14.503  -8.449  1.00  0.00    -0.200 F 
ENDBRANCH  38  61
ENDBRANCH  12  13
ENDBRANCH   5   7
ENDBRANCH   2   3
ENDBRANCH   1   2
BRANCH   1  72
ATOM     72  C   UNL     1       4.080  -2.807   2.850  1.00  0.00     0.117 C 
BRANCH  72  73
ATOM     73  N   UNL     1       5.072  -3.798   2.475  1.00  0.00    -0.356 N 
ATOM     74  C   UNL     1       6.182  -4.242   3.131  1.00  0.00     0.225 C 
ATOM     75  H   UNL     1       4.918  -4.221   1.600  1.00  0.00     0.163 HD
ATOM     76  O   UNL     1       6.991  -4.890   2.466  1.00  0.00    -0.275 OA
BRANCH  74  77
ATOM     77  C   UNL     1       6.366  -3.975   4.619  1.00  0.00     0.107 C 
ATOM     78  C   UNL     1       6.577  -2.490   4.863  1.00  0.00     0.133 C 
ATOM     79  C   UNL     1       7.643  -4.630   5.243  1.00  0.00     0.053 C 
ATOM     80  N   UNL     1       7.281  -2.422   6.114  1.00  0.00    -0.336 N 
ATOM     81  C   UNL     1       8.148  -3.571   6.262  1.00  0.00     0.129 C 
BRANCH  79  82
ATOM     82  C   UNL     1       7.417  -6.053   5.765  1.00  0.00    -0.038 A 
ATOM     83  C   UNL     1       7.002  -7.064   4.857  1.00  0.00     0.008 A 
ATOM     84  C   UNL     1       7.664  -6.438   7.095  1.00  0.00     0.054 A 
ATOM     85  C   UNL     1       6.815  -8.396   5.252  1.00  0.00     0.051 A 
ATOM     86  C   UNL     1       7.478  -7.760   7.458  1.00  0.00     0.166 A 
ATOM     87  C   UNL     1       7.063  -8.713   6.564  1.00  0.00     0.165 A 
ATOM     88  O   UNL     1       7.688  -8.273   8.701  1.00  0.00    -0.454 OA
ATOM     89  O   UNL     1       6.954  -9.945   7.125  1.00  0.00    -0.454 OA
ATOM     90  C   UNL     1       7.356  -9.660   8.481  1.00  0.00     0.468 C 
ENDBRANCH  79  82
BRANCH  80  91
ATOM     91  C   UNL     1       7.221  -1.408   7.053  1.00  0.00     0.277 C 
ATOM     92  O   UNL     1       7.973  -1.379   8.030  1.00  0.00    -0.268 OA
BRANCH  91  93
ATOM     93  C   UNL     1       6.108  -0.356   6.888  1.00  0.00     0.363 C 
BRANCH  93  94
ATOM     94  N   UNL     1       6.389   0.527   5.737  1.00  0.00    -0.323 N 
ATOM     95  C   UNL     1       7.194   1.702   6.146  1.00  0.00     0.291 C 
ATOM     96  C   UNL     1       5.155   1.002   5.082  1.00  0.00     0.291 C 
ATOM     97  H   UNL     1       6.916  -0.038   5.070  1.00  0.00     0.348 HD
ATOM     98  C   UNL     1       6.389   2.796   6.880  1.00  0.00     0.221 C 
ATOM     99  C   UNL     1       4.395   2.085   5.855  1.00  0.00     0.221 C 
ATOM    100  O   UNL     1       5.242   3.205   6.122  1.00  0.00    -0.370 OA
ENDBRANCH  93  94
ENDBRANCH  91  93
ENDBRANCH  80  91
ENDBRANCH  74  77
ENDBRANCH  72  73
ENDBRANCH   1  72
TORSDOF 14
