REMARK SMILES CC[C@@](O)(C(=O)NCCCNC(=O)c1ccc(-c2c3nc(c(-c4c(F)c(F)c(F)c(F)c4F)c4ccc([nH]4)c(-c4c(F)c(F)c(F)c(F)c4F)c4nc(c(-c5c(F)c(F)c(F)c(F)c5F)c5ccc2[nH]5)C=C4)C=C3)cc1)[C@@H]1CCOc2ccccc21
REMARK SMILES IDX 9 1 8 2 7 3 5 4 6 5 3 7 2 8 1 9 4 10 77 12 78 13 86 14 79 15
REMARK SMILES IDX 81 16 85 17 80 18 82 19 84 20 83 21 10 22 11 23 12 24 13 26
REMARK SMILES IDX 14 27 15 28 76 29 16 30 75 31 17 32 18 33 19 34 69 35 20 36
REMARK SMILES IDX 74 37 68 38 70 39 21 40 73 41 67 42 66 43 22 45 54 46 34 47
REMARK SMILES IDX 53 48 35 49 38 50 52 51 71 52 36 53 37 54 51 56 72 57 39 58
REMARK SMILES IDX 23 59 24 60 32 61 25 62 26 63 30 64 33 65 27 66 28 67 31 68
REMARK SMILES IDX 29 69 55 70 56 71 64 72 57 73 58 74 62 75 65 76 59 77 60 78
REMARK SMILES IDX 63 79 61 80 40 81 41 82 49 83 42 84 43 85 47 86 50 87 44 88
REMARK SMILES IDX 45 89 48 90 46 91
REMARK H PARENT 7 6 4 11 11 25 70 44 38 55
REMARK Flexibility Score: inf
ROOT
ATOM      1  C   UNL     1      -3.145  -0.198  -2.665  1.00  0.00     0.042 C 
ENDROOT
BRANCH   1   2
ATOM      2  C   UNL     1      -2.290  -1.448  -2.517  1.00  0.00     0.117 C 
BRANCH   2   3
ATOM      3  N   UNL     1      -1.145  -1.397  -3.404  1.00  0.00    -0.354 N 
ATOM      4  C   UNL     1       0.170  -1.173  -3.144  1.00  0.00     0.252 C 
ATOM      5  O   UNL     1       0.890  -0.969  -4.128  1.00  0.00    -0.272 OA
ATOM      6  H   UNL     1      -1.354  -1.549  -4.354  1.00  0.00     0.163 HD
BRANCH   4   7
ATOM      7  C   UNL     1       0.735  -1.109  -1.682  1.00  0.00     0.149 C 
BRANCH   7   8
ATOM      8  C   UNL     1       0.607   0.380  -1.265  1.00  0.00     0.043 C 
ATOM      9  C   UNL     1       0.440   0.679   0.225  1.00  0.00     0.007 C 
ENDBRANCH   7   8
BRANCH   7  10
ATOM     10  O   UNL     1      -0.012  -1.901  -0.754  1.00  0.00    -0.379 OA
ATOM     11  H   UNL     1      -0.906  -1.536  -0.664  1.00  0.00     0.212 HD
ENDBRANCH   7  10
BRANCH   7  12
ATOM     12  C   UNL     1       2.186  -1.733  -1.803  1.00  0.00     0.068 C 
ATOM     13  C   UNL     1       2.038  -3.223  -2.245  1.00  0.00     0.053 C 
ATOM     14  C   UNL     1       3.042  -1.629  -0.553  1.00  0.00     0.001 A 
ATOM     15  C   UNL     1       3.116  -4.107  -1.661  1.00  0.00     0.230 C 
ATOM     16  C   UNL     1       3.358  -2.765   0.199  1.00  0.00     0.122 A 
ATOM     17  C   UNL     1       3.563  -0.398  -0.136  1.00  0.00     0.008 A 
ATOM     18  O   UNL     1       3.069  -4.033  -0.232  1.00  0.00    -0.493 OA
ATOM     19  C   UNL     1       4.005  -2.657   1.428  1.00  0.00     0.047 A 
ATOM     20  C   UNL     1       4.232  -0.284   1.084  1.00  0.00     0.001 A 
ATOM     21  C   UNL     1       4.426  -1.409   1.881  1.00  0.00     0.004 A 
ENDBRANCH   7  12
ENDBRANCH   4   7
ENDBRANCH   2   3
ENDBRANCH   1   2
BRANCH   1  22
ATOM     22  C   UNL     1      -3.731  -0.037  -4.060  1.00  0.00     0.118 C 
BRANCH  22  23
ATOM     23  N   UNL     1      -4.666  -1.106  -4.389  1.00  0.00    -0.352 N 
ATOM     24  C   UNL     1      -6.028  -1.059  -4.534  1.00  0.00     0.251 C 
ATOM     25  H   UNL     1      -4.260  -1.992  -4.529  1.00  0.00     0.163 HD
ATOM     26  O   UNL     1      -6.684  -2.100  -4.562  1.00  0.00    -0.269 OA
BRANCH  24  27
ATOM     27  C   UNL     1      -6.710   0.244  -4.643  1.00  0.00     0.039 A 
ATOM     28  C   UNL     1      -7.903   0.452  -3.947  1.00  0.00     0.014 A 
ATOM     29  C   UNL     1      -6.171   1.260  -5.436  1.00  0.00     0.014 A 
ATOM     30  C   UNL     1      -8.520   1.702  -3.998  1.00  0.00     0.010 A 
ATOM     31  C   UNL     1      -6.730   2.531  -5.404  1.00  0.00     0.010 A 
ATOM     32  C   UNL     1      -7.918   2.762  -4.696  1.00  0.00    -0.014 A 
BRANCH  32  33
ATOM     33  C   UNL     1      -8.520   4.118  -4.716  1.00  0.00     0.031 A 
ATOM     34  C   UNL     1      -8.960   4.723  -6.020  1.00  0.00     0.074 A 
ATOM     35  C   UNL     1      -8.604   4.827  -3.574  1.00  0.00     0.049 A 
ATOM     36  N   UNL     1      -9.432   5.920  -6.261  1.00  0.00    -0.248 NA
ATOM     37  C   UNL     1      -8.822   3.883  -7.221  1.00  0.00     0.031 C 
ATOM     38  C   UNL     1      -8.161   4.366  -2.256  1.00  0.00     0.029 A 
ATOM     39  N   UNL     1      -9.082   6.092  -3.339  1.00  0.00    -0.354 N 
ATOM     40  C   UNL     1      -9.628   5.979  -7.634  1.00  0.00     0.074 A 
ATOM     41  C   UNL     1      -9.168   4.723  -8.184  1.00  0.00     0.031 C 
ATOM     42  C   UNL     1      -8.411   5.323  -1.348  1.00  0.00     0.029 A 
ATOM     43  C   UNL     1      -8.991   6.479  -2.024  1.00  0.00     0.049 A 
ATOM     44  H   UNL     1      -9.454   6.667  -4.045  1.00  0.00     0.167 HD
ATOM     45  C   UNL     1     -10.168   6.981  -8.368  1.00  0.00     0.037 A 
ATOM     46  C   UNL     1      -9.331   7.641  -1.433  1.00  0.00     0.037 A 
ATOM     47  C   UNL     1     -10.651   8.216  -7.810  1.00  0.00     0.049 A 
ATOM     48  C   UNL     1      -9.926   8.739  -2.273  1.00  0.00     0.074 A 
ATOM     49  C   UNL     1     -11.273   9.269  -8.457  1.00  0.00     0.029 A 
ATOM     50  N   UNL     1     -10.564   8.563  -6.470  1.00  0.00    -0.354 N 
ATOM     51  N   UNL     1     -10.174   8.756  -3.560  1.00  0.00    -0.248 NA
ATOM     52  C   UNL     1     -10.297   9.978  -1.575  1.00  0.00     0.031 C 
ATOM     53  C   UNL     1     -11.515  10.276  -7.516  1.00  0.00     0.029 A 
ATOM     54  C   UNL     1     -11.101   9.825  -6.273  1.00  0.00     0.049 A 
ATOM     55  H   UNL     1     -10.179   7.996  -5.763  1.00  0.00     0.167 HD
ATOM     56  C   UNL     1     -10.758   9.988  -3.821  1.00  0.00     0.074 A 
ATOM     57  C   UNL     1     -10.841  10.685  -2.555  1.00  0.00     0.031 C 
ATOM     58  C   UNL     1     -11.187  10.497  -5.002  1.00  0.00     0.037 A 
BRANCH  45  59
ATOM     59  C   UNL     1     -10.273   6.780  -9.853  1.00  0.00     0.064 A 
ATOM     60  C   UNL     1     -11.158   5.844 -10.409  1.00  0.00     0.173 A 
ATOM     61  C   UNL     1      -9.509   7.562 -10.732  1.00  0.00     0.173 A 
ATOM     62  F   UNL     1     -11.903   5.062  -9.614  1.00  0.00    -0.203 F 
ATOM     63  C   UNL     1     -11.253   5.678 -11.789  1.00  0.00     0.198 A 
ATOM     64  C   UNL     1      -9.631   7.417 -12.112  1.00  0.00     0.198 A 
ATOM     65  F   UNL     1      -8.650   8.475 -10.255  1.00  0.00    -0.203 F 
ATOM     66  F   UNL     1     -12.068   4.742 -12.295  1.00  0.00    -0.200 F 
ATOM     67  C   UNL     1     -10.497   6.471 -12.639  1.00  0.00     0.200 A 
ATOM     68  F   UNL     1      -8.910   8.194 -12.932  1.00  0.00    -0.200 F 
ATOM     69  F   UNL     1     -10.598   6.318 -13.966  1.00  0.00    -0.200 F 
ENDBRANCH  45  59
BRANCH  46  70
ATOM     70  C   UNL     1      -9.138   7.818   0.030  1.00  0.00     0.064 A 
ATOM     71  C   UNL     1     -10.238   7.924   0.893  1.00  0.00     0.173 A 
ATOM     72  C   UNL     1      -7.857   7.898   0.595  1.00  0.00     0.173 A 
ATOM     73  F   UNL     1     -11.484   7.873   0.400  1.00  0.00    -0.203 F 
ATOM     74  C   UNL     1     -10.064   8.130   2.260  1.00  0.00     0.198 A 
ATOM     75  C   UNL     1      -7.684   8.072   1.967  1.00  0.00     0.198 A 
ATOM     76  F   UNL     1      -6.771   7.795  -0.185  1.00  0.00    -0.203 F 
ATOM     77  F   UNL     1     -11.133   8.282   3.054  1.00  0.00    -0.200 F 
ATOM     78  C   UNL     1      -8.787   8.199   2.797  1.00  0.00     0.200 A 
ATOM     79  F   UNL     1      -6.448   8.121   2.483  1.00  0.00    -0.200 F 
ATOM     80  F   UNL     1      -8.620   8.396   4.112  1.00  0.00    -0.200 F 
ENDBRANCH  46  70
BRANCH  58  81
ATOM     81  C   UNL     1     -11.827  11.855  -4.975  1.00  0.00     0.064 A 
ATOM     82  C   UNL     1     -11.081  13.020  -4.745  1.00  0.00     0.173 A 
ATOM     83  C   UNL     1     -13.201  11.994  -5.228  1.00  0.00     0.173 A 
ATOM     84  F   UNL     1      -9.767  12.939  -4.484  1.00  0.00    -0.203 F 
ATOM     85  C   UNL     1     -11.691  14.271  -4.741  1.00  0.00     0.198 A 
ATOM     86  C   UNL     1     -13.801  13.249  -5.256  1.00  0.00     0.198 A 
ATOM     87  F   UNL     1     -13.958  10.912  -5.462  1.00  0.00    -0.203 F 
ATOM     88  F   UNL     1     -10.968  15.366  -4.468  1.00  0.00    -0.200 F 
ATOM     89  C   UNL     1     -13.048  14.385  -5.005  1.00  0.00     0.200 A 
ATOM     90  F   UNL     1     -15.109  13.358  -5.528  1.00  0.00    -0.200 F 
ATOM     91  F   UNL     1     -13.632  15.591  -5.010  1.00  0.00    -0.200 F 
ENDBRANCH  58  81
ENDBRANCH  32  33
ENDBRANCH  24  27
ENDBRANCH  22  23
ENDBRANCH   1  22
TORSDOF 13
