REMARK SMILES COc1ccc(OCc2cccs2)c(C(=O)NCCCNC(=O)c2ccc(-c3c4nc(c(-c5c(F)c(F)c(F)c(F)c5F)c5ccc([nH]5)c(-c5c(F)c(F)c(F)c(F)c5F)c5nc(c(-c6c(F)c(F)c(F)c(F)c6F)c6ccc3[nH]6)C=C5)C=C4)cc2)c1
REMARK SMILES IDX 18 1 17 2 15 3 16 4 14 6 3 7 4 8 87 9 5 10 6 11 2 12 1 13
REMARK SMILES IDX 7 14 8 15 9 16 10 17 13 18 11 19 12 20 19 21 20 22 21 23
REMARK SMILES IDX 22 24 23 26 24 27 25 28 86 29 26 30 85 31 27 32 28 33 29 34
REMARK SMILES IDX 79 35 30 36 84 37 78 38 80 39 31 40 83 41 77 42 76 43 32 45
REMARK SMILES IDX 64 46 44 47 63 48 45 49 48 50 62 51 81 52 46 53 47 54 61 56
REMARK SMILES IDX 82 57 49 58 33 59 34 60 42 61 35 62 36 63 40 64 43 65 37 66
REMARK SMILES IDX 38 67 41 68 39 69 65 70 66 71 74 72 67 73 68 74 72 75 75 76
REMARK SMILES IDX 69 77 70 78 73 79 71 80 50 81 51 82 59 83 52 84 53 85 57 86
REMARK SMILES IDX 60 87 54 88 55 89 58 90 56 91
REMARK H PARENT 17 5 21 25 80 44 48 55
REMARK Flexibility Score: inf
ROOT
ATOM      1  C   UNL     1       4.685  -0.612   1.663  1.00  0.00     0.118 C 
ENDROOT
BRANCH   1   2
ATOM      2  N   UNL     1       4.724  -0.163   3.047  1.00  0.00    -0.352 N 
ATOM      3  C   UNL     1       3.805   0.197   3.992  1.00  0.00     0.255 C 
ATOM      4  O   UNL     1       4.261   0.778   4.976  1.00  0.00    -0.269 OA
ATOM      5  H   UNL     1       5.646  -0.103   3.388  1.00  0.00     0.163 HD
BRANCH   3   6
ATOM      6  C   UNL     1       2.349  -0.051   3.897  1.00  0.00     0.085 A 
ATOM      7  C   UNL     1       0.315   0.216   2.559  1.00  0.00     0.119 A 
ATOM      8  C   UNL     1      -0.444   0.162   3.719  1.00  0.00     0.050 A 
ATOM      9  C   UNL     1       1.704   0.173   2.666  1.00  0.00     0.064 A 
ATOM     10  C   UNL     1       0.177  -0.077   4.946  1.00  0.00     0.051 A 
ATOM     11  C   UNL     1       1.567  -0.262   5.044  1.00  0.00     0.132 A 
BRANCH   7  12
ATOM     12  O   UNL     1      -0.377   0.404   1.395  1.00  0.00    -0.497 OA
ATOM     13  C   UNL     1       0.303   0.055   0.191  1.00  0.00     0.278 C 
ENDBRANCH   7  12
BRANCH  11  14
ATOM     14  O   UNL     1       1.934  -0.588   6.319  1.00  0.00    -0.487 OA
BRANCH  14  15
ATOM     15  C   UNL     1       3.110  -1.335   6.652  1.00  0.00     0.276 C 
BRANCH  15  16
ATOM     16  C   UNL     1       3.193  -2.657   5.945  1.00  0.00     0.042 A 
ATOM     17  C   UNL     1       4.025  -3.021   4.903  1.00  0.00     0.019 A 
ATOM     18  S   UNL     1       2.277  -4.000   6.492  1.00  0.00    -0.145 S 
ATOM     19  C   UNL     1       3.881  -4.383   4.525  1.00  0.00     0.012 A 
ATOM     20  C   UNL     1       2.988  -5.043   5.336  1.00  0.00     0.065 A 
ENDBRANCH  15  16
ENDBRANCH  14  15
ENDBRANCH  11  14
ENDBRANCH   3   6
ENDBRANCH   1   2
BRANCH   1  21
ATOM     21  C   UNL     1       5.375   0.444   0.803  1.00  0.00     0.042 C 
BRANCH  21  22
ATOM     22  C   UNL     1       6.890   0.353   0.945  1.00  0.00     0.118 C 
BRANCH  22  23
ATOM     23  N   UNL     1       7.414  -0.819   0.249  1.00  0.00    -0.352 N 
ATOM     24  C   UNL     1       8.195  -0.866  -0.878  1.00  0.00     0.251 C 
ATOM     25  H   UNL     1       7.176  -1.690   0.641  1.00  0.00     0.163 HD
ATOM     26  O   UNL     1       8.316  -1.908  -1.516  1.00  0.00    -0.269 OA
BRANCH  24  27
ATOM     27  C   UNL     1       8.875   0.365  -1.314  1.00  0.00     0.039 A 
ATOM     28  C   UNL     1       8.845   0.738  -2.658  1.00  0.00     0.014 A 
ATOM     29  C   UNL     1       9.497   1.175  -0.361  1.00  0.00     0.014 A 
ATOM     30  C   UNL     1       9.389   1.965  -3.035  1.00  0.00     0.010 A 
ATOM     31  C   UNL     1       9.920   2.443  -0.718  1.00  0.00     0.010 A 
ATOM     32  C   UNL     1       9.896   2.842  -2.062  1.00  0.00    -0.014 A 
BRANCH  32  33
ATOM     33  C   UNL     1      10.465   4.164  -2.414  1.00  0.00     0.031 A 
ATOM     34  C   UNL     1      11.900   4.458  -2.069  1.00  0.00     0.074 A 
ATOM     35  C   UNL     1       9.682   5.116  -2.954  1.00  0.00     0.049 A 
ATOM     36  N   UNL     1      12.564   5.581  -2.163  1.00  0.00    -0.248 NA
ATOM     37  C   UNL     1      12.682   3.348  -1.496  1.00  0.00     0.031 C 
ATOM     38  C   UNL     1       8.264   4.963  -3.285  1.00  0.00     0.029 A 
ATOM     39  N   UNL     1       9.967   6.410  -3.308  1.00  0.00    -0.354 N 
ATOM     40  C   UNL     1      13.822   5.316  -1.637  1.00  0.00     0.074 A 
ATOM     41  C   UNL     1      13.807   3.955  -1.155  1.00  0.00     0.031 C 
ATOM     42  C   UNL     1       7.811   6.107  -3.821  1.00  0.00     0.029 A 
ATOM     43  C   UNL     1       8.892   7.089  -3.827  1.00  0.00     0.049 A 
ATOM     44  H   UNL     1      10.858   6.814  -3.200  1.00  0.00     0.167 HD
ATOM     45  C   UNL     1      14.905   6.126  -1.593  1.00  0.00     0.037 A 
ATOM     46  C   UNL     1       8.793   8.363  -4.250  1.00  0.00     0.037 A 
ATOM     47  C   UNL     1      14.920   7.467  -2.110  1.00  0.00     0.049 A 
ATOM     48  C   UNL     1      10.010   9.247  -4.185  1.00  0.00     0.074 A 
ATOM     49  C   UNL     1      15.977   8.356  -2.172  1.00  0.00     0.029 A 
ATOM     50  N   UNL     1      13.819   8.111  -2.655  1.00  0.00    -0.354 N 
ATOM     51  N   UNL     1      11.215   8.968  -3.749  1.00  0.00    -0.248 NA
ATOM     52  C   UNL     1       9.855  10.622  -4.678  1.00  0.00     0.031 C 
ATOM     53  C   UNL     1      15.502   9.558  -2.707  1.00  0.00     0.029 A 
ATOM     54  C   UNL     1      14.166   9.396  -3.038  1.00  0.00     0.049 A 
ATOM     55  H   UNL     1      12.923   7.714  -2.755  1.00  0.00     0.167 HD
ATOM     56  C   UNL     1      11.970  10.116  -3.949  1.00  0.00     0.074 A 
ATOM     57  C   UNL     1      11.088  11.092  -4.556  1.00  0.00     0.031 C 
ATOM     58  C   UNL     1      13.275  10.343  -3.658  1.00  0.00     0.037 A 
BRANCH  45  59
ATOM     59  C   UNL     1      16.158   5.576  -0.972  1.00  0.00     0.064 A 
ATOM     60  C   UNL     1      16.877   4.525  -1.564  1.00  0.00     0.173 A 
ATOM     61  C   UNL     1      16.655   6.114   0.224  1.00  0.00     0.173 A 
ATOM     62  F   UNL     1      16.438   3.962  -2.700  1.00  0.00    -0.203 F 
ATOM     63  C   UNL     1      18.021   4.009  -0.962  1.00  0.00     0.198 A 
ATOM     64  C   UNL     1      17.822   5.622   0.803  1.00  0.00     0.198 A 
ATOM     65  F   UNL     1      16.010   7.121   0.833  1.00  0.00    -0.203 F 
ATOM     66  F   UNL     1      18.652   2.962  -1.513  1.00  0.00    -0.200 F 
ATOM     67  C   UNL     1      18.497   4.563   0.216  1.00  0.00     0.200 A 
ATOM     68  F   UNL     1      18.288   6.167   1.935  1.00  0.00    -0.200 F 
ATOM     69  F   UNL     1      19.603   4.069   0.791  1.00  0.00    -0.200 F 
ENDBRANCH  45  59
BRANCH  46  70
ATOM     70  C   UNL     1       7.507   8.870  -4.800  1.00  0.00     0.064 A 
ATOM     71  C   UNL     1       7.385   9.194  -6.158  1.00  0.00     0.173 A 
ATOM     72  C   UNL     1       6.379   9.047  -3.985  1.00  0.00     0.173 A 
ATOM     73  F   UNL     1       8.440   9.058  -6.976  1.00  0.00    -0.203 F 
ATOM     74  C   UNL     1       6.194   9.701  -6.675  1.00  0.00     0.198 A 
ATOM     75  C   UNL     1       5.179   9.523  -4.509  1.00  0.00     0.198 A 
ATOM     76  F   UNL     1       6.438   8.743  -2.680  1.00  0.00    -0.203 F 
ATOM     77  F   UNL     1       6.122  10.050  -7.967  1.00  0.00    -0.200 F 
ATOM     78  C   UNL     1       5.090   9.860  -5.852  1.00  0.00     0.200 A 
ATOM     79  F   UNL     1       4.109   9.658  -3.714  1.00  0.00    -0.200 F 
ATOM     80  F   UNL     1       3.944  10.343  -6.349  1.00  0.00    -0.200 F 
ENDBRANCH  46  70
BRANCH  58  81
ATOM     81  C   UNL     1      13.846  11.677  -4.043  1.00  0.00     0.064 A 
ATOM     82  C   UNL     1      13.494  12.857  -3.372  1.00  0.00     0.173 A 
ATOM     83  C   UNL     1      14.804  11.764  -5.066  1.00  0.00     0.173 A 
ATOM     84  F   UNL     1      12.574  12.829  -2.396  1.00  0.00    -0.203 F 
ATOM     85  C   UNL     1      14.059  14.078  -3.729  1.00  0.00     0.198 A 
ATOM     86  C   UNL     1      15.393  12.980  -5.396  1.00  0.00     0.198 A 
ATOM     87  F   UNL     1      15.183  10.663  -5.733  1.00  0.00    -0.203 F 
ATOM     88  F   UNL     1      13.671  15.200  -3.108  1.00  0.00    -0.200 F 
ATOM     89  C   UNL     1      15.015  14.137  -4.733  1.00  0.00     0.200 A 
ATOM     90  F   UNL     1      16.330  13.031  -6.353  1.00  0.00    -0.200 F 
ATOM     91  F   UNL     1      15.567  15.312  -5.066  1.00  0.00    -0.200 F 
ENDBRANCH  58  81
ENDBRANCH  32  33
ENDBRANCH  24  27
ENDBRANCH  22  23
ENDBRANCH  21  22
ENDBRANCH   1  21
TORSDOF 14
