REMARK SMILES CCCN(CCC)c1ccc(C(=O)NCCCNC(=O)c2ccc(-c3c4nc(c(-c5c(F)c(F)c(F)c(F)c5F)c5ccc([nH]5)c(-c5c(F)c(F)c(F)c(F)c5F)c5nc(c(-c6c(F)c(F)c(F)c(F)c6F)c6ccc3[nH]6)C=C5)C=C4)cc2)cc1[N+](=O)[O-]
REMARK SMILES IDX 15 1 14 2 12 3 13 4 11 6 8 7 9 8 85 9 10 10 84 11 4 12 3 13
REMARK SMILES IDX 2 14 1 15 5 16 6 17 7 18 86 19 87 20 88 21 16 22 17 23 18 24
REMARK SMILES IDX 19 25 20 27 21 28 22 29 83 30 23 31 82 32 24 33 25 34 26 35
REMARK SMILES IDX 76 36 27 37 81 38 75 39 77 40 28 41 80 42 74 43 73 44 29 46
REMARK SMILES IDX 61 47 41 48 60 49 42 50 45 51 59 52 78 53 43 54 44 55 58 57
REMARK SMILES IDX 79 58 46 59 30 60 31 61 39 62 32 63 33 64 37 65 40 66 34 67
REMARK SMILES IDX 35 68 38 69 36 70 62 71 63 72 71 73 64 74 65 75 69 76 72 77
REMARK SMILES IDX 66 78 67 79 70 80 68 81 47 82 48 83 56 84 49 85 50 86 54 87
REMARK SMILES IDX 57 88 51 89 52 90 55 91 53 92
REMARK H PARENT 14 5 18 26 77 45 45 56
REMARK Flexibility Score: inf
ROOT
ATOM      1  C   UNL     1       1.825  -0.903   4.670  1.00  0.00     0.118 C 
ENDROOT
BRANCH   1   2
ATOM      2  N   UNL     1       1.769  -2.334   4.931  1.00  0.00    -0.352 N 
ATOM      3  C   UNL     1       1.597  -3.369   4.050  1.00  0.00     0.251 C 
ATOM      4  O   UNL     1       1.736  -4.532   4.417  1.00  0.00    -0.269 OA
ATOM      5  H   UNL     1       1.870  -2.595   5.875  1.00  0.00     0.163 HD
BRANCH   3   6
ATOM      6  C   UNL     1       1.280  -3.087   2.638  1.00  0.00     0.046 A 
ATOM      7  C   UNL     1       0.752  -2.550  -0.091  1.00  0.00     0.116 A 
ATOM      8  C   UNL     1       1.860  -3.321   0.303  1.00  0.00     0.034 A 
ATOM      9  C   UNL     1      -0.074  -2.062   0.936  1.00  0.00     0.293 A 
ATOM     10  C   UNL     1       2.117  -3.602   1.649  1.00  0.00     0.016 A 
ATOM     11  C   UNL     1       0.164  -2.332   2.289  1.00  0.00     0.101 A 
BRANCH   7  12
ATOM     12  N   UNL     1       0.513  -2.330  -1.436  1.00  0.00    -0.366 N 
BRANCH  12  13
ATOM     13  C   UNL     1       1.435  -1.501  -2.220  1.00  0.00     0.116 C 
BRANCH  13  14
ATOM     14  C   UNL     1       1.170  -0.008  -1.990  1.00  0.00     0.018 C 
ATOM     15  C   UNL     1       2.003   0.584  -0.861  1.00  0.00     0.006 C 
ENDBRANCH  13  14
ENDBRANCH  12  13
BRANCH  12  16
ATOM     16  C   UNL     1      -0.410  -3.238  -2.139  1.00  0.00     0.116 C 
BRANCH  16  17
ATOM     17  C   UNL     1       0.214  -4.611  -2.420  1.00  0.00     0.018 C 
ATOM     18  C   UNL     1      -0.165  -5.658  -1.377  1.00  0.00     0.006 C 
ENDBRANCH  16  17
ENDBRANCH  12  16
ENDBRANCH   7  12
BRANCH   9  19
ATOM     19  N   UNL     1      -1.148  -1.133   0.643  1.00  0.00     0.065 N 
ATOM     20  O   UNL     1      -1.017   0.018   1.092  1.00  0.00    -0.258 OA
ATOM     21  O   UNL     1      -2.149  -1.563   0.057  1.00  0.00    -0.258 OA
ENDBRANCH   9  19
ENDBRANCH   3   6
ENDBRANCH   1   2
BRANCH   1  22
ATOM     22  C   UNL     1       0.590  -0.174   5.189  1.00  0.00     0.042 C 
BRANCH  22  23
ATOM     23  C   UNL     1       0.481  -0.154   6.709  1.00  0.00     0.118 C 
BRANCH  23  24
ATOM     24  N   UNL     1       1.496   0.685   7.328  1.00  0.00    -0.352 N 
ATOM     25  C   UNL     1       1.356   1.742   8.192  1.00  0.00     0.251 C 
ATOM     26  H   UNL     1       2.424   0.461   7.090  1.00  0.00     0.163 HD
ATOM     27  O   UNL     1       2.329   2.443   8.455  1.00  0.00    -0.269 OA
BRANCH  25  28
ATOM     28  C   UNL     1       0.043   2.055   8.798  1.00  0.00     0.039 A 
ATOM     29  C   UNL     1      -0.337   3.396   8.919  1.00  0.00     0.014 A 
ATOM     30  C   UNL     1      -0.792   1.048   9.289  1.00  0.00     0.014 A 
ATOM     31  C   UNL     1      -1.572   3.723   9.484  1.00  0.00     0.010 A 
ATOM     32  C   UNL     1      -2.052   1.369   9.788  1.00  0.00     0.010 A 
ATOM     33  C   UNL     1      -2.450   2.710   9.901  1.00  0.00    -0.014 A 
BRANCH  33  34
ATOM     34  C   UNL     1      -3.781   3.035  10.471  1.00  0.00     0.031 A 
ATOM     35  C   UNL     1      -4.086   2.715  11.907  1.00  0.00     0.074 A 
ATOM     36  C   UNL     1      -4.733   3.563   9.680  1.00  0.00     0.049 A 
ATOM     37  N   UNL     1      -5.205   2.866  12.570  1.00  0.00    -0.248 NA
ATOM     38  C   UNL     1      -2.996   2.122  12.695  1.00  0.00     0.031 C 
ATOM     39  C   UNL     1      -4.572   3.879   8.261  1.00  0.00     0.029 A 
ATOM     40  N   UNL     1      -6.029   3.919   9.957  1.00  0.00    -0.354 N 
ATOM     41  C   UNL     1      -4.959   2.369  13.843  1.00  0.00     0.074 A 
ATOM     42  C   UNL     1      -3.601   1.869  13.846  1.00  0.00     0.031 C 
ATOM     43  C   UNL     1      -5.717   4.406   7.797  1.00  0.00     0.029 A 
ATOM     44  C   UNL     1      -6.700   4.434   8.876  1.00  0.00     0.049 A 
ATOM     45  H   UNL     1      -6.439   3.815  10.846  1.00  0.00     0.167 HD
ATOM     46  C   UNL     1      -5.784   2.350  14.918  1.00  0.00     0.037 A 
ATOM     47  C   UNL     1      -7.966   4.877   8.768  1.00  0.00     0.037 A 
ATOM     48  C   UNL     1      -7.124   2.875  14.920  1.00  0.00     0.049 A 
ATOM     49  C   UNL     1      -8.863   4.848   9.974  1.00  0.00     0.074 A 
ATOM     50  C   UNL     1      -8.016   2.966  15.974  1.00  0.00     0.029 A 
ATOM     51  N   UNL     1      -7.767   3.398  13.807  1.00  0.00    -0.354 N 
ATOM     52  N   UNL     1      -8.600   4.435  11.190  1.00  0.00    -0.248 NA
ATOM     53  C   UNL     1     -10.231   5.352   9.793  1.00  0.00     0.031 C 
ATOM     54  C   UNL     1      -9.212   3.507  15.491  1.00  0.00     0.029 A 
ATOM     55  C   UNL     1      -9.052   3.793  14.144  1.00  0.00     0.049 A 
ATOM     56  H   UNL     1      -7.369   3.476  12.910  1.00  0.00     0.167 HD
ATOM     57  C   UNL     1      -9.758   4.649  11.924  1.00  0.00     0.074 A 
ATOM     58  C   UNL     1     -10.722   5.241  11.019  1.00  0.00     0.031 C 
ATOM     59  C   UNL     1      -9.999   4.381  13.231  1.00  0.00     0.037 A 
BRANCH  46  60
ATOM     60  C   UNL     1      -5.253   1.737  16.181  1.00  0.00     0.064 A 
ATOM     61  C   UNL     1      -4.245   2.358  16.934  1.00  0.00     0.173 A 
ATOM     62  C   UNL     1      -5.764   0.518  16.651  1.00  0.00     0.173 A 
ATOM     63  F   UNL     1      -3.713   3.520  16.522  1.00  0.00    -0.203 F 
ATOM     64  C   UNL     1      -3.741   1.763  18.088  1.00  0.00     0.198 A 
ATOM     65  C   UNL     1      -5.279  -0.060  17.821  1.00  0.00     0.198 A 
ATOM     66  F   UNL     1      -6.733  -0.116  15.973  1.00  0.00    -0.203 F 
ATOM     67  F   UNL     1      -2.737   2.347  18.757  1.00  0.00    -0.200 F 
ATOM     68  C   UNL     1      -4.261   0.558  18.533  1.00  0.00     0.200 A 
ATOM     69  F   UNL     1      -5.790  -1.220  18.256  1.00  0.00    -0.200 F 
ATOM     70  F   UNL     1      -3.774  -0.015  19.642  1.00  0.00    -0.200 F 
ENDBRANCH  46  60
BRANCH  47  71
ATOM     71  C   UNL     1      -8.443   5.426   7.474  1.00  0.00     0.064 A 
ATOM     72  C   UNL     1      -8.645   6.804   7.315  1.00  0.00     0.173 A 
ATOM     73  C   UNL     1      -8.682   4.598   6.369  1.00  0.00     0.173 A 
ATOM     74  F   UNL     1      -8.449   7.632   8.351  1.00  0.00    -0.203 F 
ATOM     75  C   UNL     1      -9.076   7.332   6.101  1.00  0.00     0.198 A 
ATOM     76  C   UNL     1      -9.092   5.129   5.148  1.00  0.00     0.198 A 
ATOM     77  F   UNL     1      -8.500   3.273   6.471  1.00  0.00    -0.203 F 
ATOM     78  F   UNL     1      -9.291   8.650   5.984  1.00  0.00    -0.200 F 
ATOM     79  C   UNL     1      -9.293   6.496   5.016  1.00  0.00     0.200 A 
ATOM     80  F   UNL     1      -9.290   4.320   4.099  1.00  0.00    -0.200 F 
ATOM     81  F   UNL     1      -9.699   7.005   3.845  1.00  0.00    -0.200 F 
ENDBRANCH  47  71
BRANCH  59  82
ATOM     82  C   UNL     1     -11.350   4.750  13.767  1.00  0.00     0.064 A 
ATOM     83  C   UNL     1     -12.496   4.010  13.442  1.00  0.00     0.173 A 
ATOM     84  C   UNL     1     -11.494   5.836  14.645  1.00  0.00     0.173 A 
ATOM     85  F   UNL     1     -12.412   2.974  12.594  1.00  0.00    -0.203 F 
ATOM     86  C   UNL     1     -13.741   4.357  13.959  1.00  0.00     0.198 A 
ATOM     87  C   UNL     1     -12.736   6.163  15.181  1.00  0.00     0.198 A 
ATOM     88  F   UNL     1     -10.427   6.572  14.990  1.00  0.00    -0.203 F 
ATOM     89  F   UNL     1     -14.830   3.663  13.601  1.00  0.00    -0.200 F 
ATOM     90  C   UNL     1     -13.859   5.428  14.832  1.00  0.00     0.200 A 
ATOM     91  F   UNL     1     -12.846   7.192  16.032  1.00  0.00    -0.200 F 
ATOM     92  F   UNL     1     -15.058   5.758  15.333  1.00  0.00    -0.200 F 
ENDBRANCH  59  82
ENDBRANCH  33  34
ENDBRANCH  25  28
ENDBRANCH  23  24
ENDBRANCH  22  23
ENDBRANCH   1  22
TORSDOF 16
