REMARK SMILES CC[C@](C)([NH3+])C(=O)Nc1ccc(C(F)(F)F)cc1C(=O)NCCCNC(=O)c1ccc(-c2c3nc(c(-c4c(F)c(F)c(F)c(F)c4F)c4ccc([nH]4)c(-c4c(F)c(F)c(F)c(F)c4F)c4nc(c(-c5c(F)c(F)c(F)c(F)c5F)c5ccc2[nH]5)C=C4)C=C3)cc1
REMARK SMILES IDX 22 1 21 2 19 3 20 4 18 6 9 7 10 8 11 9 17 10 12 11 8 12 6 13
REMARK SMILES IDX 7 14 3 16 4 17 2 18 1 19 5 20 13 24 14 25 15 26 16 27 23 28
REMARK SMILES IDX 24 29 25 30 26 31 27 33 28 34 29 35 90 36 30 37 89 38 31 39
REMARK SMILES IDX 32 40 33 41 83 42 34 43 88 44 82 45 84 46 35 47 87 48 81 49
REMARK SMILES IDX 80 50 36 52 68 53 48 54 67 55 49 56 52 57 66 58 85 59 50 60
REMARK SMILES IDX 51 61 65 63 86 64 53 65 37 66 38 67 46 68 39 69 40 70 44 71
REMARK SMILES IDX 47 72 41 73 42 74 45 75 43 76 69 77 70 78 78 79 71 80 72 81
REMARK SMILES IDX 76 82 79 83 73 84 74 85 77 86 75 87 54 88 55 89 63 90 56 91
REMARK SMILES IDX 57 92 61 93 64 94 58 95 59 96 62 97 60 98
REMARK H PARENT 21 5 8 15 5 21 5 22 5 23 25 32 84 51 52 62
REMARK Flexibility Score: inf
ROOT
ATOM      1  C   UNL     1       3.529  -2.556  -3.027  1.00  0.00     0.118 C 
ENDROOT
BRANCH   1   2
ATOM      2  N   UNL     1       2.372  -3.068  -3.721  1.00  0.00    -0.352 N 
ATOM      3  C   UNL     1       1.483  -4.053  -3.363  1.00  0.00     0.253 C 
ATOM      4  O   UNL     1       0.535  -4.240  -4.132  1.00  0.00    -0.269 OA
ATOM      5  H   UNL     1       2.191  -2.644  -4.591  1.00  0.00     0.163 HD
BRANCH   3   6
ATOM      6  C   UNL     1       1.652  -4.985  -2.193  1.00  0.00     0.063 A 
ATOM      7  C   UNL     1       2.288  -4.767  -0.957  1.00  0.00     0.054 A 
ATOM      8  C   UNL     1       2.595  -5.872  -0.141  1.00  0.00     0.027 A 
ATOM      9  C   UNL     1       2.100  -7.144  -0.420  1.00  0.00     0.015 A 
ATOM     10  C   UNL     1       1.124  -6.280  -2.436  1.00  0.00     0.029 A 
ATOM     11  C   UNL     1       1.297  -7.347  -1.540  1.00  0.00     0.056 A 
BRANCH   7  12
ATOM     12  N   UNL     1       2.707  -3.554  -0.397  1.00  0.00    -0.320 N 
ATOM     13  C   UNL     1       2.105  -2.347  -0.196  1.00  0.00     0.285 C 
ATOM     14  O   UNL     1       2.878  -1.439   0.149  1.00  0.00    -0.267 OA
ATOM     15  H   UNL     1       3.639  -3.578  -0.080  1.00  0.00     0.170 HD
BRANCH  13  16
ATOM     16  C   UNL     1       0.568  -2.119  -0.166  1.00  0.00     0.171 C 
ATOM     17  C   UNL     1       0.293  -0.608  -0.294  1.00  0.00     0.090 C 
BRANCH  16  18
ATOM     18  C   UNL     1       0.004  -2.699   1.150  1.00  0.00     0.075 C 
ATOM     19  C   UNL     1       0.649  -2.146   2.418  1.00  0.00     0.011 C 
ENDBRANCH  16  18
BRANCH  16  20
ATOM     20  N   UNL     1      -0.130  -2.752  -1.295  1.00  0.00    -0.345 N 
ATOM     21  H   UNL     1       0.232  -2.378  -2.172  1.00  0.00     0.345 HD
ATOM     22  H   UNL     1      -1.129  -2.557  -1.229  1.00  0.00     0.345 HD
ATOM     23  H   UNL     1       0.022  -3.760  -1.266  1.00  0.00     0.345 HD
ENDBRANCH  16  20
ENDBRANCH  13  16
ENDBRANCH   7  12
BRANCH  11  24
ATOM     24  C   UNL     1       0.653  -8.692  -1.776  1.00  0.00     0.416 C 
ATOM     25  F   UNL     1       1.536  -9.621  -2.229  1.00  0.00    -0.166 F 
ATOM     26  F   UNL     1       0.116  -9.210  -0.635  1.00  0.00    -0.166 F 
ATOM     27  F   UNL     1      -0.364  -8.658  -2.679  1.00  0.00    -0.166 F 
ENDBRANCH  11  24
ENDBRANCH   3   6
ENDBRANCH   1   2
BRANCH   1  28
ATOM     28  C   UNL     1       4.414  -1.629  -3.836  1.00  0.00     0.042 C 
BRANCH  28  29
ATOM     29  C   UNL     1       3.779  -0.262  -4.086  1.00  0.00     0.118 C 
BRANCH  29  30
ATOM     30  N   UNL     1       3.600   0.570  -2.893  1.00  0.00    -0.352 N 
ATOM     31  C   UNL     1       4.175   1.763  -2.502  1.00  0.00     0.251 C 
ATOM     32  H   UNL     1       2.948   0.211  -2.249  1.00  0.00     0.163 HD
ATOM     33  O   UNL     1       3.861   2.288  -1.444  1.00  0.00    -0.269 OA
BRANCH  31  34
ATOM     34  C   UNL     1       5.235   2.381  -3.328  1.00  0.00     0.039 A 
ATOM     35  C   UNL     1       6.398   2.840  -2.702  1.00  0.00     0.014 A 
ATOM     36  C   UNL     1       5.123   2.438  -4.712  1.00  0.00     0.014 A 
ATOM     37  C   UNL     1       7.501   3.206  -3.478  1.00  0.00     0.010 A 
ATOM     38  C   UNL     1       6.259   2.661  -5.476  1.00  0.00     0.010 A 
ATOM     39  C   UNL     1       7.469   3.032  -4.870  1.00  0.00    -0.014 A 
BRANCH  39  40
ATOM     40  C   UNL     1       8.675   3.211  -5.722  1.00  0.00     0.031 A 
ATOM     41  C   UNL     1       8.624   4.151  -6.897  1.00  0.00     0.074 A 
ATOM     42  C   UNL     1       9.769   2.448  -5.517  1.00  0.00     0.049 A 
ATOM     43  N   UNL     1       9.477   4.302  -7.878  1.00  0.00    -0.248 NA
ATOM     44  C   UNL     1       7.425   4.998  -7.012  1.00  0.00     0.031 C 
ATOM     45  C   UNL     1       9.929   1.451  -4.456  1.00  0.00     0.029 A 
ATOM     46  N   UNL     1      10.955   2.383  -6.207  1.00  0.00    -0.354 N 
ATOM     47  C   UNL     1       8.896   5.220  -8.742  1.00  0.00     0.074 A 
ATOM     48  C   UNL     1       7.593   5.545  -8.206  1.00  0.00     0.031 C 
ATOM     49  C   UNL     1      11.154   0.907  -4.540  1.00  0.00     0.029 A 
ATOM     50  C   UNL     1      11.848   1.475  -5.689  1.00  0.00     0.049 A 
ATOM     51  H   UNL     1      11.148   2.935  -6.999  1.00  0.00     0.167 HD
ATOM     52  C   UNL     1       9.414   5.772  -9.865  1.00  0.00     0.037 A 
ATOM     53  C   UNL     1      13.084   1.136  -6.101  1.00  0.00     0.037 A 
ATOM     54  C   UNL     1      10.737   5.503 -10.359  1.00  0.00     0.049 A 
ATOM     55  C   UNL     1      13.654   1.799  -7.326  1.00  0.00     0.074 A 
ATOM     56  C   UNL     1      11.377   6.049 -11.457  1.00  0.00     0.029 A 
ATOM     57  N   UNL     1      11.633   4.627  -9.765  1.00  0.00    -0.354 N 
ATOM     58  N   UNL     1      13.107   2.692  -8.115  1.00  0.00    -0.248 NA
ATOM     59  C   UNL     1      15.016   1.408  -7.717  1.00  0.00     0.031 C 
ATOM     60  C   UNL     1      12.659   5.493 -11.535  1.00  0.00     0.029 A 
ATOM     61  C   UNL     1      12.825   4.624 -10.469  1.00  0.00     0.049 A 
ATOM     62  H   UNL     1      11.449   4.088  -8.962  1.00  0.00     0.167 HD
ATOM     63  C   UNL     1      14.066   2.993  -9.071  1.00  0.00     0.074 A 
ATOM     64  C   UNL     1      15.234   2.197  -8.759  1.00  0.00     0.031 C 
ATOM     65  C   UNL     1      13.985   3.849 -10.118  1.00  0.00     0.037 A 
BRANCH  52  66
ATOM     66  C   UNL     1       8.556   6.749 -10.613  1.00  0.00     0.064 A 
ATOM     67  C   UNL     1       8.265   8.017 -10.086  1.00  0.00     0.173 A 
ATOM     68  C   UNL     1       8.036   6.427 -11.875  1.00  0.00     0.173 A 
ATOM     69  F   UNL     1       8.726   8.367  -8.876  1.00  0.00    -0.203 F 
ATOM     70  C   UNL     1       7.457   8.913 -10.780  1.00  0.00     0.198 A 
ATOM     71  C   UNL     1       7.254   7.338 -12.580  1.00  0.00     0.198 A 
ATOM     72  F   UNL     1       8.287   5.230 -12.426  1.00  0.00    -0.203 F 
ATOM     73  F   UNL     1       7.148  10.096 -10.231  1.00  0.00    -0.200 F 
ATOM     74  C   UNL     1       6.958   8.576 -12.029  1.00  0.00     0.200 A 
ATOM     75  F   UNL     1       6.781   7.017 -13.792  1.00  0.00    -0.200 F 
ATOM     76  F   UNL     1       6.185   9.443 -12.698  1.00  0.00    -0.200 F 
ENDBRANCH  52  66
BRANCH  53  77
ATOM     77  C   UNL     1      13.891   0.151  -5.334  1.00  0.00     0.064 A 
ATOM     78  C   UNL     1      15.020   0.565  -4.613  1.00  0.00     0.173 A 
ATOM     79  C   UNL     1      13.576  -1.215  -5.326  1.00  0.00     0.173 A 
ATOM     80  F   UNL     1      15.373   1.859  -4.608  1.00  0.00    -0.203 F 
ATOM     81  C   UNL     1      15.822  -0.354  -3.938  1.00  0.00     0.198 A 
ATOM     82  C   UNL     1      14.364  -2.130  -4.628  1.00  0.00     0.198 A 
ATOM     83  F   UNL     1      12.504  -1.662  -5.995  1.00  0.00    -0.203 F 
ATOM     84  F   UNL     1      16.926   0.063  -3.304  1.00  0.00    -0.200 F 
ATOM     85  C   UNL     1      15.492  -1.700  -3.944  1.00  0.00     0.200 A 
ATOM     86  F   UNL     1      14.036  -3.429  -4.627  1.00  0.00    -0.200 F 
ATOM     87  F   UNL     1      16.266  -2.584  -3.301  1.00  0.00    -0.200 F 
ENDBRANCH  53  77
BRANCH  65  88
ATOM     88  C   UNL     1      15.210   4.013 -10.966  1.00  0.00     0.064 A 
ATOM     89  C   UNL     1      15.610   3.025 -11.877  1.00  0.00     0.173 A 
ATOM     90  C   UNL     1      15.963   5.194 -10.898  1.00  0.00     0.173 A 
ATOM     91  F   UNL     1      14.929   1.873 -11.965  1.00  0.00    -0.203 F 
ATOM     92  C   UNL     1      16.734   3.207 -12.677  1.00  0.00     0.198 A 
ATOM     93  C   UNL     1      17.071   5.383 -11.717  1.00  0.00     0.198 A 
ATOM     94  F   UNL     1      15.615   6.170 -10.045  1.00  0.00    -0.203 F 
ATOM     95  F   UNL     1      17.123   2.235 -13.514  1.00  0.00    -0.200 F 
ATOM     96  C   UNL     1      17.459   4.388 -12.602  1.00  0.00     0.200 A 
ATOM     97  F   UNL     1      17.764   6.528 -11.652  1.00  0.00    -0.200 F 
ATOM     98  F   UNL     1      18.536   4.564 -13.379  1.00  0.00    -0.200 F 
ENDBRANCH  65  88
ENDBRANCH  39  40
ENDBRANCH  31  34
ENDBRANCH  29  30
ENDBRANCH  28  29
ENDBRANCH   1  28
TORSDOF 15
