REMARK SMILES Cc1cccc(CNC(=O)N[C@@H](CC2=c3ccccc3=NC2)C(=O)NCCCNC(=O)c2ccc(-c3c4nc(c(-c5c(F)c(F)c(F)c(F)c5F)c5ccc([nH]5)c(-c5c(F)c(F)c(F)c(F)c5F)c5nc(c(-c6c(F)c(F)c(F)c(F)c6F)c6ccc3[nH]6)C=C5)C=C4)cc2)c1
REMARK SMILES IDX 26 1 25 2 23 3 24 4 12 6 11 7 8 8 9 9 10 11 7 13 6 14 1 15
REMARK SMILES IDX 2 16 3 17 95 18 4 19 5 20 13 21 14 22 15 23 22 24 16 25
REMARK SMILES IDX 20 26 21 27 17 28 19 29 18 30 27 31 28 32 29 33 30 34 31 36
REMARK SMILES IDX 32 37 33 38 94 39 34 40 93 41 35 42 36 43 37 44 87 45 38 46
REMARK SMILES IDX 92 47 86 48 88 49 39 50 91 51 85 52 84 53 40 55 72 56 52 57
REMARK SMILES IDX 71 58 53 59 56 60 70 61 89 62 54 63 55 64 69 66 90 67 57 68
REMARK SMILES IDX 41 69 42 70 50 71 43 72 44 73 48 74 51 75 45 76 46 77 49 78
REMARK SMILES IDX 47 79 73 80 74 81 82 82 75 83 76 84 80 85 83 86 77 87 78 88
REMARK SMILES IDX 81 89 79 90 58 91 59 92 67 93 60 94 61 95 65 96 68 97 62 98
REMARK SMILES IDX 63 99 66 100 64 101
REMARK H PARENT 25 5 8 10 11 12 29 35 88 54 56 65
REMARK Flexibility Score: inf
ROOT
ATOM      1  C   UNL     1      -7.082   2.787   0.937  1.00  0.00     0.117 C 
ENDROOT
BRANCH   1   2
ATOM      2  N   UNL     1      -6.149   1.709   1.228  1.00  0.00    -0.354 N 
ATOM      3  C   UNL     1      -4.807   1.719   1.484  1.00  0.00     0.242 C 
ATOM      4  O   UNL     1      -4.353   0.689   2.005  1.00  0.00    -0.273 OA
ATOM      5  H   UNL     1      -6.558   0.813   1.243  1.00  0.00     0.163 HD
BRANCH   3   6
ATOM      6  C   UNL     1      -3.870   2.946   1.279  1.00  0.00     0.177 C 
BRANCH   6   7
ATOM      7  N   UNL     1      -4.104   3.628   0.009  1.00  0.00    -0.326 N 
ATOM      8  N   UNL     1      -2.579   2.577  -1.438  1.00  0.00    -0.334 N 
ATOM      9  C   UNL     1      -3.737   3.217  -1.219  1.00  0.00     0.315 C 
ATOM     10  H   UNL     1      -2.585   1.966  -2.210  1.00  0.00     0.165 HD
ATOM     11  O   UNL     1      -4.494   3.437  -2.163  1.00  0.00    -0.249 OA
ATOM     12  H   UNL     1      -4.585   4.486   0.056  1.00  0.00     0.166 HD
BRANCH   8  13
ATOM     13  C   UNL     1      -1.317   2.639  -0.723  1.00  0.00     0.153 C 
BRANCH  13  14
ATOM     14  C   UNL     1      -0.731   1.277  -0.438  1.00  0.00    -0.028 A 
ATOM     15  C   UNL     1       2.741  -0.249   0.048  1.00  0.00     0.044 C 
ATOM     16  C   UNL     1       1.251  -0.105  -0.049  1.00  0.00    -0.051 A 
ATOM     17  C   UNL     1       0.432  -1.232   0.077  1.00  0.00     0.003 A 
ATOM     18  C   UNL     1       0.662   1.142  -0.304  1.00  0.00     0.009 A 
ATOM     19  C   UNL     1      -0.952  -1.109  -0.021  1.00  0.00     0.001 A 
ATOM     20  C   UNL     1      -1.530   0.137  -0.266  1.00  0.00     0.005 A 
ENDBRANCH  13  14
ENDBRANCH   8  13
ENDBRANCH   6   7
BRANCH   6  21
ATOM     21  C   UNL     1      -3.743   3.942   2.463  1.00  0.00     0.068 C 
BRANCH  21  22
ATOM     22  C   UNL     1      -5.000   4.305   3.183  1.00  0.00    -0.037 C 
ATOM     23  C   UNL     1      -5.661   3.525   4.033  1.00  0.00     0.001 A 
ATOM     24  C   UNL     1      -5.768   5.564   2.923  1.00  0.00     0.174 C 
ATOM     25  C   UNL     1      -5.423   2.222   4.558  1.00  0.00     0.010 A 
ATOM     26  C   UNL     1      -6.981   4.170   4.093  1.00  0.00     0.065 A 
ATOM     27  N   UNL     1      -7.105   5.335   3.531  1.00  0.00    -0.280 NA
ATOM     28  C   UNL     1      -6.475   1.503   4.973  1.00  0.00     0.001 A 
ATOM     29  C   UNL     1      -8.087   3.326   4.604  1.00  0.00     0.028 A 
ATOM     30  C   UNL     1      -7.822   2.045   4.919  1.00  0.00     0.002 A 
ENDBRANCH  21  22
ENDBRANCH   6  21
ENDBRANCH   3   6
ENDBRANCH   1   2
BRANCH   1  31
ATOM     31  C   UNL     1      -8.352   2.350   0.229  1.00  0.00     0.042 C 
BRANCH  31  32
ATOM     32  C   UNL     1      -9.323   1.557   1.098  1.00  0.00     0.118 C 
BRANCH  32  33
ATOM     33  N   UNL     1     -10.393   2.319   1.749  1.00  0.00    -0.352 N 
ATOM     34  C   UNL     1     -11.481   1.868   2.488  1.00  0.00     0.251 C 
ATOM     35  H   UNL     1     -10.332   3.296   1.647  1.00  0.00     0.163 HD
ATOM     36  O   UNL     1     -12.280   2.673   2.961  1.00  0.00    -0.269 OA
BRANCH  34  37
ATOM     37  C   UNL     1     -11.601   0.430   2.843  1.00  0.00     0.039 A 
ATOM     38  C   UNL     1     -11.985   0.074   4.144  1.00  0.00     0.014 A 
ATOM     39  C   UNL     1     -11.097  -0.537   1.991  1.00  0.00     0.014 A 
ATOM     40  C   UNL     1     -11.580  -1.155   4.660  1.00  0.00     0.010 A 
ATOM     41  C   UNL     1     -10.514  -1.646   2.546  1.00  0.00     0.010 A 
ATOM     42  C   UNL     1     -10.722  -1.936   3.895  1.00  0.00    -0.014 A 
BRANCH  42  43
ATOM     43  C   UNL     1      -9.970  -3.078   4.382  1.00  0.00     0.031 A 
ATOM     44  C   UNL     1     -10.367  -4.429   3.943  1.00  0.00     0.074 A 
ATOM     45  C   UNL     1      -8.805  -2.855   5.027  1.00  0.00     0.049 A 
ATOM     46  N   UNL     1      -9.995  -5.520   4.514  1.00  0.00    -0.248 NA
ATOM     47  C   UNL     1     -11.263  -4.652   2.814  1.00  0.00     0.031 C 
ATOM     48  C   UNL     1      -7.711  -3.797   5.244  1.00  0.00     0.029 A 
ATOM     49  N   UNL     1      -8.426  -1.710   5.751  1.00  0.00    -0.354 N 
ATOM     50  C   UNL     1     -10.360  -6.569   3.697  1.00  0.00     0.074 A 
ATOM     51  C   UNL     1     -11.203  -5.979   2.688  1.00  0.00     0.031 C 
ATOM     52  C   UNL     1      -6.941  -3.342   6.246  1.00  0.00     0.029 A 
ATOM     53  C   UNL     1      -7.618  -2.187   6.811  1.00  0.00     0.049 A 
ATOM     54  H   UNL     1      -8.671  -0.776   5.562  1.00  0.00     0.167 HD
ATOM     55  C   UNL     1      -9.787  -7.790   3.905  1.00  0.00     0.037 A 
ATOM     56  C   UNL     1      -8.043  -2.105   8.107  1.00  0.00     0.037 A 
ATOM     57  C   UNL     1      -8.918  -7.745   5.082  1.00  0.00     0.049 A 
ATOM     58  C   UNL     1      -8.223  -3.445   8.781  1.00  0.00     0.074 A 
ATOM     59  C   UNL     1      -7.551  -7.571   5.225  1.00  0.00     0.029 A 
ATOM     60  N   UNL     1      -9.476  -7.522   6.337  1.00  0.00    -0.354 N 
ATOM     61  N   UNL     1      -8.352  -4.574   8.142  1.00  0.00    -0.248 NA
ATOM     62  C   UNL     1      -8.308  -3.606  10.228  1.00  0.00     0.031 C 
ATOM     63  C   UNL     1      -7.296  -7.183   6.565  1.00  0.00     0.029 A 
ATOM     64  C   UNL     1      -8.502  -7.150   7.245  1.00  0.00     0.049 A 
ATOM     65  H   UNL     1     -10.433  -7.617   6.550  1.00  0.00     0.167 HD
ATOM     66  C   UNL     1      -8.580  -5.584   9.040  1.00  0.00     0.074 A 
ATOM     67  C   UNL     1      -8.504  -4.932  10.334  1.00  0.00     0.031 C 
ATOM     68  C   UNL     1      -8.842  -6.863   8.633  1.00  0.00     0.037 A 
BRANCH  55  69
ATOM     69  C   UNL     1      -9.767  -8.925   2.896  1.00  0.00     0.064 A 
ATOM     70  C   UNL     1      -8.744  -9.898   2.936  1.00  0.00     0.173 A 
ATOM     71  C   UNL     1     -10.675  -9.087   1.831  1.00  0.00     0.173 A 
ATOM     72  F   UNL     1      -7.872  -9.956   3.951  1.00  0.00    -0.203 F 
ATOM     73  C   UNL     1      -8.574 -10.860   1.935  1.00  0.00     0.198 A 
ATOM     74  C   UNL     1     -10.477 -10.013   0.800  1.00  0.00     0.198 A 
ATOM     75  F   UNL     1     -11.826  -8.411   1.779  1.00  0.00    -0.203 F 
ATOM     76  F   UNL     1      -7.576 -11.749   2.029  1.00  0.00    -0.200 F 
ATOM     77  C   UNL     1      -9.418 -10.893   0.846  1.00  0.00     0.200 A 
ATOM     78  F   UNL     1     -11.331 -10.047  -0.233  1.00  0.00    -0.200 F 
ATOM     79  F   UNL     1      -9.235 -11.787  -0.135  1.00  0.00    -0.200 F 
ENDBRANCH  55  69
BRANCH  56  80
ATOM     80  C   UNL     1      -8.895  -0.914   8.367  1.00  0.00     0.064 A 
ATOM     81  C   UNL     1      -8.295   0.357   8.334  1.00  0.00     0.173 A 
ATOM     82  C   UNL     1     -10.286  -0.981   8.219  1.00  0.00     0.173 A 
ATOM     83  F   UNL     1      -6.964   0.473   8.466  1.00  0.00    -0.203 F 
ATOM     84  C   UNL     1      -9.038   1.497   8.031  1.00  0.00     0.198 A 
ATOM     85  C   UNL     1     -11.023   0.162   7.901  1.00  0.00     0.198 A 
ATOM     86  F   UNL     1     -10.914  -2.165   8.244  1.00  0.00    -0.203 F 
ATOM     87  F   UNL     1      -8.423   2.680   7.894  1.00  0.00    -0.200 F 
ATOM     88  C   UNL     1     -10.391   1.387   7.759  1.00  0.00     0.200 A 
ATOM     89  F   UNL     1     -12.332   0.056   7.629  1.00  0.00    -0.200 F 
ATOM     90  F   UNL     1     -11.072   2.447   7.301  1.00  0.00    -0.200 F 
ENDBRANCH  56  80
BRANCH  68  91
ATOM     91  C   UNL     1      -9.366  -7.988   9.501  1.00  0.00     0.064 A 
ATOM     92  C   UNL     1     -10.093  -7.801  10.688  1.00  0.00     0.173 A 
ATOM     93  C   UNL     1      -9.263  -9.334   9.065  1.00  0.00     0.173 A 
ATOM     94  F   UNL     1     -10.391  -6.577  11.143  1.00  0.00    -0.203 F 
ATOM     95  C   UNL     1     -10.604  -8.875  11.423  1.00  0.00     0.198 A 
ATOM     96  C   UNL     1      -9.839 -10.395   9.761  1.00  0.00     0.198 A 
ATOM     97  F   UNL     1      -8.626  -9.661   7.932  1.00  0.00    -0.203 F 
ATOM     98  F   UNL     1     -11.240  -8.641  12.580  1.00  0.00    -0.200 F 
ATOM     99  C   UNL     1     -10.490 -10.169  10.954  1.00  0.00     0.200 A 
ATOM    100  F   UNL     1      -9.776 -11.635   9.255  1.00  0.00    -0.200 F 
ATOM    101  F   UNL     1     -11.028 -11.189  11.635  1.00  0.00    -0.200 F 
ENDBRANCH  68  91
ENDBRANCH  42  43
ENDBRANCH  34  37
ENDBRANCH  32  33
ENDBRANCH  31  32
ENDBRANCH   1  31
TORSDOF 15
