REMARK SMILES CCc1c(C(=O)NCCCNC(=O)c2ccc(-c3c4nc(c(-c5c(F)c(F)c(F)c(F)c5F)c5ccc([nH]5)c(-c5c(F)c(F)c(F)c(F)c5F)c5nc(c(-c6c(F)c(F)c(F)c(F)c6F)c6ccc3[nH]6)C=C5)C=C4)cc2)nnn1C[C@H]1C[C@H]2CC[C@@H]1C2
REMARK SMILES IDX 9 1 8 2 7 3 5 4 6 5 4 7 3 8 79 9 77 10 78 11 2 12 1 13 80 14
REMARK SMILES IDX 81 15 82 16 86 17 83 18 85 19 87 20 84 21 10 22 11 23 12 24
REMARK SMILES IDX 13 26 14 27 15 28 76 29 16 30 75 31 17 32 18 33 19 34 69 35
REMARK SMILES IDX 20 36 74 37 68 38 70 39 21 40 73 41 67 42 66 43 22 45 54 46
REMARK SMILES IDX 34 47 53 48 35 49 38 50 52 51 71 52 36 53 37 54 51 56 72 57
REMARK SMILES IDX 39 58 23 59 24 60 32 61 25 62 26 63 30 64 33 65 27 66 28 67
REMARK SMILES IDX 31 68 29 69 55 70 56 71 64 72 57 73 58 74 62 75 65 76 59 77
REMARK SMILES IDX 60 78 63 79 61 80 40 81 41 82 49 83 42 84 43 85 47 86 50 87
REMARK SMILES IDX 44 88 45 89 48 90 46 91
REMARK H PARENT 7 6 11 25 70 44 38 55
REMARK Flexibility Score: inf
ROOT
ATOM      1  C   UNL     1       5.534  -3.197  -0.114  1.00  0.00     0.042 C 
ENDROOT
BRANCH   1   2
ATOM      2  C   UNL     1       6.280  -2.284  -1.094  1.00  0.00     0.118 C 
BRANCH   2   3
ATOM      3  N   UNL     1       6.590  -2.956  -2.331  1.00  0.00    -0.351 N 
ATOM      4  C   UNL     1       5.943  -3.101  -3.531  1.00  0.00     0.273 C 
ATOM      5  O   UNL     1       6.633  -3.676  -4.383  1.00  0.00    -0.267 OA
ATOM      6  H   UNL     1       7.462  -3.413  -2.309  1.00  0.00     0.163 HD
BRANCH   4   7
ATOM      7  C   UNL     1       4.580  -2.649  -3.862  1.00  0.00     0.173 A 
ATOM      8  C   UNL     1       3.448  -2.176  -3.172  1.00  0.00     0.071 A 
ATOM      9  N   UNL     1       2.512  -2.041  -4.170  1.00  0.00    -0.248 N 
ATOM     10  N   UNL     1       4.250  -2.731  -5.204  1.00  0.00    -0.125 NA
ATOM     11  N   UNL     1       3.004  -2.353  -5.371  1.00  0.00    -0.066 NA
BRANCH   8  12
ATOM     12  C   UNL     1       3.208  -1.887  -1.731  1.00  0.00     0.055 C 
ATOM     13  C   UNL     1       1.840  -1.712  -1.110  1.00  0.00     0.011 C 
ENDBRANCH   8  12
BRANCH   9  14
ATOM     14  C   UNL     1       1.110  -1.698  -4.110  1.00  0.00     0.150 C 
BRANCH  14  15
ATOM     15  C   UNL     1       0.865  -0.194  -4.010  1.00  0.00     0.014 C 
ATOM     16  C   UNL     1       1.079   0.543  -5.348  1.00  0.00     0.009 C 
ATOM     17  C   UNL     1      -0.602   0.162  -3.649  1.00  0.00    -0.006 C 
ATOM     18  C   UNL     1      -0.311   1.129  -5.630  1.00  0.00    -0.011 C 
ATOM     19  C   UNL     1      -1.589  -0.604  -4.542  1.00  0.00     0.004 C 
ATOM     20  C   UNL     1      -0.737   1.570  -4.230  1.00  0.00     0.007 C 
ATOM     21  C   UNL     1      -1.284  -0.030  -5.933  1.00  0.00     0.004 C 
ENDBRANCH  14  15
ENDBRANCH   9  14
ENDBRANCH   4   7
ENDBRANCH   2   3
ENDBRANCH   1   2
BRANCH   1  22
ATOM     22  C   UNL     1       6.418  -3.765   0.964  1.00  0.00     0.118 C 
BRANCH  22  23
ATOM     23  N   UNL     1       6.823  -2.724   1.912  1.00  0.00    -0.352 N 
ATOM     24  C   UNL     1       7.739  -2.808   2.946  1.00  0.00     0.251 C 
ATOM     25  H   UNL     1       6.386  -1.850   1.799  1.00  0.00     0.163 HD
ATOM     26  O   UNL     1       7.746  -2.008   3.857  1.00  0.00    -0.269 OA
BRANCH  24  27
ATOM     27  C   UNL     1       8.698  -3.920   2.899  1.00  0.00     0.039 A 
ATOM     28  C   UNL     1       8.980  -4.693   4.026  1.00  0.00     0.014 A 
ATOM     29  C   UNL     1       9.209  -4.244   1.650  1.00  0.00     0.014 A 
ATOM     30  C   UNL     1       9.714  -5.862   3.856  1.00  0.00     0.010 A 
ATOM     31  C   UNL     1       9.695  -5.502   1.454  1.00  0.00     0.010 A 
ATOM     32  C   UNL     1      10.043  -6.271   2.556  1.00  0.00    -0.014 A 
BRANCH  32  33
ATOM     33  C   UNL     1      10.701  -7.539   2.289  1.00  0.00     0.031 A 
ATOM     34  C   UNL     1      10.027  -8.738   2.849  1.00  0.00     0.074 A 
ATOM     35  C   UNL     1      11.713  -7.628   1.398  1.00  0.00     0.049 A 
ATOM     36  N   UNL     1      10.488  -9.541   3.750  1.00  0.00    -0.248 NA
ATOM     37  C   UNL     1       8.636  -9.018   2.461  1.00  0.00     0.031 C 
ATOM     38  C   UNL     1      12.284  -6.576   0.544  1.00  0.00     0.029 A 
ATOM     39  N   UNL     1      12.372  -8.734   0.972  1.00  0.00    -0.354 N 
ATOM     40  C   UNL     1       9.529 -10.538   3.911  1.00  0.00     0.074 A 
ATOM     41  C   UNL     1       8.349 -10.072   3.230  1.00  0.00     0.031 C 
ATOM     42  C   UNL     1      12.998  -7.137  -0.454  1.00  0.00     0.029 A 
ATOM     43  C   UNL     1      13.090  -8.561  -0.203  1.00  0.00     0.049 A 
ATOM     44  H   UNL     1      12.344  -9.591   1.458  1.00  0.00     0.167 HD
ATOM     45  C   UNL     1       9.874 -11.764   4.396  1.00  0.00     0.037 A 
ATOM     46  C   UNL     1      13.693  -9.532  -0.930  1.00  0.00     0.037 A 
ATOM     47  C   UNL     1      11.177 -11.724   5.015  1.00  0.00     0.049 A 
ATOM     48  C   UNL     1      13.872 -10.698  -0.025  1.00  0.00     0.074 A 
ATOM     49  C   UNL     1      11.725 -11.007   6.062  1.00  0.00     0.029 A 
ATOM     50  N   UNL     1      12.247 -12.209   4.300  1.00  0.00    -0.354 N 
ATOM     51  N   UNL     1      14.685 -10.694   0.997  1.00  0.00    -0.248 NA
ATOM     52  C   UNL     1      12.791 -11.673   0.042  1.00  0.00     0.031 C 
ATOM     53  C   UNL     1      13.042 -10.672   5.626  1.00  0.00     0.029 A 
ATOM     54  C   UNL     1      13.248 -11.274   4.384  1.00  0.00     0.049 A 
ATOM     55  H   UNL     1      12.287 -13.066   3.817  1.00  0.00     0.167 HD
ATOM     56  C   UNL     1      13.982 -11.332   2.009  1.00  0.00     0.074 A 
ATOM     57  C   UNL     1      12.860 -11.989   1.339  1.00  0.00     0.031 C 
ATOM     58  C   UNL     1      14.193 -11.018   3.322  1.00  0.00     0.037 A 
BRANCH  45  59
ATOM     59  C   UNL     1       9.225 -13.068   4.000  1.00  0.00     0.064 A 
ATOM     60  C   UNL     1       9.607 -14.250   4.670  1.00  0.00     0.173 A 
ATOM     61  C   UNL     1       8.494 -13.257   2.809  1.00  0.00     0.173 A 
ATOM     62  F   UNL     1      10.308 -14.192   5.812  1.00  0.00    -0.203 F 
ATOM     63  C   UNL     1       9.365 -15.516   4.132  1.00  0.00     0.198 A 
ATOM     64  C   UNL     1       8.206 -14.524   2.303  1.00  0.00     0.198 A 
ATOM     65  F   UNL     1       8.128 -12.236   2.025  1.00  0.00    -0.203 F 
ATOM     66  F   UNL     1       9.869 -16.602   4.734  1.00  0.00    -0.200 F 
ATOM     67  C   UNL     1       8.674 -15.651   2.943  1.00  0.00     0.200 A 
ATOM     68  F   UNL     1       7.546 -14.633   1.142  1.00  0.00    -0.200 F 
ATOM     69  F   UNL     1       8.501 -16.858   2.389  1.00  0.00    -0.200 F 
ENDBRANCH  45  59
BRANCH  46  70
ATOM     70  C   UNL     1      13.871  -9.597  -2.399  1.00  0.00     0.064 A 
ATOM     71  C   UNL     1      14.768 -10.505  -2.982  1.00  0.00     0.173 A 
ATOM     72  C   UNL     1      12.979  -8.949  -3.279  1.00  0.00     0.173 A 
ATOM     73  F   UNL     1      15.622 -11.196  -2.213  1.00  0.00    -0.203 F 
ATOM     74  C   UNL     1      14.758 -10.766  -4.357  1.00  0.00     0.198 A 
ATOM     75  C   UNL     1      12.976  -9.204  -4.651  1.00  0.00     0.198 A 
ATOM     76  F   UNL     1      12.030  -8.123  -2.814  1.00  0.00    -0.203 F 
ATOM     77  F   UNL     1      15.590 -11.685  -4.868  1.00  0.00    -0.200 F 
ATOM     78  C   UNL     1      13.856 -10.123  -5.188  1.00  0.00     0.200 A 
ATOM     79  F   UNL     1      12.074  -8.599  -5.437  1.00  0.00    -0.200 F 
ATOM     80  F   UNL     1      13.807 -10.417  -6.495  1.00  0.00    -0.200 F 
ENDBRANCH  46  70
BRANCH  58  81
ATOM     81  C   UNL     1      15.366 -10.137   3.662  1.00  0.00     0.064 A 
ATOM     82  C   UNL     1      15.512  -8.812   3.213  1.00  0.00     0.173 A 
ATOM     83  C   UNL     1      16.293 -10.597   4.606  1.00  0.00     0.173 A 
ATOM     84  F   UNL     1      14.611  -8.256   2.398  1.00  0.00    -0.203 F 
ATOM     85  C   UNL     1      16.561  -8.006   3.650  1.00  0.00     0.198 A 
ATOM     86  C   UNL     1      17.319  -9.777   5.071  1.00  0.00     0.198 A 
ATOM     87  F   UNL     1      16.172 -11.830   5.120  1.00  0.00    -0.203 F 
ATOM     88  F   UNL     1      16.679  -6.750   3.195  1.00  0.00    -0.200 F 
ATOM     89  C   UNL     1      17.460  -8.488   4.585  1.00  0.00     0.200 A 
ATOM     90  F   UNL     1      18.154 -10.230   6.016  1.00  0.00    -0.200 F 
ATOM     91  F   UNL     1      18.445  -7.700   5.040  1.00  0.00    -0.200 F 
ENDBRANCH  58  81
ENDBRANCH  32  33
ENDBRANCH  24  27
ENDBRANCH  22  23
ENDBRANCH   1  22
TORSDOF 13
