REMARK SMILES CC1(C)[C@H](C(=O)NCCCNC(=O)c2ccc(-c3c4nc(c(-c5c(F)c(F)c(F)c(F)c5F)c5ccc([nH]5)c(-c5c(F)c(F)c(F)c(F)c5F)c5nc(c(-c6c(F)c(F)c(F)c(F)c6F)c6ccc3[nH]6)C=C5)C=C4)cc2)[C@H]1C(=O)Nc1nc(-c2ccco2)n[nH]1
REMARK SMILES IDX 8 1 7 2 5 3 6 4 4 6 1 7 2 8 3 9 77 10 78 11 79 12 80 13
REMARK SMILES IDX 81 15 82 16 90 17 83 18 89 19 84 21 85 22 88 23 86 24 87 25
REMARK SMILES IDX 9 26 10 27 11 28 12 29 13 31 14 32 15 33 76 34 16 35 75 36
REMARK SMILES IDX 17 37 18 38 19 39 69 40 20 41 74 42 68 43 70 44 21 45 73 46
REMARK SMILES IDX 67 47 66 48 22 50 54 51 34 52 53 53 35 54 38 55 52 56 71 57
REMARK SMILES IDX 36 58 37 59 51 61 72 62 39 63 23 64 24 65 32 66 25 67 26 68
REMARK SMILES IDX 30 69 33 70 27 71 28 72 31 73 29 74 55 75 56 76 64 77 57 78
REMARK SMILES IDX 58 79 62 80 65 81 59 82 60 83 63 84 61 85 40 86 41 87 49 88
REMARK SMILES IDX 42 89 43 90 47 91 50 92 44 93 45 94 48 95 46 96
REMARK H PARENT 7 5 80 14 90 20 11 30 70 49 38 60
REMARK Flexibility Score: inf
ROOT
ATOM      1  C   UNL     1      -1.613   3.059  -0.229  1.00  0.00     0.117 C 
ENDROOT
BRANCH   1   2
ATOM      2  N   UNL     1      -1.818   2.083  -1.279  1.00  0.00    -0.356 N 
ATOM      3  C   UNL     1      -1.370   0.823  -1.547  1.00  0.00     0.224 C 
ATOM      4  O   UNL     1      -1.677   0.388  -2.658  1.00  0.00    -0.275 OA
ATOM      5  H   UNL     1      -2.435   2.411  -1.973  1.00  0.00     0.163 HD
BRANCH   3   6
ATOM      6  C   UNL     1      -0.629  -0.102  -0.648  1.00  0.00     0.098 C 
ATOM      7  C   UNL     1       1.633  -0.980   0.255  1.00  0.00     0.013 C 
ATOM      8  C   UNL     1       0.582   0.110   0.255  1.00  0.00    -0.011 C 
ATOM      9  C   UNL     1       1.215   1.460   0.424  1.00  0.00     0.013 C 
ATOM     10  C   UNL     1      -0.819  -0.161   0.842  1.00  0.00     0.098 C 
BRANCH  10  11
ATOM     11  C   UNL     1      -1.205  -1.420   1.561  1.00  0.00     0.231 C 
ATOM     12  O   UNL     1      -1.068  -1.489   2.768  1.00  0.00    -0.274 OA
ATOM     13  N   UNL     1      -1.863  -2.373   0.824  1.00  0.00    -0.295 N 
ATOM     14  H   UNL     1      -2.846  -2.350   0.782  1.00  0.00     0.173 HD
BRANCH  13  15
ATOM     15  C   UNL     1      -1.192  -3.353   0.146  1.00  0.00     0.225 A 
ATOM     16  N   UNL     1      -1.681  -4.103  -0.810  1.00  0.00    -0.188 NA
ATOM     17  N   UNL     1       0.103  -3.718   0.371  1.00  0.00    -0.244 N 
ATOM     18  C   UNL     1      -0.585  -4.813  -1.252  1.00  0.00     0.218 A 
ATOM     19  N   UNL     1       0.531  -4.606  -0.535  1.00  0.00    -0.149 NA
ATOM     20  H   UNL     1       0.655  -3.371   1.109  1.00  0.00     0.193 HD
BRANCH  18  21
ATOM     21  C   UNL     1      -0.622  -5.721  -2.437  1.00  0.00     0.173 A 
ATOM     22  C   UNL     1       0.440  -6.472  -2.910  1.00  0.00     0.054 A 
ATOM     23  O   UNL     1      -1.714  -5.936  -3.234  1.00  0.00    -0.461 OA
ATOM     24  C   UNL     1      -0.031  -7.186  -4.038  1.00  0.00     0.043 A 
ATOM     25  C   UNL     1      -1.345  -6.817  -4.198  1.00  0.00     0.196 A 
ENDBRANCH  18  21
ENDBRANCH  13  15
ENDBRANCH  10  11
ENDBRANCH   3   6
ENDBRANCH   1   2
BRANCH   1  26
ATOM     26  C   UNL     1      -0.520   4.056  -0.610  1.00  0.00     0.042 C 
BRANCH  26  27
ATOM     27  C   UNL     1      -0.978   5.126  -1.590  1.00  0.00     0.118 C 
BRANCH  27  28
ATOM     28  N   UNL     1      -1.798   6.140  -0.946  1.00  0.00    -0.352 N 
ATOM     29  C   UNL     1      -1.514   7.446  -0.633  1.00  0.00     0.251 C 
ATOM     30  H   UNL     1      -2.702   5.842  -0.695  1.00  0.00     0.163 HD
ATOM     31  O   UNL     1      -2.261   8.059   0.125  1.00  0.00    -0.269 OA
BRANCH  29  32
ATOM     32  C   UNL     1      -0.316   8.124  -1.182  1.00  0.00     0.039 A 
ATOM     33  C   UNL     1       0.381   9.026  -0.371  1.00  0.00     0.014 A 
ATOM     34  C   UNL     1       0.096   7.926  -2.502  1.00  0.00     0.014 A 
ATOM     35  C   UNL     1       1.514   9.681  -0.863  1.00  0.00     0.010 A 
ATOM     36  C   UNL     1       1.276   8.506  -2.962  1.00  0.00     0.010 A 
ATOM     37  C   UNL     1       1.990   9.402  -2.154  1.00  0.00    -0.014 A 
BRANCH  37  38
ATOM     38  C   UNL     1       3.209  10.061  -2.695  1.00  0.00     0.031 A 
ATOM     39  C   UNL     1       3.106  10.946  -3.909  1.00  0.00     0.074 A 
ATOM     40  C   UNL     1       4.411   9.818  -2.137  1.00  0.00     0.049 A 
ATOM     41  N   UNL     1       4.058  11.522  -4.600  1.00  0.00    -0.248 NA
ATOM     42  C   UNL     1       1.754  11.194  -4.435  1.00  0.00     0.031 C 
ATOM     43  C   UNL     1       4.648   8.958  -0.977  1.00  0.00     0.029 A 
ATOM     44  N   UNL     1       5.664  10.264  -2.479  1.00  0.00    -0.354 N 
ATOM     45  C   UNL     1       3.421  12.184  -5.643  1.00  0.00     0.074 A 
ATOM     46  C   UNL     1       2.010  11.891  -5.531  1.00  0.00     0.031 C 
ATOM     47  C   UNL     1       5.960   8.954  -0.692  1.00  0.00     0.029 A 
ATOM     48  C   UNL     1       6.664   9.773  -1.674  1.00  0.00     0.049 A 
ATOM     49  H   UNL     1       5.830  10.877  -3.231  1.00  0.00     0.167 HD
ATOM     50  C   UNL     1       3.961  12.986  -6.591  1.00  0.00     0.037 A 
ATOM     51  C   UNL     1       7.997   9.954  -1.731  1.00  0.00     0.037 A 
ATOM     52  C   UNL     1       5.363  13.298  -6.684  1.00  0.00     0.049 A 
ATOM     53  C   UNL     1       8.573  10.829  -2.814  1.00  0.00     0.074 A 
ATOM     54  C   UNL     1       6.005  14.128  -7.586  1.00  0.00     0.029 A 
ATOM     55  N   UNL     1       6.340  12.795  -5.837  1.00  0.00    -0.354 N 
ATOM     56  N   UNL     1       7.955  11.488  -3.764  1.00  0.00    -0.248 NA
ATOM     57  C   UNL     1      10.034  10.990  -2.829  1.00  0.00     0.031 C 
ATOM     58  C   UNL     1       7.375  14.095  -7.312  1.00  0.00     0.029 A 
ATOM     59  C   UNL     1       7.581  13.287  -6.206  1.00  0.00     0.049 A 
ATOM     60  H   UNL     1       6.176  12.180  -5.087  1.00  0.00     0.167 HD
ATOM     61  C   UNL     1       8.943  12.170  -4.461  1.00  0.00     0.074 A 
ATOM     62  C   UNL     1      10.201  11.854  -3.819  1.00  0.00     0.031 C 
ATOM     63  C   UNL     1       8.820  12.985  -5.537  1.00  0.00     0.037 A 
BRANCH  50  64
ATOM     64  C   UNL     1       3.032  13.597  -7.600  1.00  0.00     0.064 A 
ATOM     65  C   UNL     1       2.119  14.601  -7.242  1.00  0.00     0.173 A 
ATOM     66  C   UNL     1       3.091  13.217  -8.949  1.00  0.00     0.173 A 
ATOM     67  F   UNL     1       2.014  14.993  -5.963  1.00  0.00    -0.203 F 
ATOM     68  C   UNL     1       1.283  15.182  -8.191  1.00  0.00     0.198 A 
ATOM     69  C   UNL     1       2.276  13.823  -9.902  1.00  0.00     0.198 A 
ATOM     70  F   UNL     1       3.950  12.267  -9.348  1.00  0.00    -0.203 F 
ATOM     71  F   UNL     1       0.388  16.107  -7.816  1.00  0.00    -0.200 F 
ATOM     72  C   UNL     1       1.368  14.800  -9.521  1.00  0.00     0.200 A 
ATOM     73  F   UNL     1       2.369  13.463 -11.189  1.00  0.00    -0.200 F 
ATOM     74  F   UNL     1       0.572  15.371 -10.436  1.00  0.00    -0.200 F 
ENDBRANCH  50  64
BRANCH  51  75
ATOM     75  C   UNL     1       8.888   9.307  -0.730  1.00  0.00     0.064 A 
ATOM     76  C   UNL     1       9.601  10.077   0.200  1.00  0.00     0.173 A 
ATOM     77  C   UNL     1       9.073   7.918  -0.702  1.00  0.00     0.173 A 
ATOM     78  F   UNL     1       9.475  11.413   0.201  1.00  0.00    -0.203 F 
ATOM     79  C   UNL     1      10.490   9.486   1.096  1.00  0.00     0.198 A 
ATOM     80  C   UNL     1       9.937   7.324   0.217  1.00  0.00     0.198 A 
ATOM     81  F   UNL     1       8.411   7.133  -1.565  1.00  0.00    -0.203 F 
ATOM     82  F   UNL     1      11.204  10.252   1.932  1.00  0.00    -0.200 F 
ATOM     83  C   UNL     1      10.654   8.109   1.106  1.00  0.00     0.200 A 
ATOM     84  F   UNL     1      10.081   5.992   0.233  1.00  0.00    -0.200 F 
ATOM     85  F   UNL     1      11.511   7.541   1.964  1.00  0.00    -0.200 F 
ENDBRANCH  51  75
BRANCH  63  86
ATOM     86  C   UNL     1      10.066  13.643  -6.053  1.00  0.00     0.064 A 
ATOM     87  C   UNL     1      11.056  12.921  -6.734  1.00  0.00     0.173 A 
ATOM     88  C   UNL     1      10.246  15.027  -5.904  1.00  0.00     0.173 A 
ATOM     89  F   UNL     1      10.938  11.593  -6.888  1.00  0.00    -0.203 F 
ATOM     90  C   UNL     1      12.193  13.556  -7.227  1.00  0.00     0.198 A 
ATOM     91  C   UNL     1      11.368  15.664  -6.427  1.00  0.00     0.198 A 
ATOM     92  F   UNL     1       9.325  15.765  -5.267  1.00  0.00    -0.203 F 
ATOM     93  F   UNL     1      13.149  12.839  -7.833  1.00  0.00    -0.200 F 
ATOM     94  C   UNL     1      12.344  14.928  -7.081  1.00  0.00     0.200 A 
ATOM     95  F   UNL     1      11.504  16.991  -6.298  1.00  0.00    -0.200 F 
ATOM     96  F   UNL     1      13.433  15.539  -7.566  1.00  0.00    -0.200 F 
ENDBRANCH  63  86
ENDBRANCH  37  38
ENDBRANCH  29  32
ENDBRANCH  27  28
ENDBRANCH  26  27
ENDBRANCH   1  26
TORSDOF 13
