REMARK SMILES [NH3+][C@]1(C(=O)NCCCNC(=O)c2ccc(-c3c4nc(c(-c5c(F)c(F)c(F)c(F)c5F)c5ccc([nH]5)c(-c5c(F)c(F)c(F)c(F)c5F)c5nc(c(-c6c(F)c(F)c(F)c(F)c6F)c6ccc3[nH]6)C=C5)C=C4)cc2)CCC[C@@H](OC2CCC2)C1
REMARK SMILES IDX 7 1 6 2 5 3 3 4 4 5 2 7 75 8 84 9 76 10 78 11 77 12 1 13
REMARK SMILES IDX 79 17 80 18 81 19 83 20 82 21 8 22 9 23 10 24 11 26 12 27
REMARK SMILES IDX 13 28 74 29 14 30 73 31 15 32 16 33 17 34 67 35 18 36 72 37
REMARK SMILES IDX 66 38 68 39 19 40 71 41 65 42 64 43 20 45 52 46 32 47 51 48
REMARK SMILES IDX 33 49 36 50 50 51 69 52 34 53 35 54 49 56 70 57 37 58 21 59
REMARK SMILES IDX 22 60 30 61 23 62 24 63 28 64 31 65 25 66 26 67 29 68 27 69
REMARK SMILES IDX 53 70 54 71 62 72 55 73 56 74 60 75 63 76 57 77 58 78 61 79
REMARK SMILES IDX 59 80 38 81 39 82 47 83 40 84 41 85 45 86 48 87 42 88 43 89
REMARK SMILES IDX 46 90 44 91
REMARK H PARENT 5 6 1 14 1 15 1 16 9 25 68 44 36 55
REMARK Flexibility Score: inf
ROOT
ATOM      1  C   UNL     1      -1.882   3.392  -2.192  1.00  0.00     0.042 C 
ENDROOT
BRANCH   1   2
ATOM      2  C   UNL     1      -2.840   2.442  -1.472  1.00  0.00     0.118 C 
BRANCH   2   3
ATOM      3  N   UNL     1      -2.634   1.041  -1.771  1.00  0.00    -0.351 N 
ATOM      4  C   UNL     1      -2.090  -0.007  -1.093  1.00  0.00     0.281 C 
ATOM      5  O   UNL     1      -2.360  -1.107  -1.596  1.00  0.00    -0.268 OA
ATOM      6  H   UNL     1      -2.961   0.789  -2.664  1.00  0.00     0.163 HD
BRANCH   4   7
ATOM      7  C   UNL     1      -1.306   0.104   0.280  1.00  0.00     0.176 C 
ATOM      8  C   UNL     1      -0.619  -1.267   0.567  1.00  0.00     0.079 C 
ATOM      9  C   UNL     1      -0.306   1.268   0.413  1.00  0.00     0.111 C 
ATOM     10  C   UNL     1       0.822  -1.268   1.078  1.00  0.00     0.010 C 
ATOM     11  C   UNL     1       1.092   0.994  -0.144  1.00  0.00     0.125 C 
ATOM     12  C   UNL     1       1.758  -0.169   0.573  1.00  0.00     0.032 C 
BRANCH   7  13
ATOM     13  N   UNL     1      -2.359   0.297   1.318  1.00  0.00    -0.345 N 
ATOM     14  H   UNL     1      -3.039  -0.460   1.257  1.00  0.00     0.345 HD
ATOM     15  H   UNL     1      -2.829   1.190   1.164  1.00  0.00     0.345 HD
ATOM     16  H   UNL     1      -1.929   0.295   2.243  1.00  0.00     0.345 HD
ENDBRANCH   7  13
BRANCH  11  17
ATOM     17  O   UNL     1       0.971   1.040  -1.551  1.00  0.00    -0.375 OA
BRANCH  17  18
ATOM     18  C   UNL     1       1.470   0.140  -2.552  1.00  0.00     0.118 C 
ATOM     19  C   UNL     1       1.566  -1.385  -2.397  1.00  0.00     0.032 C 
ATOM     20  C   UNL     1       0.377  -0.081  -3.628  1.00  0.00     0.032 C 
ATOM     21  C   UNL     1       0.381  -1.578  -3.341  1.00  0.00     0.005 C 
ENDBRANCH  17  18
ENDBRANCH  11  17
ENDBRANCH   4   7
ENDBRANCH   2   3
ENDBRANCH   1   2
BRANCH   1  22
ATOM     22  C   UNL     1      -1.886   3.331  -3.717  1.00  0.00     0.118 C 
BRANCH  22  23
ATOM     23  N   UNL     1      -3.171   3.656  -4.316  1.00  0.00    -0.352 N 
ATOM     24  C   UNL     1      -3.621   4.771  -4.966  1.00  0.00     0.251 C 
ATOM     25  H   UNL     1      -3.842   2.939  -4.238  1.00  0.00     0.163 HD
ATOM     26  O   UNL     1      -4.826   4.842  -5.253  1.00  0.00    -0.269 OA
BRANCH  24  27
ATOM     27  C   UNL     1      -2.740   5.908  -5.316  1.00  0.00     0.039 A 
ATOM     28  C   UNL     1      -3.258   7.205  -5.206  1.00  0.00     0.014 A 
ATOM     29  C   UNL     1      -1.451   5.732  -5.823  1.00  0.00     0.014 A 
ATOM     30  C   UNL     1      -2.472   8.313  -5.540  1.00  0.00     0.010 A 
ATOM     31  C   UNL     1      -0.639   6.840  -6.084  1.00  0.00     0.010 A 
ATOM     32  C   UNL     1      -1.140   8.144  -5.947  1.00  0.00    -0.014 A 
BRANCH  32  33
ATOM     33  C   UNL     1      -0.266   9.316  -6.230  1.00  0.00     0.031 A 
ATOM     34  C   UNL     1       0.290   9.543  -7.611  1.00  0.00     0.074 A 
ATOM     35  C   UNL     1       0.075  10.153  -5.229  1.00  0.00     0.049 A 
ATOM     36  N   UNL     1       1.133  10.455  -8.027  1.00  0.00    -0.248 NA
ATOM     37  C   UNL     1      -0.144   8.607  -8.659  1.00  0.00     0.031 C 
ATOM     38  C   UNL     1      -0.368  10.033  -3.840  1.00  0.00     0.029 A 
ATOM     39  N   UNL     1       0.885  11.264  -5.223  1.00  0.00    -0.354 N 
ATOM     40  C   UNL     1       1.338  10.197  -9.377  1.00  0.00     0.074 A 
ATOM     41  C   UNL     1       0.571   9.012  -9.699  1.00  0.00     0.031 C 
ATOM     42  C   UNL     1       0.164  11.032  -3.119  1.00  0.00     0.029 A 
ATOM     43  C   UNL     1       1.021  11.839  -3.982  1.00  0.00     0.049 A 
ATOM     44  H   UNL     1       1.325  11.614  -6.030  1.00  0.00     0.167 HD
ATOM     45  C   UNL     1       2.079  10.896 -10.271  1.00  0.00     0.037 A 
ATOM     46  C   UNL     1       1.767  12.886  -3.579  1.00  0.00     0.037 A 
ATOM     47  C   UNL     1       2.830  12.084  -9.955  1.00  0.00     0.049 A 
ATOM     48  C   UNL     1       2.604  13.628  -4.588  1.00  0.00     0.074 A 
ATOM     49  C   UNL     1       3.579  12.882 -10.802  1.00  0.00     0.029 A 
ATOM     50  N   UNL     1       2.930  12.643  -8.690  1.00  0.00    -0.354 N 
ATOM     51  N   UNL     1       2.745  13.405  -5.871  1.00  0.00    -0.248 NA
ATOM     52  C   UNL     1       3.382  14.773  -4.091  1.00  0.00     0.031 C 
ATOM     53  C   UNL     1       4.173  13.894 -10.042  1.00  0.00     0.029 A 
ATOM     54  C   UNL     1       3.745  13.764  -8.731  1.00  0.00     0.049 A 
ATOM     55  H   UNL     1       2.487  12.296  -7.882  1.00  0.00     0.167 HD
ATOM     56  C   UNL     1       3.595  14.398  -6.341  1.00  0.00     0.074 A 
ATOM     57  C   UNL     1       3.928  15.234  -5.207  1.00  0.00     0.031 C 
ATOM     58  C   UNL     1       4.057  14.599  -7.599  1.00  0.00     0.037 A 
BRANCH  45  59
ATOM     59  C   UNL     1       2.115  10.396 -11.688  1.00  0.00     0.064 A 
ATOM     60  C   UNL     1       0.990  10.469 -12.523  1.00  0.00     0.173 A 
ATOM     61  C   UNL     1       3.304   9.888 -12.236  1.00  0.00     0.173 A 
ATOM     62  F   UNL     1      -0.173  10.940 -12.049  1.00  0.00    -0.203 F 
ATOM     63  C   UNL     1       1.044  10.025 -13.842  1.00  0.00     0.198 A 
ATOM     64  C   UNL     1       3.364   9.476 -13.565  1.00  0.00     0.198 A 
ATOM     65  F   UNL     1       4.413   9.805 -11.486  1.00  0.00    -0.203 F 
ATOM     66  F   UNL     1      -0.057  10.061 -14.605  1.00  0.00    -0.200 F 
ATOM     67  C   UNL     1       2.232   9.538 -14.364  1.00  0.00     0.200 A 
ATOM     68  F   UNL     1       4.517   9.021 -14.073  1.00  0.00    -0.200 F 
ATOM     69  F   UNL     1       2.286   9.122 -15.637  1.00  0.00    -0.200 F 
ENDBRANCH  45  59
BRANCH  46  70
ATOM     70  C   UNL     1       1.757  13.303  -2.151  1.00  0.00     0.064 A 
ATOM     71  C   UNL     1       1.205  14.531  -1.759  1.00  0.00     0.173 A 
ATOM     72  C   UNL     1       2.320  12.495  -1.151  1.00  0.00     0.173 A 
ATOM     73  F   UNL     1       0.674  15.350  -2.679  1.00  0.00    -0.203 F 
ATOM     74  C   UNL     1       1.243  14.948  -0.430  1.00  0.00     0.198 A 
ATOM     75  C   UNL     1       2.326  12.897   0.182  1.00  0.00     0.198 A 
ATOM     76  F   UNL     1       2.858  11.308  -1.470  1.00  0.00    -0.203 F 
ATOM     77  F   UNL     1       0.760  16.152  -0.094  1.00  0.00    -0.200 F 
ATOM     78  C   UNL     1       1.798  14.128   0.541  1.00  0.00     0.200 A 
ATOM     79  F   UNL     1       2.850  12.095   1.119  1.00  0.00    -0.200 F 
ATOM     80  F   UNL     1       1.834  14.528   1.819  1.00  0.00    -0.200 F 
ENDBRANCH  46  70
BRANCH  58  81
ATOM     81  C   UNL     1       4.932  15.798  -7.833  1.00  0.00     0.064 A 
ATOM     82  C   UNL     1       6.244  15.866  -7.341  1.00  0.00     0.173 A 
ATOM     83  C   UNL     1       4.463  16.877  -8.599  1.00  0.00     0.173 A 
ATOM     84  F   UNL     1       6.736  14.868  -6.590  1.00  0.00    -0.203 F 
ATOM     85  C   UNL     1       7.043  16.980  -7.583  1.00  0.00     0.198 A 
ATOM     86  C   UNL     1       5.276  17.974  -8.868  1.00  0.00     0.198 A 
ATOM     87  F   UNL     1       3.219  16.860  -9.100  1.00  0.00    -0.203 F 
ATOM     88  F   UNL     1       8.275  17.045  -7.060  1.00  0.00    -0.200 F 
ATOM     89  C   UNL     1       6.562  18.028  -8.354  1.00  0.00     0.200 A 
ATOM     90  F   UNL     1       4.815  18.978  -9.626  1.00  0.00    -0.200 F 
ATOM     91  F   UNL     1       7.337  19.095  -8.595  1.00  0.00    -0.200 F 
ENDBRANCH  58  81
ENDBRANCH  32  33
ENDBRANCH  24  27
ENDBRANCH  22  23
ENDBRANCH   1  22
TORSDOF 13
