REMARK SMILES Cc1cc2nc(NC(=O)[C@H]3[C@@H](C(=O)NCCCNC(=O)c4ccc(-c5c6nc(c(-c7c(F)c(F)c(F)c(F)c7F)c7ccc([nH]7)c(-c7c(F)c(F)c(F)c(F)c7F)c7nc(c(-c8c(F)c(F)c(F)c(F)c8F)c8ccc5[nH]8)C=C7)C=C6)cc4)[C@@H]4C=C[C@H]3C4)sc2cc1C
REMARK SMILES IDX 16 1 15 2 14 3 12 4 13 5 11 7 10 8 87 9 84 10 86 11 88 12
REMARK SMILES IDX 85 13 8 14 7 15 9 17 6 18 1 19 2 20 3 21 92 22 4 23 91 24
REMARK SMILES IDX 93 25 5 26 90 27 89 28 17 29 18 30 19 31 20 33 21 34 22 35
REMARK SMILES IDX 83 36 23 37 82 38 24 39 25 40 26 41 76 42 27 43 81 44 75 45
REMARK SMILES IDX 77 46 28 47 80 48 74 49 73 50 29 52 61 53 41 54 60 55 42 56
REMARK SMILES IDX 45 57 59 58 78 59 43 60 44 61 58 63 79 64 46 65 30 66 31 67
REMARK SMILES IDX 39 68 32 69 33 70 37 71 40 72 34 73 35 74 38 75 36 76 62 77
REMARK SMILES IDX 63 78 71 79 64 80 65 81 69 82 72 83 66 84 67 85 70 86 68 87
REMARK SMILES IDX 47 88 48 89 56 90 49 91 50 92 54 93 57 94 51 95 52 96 55 97
REMARK SMILES IDX 53 98
REMARK H PARENT 14 6 7 16 18 32 77 51 45 62
REMARK Flexibility Score: inf
ROOT
ATOM      1  C   UNL     1      -1.827   8.794   6.990  1.00  0.00     0.042 C 
ENDROOT
BRANCH   1   2
ATOM      2  C   UNL     1      -1.800   7.501   6.153  1.00  0.00     0.117 C 
BRANCH   2   3
ATOM      3  N   UNL     1      -0.826   6.549   6.660  1.00  0.00    -0.356 N 
ATOM      4  C   UNL     1      -0.819   5.295   7.146  1.00  0.00     0.224 C 
ATOM      5  O   UNL     1       0.267   4.980   7.654  1.00  0.00    -0.275 OA
ATOM      6  H   UNL     1       0.082   6.927   6.641  1.00  0.00     0.163 HD
BRANCH   4   7
ATOM      7  C   UNL     1      -1.932   4.253   7.117  1.00  0.00     0.098 C 
ATOM      8  C   UNL     1      -1.536   2.986   6.243  1.00  0.00     0.099 C 
ATOM      9  C   UNL     1      -2.744   2.861   5.294  1.00  0.00     0.025 C 
ATOM     10  C   UNL     1      -3.360   4.572   6.618  1.00  0.00     0.025 C 
ATOM     11  C   UNL     1      -3.923   2.387   6.121  1.00  0.00    -0.027 C 
ATOM     12  C   UNL     1      -3.204   4.322   5.128  1.00  0.00     0.017 C 
ATOM     13  C   UNL     1      -4.284   3.405   6.917  1.00  0.00    -0.027 C 
BRANCH   8  14
ATOM     14  C   UNL     1      -0.086   2.887   5.717  1.00  0.00     0.230 C 
ATOM     15  N   UNL     1       0.448   3.506   4.635  1.00  0.00    -0.302 N 
ATOM     16  H   UNL     1       1.421   3.651   4.668  1.00  0.00     0.172 HD
ATOM     17  O   UNL     1       0.730   2.256   6.411  1.00  0.00    -0.274 OA
BRANCH  15  18
ATOM     18  C   UNL     1      -0.170   3.955   3.512  1.00  0.00     0.190 A 
ATOM     19  C   UNL     1      -4.728   6.150   0.431  1.00  0.00     0.044 C 
ATOM     20  C   UNL     1      -3.291   5.803   0.708  1.00  0.00    -0.046 A 
ATOM     21  C   UNL     1      -3.030   4.796   1.645  1.00  0.00     0.033 A 
ATOM     22  C   UNL     1      -2.213   6.479   0.109  1.00  0.00    -0.047 A 
ATOM     23  C   UNL     1      -1.721   4.574   2.103  1.00  0.00     0.084 A 
ATOM     24  C   UNL     1      -0.886   6.231   0.534  1.00  0.00     0.025 A 
ATOM     25  C   UNL     1      -2.414   7.456  -1.019  1.00  0.00     0.044 C 
ATOM     26  N   UNL     1      -1.384   3.716   3.121  1.00  0.00    -0.220 NA
ATOM     27  C   UNL     1      -0.670   5.320   1.579  1.00  0.00     0.057 A 
ATOM     28  S   UNL     1       0.768   4.918   2.459  1.00  0.00    -0.097 S 
ENDBRANCH  15  18
ENDBRANCH   8  14
ENDBRANCH   4   7
ENDBRANCH   2   3
ENDBRANCH   1   2
BRANCH   1  29
ATOM     29  C   UNL     1      -0.484   9.526   7.120  1.00  0.00     0.118 C 
BRANCH  29  30
ATOM     30  N   UNL     1       0.125   9.875   5.851  1.00  0.00    -0.352 N 
ATOM     31  C   UNL     1       0.278  11.021   5.125  1.00  0.00     0.251 C 
ATOM     32  H   UNL     1       0.527   9.095   5.404  1.00  0.00     0.163 HD
ATOM     33  O   UNL     1       1.088  10.951   4.192  1.00  0.00    -0.269 OA
BRANCH  31  34
ATOM     34  C   UNL     1      -0.479  12.291   5.305  1.00  0.00     0.039 A 
ATOM     35  C   UNL     1      -1.482  12.524   6.245  1.00  0.00     0.014 A 
ATOM     36  C   UNL     1      -0.211  13.300   4.355  1.00  0.00     0.014 A 
ATOM     37  C   UNL     1      -2.256  13.687   6.173  1.00  0.00     0.010 A 
ATOM     38  C   UNL     1      -0.980  14.458   4.280  1.00  0.00     0.010 A 
ATOM     39  C   UNL     1      -2.046  14.626   5.154  1.00  0.00    -0.014 A 
BRANCH  39  40
ATOM     40  C   UNL     1      -2.961  15.767   5.053  1.00  0.00     0.031 A 
ATOM     41  C   UNL     1      -3.050  16.646   6.255  1.00  0.00     0.074 A 
ATOM     42  C   UNL     1      -3.663  16.080   3.942  1.00  0.00     0.049 A 
ATOM     43  N   UNL     1      -4.084  16.878   7.000  1.00  0.00    -0.248 NA
ATOM     44  C   UNL     1      -1.820  17.302   6.719  1.00  0.00     0.031 C 
ATOM     45  C   UNL     1      -3.546  15.521   2.593  1.00  0.00     0.029 A 
ATOM     46  N   UNL     1      -4.620  17.044   3.789  1.00  0.00    -0.354 N 
ATOM     47  C   UNL     1      -3.679  17.807   7.958  1.00  0.00     0.074 A 
ATOM     48  C   UNL     1      -2.257  17.971   7.788  1.00  0.00     0.031 C 
ATOM     49  C   UNL     1      -4.251  16.284   1.724  1.00  0.00     0.029 A 
ATOM     50  C   UNL     1      -4.990  17.285   2.473  1.00  0.00     0.049 A 
ATOM     51  H   UNL     1      -5.015  17.529   4.550  1.00  0.00     0.167 HD
ATOM     52  C   UNL     1      -4.571  18.485   8.734  1.00  0.00     0.037 A 
ATOM     53  C   UNL     1      -5.826  18.256   2.028  1.00  0.00     0.037 A 
ATOM     54  C   UNL     1      -5.856  17.842   8.756  1.00  0.00     0.049 A 
ATOM     55  C   UNL     1      -6.683  18.665   3.163  1.00  0.00     0.074 A 
ATOM     56  C   UNL     1      -6.334  16.636   9.229  1.00  0.00     0.029 A 
ATOM     57  N   UNL     1      -6.846  18.333   7.946  1.00  0.00    -0.354 N 
ATOM     58  N   UNL     1      -7.603  17.913   3.693  1.00  0.00    -0.248 NA
ATOM     59  C   UNL     1      -6.247  19.790   3.974  1.00  0.00     0.031 C 
ATOM     60  C   UNL     1      -7.344  16.247   8.300  1.00  0.00     0.029 A 
ATOM     61  C   UNL     1      -7.443  17.256   7.342  1.00  0.00     0.049 A 
ATOM     62  H   UNL     1      -7.084  19.280   7.820  1.00  0.00     0.167 HD
ATOM     63  C   UNL     1      -7.548  18.197   5.048  1.00  0.00     0.074 A 
ATOM     64  C   UNL     1      -6.776  19.432   5.146  1.00  0.00     0.031 C 
ATOM     65  C   UNL     1      -7.902  17.261   5.975  1.00  0.00     0.037 A 
BRANCH  52  66
ATOM     66  C   UNL     1      -4.366  19.882   9.262  1.00  0.00     0.064 A 
ATOM     67  C   UNL     1      -5.248  20.404  10.231  1.00  0.00     0.173 A 
ATOM     68  C   UNL     1      -3.518  20.822   8.642  1.00  0.00     0.173 A 
ATOM     69  F   UNL     1      -6.118  19.604  10.867  1.00  0.00    -0.203 F 
ATOM     70  C   UNL     1      -5.316  21.773  10.508  1.00  0.00     0.198 A 
ATOM     71  C   UNL     1      -3.554  22.180   8.956  1.00  0.00     0.198 A 
ATOM     72  F   UNL     1      -2.703  20.479   7.636  1.00  0.00    -0.203 F 
ATOM     73  F   UNL     1      -6.247  22.237  11.354  1.00  0.00    -0.200 F 
ATOM     74  C   UNL     1      -4.471  22.660   9.867  1.00  0.00     0.200 A 
ATOM     75  F   UNL     1      -2.742  23.029   8.310  1.00  0.00    -0.200 F 
ATOM     76  F   UNL     1      -4.574  23.978  10.088  1.00  0.00    -0.200 F 
ENDBRANCH  52  66
BRANCH  53  77
ATOM     77  C   UNL     1      -5.722  19.075   0.798  1.00  0.00     0.064 A 
ATOM     78  C   UNL     1      -6.810  19.840   0.343  1.00  0.00     0.173 A 
ATOM     79  C   UNL     1      -4.467  19.372   0.235  1.00  0.00     0.173 A 
ATOM     80  F   UNL     1      -8.033  19.647   0.859  1.00  0.00    -0.203 F 
ATOM     81  C   UNL     1      -6.643  20.872  -0.586  1.00  0.00     0.198 A 
ATOM     82  C   UNL     1      -4.302  20.399  -0.696  1.00  0.00     0.198 A 
ATOM     83  F   UNL     1      -3.360  18.743   0.656  1.00  0.00    -0.203 F 
ATOM     84  F   UNL     1      -7.690  21.631  -0.940  1.00  0.00    -0.200 F 
ATOM     85  C   UNL     1      -5.386  21.160  -1.093  1.00  0.00     0.200 A 
ATOM     86  F   UNL     1      -3.076  20.693  -1.150  1.00  0.00    -0.200 F 
ATOM     87  F   UNL     1      -5.212  22.196  -1.925  1.00  0.00    -0.200 F 
ENDBRANCH  53  77
BRANCH  65  88
ATOM     88  C   UNL     1      -8.603  16.026   5.476  1.00  0.00     0.064 A 
ATOM     89  C   UNL     1      -8.027  15.102   4.585  1.00  0.00     0.173 A 
ATOM     90  C   UNL     1      -9.861  15.708   6.005  1.00  0.00     0.173 A 
ATOM     91  F   UNL     1      -6.785  15.277   4.118  1.00  0.00    -0.203 F 
ATOM     92  C   UNL     1      -8.705  13.947   4.199  1.00  0.00     0.198 A 
ATOM     93  C   UNL     1     -10.519  14.534   5.648  1.00  0.00     0.198 A 
ATOM     94  F   UNL     1     -10.437  16.520   6.905  1.00  0.00    -0.203 F 
ATOM     95  F   UNL     1      -8.140  13.093   3.332  1.00  0.00    -0.200 F 
ATOM     96  C   UNL     1      -9.949  13.662   4.735  1.00  0.00     0.200 A 
ATOM     97  F   UNL     1     -11.699  14.235   6.209  1.00  0.00    -0.200 F 
ATOM     98  F   UNL     1     -10.585  12.532   4.394  1.00  0.00    -0.200 F 
ENDBRANCH  65  88
ENDBRANCH  39  40
ENDBRANCH  31  34
ENDBRANCH  29  30
ENDBRANCH   1  29
TORSDOF 12
