REMARK SMILES CC(C)[C@H](NC(=O)c1cc2cc(Cl)ccc2n1C)C(=O)N[C@@H](C(=O)NCCCNC(=O)c1ccc(-c2c3nc(c(-c4c(F)c(F)c(F)c(F)c4F)c4ccc([nH]4)c(-c4c(F)c(F)c(F)c(F)c4F)c4nc(c(-c5c(F)c(F)c(F)c(F)c5F)c5ccc2[nH]5)C=C4)C=C3)cc1)c1ccccc1
REMARK SMILES IDX 26 1 25 2 23 3 24 4 22 6 21 7 19 8 20 9 4 11 2 12 1 13 3 14
REMARK SMILES IDX 5 15 6 16 7 18 8 19 9 20 17 21 10 22 16 23 18 24 11 25 15 26
REMARK SMILES IDX 12 27 14 28 13 29 95 30 96 31 100 32 97 33 99 34 98 35 27 36
REMARK SMILES IDX 28 37 29 38 30 39 31 41 32 42 33 43 94 44 34 45 93 46 35 47
REMARK SMILES IDX 36 48 37 49 87 50 38 51 92 52 86 53 88 54 39 55 91 56 85 57
REMARK SMILES IDX 84 58 40 60 72 61 52 62 71 63 53 64 56 65 70 66 89 67 54 68
REMARK SMILES IDX 55 69 69 71 90 72 57 73 41 74 42 75 50 76 43 77 44 78 48 79
REMARK SMILES IDX 51 80 45 81 46 82 49 83 47 84 73 85 74 86 82 87 75 88 76 89
REMARK SMILES IDX 80 90 83 91 77 92 78 93 81 94 79 95 58 96 59 97 67 98 60 99
REMARK SMILES IDX 61 100 65 101 68 102 62 103 63 104 66 105 64 106
REMARK H PARENT 25 5 21 10 5 17 29 40 88 59 56 70
REMARK Flexibility Score: inf
ROOT
ATOM      1  C   UNL     1       2.131  -3.410   2.407  1.00  0.00     0.117 C 
ENDROOT
BRANCH   1   2
ATOM      2  N   UNL     1       2.007  -4.775   1.966  1.00  0.00    -0.354 N 
ATOM      3  C   UNL     1       1.336  -5.225   0.860  1.00  0.00     0.247 C 
ATOM      4  O   UNL     1       1.867  -6.191   0.298  1.00  0.00    -0.272 OA
ATOM      5  H   UNL     1       2.452  -5.458   2.519  1.00  0.00     0.163 HD
BRANCH   3   6
ATOM      6  C   UNL     1       0.061  -4.489   0.257  1.00  0.00     0.202 C 
BRANCH   6   7
ATOM      7  N   UNL     1      -0.863  -3.931   1.257  1.00  0.00    -0.339 N 
ATOM      8  C   UNL     1      -1.738  -2.887   1.138  1.00  0.00     0.243 C 
ATOM      9  O   UNL     1      -2.905  -3.122   1.476  1.00  0.00    -0.273 OA
ATOM     10  H   UNL     1      -0.849  -4.372   2.137  1.00  0.00     0.164 HD
BRANCH   8  11
ATOM     11  C   UNL     1      -1.345  -1.441   0.700  1.00  0.00     0.174 C 
BRANCH  11  12
ATOM     12  C   UNL     1      -1.752  -0.967  -0.718  1.00  0.00     0.015 C 
ATOM     13  C   UNL     1      -0.722  -1.232  -1.817  1.00  0.00     0.010 C 
ATOM     14  C   UNL     1      -3.141  -1.455  -1.131  1.00  0.00     0.010 C 
ENDBRANCH  11  12
BRANCH  11  15
ATOM     15  N   UNL     1       0.032  -1.082   1.020  1.00  0.00    -0.339 N 
ATOM     16  C   UNL     1       0.537  -0.374   2.083  1.00  0.00     0.268 C 
ATOM     17  H   UNL     1       0.704  -1.397   0.374  1.00  0.00     0.164 HD
ATOM     18  O   UNL     1       1.750  -0.171   2.083  1.00  0.00    -0.268 OA
BRANCH  16  19
ATOM     19  C   UNL     1      -0.327   0.116   3.133  1.00  0.00     0.107 A 
ATOM     20  C   UNL     1      -0.377   1.430   3.578  1.00  0.00     0.042 A 
ATOM     21  N   UNL     1      -1.134  -0.602   3.994  1.00  0.00    -0.340 N 
ATOM     22  C   UNL     1      -1.310   1.523   4.641  1.00  0.00     0.002 A 
ATOM     23  C   UNL     1      -1.812   0.243   4.853  1.00  0.00     0.048 A 
ATOM     24  C   UNL     1      -1.196  -2.037   4.147  1.00  0.00     0.150 C 
ATOM     25  C   UNL     1      -1.770   2.577   5.452  1.00  0.00     0.030 A 
ATOM     26  C   UNL     1      -2.789  -0.030   5.823  1.00  0.00     0.028 A 
ATOM     27  C   UNL     1      -2.746   2.315   6.419  1.00  0.00     0.041 A 
ATOM     28  C   UNL     1      -3.254   1.033   6.598  1.00  0.00     0.023 A 
ATOM     29  Cl  UNL     1      -3.345   3.590   7.408  1.00  0.00    -0.084 Cl
ENDBRANCH  16  19
ENDBRANCH  11  15
ENDBRANCH   8  11
ENDBRANCH   6   7
BRANCH   6  30
ATOM     30  C   UNL     1      -0.775  -5.477  -0.588  1.00  0.00    -0.016 A 
ATOM     31  C   UNL     1      -0.963  -6.813  -0.177  1.00  0.00     0.006 A 
ATOM     32  C   UNL     1      -1.458  -5.055  -1.738  1.00  0.00     0.006 A 
ATOM     33  C   UNL     1      -1.753  -7.698  -0.916  1.00  0.00     0.000 A 
ATOM     34  C   UNL     1      -2.267  -5.934  -2.465  1.00  0.00     0.000 A 
ATOM     35  C   UNL     1      -2.407  -7.257  -2.060  1.00  0.00     0.000 A 
ENDBRANCH   6  30
ENDBRANCH   3   6
ENDBRANCH   1   2
BRANCH   1  36
ATOM     36  C   UNL     1       2.097  -3.226   3.920  1.00  0.00     0.042 C 
BRANCH  36  37
ATOM     37  C   UNL     1       3.388  -3.551   4.668  1.00  0.00     0.118 C 
BRANCH  37  38
ATOM     38  N   UNL     1       4.554  -2.849   4.175  1.00  0.00    -0.352 N 
ATOM     39  C   UNL     1       5.171  -1.662   4.465  1.00  0.00     0.251 C 
ATOM     40  H   UNL     1       5.014  -3.344   3.458  1.00  0.00     0.163 HD
ATOM     41  O   UNL     1       6.264  -1.488   3.916  1.00  0.00    -0.269 OA
BRANCH  39  42
ATOM     42  C   UNL     1       4.646  -0.582   5.359  1.00  0.00     0.039 A 
ATOM     43  C   UNL     1       3.356  -0.497   5.881  1.00  0.00     0.014 A 
ATOM     44  C   UNL     1       5.526   0.484   5.628  1.00  0.00     0.014 A 
ATOM     45  C   UNL     1       2.933   0.644   6.585  1.00  0.00     0.010 A 
ATOM     46  C   UNL     1       5.117   1.611   6.352  1.00  0.00     0.010 A 
ATOM     47  C   UNL     1       3.800   1.722   6.801  1.00  0.00    -0.014 A 
BRANCH  47  48
ATOM     48  C   UNL     1       3.295   2.931   7.487  1.00  0.00     0.031 A 
ATOM     49  C   UNL     1       2.870   2.833   8.919  1.00  0.00     0.074 A 
ATOM     50  C   UNL     1       3.344   4.176   6.958  1.00  0.00     0.049 A 
ATOM     51  N   UNL     1       1.808   3.337   9.476  1.00  0.00    -0.248 NA
ATOM     52  C   UNL     1       3.773   2.156   9.862  1.00  0.00     0.031 C 
ATOM     53  C   UNL     1       4.008   4.577   5.719  1.00  0.00     0.029 A 
ATOM     54  N   UNL     1       2.899   5.370   7.481  1.00  0.00    -0.354 N 
ATOM     55  C   UNL     1       1.947   3.128  10.845  1.00  0.00     0.074 A 
ATOM     56  C   UNL     1       3.168   2.380  11.030  1.00  0.00     0.031 C 
ATOM     57  C   UNL     1       4.106   5.923   5.688  1.00  0.00     0.029 A 
ATOM     58  C   UNL     1       3.403   6.484   6.835  1.00  0.00     0.049 A 
ATOM     59  H   UNL     1       2.280   5.426   8.244  1.00  0.00     0.167 HD
ATOM     60  C   UNL     1       1.133   3.683  11.784  1.00  0.00     0.037 A 
ATOM     61  C   UNL     1       3.306   7.790   7.181  1.00  0.00     0.037 A 
ATOM     62  C   UNL     1      -0.036   4.364  11.306  1.00  0.00     0.049 A 
ATOM     63  C   UNL     1       2.183   8.033   8.113  1.00  0.00     0.074 A 
ATOM     64  C   UNL     1      -1.405   4.271  11.446  1.00  0.00     0.029 A 
ATOM     65  N   UNL     1       0.193   5.393  10.443  1.00  0.00    -0.354 N 
ATOM     66  N   UNL     1       0.926   8.012   7.773  1.00  0.00    -0.248 NA
ATOM     67  C   UNL     1       2.443   8.186   9.544  1.00  0.00     0.031 C 
ATOM     68  C   UNL     1      -1.992   5.290  10.632  1.00  0.00     0.029 A 
ATOM     69  C   UNL     1      -0.967   6.000  10.035  1.00  0.00     0.049 A 
ATOM     70  H   UNL     1       1.090   5.669  10.147  1.00  0.00     0.167 HD
ATOM     71  C   UNL     1       0.260   7.776   8.955  1.00  0.00     0.074 A 
ATOM     72  C   UNL     1       1.204   8.054  10.023  1.00  0.00     0.031 C 
ATOM     73  C   UNL     1      -0.842   6.979   8.993  1.00  0.00     0.037 A 
BRANCH  60  74
ATOM     74  C   UNL     1       1.564   3.884  13.203  1.00  0.00     0.064 A 
ATOM     75  C   UNL     1       0.684   3.691  14.277  1.00  0.00     0.173 A 
ATOM     76  C   UNL     1       2.783   4.532  13.484  1.00  0.00     0.173 A 
ATOM     77  F   UNL     1      -0.506   3.104  14.086  1.00  0.00    -0.203 F 
ATOM     78  C   UNL     1       1.004   4.133  15.564  1.00  0.00     0.198 A 
ATOM     79  C   UNL     1       3.111   4.947  14.773  1.00  0.00     0.198 A 
ATOM     80  F   UNL     1       3.640   4.830  12.495  1.00  0.00    -0.203 F 
ATOM     81  F   UNL     1       0.121   3.980  16.561  1.00  0.00    -0.200 F 
ATOM     82  C   UNL     1       2.216   4.759  15.810  1.00  0.00     0.200 A 
ATOM     83  F   UNL     1       4.279   5.566  14.996  1.00  0.00    -0.200 F 
ATOM     84  F   UNL     1       2.511   5.202  17.040  1.00  0.00    -0.200 F 
ENDBRANCH  60  74
BRANCH  61  85
ATOM     85  C   UNL     1       4.190   8.899   6.761  1.00  0.00     0.064 A 
ATOM     86  C   UNL     1       3.718  10.215   6.652  1.00  0.00     0.173 A 
ATOM     87  C   UNL     1       5.579   8.712   6.644  1.00  0.00     0.173 A 
ATOM     88  F   UNL     1       2.415  10.486   6.811  1.00  0.00    -0.203 F 
ATOM     89  C   UNL     1       4.587  11.283   6.420  1.00  0.00     0.198 A 
ATOM     90  C   UNL     1       6.444   9.775   6.393  1.00  0.00     0.198 A 
ATOM     91  F   UNL     1       6.126   7.502   6.841  1.00  0.00    -0.203 F 
ATOM     92  F   UNL     1       4.107  12.533   6.362  1.00  0.00    -0.200 F 
ATOM     93  C   UNL     1       5.948  11.062   6.286  1.00  0.00     0.200 A 
ATOM     94  F   UNL     1       7.762   9.552   6.296  1.00  0.00    -0.200 F 
ATOM     95  F   UNL     1       6.784  12.089   6.088  1.00  0.00    -0.200 F 
ENDBRANCH  61  85
BRANCH  73  96
ATOM     96  C   UNL     1      -1.694   6.916   7.778  1.00  0.00     0.064 A 
ATOM     97  C   UNL     1      -1.256   6.349   6.573  1.00  0.00     0.173 A 
ATOM     98  C   UNL     1      -2.987   7.450   7.820  1.00  0.00     0.173 A 
ATOM     99  F   UNL     1      -0.063   5.740   6.496  1.00  0.00    -0.203 F 
ATOM    100  C   UNL     1      -2.062   6.374   5.437  1.00  0.00     0.198 A 
ATOM    101  C   UNL     1      -3.804   7.440   6.692  1.00  0.00     0.198 A 
ATOM    102  F   UNL     1      -3.463   7.978   8.959  1.00  0.00    -0.203 F 
ATOM    103  F   UNL     1      -1.614   5.847   4.287  1.00  0.00    -0.200 F 
ATOM    104  C   UNL     1      -3.336   6.915   5.498  1.00  0.00     0.200 A 
ATOM    105  F   UNL     1      -5.045   7.944   6.760  1.00  0.00    -0.200 F 
ATOM    106  F   UNL     1      -4.118   6.915   4.410  1.00  0.00    -0.200 F 
ENDBRANCH  73  96
ENDBRANCH  47  48
ENDBRANCH  39  42
ENDBRANCH  37  38
ENDBRANCH  36  37
ENDBRANCH   1  36
TORSDOF 16
