REMARK SMILES O=C(NCCCNC(=O)c1cc(Cl)c2c(c1)[C@H]1C=CC[C@H]1[C@H](c1ccc(S(=O)(=O)N3CCOCC3)cc1)N2)c1ccc(-c2c3nc(c(-c4c(F)c(F)c(F)c(F)c4F)c4ccc([nH]4)c(-c4c(F)c(F)c(F)c(F)c4F)c4nc(c(-c5c(F)c(F)c(F)c(F)c5F)c5ccc2[nH]5)C=C4)C=C3)cc1
REMARK SMILES IDX 5 1 4 2 3 3 1 4 2 5 39 7 40 8 101 9 41 10 100 11 42 12 43 13
REMARK SMILES IDX 44 14 94 15 45 16 99 17 93 18 95 19 46 20 98 21 92 22 91 23
REMARK SMILES IDX 47 25 79 26 59 27 78 28 60 29 63 30 77 31 96 32 61 33 62 34
REMARK SMILES IDX 76 36 97 37 64 38 48 39 49 40 57 41 50 42 51 43 55 44 58 45
REMARK SMILES IDX 52 46 53 47 56 48 54 49 80 50 81 51 89 52 82 53 83 54 87 55
REMARK SMILES IDX 90 56 84 57 85 58 88 59 86 60 65 61 66 62 74 63 67 64 68 65
REMARK SMILES IDX 72 66 75 67 69 68 70 69 73 70 71 71 6 72 7 73 8 74 9 76
REMARK SMILES IDX 10 77 11 78 16 79 12 80 15 81 13 82 14 83 17 84 38 85 18 86
REMARK SMILES IDX 21 87 22 88 19 90 20 91 23 92 24 93 37 94 25 95 36 96 26 97
REMARK SMILES IDX 27 98 28 99 29 100 30 101 31 102 35 103 32 104 34 105 33 106
REMARK H PARENT 3 6 95 24 63 35 7 75 38 89
REMARK Flexibility Score: inf
ROOT
ATOM      1  C   UNL     1       4.834  -2.226   0.646  1.00  0.00     0.042 C 
ENDROOT
BRANCH   1   2
ATOM      2  C   UNL     1       4.402  -1.181  -0.371  1.00  0.00     0.118 C 
BRANCH   2   3
ATOM      3  N   UNL     1       2.957  -1.004  -0.404  1.00  0.00    -0.352 N 
ATOM      4  O   UNL     1       0.982  -0.008   0.028  1.00  0.00    -0.269 OA
ATOM      5  C   UNL     1       2.200   0.094  -0.083  1.00  0.00     0.251 C 
ATOM      6  H   UNL     1       2.446  -1.791  -0.703  1.00  0.00     0.163 HD
BRANCH   5   7
ATOM      7  C   UNL     1       2.855   1.397   0.147  1.00  0.00     0.039 A 
ATOM      8  C   UNL     1       3.833   1.865  -0.734  1.00  0.00     0.014 A 
ATOM      9  C   UNL     1       2.469   2.166   1.248  1.00  0.00     0.014 A 
ATOM     10  C   UNL     1       4.519   3.038  -0.443  1.00  0.00     0.010 A 
ATOM     11  C   UNL     1       3.115   3.376   1.505  1.00  0.00     0.010 A 
ATOM     12  C   UNL     1       4.168   3.801   0.681  1.00  0.00    -0.014 A 
BRANCH  12  13
ATOM     13  C   UNL     1       4.902   5.056   0.965  1.00  0.00     0.031 A 
ATOM     14  C   UNL     1       5.839   5.144   2.134  1.00  0.00     0.074 A 
ATOM     15  C   UNL     1       4.743   6.104   0.135  1.00  0.00     0.049 A 
ATOM     16  N   UNL     1       6.590   6.147   2.513  1.00  0.00    -0.248 NA
ATOM     17  C   UNL     1       5.953   3.953   2.991  1.00  0.00     0.031 C 
ATOM     18  C   UNL     1       3.859   6.126  -1.031  1.00  0.00     0.029 A 
ATOM     19  N   UNL     1       5.324   7.346   0.139  1.00  0.00    -0.354 N 
ATOM     20  C   UNL     1       7.264   5.711   3.644  1.00  0.00     0.074 A 
ATOM     21  C   UNL     1       6.811   4.364   3.916  1.00  0.00     0.031 C 
ATOM     22  C   UNL     1       3.973   7.314  -1.644  1.00  0.00     0.029 A 
ATOM     23  C   UNL     1       4.905   8.149  -0.893  1.00  0.00     0.049 A 
ATOM     24  H   UNL     1       5.979   7.634   0.815  1.00  0.00     0.167 HD
ATOM     25  C   UNL     1       8.190   6.373   4.377  1.00  0.00     0.037 A 
ATOM     26  C   UNL     1       5.228   9.422  -1.190  1.00  0.00     0.037 A 
ATOM     27  C   UNL     1       8.645   7.709   4.095  1.00  0.00     0.049 A 
ATOM     28  C   UNL     1       6.218  10.148  -0.324  1.00  0.00     0.074 A 
ATOM     29  C   UNL     1       9.609   8.447   4.759  1.00  0.00     0.029 A 
ATOM     30  N   UNL     1       8.164   8.508   3.069  1.00  0.00    -0.354 N 
ATOM     31  N   UNL     1       6.884   9.708   0.715  1.00  0.00    -0.248 NA
ATOM     32  C   UNL     1       6.502  11.547  -0.671  1.00  0.00     0.031 C 
ATOM     33  C   UNL     1       9.680   9.710   4.163  1.00  0.00     0.029 A 
ATOM     34  C   UNL     1       8.792   9.743   3.100  1.00  0.00     0.049 A 
ATOM     35  H   UNL     1       7.479   8.238   2.416  1.00  0.00     0.167 HD
ATOM     36  C   UNL     1       7.674  10.767   1.138  1.00  0.00     0.074 A 
ATOM     37  C   UNL     1       7.421  11.866   0.230  1.00  0.00     0.031 C 
ATOM     38  C   UNL     1       8.528  10.825   2.188  1.00  0.00     0.037 A 
BRANCH  25  39
ATOM     39  C   UNL     1       8.791   5.671   5.558  1.00  0.00     0.064 A 
ATOM     40  C   UNL     1       9.751   4.662   5.394  1.00  0.00     0.173 A 
ATOM     41  C   UNL     1       8.484   6.083   6.863  1.00  0.00     0.173 A 
ATOM     42  F   UNL     1      10.071   4.227   4.166  1.00  0.00    -0.203 F 
ATOM     43  C   UNL     1      10.382   4.091   6.496  1.00  0.00     0.198 A 
ATOM     44  C   UNL     1       9.132   5.525   7.961  1.00  0.00     0.198 A 
ATOM     45  F   UNL     1       7.576   7.049   7.071  1.00  0.00    -0.203 F 
ATOM     46  F   UNL     1      11.286   3.117   6.318  1.00  0.00    -0.200 F 
ATOM     47  C   UNL     1      10.081   4.530   7.777  1.00  0.00     0.200 A 
ATOM     48  F   UNL     1       8.849   5.958   9.197  1.00  0.00    -0.200 F 
ATOM     49  F   UNL     1      10.706   3.994   8.834  1.00  0.00    -0.200 F 
ENDBRANCH  25  39
BRANCH  26  50
ATOM     50  C   UNL     1       4.603  10.086  -2.362  1.00  0.00     0.064 A 
ATOM     51  C   UNL     1       5.359  10.405  -3.498  1.00  0.00     0.173 A 
ATOM     52  C   UNL     1       3.239  10.413  -2.370  1.00  0.00     0.173 A 
ATOM     53  F   UNL     1       6.671  10.130  -3.528  1.00  0.00    -0.203 F 
ATOM     54  C   UNL     1       4.776  11.040  -4.593  1.00  0.00     0.198 A 
ATOM     55  C   UNL     1       2.652  11.023  -3.476  1.00  0.00     0.198 A 
ATOM     56  F   UNL     1       2.473  10.126  -1.307  1.00  0.00    -0.203 F 
ATOM     57  F   UNL     1       5.529  11.370  -5.651  1.00  0.00    -0.200 F 
ATOM     58  C   UNL     1       3.423  11.342  -4.584  1.00  0.00     0.200 A 
ATOM     59  F   UNL     1       1.341  11.301  -3.468  1.00  0.00    -0.200 F 
ATOM     60  F   UNL     1       2.862  11.948  -5.639  1.00  0.00    -0.200 F 
ENDBRANCH  26  50
BRANCH  38  61
ATOM     61  C   UNL     1       9.258  12.114   2.414  1.00  0.00     0.064 A 
ATOM     62  C   UNL     1       8.605  13.239   2.938  1.00  0.00     0.173 A 
ATOM     63  C   UNL     1      10.637  12.205   2.172  1.00  0.00     0.173 A 
ATOM     64  F   UNL     1       7.285  13.204   3.172  1.00  0.00    -0.203 F 
ATOM     65  C   UNL     1       9.305  14.413   3.200  1.00  0.00     0.198 A 
ATOM     66  C   UNL     1      11.338  13.372   2.461  1.00  0.00     0.198 A 
ATOM     67  F   UNL     1      11.308  11.153   1.679  1.00  0.00    -0.203 F 
ATOM     68  F   UNL     1       8.655  15.487   3.671  1.00  0.00    -0.200 F 
ATOM     69  C   UNL     1      10.671  14.476   2.971  1.00  0.00     0.200 A 
ATOM     70  F   UNL     1      12.661  13.426   2.253  1.00  0.00    -0.200 F 
ATOM     71  F   UNL     1      11.346  15.602   3.240  1.00  0.00    -0.200 F 
ENDBRANCH  38  61
ENDBRANCH  12  13
ENDBRANCH   5   7
ENDBRANCH   2   3
ENDBRANCH   1   2
BRANCH   1  72
ATOM     72  C   UNL     1       4.276  -3.614   0.374  1.00  0.00     0.118 C 
BRANCH  72  73
ATOM     73  N   UNL     1       4.746  -4.169  -0.889  1.00  0.00    -0.352 N 
ATOM     74  C   UNL     1       5.505  -5.293  -1.103  1.00  0.00     0.251 C 
ATOM     75  H   UNL     1       4.484  -3.672  -1.697  1.00  0.00     0.163 HD
ATOM     76  O   UNL     1       5.960  -5.551  -2.210  1.00  0.00    -0.269 OA
BRANCH  74  77
ATOM     77  C   UNL     1       5.799  -6.164   0.045  1.00  0.00     0.041 A 
ATOM     78  C   UNL     1       4.760  -6.677   0.818  1.00  0.00     0.036 A 
ATOM     79  C   UNL     1       7.129  -6.405   0.381  1.00  0.00     0.020 A 
ATOM     80  C   UNL     1       5.064  -7.301   2.020  1.00  0.00     0.065 A 
ATOM     81  C   UNL     1       7.434  -7.079   1.572  1.00  0.00    -0.015 A 
ATOM     82  Cl  UNL     1       3.752  -7.811   3.027  1.00  0.00    -0.082 Cl
ATOM     83  C   UNL     1       6.400  -7.463   2.439  1.00  0.00     0.057 A 
ATOM     84  C   UNL     1       8.866  -7.407   1.885  1.00  0.00     0.049 C 
ATOM     85  N   UNL     1       6.688  -8.057   3.656  1.00  0.00    -0.376 N 
ATOM     86  C   UNL     1       9.735  -6.227   2.238  1.00  0.00    -0.023 C 
ATOM     87  C   UNL     1       9.075  -8.337   3.101  1.00  0.00     0.031 C 
ATOM     88  C   UNL     1       8.033  -8.021   4.204  1.00  0.00     0.114 C 
ATOM     89  H   UNL     1       5.972  -8.511   4.157  1.00  0.00     0.161 HD
ATOM     90  C   UNL     1      10.671  -6.578   3.128  1.00  0.00    -0.030 C 
ATOM     91  C   UNL     1      10.534  -8.022   3.496  1.00  0.00     0.034 C 
BRANCH  88  92
ATOM     92  C   UNL     1       8.104  -8.989   5.378  1.00  0.00    -0.025 A 
ATOM     93  C   UNL     1       7.285 -10.131   5.494  1.00  0.00     0.007 A 
ATOM     94  C   UNL     1       9.032  -8.739   6.391  1.00  0.00     0.007 A 
ATOM     95  C   UNL     1       7.411 -11.005   6.581  1.00  0.00     0.022 A 
ATOM     96  C   UNL     1       9.188  -9.631   7.442  1.00  0.00     0.022 A 
ATOM     97  C   UNL     1       8.385 -10.758   7.548  1.00  0.00     0.082 A 
BRANCH  97  98
ATOM     98  S   UNL     1       8.594 -11.911   8.886  1.00  0.00     0.243 S 
ATOM     99  O   UNL     1       7.547 -11.611   9.844  1.00  0.00    -0.207 OA
ATOM    100  O   UNL     1       8.725 -13.216   8.284  1.00  0.00    -0.207 OA
BRANCH  98 101
ATOM    101  N   UNL     1      10.067 -11.516   9.582  1.00  0.00    -0.193 NA
ATOM    102  C   UNL     1      10.193 -10.530  10.675  1.00  0.00     0.131 C 
ATOM    103  C   UNL     1      11.337 -12.083   9.094  1.00  0.00     0.131 C 
ATOM    104  C   UNL     1      11.326  -9.522  10.411  1.00  0.00     0.177 C 
ATOM    105  C   UNL     1      12.345 -10.964   8.822  1.00  0.00     0.177 C 
ATOM    106  O   UNL     1      12.543 -10.146   9.983  1.00  0.00    -0.379 OA
ENDBRANCH  98 101
ENDBRANCH  97  98
ENDBRANCH  88  92
ENDBRANCH  74  77
ENDBRANCH  72  73
ENDBRANCH   1  72
TORSDOF 13
