REMARK SMILES O=C(NCCCNC(=O)c1cc(S[C@H]2CCO[C@@]3(CCOC3)C2)cs1)c1ccc(-c2c3nc(c(-c4c(F)c(F)c(F)c(F)c4F)c4ccc([nH]4)c(-c4c(F)c(F)c(F)c(F)c4F)c4nc(c(-c5c(F)c(F)c(F)c(F)c5F)c5ccc2[nH]5)C=C4)C=C3)cc1
REMARK SMILES IDX 5 1 4 2 3 3 1 4 2 5 26 7 27 8 88 9 28 10 87 11 29 12 30 13
REMARK SMILES IDX 31 14 81 15 32 16 86 17 80 18 82 19 33 20 85 21 79 22 78 23
REMARK SMILES IDX 34 25 66 26 46 27 65 28 47 29 50 30 64 31 83 32 48 33 49 34
REMARK SMILES IDX 63 36 84 37 51 38 35 39 36 40 44 41 37 42 38 43 42 44 45 45
REMARK SMILES IDX 39 46 40 47 43 48 41 49 67 50 68 51 76 52 69 53 70 54 74 55
REMARK SMILES IDX 77 56 71 57 72 58 75 59 73 60 52 61 53 62 61 63 54 64 55 65
REMARK SMILES IDX 59 66 62 67 56 68 57 69 60 70 58 71 6 72 7 73 8 74 9 76
REMARK SMILES IDX 10 77 11 78 25 79 12 80 24 81 13 82 14 83 15 84 23 85 16 86
REMARK SMILES IDX 18 87 17 88 19 89 22 90 20 91 21 92
REMARK H PARENT 3 6 82 24 50 35 7 75
REMARK Flexibility Score: inf
ROOT
ATOM      1  C   UNL     1       6.611  12.354   1.421  1.00  0.00     0.042 C 
ENDROOT
BRANCH   1   2
ATOM      2  C   UNL     1       7.687  12.953   2.309  1.00  0.00     0.118 C 
BRANCH   2   3
ATOM      3  N   UNL     1       8.480  11.928   2.976  1.00  0.00    -0.352 N 
ATOM      4  O   UNL     1      10.227  10.541   3.282  1.00  0.00    -0.269 OA
ATOM      5  C   UNL     1       9.794  11.579   2.790  1.00  0.00     0.251 C 
ATOM      6  H   UNL     1       8.002  11.409   3.663  1.00  0.00     0.163 HD
BRANCH   5   7
ATOM      7  C   UNL     1      10.687  12.450   1.998  1.00  0.00     0.039 A 
ATOM      8  C   UNL     1      10.627  13.838   2.138  1.00  0.00     0.014 A 
ATOM      9  C   UNL     1      11.630  11.873   1.143  1.00  0.00     0.014 A 
ATOM     10  C   UNL     1      11.410  14.652   1.333  1.00  0.00     0.010 A 
ATOM     11  C   UNL     1      12.493  12.691   0.409  1.00  0.00     0.010 A 
ATOM     12  C   UNL     1      12.382  14.087   0.494  1.00  0.00    -0.014 A 
BRANCH  12  13
ATOM     13  C   UNL     1      13.361  14.982  -0.167  1.00  0.00     0.031 A 
ATOM     14  C   UNL     1      13.426  15.107  -1.659  1.00  0.00     0.074 A 
ATOM     15  C   UNL     1      14.198  15.685   0.621  1.00  0.00     0.049 A 
ATOM     16  N   UNL     1      14.241  15.830  -2.385  1.00  0.00    -0.248 NA
ATOM     17  C   UNL     1      12.464  14.318  -2.443  1.00  0.00     0.031 C 
ATOM     18  C   UNL     1      14.230  15.618   2.086  1.00  0.00     0.029 A 
ATOM     19  N   UNL     1      15.177  16.594   0.313  1.00  0.00    -0.354 N 
ATOM     20  C   UNL     1      13.908  15.569  -3.706  1.00  0.00     0.074 A 
ATOM     21  C   UNL     1      12.822  14.611  -3.687  1.00  0.00     0.031 C 
ATOM     22  C   UNL     1      15.156  16.467   2.548  1.00  0.00     0.029 A 
ATOM     23  C   UNL     1      15.833  17.084   1.415  1.00  0.00     0.049 A 
ATOM     24  H   UNL     1      15.389  16.868  -0.609  1.00  0.00     0.167 HD
ATOM     25  C   UNL     1      14.464  16.089  -4.826  1.00  0.00     0.037 A 
ATOM     26  C   UNL     1      16.892  17.909   1.506  1.00  0.00     0.037 A 
ATOM     27  C   UNL     1      15.524  17.064  -4.825  1.00  0.00     0.049 A 
ATOM     28  C   UNL     1      17.499  18.442   0.242  1.00  0.00     0.074 A 
ATOM     29  C   UNL     1      16.091  17.720  -5.905  1.00  0.00     0.029 A 
ATOM     30  N   UNL     1      16.186  17.514  -3.692  1.00  0.00    -0.354 N 
ATOM     31  N   UNL     1      17.128  18.242  -0.999  1.00  0.00    -0.248 NA
ATOM     32  C   UNL     1      18.679  19.303   0.387  1.00  0.00     0.031 C 
ATOM     33  C   UNL     1      17.134  18.521  -5.431  1.00  0.00     0.029 A 
ATOM     34  C   UNL     1      17.186  18.403  -4.051  1.00  0.00     0.049 A 
ATOM     35  H   UNL     1      15.975  17.242  -2.769  1.00  0.00     0.167 HD
ATOM     36  C   UNL     1      18.024  18.953  -1.782  1.00  0.00     0.074 A 
ATOM     37  C   UNL     1      18.937  19.617  -0.874  1.00  0.00     0.031 C 
ATOM     38  C   UNL     1      18.092  19.041  -3.132  1.00  0.00     0.037 A 
BRANCH  25  39
ATOM     39  C   UNL     1      13.961  15.615  -6.157  1.00  0.00     0.064 A 
ATOM     40  C   UNL     1      12.728  16.036  -6.674  1.00  0.00     0.173 A 
ATOM     41  C   UNL     1      14.777  14.815  -6.972  1.00  0.00     0.173 A 
ATOM     42  F   UNL     1      11.909  16.796  -5.932  1.00  0.00    -0.203 F 
ATOM     43  C   UNL     1      12.328  15.670  -7.957  1.00  0.00     0.198 A 
ATOM     44  C   UNL     1      14.384  14.469  -8.262  1.00  0.00     0.198 A 
ATOM     45  F   UNL     1      15.970  14.392  -6.526  1.00  0.00    -0.203 F 
ATOM     46  F   UNL     1      11.139  16.070  -8.427  1.00  0.00    -0.200 F 
ATOM     47  C   UNL     1      13.161  14.897  -8.754  1.00  0.00     0.200 A 
ATOM     48  F   UNL     1      15.196  13.733  -9.034  1.00  0.00    -0.200 F 
ATOM     49  F   UNL     1      12.784  14.565  -9.997  1.00  0.00    -0.200 F 
ENDBRANCH  25  39
BRANCH  26  50
ATOM     50  C   UNL     1      17.468  18.233   2.836  1.00  0.00     0.064 A 
ATOM     51  C   UNL     1      17.409  19.532   3.355  1.00  0.00     0.173 A 
ATOM     52  C   UNL     1      18.097  17.247   3.612  1.00  0.00     0.173 A 
ATOM     53  F   UNL     1      16.834  20.513   2.643  1.00  0.00    -0.203 F 
ATOM     54  C   UNL     1      17.978  19.838   4.590  1.00  0.00     0.198 A 
ATOM     55  C   UNL     1      18.635  17.547   4.860  1.00  0.00     0.198 A 
ATOM     56  F   UNL     1      18.175  15.986   3.162  1.00  0.00    -0.203 F 
ATOM     57  F   UNL     1      17.953  21.100   5.041  1.00  0.00    -0.200 F 
ATOM     58  C   UNL     1      18.585  18.845   5.344  1.00  0.00     0.200 A 
ATOM     59  F   UNL     1      19.203  16.579   5.592  1.00  0.00    -0.200 F 
ATOM     60  F   UNL     1      19.129  19.140   6.532  1.00  0.00    -0.200 F 
ENDBRANCH  26  50
BRANCH  38  61
ATOM     61  C   UNL     1      19.195  19.881  -3.701  1.00  0.00     0.064 A 
ATOM     62  C   UNL     1      20.528  19.444  -3.676  1.00  0.00     0.173 A 
ATOM     63  C   UNL     1      18.916  21.116  -4.303  1.00  0.00     0.173 A 
ATOM     64  F   UNL     1      20.845  18.279  -3.091  1.00  0.00    -0.203 F 
ATOM     65  C   UNL     1      21.545  20.225  -4.215  1.00  0.00     0.198 A 
ATOM     66  C   UNL     1      19.932  21.881  -4.868  1.00  0.00     0.198 A 
ATOM     67  F   UNL     1      17.656  21.575  -4.355  1.00  0.00    -0.203 F 
ATOM     68  F   UNL     1      22.817  19.811  -4.138  1.00  0.00    -0.200 F 
ATOM     69  C   UNL     1      21.246  21.438  -4.817  1.00  0.00     0.200 A 
ATOM     70  F   UNL     1      19.640  23.047  -5.459  1.00  0.00    -0.200 F 
ATOM     71  F   UNL     1      22.226  22.186  -5.342  1.00  0.00    -0.200 F 
ENDBRANCH  38  61
ENDBRANCH  12  13
ENDBRANCH   5   7
ENDBRANCH   2   3
ENDBRANCH   1   2
BRANCH   1  72
ATOM     72  C   UNL     1       5.519  11.651   2.209  1.00  0.00     0.118 C 
BRANCH  72  73
ATOM     73  N   UNL     1       4.718  12.596   2.977  1.00  0.00    -0.351 N 
ATOM     74  C   UNL     1       3.440  13.048   2.732  1.00  0.00     0.261 C 
ATOM     75  H   UNL     1       5.150  12.962   3.782  1.00  0.00     0.163 HD
ATOM     76  O   UNL     1       3.071  14.061   3.333  1.00  0.00    -0.268 OA
BRANCH  74  77
ATOM     77  C   UNL     1       2.611  12.289   1.825  1.00  0.00     0.093 A 
ATOM     78  C   UNL     1       2.491  10.915   1.743  1.00  0.00     0.040 A 
ATOM     79  S   UNL     1       1.584  13.063   0.705  1.00  0.00    -0.137 S 
ATOM     80  C   UNL     1       1.667  10.486   0.675  1.00  0.00     0.019 A 
ATOM     81  C   UNL     1       1.090  11.561   0.034  1.00  0.00     0.080 A 
BRANCH  80  82
ATOM     82  S   UNL     1       1.378   8.810   0.212  1.00  0.00    -0.122 SA
BRANCH  82  83
ATOM     83  C   UNL     1       2.724   7.875   1.032  1.00  0.00     0.057 C 
ATOM     84  C   UNL     1       2.389   7.598   2.500  1.00  0.00     0.043 C 
ATOM     85  C   UNL     1       2.954   6.530   0.321  1.00  0.00     0.053 C 
ATOM     86  C   UNL     1       3.543   6.834   3.120  1.00  0.00     0.162 C 
ATOM     87  C   UNL     1       3.982   5.652   1.076  1.00  0.00     0.095 C 
ATOM     88  O   UNL     1       3.683   5.577   2.472  1.00  0.00    -0.372 OA
ATOM     89  C   UNL     1       3.995   4.228   0.540  1.00  0.00     0.066 C 
ATOM     90  C   UNL     1       5.433   6.059   0.802  1.00  0.00     0.195 C 
ATOM     91  C   UNL     1       4.941   4.295  -0.636  1.00  0.00     0.163 C 
ATOM     92  O   UNL     1       5.854   5.372  -0.387  1.00  0.00    -0.378 OA
ENDBRANCH  82  83
ENDBRANCH  80  82
ENDBRANCH  74  77
ENDBRANCH  72  73
ENDBRANCH   1  72
TORSDOF 12
