REMARK SMILES CC(C)C[C@H](NC(=O)[C@@H](NC(=O)N1CC(NCCCNC(=O)c2ccc(-c3c4nc(c(-c5c(F)c(F)c(F)c(F)c5F)c5ccc([nH]5)c(-c5c(F)c(F)c(F)c(F)c5F)c5nc(c(-c6c(F)c(F)c(F)c(F)c6F)c6ccc3[nH]6)C=C5)C=C4)cc2)=[NH+]c2ccccc21)C(C)C)C(=O)[O-]
REMARK SMILES IDX 13 1 14 2 15 3 16 4 86 5 87 6 88 7 89 8 90 9 91 10 92 11
REMARK SMILES IDX 11 14 10 15 12 17 9 18 7 19 6 20 8 22 5 23 4 24 2 25 1 26
REMARK SMILES IDX 3 27 96 28 97 29 98 30 93 31 94 32 95 33 17 34 18 35 19 36
REMARK SMILES IDX 20 37 21 38 22 40 23 41 24 42 85 43 25 44 84 45 26 46 27 47
REMARK SMILES IDX 28 48 78 49 29 50 83 51 77 52 79 53 30 54 82 55 76 56 75 57
REMARK SMILES IDX 31 59 63 60 43 61 62 62 44 63 47 64 61 65 80 66 45 67 46 68
REMARK SMILES IDX 60 70 81 71 48 72 32 73 33 74 41 75 34 76 35 77 39 78 42 79
REMARK SMILES IDX 36 80 37 81 40 82 38 83 64 84 65 85 73 86 66 87 67 88 71 89
REMARK SMILES IDX 74 90 68 91 69 92 72 93 70 94 49 95 50 96 58 97 51 98 52 99
REMARK SMILES IDX 56 100 59 101 53 102 54 103 57 104 55 105
REMARK H PARENT 16 12 86 13 10 16 6 21 20 39 79 58 47 69
REMARK Flexibility Score: inf
ROOT
ATOM      1  N   UNL     1      -0.254   3.342  -1.007  1.00  0.00    -0.278 N 
ATOM      2  C   UNL     1      -1.447   3.901  -1.651  1.00  0.00     0.255 C 
ATOM      3  C   UNL     1      -2.592   3.604  -0.674  1.00  0.00     0.268 C 
ATOM      4  N   UNL     1      -3.800   3.090  -1.090  1.00  0.00    -0.277 N 
ATOM      5  N   UNL     1      -2.428   3.826   0.609  1.00  0.00    -0.241 N 
ATOM      6  C   UNL     1      -1.137   4.268   1.011  1.00  0.00     0.148 A 
ATOM      7  C   UNL     1      -0.951   4.835   2.267  1.00  0.00     0.054 A 
ATOM      8  C   UNL     1       0.326   5.240   2.672  1.00  0.00     0.005 A 
ATOM      9  C   UNL     1       1.423   5.097   1.816  1.00  0.00     0.002 A 
ATOM     10  C   UNL     1       1.265   4.486   0.573  1.00  0.00     0.031 A 
ATOM     11  C   UNL     1      -0.000   4.038   0.199  1.00  0.00     0.093 A 
ATOM     12  H   UNL     1      -4.316   2.605  -0.406  1.00  0.00     0.304 HD
ATOM     13  H   UNL     1      -3.157   3.694   1.256  1.00  0.00     0.312 HD
ENDROOT
BRANCH   1  14
ATOM     14  C   UNL     1       0.662   2.622  -1.703  1.00  0.00     0.323 C 
ATOM     15  N   UNL     1       1.012   1.361  -1.316  1.00  0.00    -0.326 N 
ATOM     16  H   UNL     1       1.519   0.922  -2.037  1.00  0.00     0.166 HD
ATOM     17  O   UNL     1       1.089   3.013  -2.792  1.00  0.00    -0.248 OA
BRANCH  15  18
ATOM     18  C   UNL     1       0.875   0.427  -0.152  1.00  0.00     0.175 C 
BRANCH  18  19
ATOM     19  C   UNL     1       0.391  -1.030  -0.400  1.00  0.00     0.243 C 
ATOM     20  N   UNL     1      -0.721  -1.366  -1.091  1.00  0.00    -0.346 N 
ATOM     21  H   UNL     1      -1.000  -2.303  -0.978  1.00  0.00     0.164 HD
ATOM     22  O   UNL     1       0.947  -1.967   0.191  1.00  0.00    -0.273 OA
BRANCH  20  23
ATOM     23  C   UNL     1      -1.581  -0.588  -1.975  1.00  0.00     0.128 C 
BRANCH  23  24
ATOM     24  C   UNL     1      -1.212  -0.947  -3.433  1.00  0.00     0.034 C 
BRANCH  24  25
ATOM     25  C   UNL     1      -1.648   0.057  -4.518  1.00  0.00    -0.015 C 
ATOM     26  C   UNL     1      -1.019   1.415  -4.288  1.00  0.00     0.007 C 
ATOM     27  C   UNL     1      -1.215  -0.413  -5.906  1.00  0.00     0.007 C 
ENDBRANCH  24  25
ENDBRANCH  23  24
BRANCH  23  28
ATOM     28  C   UNL     1      -3.030  -0.905  -1.571  1.00  0.00     0.064 C 
ATOM     29  O   UNL     1      -3.558  -0.624  -0.502  1.00  0.00    -0.548 OA
ATOM     30  O   UNL     1      -3.720  -1.648  -2.456  1.00  0.00    -0.548 OA
ENDBRANCH  23  28
ENDBRANCH  20  23
ENDBRANCH  18  19
BRANCH  18  31
ATOM     31  C   UNL     1       0.334   1.000   1.176  1.00  0.00     0.015 C 
ATOM     32  C   UNL     1      -0.406   0.044   2.121  1.00  0.00     0.010 C 
ATOM     33  C   UNL     1       1.505   1.603   1.964  1.00  0.00     0.010 C 
ENDBRANCH  18  31
ENDBRANCH  15  18
ENDBRANCH   1  14
BRANCH   4  34
ATOM     34  C   UNL     1      -4.412   3.168  -2.399  1.00  0.00     0.235 C 
BRANCH  34  35
ATOM     35  C   UNL     1      -5.011   1.830  -2.837  1.00  0.00     0.067 C 
BRANCH  35  36
ATOM     36  C   UNL     1      -6.148   1.288  -1.971  1.00  0.00     0.120 C 
BRANCH  36  37
ATOM     37  N   UNL     1      -7.389   2.025  -2.147  1.00  0.00    -0.352 N 
ATOM     38  C   UNL     1      -8.637   1.604  -2.541  1.00  0.00     0.251 C 
ATOM     39  H   UNL     1      -7.325   2.987  -1.950  1.00  0.00     0.163 HD
ATOM     40  O   UNL     1      -9.498   2.446  -2.788  1.00  0.00    -0.269 OA
BRANCH  38  41
ATOM     41  C   UNL     1      -8.970   0.166  -2.698  1.00  0.00     0.039 A 
ATOM     42  C   UNL     1      -9.797  -0.212  -3.763  1.00  0.00     0.014 A 
ATOM     43  C   UNL     1      -8.552  -0.803  -1.781  1.00  0.00     0.014 A 
ATOM     44  C   UNL     1     -10.153  -1.554  -3.942  1.00  0.00     0.010 A 
ATOM     45  C   UNL     1      -8.857  -2.152  -1.996  1.00  0.00     0.010 A 
ATOM     46  C   UNL     1      -9.657  -2.545  -3.081  1.00  0.00    -0.014 A 
BRANCH  46  47
ATOM     47  C   UNL     1      -9.951  -3.987  -3.321  1.00  0.00     0.031 A 
ATOM     48  C   UNL     1     -10.746  -4.792  -2.327  1.00  0.00     0.074 A 
ATOM     49  C   UNL     1      -9.454  -4.594  -4.419  1.00  0.00     0.049 A 
ATOM     50  N   UNL     1     -11.042  -6.069  -2.341  1.00  0.00    -0.248 NA
ATOM     51  C   UNL     1     -11.258  -4.073  -1.151  1.00  0.00     0.031 C 
ATOM     52  C   UNL     1      -8.641  -3.943  -5.446  1.00  0.00     0.029 A 
ATOM     53  N   UNL     1      -9.547  -5.897  -4.848  1.00  0.00    -0.354 N 
ATOM     54  C   UNL     1     -11.757  -6.308  -1.174  1.00  0.00     0.074 A 
ATOM     55  C   UNL     1     -11.816  -5.054  -0.454  1.00  0.00     0.031 C 
ATOM     56  C   UNL     1      -8.320  -4.842  -6.390  1.00  0.00     0.029 A 
ATOM     57  C   UNL     1      -8.866  -6.143  -6.016  1.00  0.00     0.049 A 
ATOM     58  H   UNL     1     -10.054  -6.588  -4.364  1.00  0.00     0.167 HD
ATOM     59  C   UNL     1     -12.325  -7.464  -0.749  1.00  0.00     0.037 A 
ATOM     60  C   UNL     1      -8.682  -7.289  -6.701  1.00  0.00     0.037 A 
ATOM     61  C   UNL     1     -12.289  -8.707  -1.477  1.00  0.00     0.049 A 
ATOM     62  C   UNL     1      -9.311  -8.562  -6.196  1.00  0.00     0.074 A 
ATOM     63  C   UNL     1     -12.899  -9.909  -1.160  1.00  0.00     0.029 A 
ATOM     64  N   UNL     1     -11.597  -8.914  -2.661  1.00  0.00    -0.354 N 
ATOM     65  N   UNL     1     -10.051  -8.754  -5.132  1.00  0.00    -0.248 NA
ATOM     66  C   UNL     1      -9.084  -9.776  -6.993  1.00  0.00     0.031 C 
ATOM     67  C   UNL     1     -12.524 -10.859  -2.116  1.00  0.00     0.029 A 
ATOM     68  C   UNL     1     -11.736 -10.233  -3.067  1.00  0.00     0.049 A 
ATOM     69  H   UNL     1     -11.083  -8.226  -3.143  1.00  0.00     0.167 HD
ATOM     70  C   UNL     1     -10.402 -10.098  -5.149  1.00  0.00     0.074 A 
ATOM     71  C   UNL     1      -9.810 -10.670  -6.338  1.00  0.00     0.031 C 
ATOM     72  C   UNL     1     -11.149 -10.794  -4.257  1.00  0.00     0.037 A 
BRANCH  59  73
ATOM     73  C   UNL     1     -13.035  -7.453   0.576  1.00  0.00     0.064 A 
ATOM     74  C   UNL     1     -14.248  -6.773   0.761  1.00  0.00     0.173 A 
ATOM     75  C   UNL     1     -12.527  -8.189   1.658  1.00  0.00     0.173 A 
ATOM     76  F   UNL     1     -14.777  -6.050  -0.238  1.00  0.00    -0.203 F 
ATOM     77  C   UNL     1     -14.912  -6.809   1.986  1.00  0.00     0.198 A 
ATOM     78  C   UNL     1     -13.209  -8.249   2.871  1.00  0.00     0.198 A 
ATOM     79  F   UNL     1     -11.376  -8.868   1.534  1.00  0.00    -0.203 F 
ATOM     80  F   UNL     1     -16.046  -6.115   2.152  1.00  0.00    -0.200 F 
ATOM     81  C   UNL     1     -14.396  -7.553   3.036  1.00  0.00     0.200 A 
ATOM     82  F   UNL     1     -12.719  -8.985   3.878  1.00  0.00    -0.200 F 
ATOM     83  F   UNL     1     -15.043  -7.598   4.209  1.00  0.00    -0.200 F 
ENDBRANCH  59  73
BRANCH  60  84
ATOM     84  C   UNL     1      -7.863  -7.294  -7.943  1.00  0.00     0.064 A 
ATOM     85  C   UNL     1      -8.443  -7.554  -9.193  1.00  0.00     0.173 A 
ATOM     86  C   UNL     1      -6.479  -7.066  -7.903  1.00  0.00     0.173 A 
ATOM     87  F   UNL     1      -9.758  -7.800  -9.283  1.00  0.00    -0.203 F 
ATOM     88  C   UNL     1      -7.666  -7.616 -10.349  1.00  0.00     0.198 A 
ATOM     89  C   UNL     1      -5.710  -7.093  -9.064  1.00  0.00     0.198 A 
ATOM     90  F   UNL     1      -5.874  -6.807  -6.734  1.00  0.00    -0.203 F 
ATOM     91  F   UNL     1      -8.238  -7.926 -11.521  1.00  0.00    -0.200 F 
ATOM     92  C   UNL     1      -6.302  -7.380 -10.285  1.00  0.00     0.200 A 
ATOM     93  F   UNL     1      -4.394  -6.847  -8.999  1.00  0.00    -0.200 F 
ATOM     94  F   UNL     1      -5.556  -7.439 -11.396  1.00  0.00    -0.200 F 
ENDBRANCH  60  84
BRANCH  72  95
ATOM     95  C   UNL     1     -11.406 -12.246  -4.552  1.00  0.00     0.064 A 
ATOM     96  C   UNL     1     -10.389 -13.209  -4.475  1.00  0.00     0.173 A 
ATOM     97  C   UNL     1     -12.698 -12.685  -4.881  1.00  0.00     0.173 A 
ATOM     98  F   UNL     1      -9.133 -12.842  -4.179  1.00  0.00    -0.203 F 
ATOM     99  C   UNL     1     -10.649 -14.550  -4.745  1.00  0.00     0.198 A 
ATOM    100  C   UNL     1     -12.962 -14.031  -5.116  1.00  0.00     0.198 A 
ATOM    101  F   UNL     1     -13.710 -11.808  -4.962  1.00  0.00    -0.203 F 
ATOM    102  F   UNL     1      -9.650 -15.443  -4.719  1.00  0.00    -0.200 F 
ATOM    103  C   UNL     1     -11.936 -14.961  -5.057  1.00  0.00     0.200 A 
ATOM    104  F   UNL     1     -14.210 -14.428  -5.401  1.00  0.00    -0.200 F 
ATOM    105  F   UNL     1     -12.187 -16.254  -5.308  1.00  0.00    -0.200 F 
ENDBRANCH  72  95
ENDBRANCH  46  47
ENDBRANCH  38  41
ENDBRANCH  36  37
ENDBRANCH  35  36
ENDBRANCH  34  35
ENDBRANCH   4  34
TORSDOF 17
