REMARK SMILES CCn1ncc(NC(=O)[C@@H]2CCCC[C@@H]2C(=O)NCCCNC(=O)c2ccc(-c3c4nc(c(-c5c(F)c(F)c(F)c(F)c5F)c5ccc([nH]5)c(-c5c(F)c(F)c(F)c(F)c5F)c5nc(c(-c6c(F)c(F)c(F)c(F)c6F)c6ccc3[nH]6)C=C5)C=C4)cc2)c1C(=O)Nc1cnn(C)c1C
REMARK SMILES IDX 19 1 18 2 16 3 17 4 15 6 10 7 11 8 12 9 14 10 13 11 8 12
REMARK SMILES IDX 7 13 9 15 6 16 3 17 4 18 88 19 5 20 2 21 1 22 89 23 90 24
REMARK SMILES IDX 91 25 92 27 93 28 97 29 94 30 95 31 98 32 96 33 20 34 21 35
REMARK SMILES IDX 22 36 23 37 24 39 25 40 26 41 87 42 27 43 86 44 28 45 29 46
REMARK SMILES IDX 30 47 80 48 31 49 85 50 79 51 81 52 32 53 84 54 78 55 77 56
REMARK SMILES IDX 33 58 65 59 45 60 64 61 46 62 49 63 63 64 82 65 47 66 48 67
REMARK SMILES IDX 62 69 83 70 50 71 34 72 35 73 43 74 36 75 37 76 41 77 44 78
REMARK SMILES IDX 38 79 39 80 42 81 40 82 66 83 67 84 75 85 68 86 69 87 73 88
REMARK SMILES IDX 76 89 70 90 71 91 74 92 72 93 51 94 52 95 60 96 53 97 54 98
REMARK SMILES IDX 58 99 61 100 55 101 56 102 59 103 57 104
REMARK H PARENT 18 5 7 14 91 26 22 38 81 57 49 68
REMARK Flexibility Score: inf
ROOT
ATOM      1  C   UNL     1       0.847  -7.892   1.016  1.00  0.00     0.117 C 
ENDROOT
BRANCH   1   2
ATOM      2  N   UNL     1       1.540  -6.659   1.345  1.00  0.00    -0.356 N 
ATOM      3  C   UNL     1       1.050  -5.428   1.630  1.00  0.00     0.223 C 
ATOM      4  O   UNL     1       1.870  -4.541   1.873  1.00  0.00    -0.275 OA
ATOM      5  H   UNL     1       2.522  -6.728   1.364  1.00  0.00     0.163 HD
BRANCH   3   6
ATOM      6  C   UNL     1      -0.456  -5.180   1.634  1.00  0.00     0.091 C 
ATOM      7  C   UNL     1      -0.920  -4.425   0.373  1.00  0.00     0.091 C 
ATOM      8  C   UNL     1      -0.436  -3.022   0.454  1.00  0.00     0.014 C 
ATOM      9  C   UNL     1      -0.822  -2.247   1.676  1.00  0.00     0.001 C 
ATOM     10  C   UNL     1      -0.851  -4.407   2.925  1.00  0.00     0.014 C 
ATOM     11  C   UNL     1      -0.438  -2.939   2.952  1.00  0.00     0.001 C 
BRANCH   7  12
ATOM     12  C   UNL     1      -0.661  -5.072  -0.999  1.00  0.00     0.228 C 
ATOM     13  N   UNL     1      -0.101  -4.489  -2.109  1.00  0.00    -0.322 N 
ATOM     14  H   UNL     1      -0.091  -5.106  -2.877  1.00  0.00     0.170 HD
ATOM     15  O   UNL     1      -0.989  -6.263  -1.133  1.00  0.00    -0.274 OA
BRANCH  13  16
ATOM     16  C   UNL     1       0.461  -3.249  -2.439  1.00  0.00     0.092 A 
ATOM     17  N   UNL     1       1.284  -1.234  -2.481  1.00  0.00    -0.258 N 
ATOM     18  N   UNL     1       2.160  -1.942  -3.225  1.00  0.00    -0.178 NA
ATOM     19  C   UNL     1       0.079  -1.895  -2.302  1.00  0.00     0.150 A 
ATOM     20  C   UNL     1       1.667  -3.172  -3.182  1.00  0.00     0.162 A 
BRANCH  17  21
ATOM     21  C   UNL     1       1.801  -0.019  -1.887  1.00  0.00     0.142 C 
ATOM     22  C   UNL     1       2.361  -0.238  -0.489  1.00  0.00     0.029 C 
ENDBRANCH  17  21
BRANCH  19  23
ATOM     23  C   UNL     1      -1.268  -1.333  -2.079  1.00  0.00     0.276 C 
ATOM     24  O   UNL     1      -2.263  -1.851  -2.591  1.00  0.00    -0.267 OA
ATOM     25  N   UNL     1      -1.480  -0.482  -0.998  1.00  0.00    -0.318 N 
ATOM     26  H   UNL     1      -1.893  -0.883  -0.200  1.00  0.00     0.170 HD
BRANCH  25  27
ATOM     27  C   UNL     1      -1.175   0.857  -0.920  1.00  0.00     0.082 A 
ATOM     28  C   UNL     1      -1.135   1.816  -1.950  1.00  0.00     0.161 A 
ATOM     29  C   UNL     1      -0.845   1.549   0.234  1.00  0.00     0.059 A 
ATOM     30  N   UNL     1      -0.632   2.976  -1.526  1.00  0.00    -0.179 NA
ATOM     31  N   UNL     1      -0.363   2.754  -0.226  1.00  0.00    -0.271 N 
ATOM     32  C   UNL     1      -0.770   1.179   1.671  1.00  0.00     0.068 C 
ATOM     33  C   UNL     1       0.553   3.646   0.451  1.00  0.00     0.174 C 
ENDBRANCH  25  27
ENDBRANCH  19  23
ENDBRANCH  13  16
ENDBRANCH   7  12
ENDBRANCH   3   6
ENDBRANCH   1   2
BRANCH   1  34
ATOM     34  C   UNL     1       1.168  -8.384  -0.392  1.00  0.00     0.042 C 
BRANCH  34  35
ATOM     35  C   UNL     1       2.625  -8.744  -0.574  1.00  0.00     0.118 C 
BRANCH  35  36
ATOM     36  N   UNL     1       3.056  -9.847   0.274  1.00  0.00    -0.352 N 
ATOM     37  C   UNL     1       4.282 -10.486   0.252  1.00  0.00     0.251 C 
ATOM     38  H   UNL     1       2.403 -10.174   0.934  1.00  0.00     0.163 HD
ATOM     39  O   UNL     1       4.434 -11.582   0.753  1.00  0.00    -0.269 OA
BRANCH  37  40
ATOM     40  C   UNL     1       5.403  -9.792  -0.410  1.00  0.00     0.039 A 
ATOM     41  C   UNL     1       6.260 -10.484  -1.264  1.00  0.00     0.014 A 
ATOM     42  C   UNL     1       5.548  -8.419  -0.201  1.00  0.00     0.014 A 
ATOM     43  C   UNL     1       7.224  -9.762  -1.957  1.00  0.00     0.010 A 
ATOM     44  C   UNL     1       6.388  -7.688  -1.001  1.00  0.00     0.010 A 
ATOM     45  C   UNL     1       7.264  -8.359  -1.839  1.00  0.00    -0.014 A 
BRANCH  45  46
ATOM     46  C   UNL     1       8.142  -7.575  -2.695  1.00  0.00     0.031 A 
ATOM     47  C   UNL     1       7.944  -7.852  -4.139  1.00  0.00     0.074 A 
ATOM     48  C   UNL     1       8.953  -6.590  -2.255  1.00  0.00     0.049 A 
ATOM     49  N   UNL     1       8.705  -8.573  -4.889  1.00  0.00    -0.248 NA
ATOM     50  C   UNL     1       6.680  -7.457  -4.779  1.00  0.00     0.031 C 
ATOM     51  C   UNL     1       9.026  -5.990  -0.920  1.00  0.00     0.029 A 
ATOM     52  N   UNL     1       9.864  -5.859  -2.957  1.00  0.00    -0.354 N 
ATOM     53  C   UNL     1       8.140  -8.537  -6.157  1.00  0.00     0.074 A 
ATOM     54  C   UNL     1       6.809  -8.018  -5.985  1.00  0.00     0.031 C 
ATOM     55  C   UNL     1       9.767  -4.859  -0.966  1.00  0.00     0.029 A 
ATOM     56  C   UNL     1      10.362  -4.746  -2.285  1.00  0.00     0.049 A 
ATOM     57  H   UNL     1      10.148  -6.099  -3.869  1.00  0.00     0.167 HD
ATOM     58  C   UNL     1       8.932  -8.685  -7.255  1.00  0.00     0.037 A 
ATOM     59  C   UNL     1      11.201  -3.804  -2.788  1.00  0.00     0.037 A 
ATOM     60  C   UNL     1      10.228  -9.199  -6.874  1.00  0.00     0.049 A 
ATOM     61  C   UNL     1      11.875  -4.406  -3.963  1.00  0.00     0.074 A 
ATOM     62  C   UNL     1      10.685 -10.352  -6.267  1.00  0.00     0.029 A 
ATOM     63  N   UNL     1      11.240  -8.279  -6.750  1.00  0.00    -0.354 N 
ATOM     64  N   UNL     1      12.744  -5.374  -3.882  1.00  0.00    -0.248 NA
ATOM     65  C   UNL     1      11.246  -4.237  -5.263  1.00  0.00     0.031 C 
ATOM     66  C   UNL     1      11.755  -9.929  -5.422  1.00  0.00     0.029 A 
ATOM     67  C   UNL     1      11.954  -8.561  -5.618  1.00  0.00     0.049 A 
ATOM     68  H   UNL     1      11.421  -7.539  -7.373  1.00  0.00     0.167 HD
ATOM     69  C   UNL     1      12.429  -6.210  -4.941  1.00  0.00     0.074 A 
ATOM     70  C   UNL     1      11.577  -5.407  -5.816  1.00  0.00     0.031 C 
ATOM     71  C   UNL     1      12.647  -7.555  -4.847  1.00  0.00     0.037 A 
BRANCH  58  72
ATOM     72  C   UNL     1       8.731  -7.965  -8.571  1.00  0.00     0.064 A 
ATOM     73  C   UNL     1       9.618  -8.246  -9.633  1.00  0.00     0.173 A 
ATOM     74  C   UNL     1       7.944  -6.806  -8.733  1.00  0.00     0.173 A 
ATOM     75  F   UNL     1      10.424  -9.318  -9.586  1.00  0.00    -0.203 F 
ATOM     76  C   UNL     1       9.776  -7.377 -10.715  1.00  0.00     0.198 A 
ATOM     77  C   UNL     1       8.068  -5.969  -9.841  1.00  0.00     0.198 A 
ATOM     78  F   UNL     1       7.109  -6.366  -7.787  1.00  0.00    -0.203 F 
ATOM     79  F   UNL     1      10.733  -7.614 -11.623  1.00  0.00    -0.200 F 
ATOM     80  C   UNL     1       9.008  -6.234 -10.814  1.00  0.00     0.200 A 
ATOM     81  F   UNL     1       7.327  -4.854  -9.908  1.00  0.00    -0.200 F 
ATOM     82  F   UNL     1       9.204  -5.364 -11.812  1.00  0.00    -0.200 F 
ENDBRANCH  58  72
BRANCH  59  83
ATOM     83  C   UNL     1      11.273  -2.347  -2.518  1.00  0.00     0.064 A 
ATOM     84  C   UNL     1      12.377  -1.587  -2.946  1.00  0.00     0.173 A 
ATOM     85  C   UNL     1      10.132  -1.623  -2.124  1.00  0.00     0.173 A 
ATOM     86  F   UNL     1      13.491  -2.197  -3.375  1.00  0.00    -0.203 F 
ATOM     87  C   UNL     1      12.325  -0.191  -3.021  1.00  0.00     0.198 A 
ATOM     88  C   UNL     1      10.083  -0.229  -2.196  1.00  0.00     0.198 A 
ATOM     89  F   UNL     1       9.009  -2.258  -1.762  1.00  0.00    -0.203 F 
ATOM     90  F   UNL     1      13.372   0.493  -3.506  1.00  0.00    -0.200 F 
ATOM     91  C   UNL     1      11.173   0.486  -2.660  1.00  0.00     0.200 A 
ATOM     92  F   UNL     1       8.950   0.414  -1.879  1.00  0.00    -0.200 F 
ATOM     93  F   UNL     1      11.096   1.817  -2.800  1.00  0.00    -0.200 F 
ENDBRANCH  59  83
BRANCH  71  94
ATOM     94  C   UNL     1      13.537  -8.043  -3.736  1.00  0.00     0.064 A 
ATOM     95  C   UNL     1      13.270  -7.891  -2.364  1.00  0.00     0.173 A 
ATOM     96  C   UNL     1      14.658  -8.806  -4.092  1.00  0.00     0.173 A 
ATOM     97  F   UNL     1      12.171  -7.257  -1.937  1.00  0.00    -0.203 F 
ATOM     98  C   UNL     1      14.116  -8.440  -1.399  1.00  0.00     0.198 A 
ATOM     99  C   UNL     1      15.476  -9.387  -3.129  1.00  0.00     0.198 A 
ATOM    100  F   UNL     1      14.938  -9.024  -5.387  1.00  0.00    -0.203 F 
ATOM    101  F   UNL     1      13.853  -8.264  -0.096  1.00  0.00    -0.200 F 
ATOM    102  C   UNL     1      15.213  -9.194  -1.784  1.00  0.00     0.200 A 
ATOM    103  F   UNL     1      16.507 -10.155  -3.508  1.00  0.00    -0.200 F 
ATOM    104  F   UNL     1      16.004  -9.754  -0.858  1.00  0.00    -0.200 F 
ENDBRANCH  71  94
ENDBRANCH  45  46
ENDBRANCH  37  40
ENDBRANCH  35  36
ENDBRANCH  34  35
ENDBRANCH   1  34
TORSDOF 15
