REMARK SMILES O=C(NCCCNC(=O)[C@@H]1CC=CC[C@@H]1C(=O)Nc1sc2c(c1C(=O)N1CCCCC1)CCCC2)c1ccc(-c2c3nc(c(-c4c(F)c(F)c(F)c(F)c4F)c4ccc([nH]4)c(-c4c(F)c(F)c(F)c(F)c4F)c4nc(c(-c5c(F)c(F)c(F)c(F)c5F)c5ccc2[nH]5)C=C4)C=C3)cc1
REMARK SMILES IDX 5 1 4 2 3 3 1 4 2 5 36 7 37 8 98 9 38 10 97 11 39 12 40 13
REMARK SMILES IDX 41 14 91 15 42 16 96 17 90 18 92 19 43 20 95 21 89 22 88 23
REMARK SMILES IDX 44 25 76 26 56 27 75 28 57 29 60 30 74 31 93 32 58 33 59 34
REMARK SMILES IDX 73 36 94 37 61 38 45 39 46 40 54 41 47 42 48 43 52 44 55 45
REMARK SMILES IDX 49 46 50 47 53 48 51 49 77 50 78 51 86 52 79 53 80 54 84 55
REMARK SMILES IDX 87 56 81 57 82 58 85 59 83 60 62 61 63 62 71 63 64 64 65 65
REMARK SMILES IDX 69 66 72 67 66 68 67 69 70 70 68 71 6 72 7 73 8 74 9 76
REMARK SMILES IDX 10 77 11 78 15 79 12 80 14 81 13 82 16 83 17 84 18 85 19 87
REMARK SMILES IDX 20 88 23 89 21 90 22 91 35 92 32 93 34 94 33 95 24 96 25 97
REMARK SMILES IDX 26 98 27 99 31 100 28 101 30 102 29 103
REMARK H PARENT 3 6 92 24 60 35 7 75 18 86
REMARK Flexibility Score: inf
ROOT
ATOM      1  C   UNL     1       8.371  -2.102   2.773  1.00  0.00     0.042 C 
ENDROOT
BRANCH   1   2
ATOM      2  C   UNL     1       9.330  -1.170   2.048  1.00  0.00     0.118 C 
BRANCH   2   3
ATOM      3  N   UNL     1      10.724  -1.439   2.375  1.00  0.00    -0.352 N 
ATOM      4  O   UNL     1      12.788  -2.304   2.107  1.00  0.00    -0.269 OA
ATOM      5  C   UNL     1      11.727  -1.950   1.594  1.00  0.00     0.251 C 
ATOM      6  H   UNL     1      10.985  -1.220   3.299  1.00  0.00     0.163 HD
BRANCH   5   7
ATOM      7  C   UNL     1      11.531  -2.097   0.139  1.00  0.00     0.039 A 
ATOM      8  C   UNL     1      10.913  -1.088  -0.604  1.00  0.00     0.014 A 
ATOM      9  C   UNL     1      11.999  -3.250  -0.497  1.00  0.00     0.014 A 
ATOM     10  C   UNL     1      10.627  -1.293  -1.948  1.00  0.00     0.010 A 
ATOM     11  C   UNL     1      11.801  -3.411  -1.869  1.00  0.00     0.010 A 
ATOM     12  C   UNL     1      11.091  -2.444  -2.599  1.00  0.00    -0.014 A 
BRANCH  12  13
ATOM     13  C   UNL     1      10.896  -2.592  -4.061  1.00  0.00     0.031 A 
ATOM     14  C   UNL     1      10.078  -3.717  -4.620  1.00  0.00     0.074 A 
ATOM     15  C   UNL     1      11.496  -1.713  -4.884  1.00  0.00     0.049 A 
ATOM     16  N   UNL     1       9.871  -4.047  -5.870  1.00  0.00    -0.248 NA
ATOM     17  C   UNL     1       9.413  -4.597  -3.648  1.00  0.00     0.031 C 
ATOM     18  C   UNL     1      12.323  -0.585  -4.449  1.00  0.00     0.029 A 
ATOM     19  N   UNL     1      11.519  -1.634  -6.253  1.00  0.00    -0.354 N 
ATOM     20  C   UNL     1       9.076  -5.184  -5.836  1.00  0.00     0.074 A 
ATOM     21  C   UNL     1       8.860  -5.504  -4.440  1.00  0.00     0.031 C 
ATOM     22  C   UNL     1      12.764   0.077  -5.527  1.00  0.00     0.029 A 
ATOM     23  C   UNL     1      12.313  -0.620  -6.725  1.00  0.00     0.049 A 
ATOM     24  H   UNL     1      11.015  -2.244  -6.838  1.00  0.00     0.167 HD
ATOM     25  C   UNL     1       8.573  -5.890  -6.878  1.00  0.00     0.037 A 
ATOM     26  C   UNL     1      12.678  -0.309  -7.982  1.00  0.00     0.037 A 
ATOM     27  C   UNL     1       8.799  -5.555  -8.261  1.00  0.00     0.049 A 
ATOM     28  C   UNL     1      12.146  -1.130  -9.120  1.00  0.00     0.074 A 
ATOM     29  C   UNL     1       8.294  -6.173  -9.392  1.00  0.00     0.029 A 
ATOM     30  N   UNL     1       9.613  -4.520  -8.703  1.00  0.00    -0.354 N 
ATOM     31  N   UNL     1      11.354  -2.174  -9.081  1.00  0.00    -0.248 NA
ATOM     32  C   UNL     1      12.552  -0.732 -10.473  1.00  0.00     0.031 C 
ATOM     33  C   UNL     1       8.858  -5.558 -10.515  1.00  0.00     0.029 A 
ATOM     34  C   UNL     1       9.656  -4.507 -10.088  1.00  0.00     0.049 A 
ATOM     35  H   UNL     1      10.090  -3.888  -8.117  1.00  0.00     0.167 HD
ATOM     36  C   UNL     1      11.148  -2.546 -10.402  1.00  0.00     0.074 A 
ATOM     37  C   UNL     1      11.894  -1.609 -11.218  1.00  0.00     0.031 C 
ATOM     38  C   UNL     1      10.402  -3.567 -10.889  1.00  0.00     0.037 A 
BRANCH  25  39
ATOM     39  C   UNL     1       7.767  -7.119  -6.560  1.00  0.00     0.064 A 
ATOM     40  C   UNL     1       6.513  -7.048  -5.934  1.00  0.00     0.173 A 
ATOM     41  C   UNL     1       8.256  -8.391  -6.898  1.00  0.00     0.173 A 
ATOM     42  F   UNL     1       6.000  -5.859  -5.582  1.00  0.00    -0.203 F 
ATOM     43  C   UNL     1       5.803  -8.203  -5.615  1.00  0.00     0.198 A 
ATOM     44  C   UNL     1       7.526  -9.542  -6.611  1.00  0.00     0.198 A 
ATOM     45  F   UNL     1       9.443  -8.521  -7.508  1.00  0.00    -0.203 F 
ATOM     46  F   UNL     1       4.640  -8.112  -4.955  1.00  0.00    -0.200 F 
ATOM     47  C   UNL     1       6.307  -9.449  -5.958  1.00  0.00     0.200 A 
ATOM     48  F   UNL     1       8.008 -10.743  -6.959  1.00  0.00    -0.200 F 
ATOM     49  F   UNL     1       5.624 -10.559  -5.648  1.00  0.00    -0.200 F 
ENDBRANCH  25  39
BRANCH  26  50
ATOM     50  C   UNL     1      13.615   0.822  -8.201  1.00  0.00     0.064 A 
ATOM     51  C   UNL     1      13.182   2.021  -8.779  1.00  0.00     0.173 A 
ATOM     52  C   UNL     1      14.951   0.744  -7.776  1.00  0.00     0.173 A 
ATOM     53  F   UNL     1      11.919   2.137  -9.213  1.00  0.00    -0.203 F 
ATOM     54  C   UNL     1      14.051   3.100  -8.928  1.00  0.00     0.198 A 
ATOM     55  C   UNL     1      15.809   1.834  -7.896  1.00  0.00     0.198 A 
ATOM     56  F   UNL     1      15.410  -0.379  -7.205  1.00  0.00    -0.203 F 
ATOM     57  F   UNL     1      13.620   4.228  -9.508  1.00  0.00    -0.200 F 
ATOM     58  C   UNL     1      15.360   3.010  -8.476  1.00  0.00     0.200 A 
ATOM     59  F   UNL     1      17.066   1.748  -7.438  1.00  0.00    -0.200 F 
ATOM     60  F   UNL     1      16.188   4.056  -8.600  1.00  0.00    -0.200 F 
ENDBRANCH  26  50
BRANCH  38  61
ATOM     61  C   UNL     1      10.316  -3.711 -12.381  1.00  0.00     0.064 A 
ATOM     62  C   UNL     1      11.396  -4.180 -13.143  1.00  0.00     0.173 A 
ATOM     63  C   UNL     1       9.108  -3.446 -13.046  1.00  0.00     0.173 A 
ATOM     64  F   UNL     1      12.577  -4.429 -12.558  1.00  0.00    -0.203 F 
ATOM     65  C   UNL     1      11.272  -4.370 -14.517  1.00  0.00     0.198 A 
ATOM     66  C   UNL     1       8.979  -3.668 -14.413  1.00  0.00     0.198 A 
ATOM     67  F   UNL     1       8.044  -2.999 -12.362  1.00  0.00    -0.203 F 
ATOM     68  F   UNL     1      12.326  -4.787 -15.232  1.00  0.00    -0.200 F 
ATOM     69  C   UNL     1      10.061  -4.126 -15.148  1.00  0.00     0.200 A 
ATOM     70  F   UNL     1       7.803  -3.447 -15.018  1.00  0.00    -0.200 F 
ATOM     71  F   UNL     1       9.937  -4.332 -16.467  1.00  0.00    -0.200 F 
ENDBRANCH  38  61
ENDBRANCH  12  13
ENDBRANCH   5   7
ENDBRANCH   2   3
ENDBRANCH   1   2
BRANCH   1  72
ATOM     72  C   UNL     1       8.418  -1.971   4.287  1.00  0.00     0.117 C 
BRANCH  72  73
ATOM     73  N   UNL     1       8.062  -0.635   4.727  1.00  0.00    -0.356 N 
ATOM     74  C   UNL     1       7.009  -0.218   5.488  1.00  0.00     0.224 C 
ATOM     75  H   UNL     1       8.672   0.079   4.433  1.00  0.00     0.163 HD
ATOM     76  O   UNL     1       6.766   0.987   5.508  1.00  0.00    -0.275 OA
BRANCH  74  77
ATOM     77  C   UNL     1       6.149  -1.259   6.187  1.00  0.00     0.095 C 
ATOM     78  C   UNL     1       4.890  -0.621   6.808  1.00  0.00     0.041 C 
ATOM     79  C   UNL     1       6.912  -2.131   7.224  1.00  0.00     0.095 C 
ATOM     80  C   UNL     1       4.099  -1.594   7.636  1.00  0.00    -0.030 C 
ATOM     81  C   UNL     1       5.947  -3.265   7.639  1.00  0.00     0.041 C 
ATOM     82  C   UNL     1       4.567  -2.799   7.987  1.00  0.00    -0.030 C 
BRANCH  79  83
ATOM     83  C   UNL     1       7.479  -1.300   8.392  1.00  0.00     0.229 C 
ATOM     84  O   UNL     1       7.459  -0.066   8.362  1.00  0.00    -0.274 OA
ATOM     85  N   UNL     1       8.021  -1.872   9.509  1.00  0.00    -0.317 N 
ATOM     86  H   UNL     1       8.230  -1.245  10.238  1.00  0.00     0.170 HD
BRANCH  85  87
ATOM     87  C   UNL     1       8.320  -3.190   9.770  1.00  0.00     0.108 A 
ATOM     88  S   UNL     1       9.171  -4.087   8.608  1.00  0.00    -0.122 S 
ATOM     89  C   UNL     1       8.056  -3.892  10.944  1.00  0.00     0.078 A 
ATOM     90  C   UNL     1       8.932  -5.518   9.479  1.00  0.00     0.011 A 
ATOM     91  C   UNL     1       8.399  -5.297  10.740  1.00  0.00    -0.019 A 
ATOM     92  C   UNL     1       9.301  -6.849   8.898  1.00  0.00     0.047 C 
ATOM     93  C   UNL     1       8.165  -6.455  11.667  1.00  0.00     0.037 C 
ATOM     94  C   UNL     1       8.637  -7.981   9.690  1.00  0.00     0.006 C 
ATOM     95  C   UNL     1       8.811  -7.764  11.192  1.00  0.00     0.005 C 
BRANCH  89  96
ATOM     96  C   UNL     1       7.361  -3.212  12.063  1.00  0.00     0.257 C 
ATOM     97  O   UNL     1       7.225  -1.988  12.092  1.00  0.00    -0.269 OA
ATOM     98  N   UNL     1       6.714  -4.012  12.993  1.00  0.00    -0.339 N 
ATOM     99  C   UNL     1       5.274  -3.848  13.156  1.00  0.00     0.120 C 
ATOM    100  C   UNL     1       7.451  -4.566  14.120  1.00  0.00     0.120 C 
ATOM    101  C   UNL     1       4.892  -3.211  14.490  1.00  0.00     0.022 C 
ATOM    102  C   UNL     1       7.082  -3.917  15.451  1.00  0.00     0.022 C 
ATOM    103  C   UNL     1       5.570  -3.932  15.651  1.00  0.00     0.004 C 
ENDBRANCH  89  96
ENDBRANCH  85  87
ENDBRANCH  79  83
ENDBRANCH  74  77
ENDBRANCH  72  73
ENDBRANCH   1  72
TORSDOF 13
