REMARK SMILES CCN(CC)C(=O)C[N@@H+](C)[C@@H](C)c1ccc(C(=O)NCCCNC(=O)c2ccc(-c3c4nc(c(-c5c(F)c(F)c(F)c(F)c5F)c5ccc([nH]5)c(-c5c(F)c(F)c(F)c(F)c5F)c5nc(c(-c6c(F)c(F)c(F)c(F)c6F)c6ccc3[nH]6)C=C5)C=C4)cc2)o1
REMARK SMILES IDX 17 1 18 2 19 3 16 5 13 6 14 7 89 8 15 9 11 10 12 11 9 12
REMARK SMILES IDX 10 13 8 15 6 16 3 17 7 18 2 19 1 20 4 21 5 22 20 23 21 24
REMARK SMILES IDX 22 25 23 26 24 27 25 29 26 30 27 31 88 32 28 33 87 34 29 35
REMARK SMILES IDX 30 36 31 37 81 38 32 39 86 40 80 41 82 42 33 43 85 44 79 45
REMARK SMILES IDX 78 46 34 48 66 49 46 50 65 51 47 52 50 53 64 54 83 55 48 56
REMARK SMILES IDX 49 57 63 59 84 60 51 61 35 62 36 63 44 64 37 65 38 66 42 67
REMARK SMILES IDX 45 68 39 69 40 70 43 71 41 72 67 73 68 74 76 75 69 76 70 77
REMARK SMILES IDX 74 78 77 79 71 80 72 81 75 82 73 83 52 84 53 85 61 86 54 87
REMARK SMILES IDX 55 88 59 89 62 90 56 91 57 92 60 93 58 94
REMARK H PARENT 19 4 9 14 23 28 82 47 50 58
REMARK Flexibility Score: inf
ROOT
ATOM      1  C   UNL     1       3.100   2.782   1.460  1.00  0.00     0.287 C 
ATOM      2  O   UNL     1       3.660   3.564   2.233  1.00  0.00    -0.266 OA
ATOM      3  N   UNL     1       2.444   3.358   0.374  1.00  0.00    -0.349 N 
ATOM      4  H   UNL     1       2.398   4.341   0.404  1.00  0.00     0.163 HD
ENDROOT
BRANCH   1   5
ATOM      5  C   UNL     1       3.010   1.354   1.686  1.00  0.00     0.191 A 
ATOM      6  C   UNL     1       2.821  -0.504   2.842  1.00  0.00     0.161 A 
ATOM      7  C   UNL     1       1.905  -0.485   1.830  1.00  0.00     0.053 A 
ATOM      8  O   UNL     1       3.381   0.763   2.902  1.00  0.00    -0.450 OA
ATOM      9  C   UNL     1       2.577   0.309   0.908  1.00  0.00     0.057 A 
BRANCH   6  10
ATOM     10  C   UNL     1       3.271  -1.634   3.713  1.00  0.00     0.248 C 
ATOM     11  C   UNL     1       4.803  -1.671   3.797  1.00  0.00     0.084 C 
BRANCH  10  12
ATOM     12  N   UNL     1       2.632  -2.937   3.292  1.00  0.00    -0.321 N 
ATOM     13  C   UNL     1       2.765  -3.927   4.370  1.00  0.00     0.333 C 
ATOM     14  H   UNL     1       1.668  -2.663   3.104  1.00  0.00     0.348 HD
BRANCH  12  15
ATOM     15  C   UNL     1       3.096  -3.572   2.014  1.00  0.00     0.364 C 
BRANCH  15  16
ATOM     16  C   UNL     1       2.410  -3.132   0.688  1.00  0.00     0.277 C 
ATOM     17  N   UNL     1       1.031  -3.303   0.496  1.00  0.00    -0.338 N 
ATOM     18  O   UNL     1       3.113  -2.689  -0.230  1.00  0.00    -0.268 OA
BRANCH  17  19
ATOM     19  C   UNL     1       0.434  -2.943  -0.803  1.00  0.00     0.116 C 
ATOM     20  C   UNL     1       0.029  -1.477  -0.916  1.00  0.00     0.027 C 
ENDBRANCH  17  19
BRANCH  17  21
ATOM     21  C   UNL     1       0.102  -3.804   1.509  1.00  0.00     0.116 C 
ATOM     22  C   UNL     1      -0.110  -5.301   1.377  1.00  0.00     0.027 C 
ENDBRANCH  17  21
ENDBRANCH  15  16
ENDBRANCH  12  15
ENDBRANCH  10  12
ENDBRANCH   6  10
ENDBRANCH   1   5
BRANCH   3  23
ATOM     23  C   UNL     1       1.813   2.766  -0.798  1.00  0.00     0.118 C 
BRANCH  23  24
ATOM     24  C   UNL     1       0.349   3.106  -1.010  1.00  0.00     0.042 C 
BRANCH  24  25
ATOM     25  C   UNL     1       0.129   4.396  -1.774  1.00  0.00     0.118 C 
BRANCH  25  26
ATOM     26  N   UNL     1       0.703   4.369  -3.116  1.00  0.00    -0.352 N 
ATOM     27  C   UNL     1       0.144   4.575  -4.353  1.00  0.00     0.251 C 
ATOM     28  H   UNL     1       1.667   4.167  -3.139  1.00  0.00     0.163 HD
ATOM     29  O   UNL     1       0.824   4.372  -5.356  1.00  0.00    -0.269 OA
BRANCH  27  30
ATOM     30  C   UNL     1      -1.264   5.005  -4.501  1.00  0.00     0.039 A 
ATOM     31  C   UNL     1      -1.996   4.539  -5.599  1.00  0.00     0.014 A 
ATOM     32  C   UNL     1      -1.866   5.876  -3.593  1.00  0.00     0.014 A 
ATOM     33  C   UNL     1      -3.343   4.881  -5.737  1.00  0.00     0.010 A 
ATOM     34  C   UNL     1      -3.231   6.125  -3.668  1.00  0.00     0.010 A 
ATOM     35  C   UNL     1      -3.984   5.640  -4.746  1.00  0.00    -0.014 A 
BRANCH  35  36
ATOM     36  C   UNL     1      -5.432   5.956  -4.816  1.00  0.00     0.031 A 
ATOM     37  C   UNL     1      -5.886   7.389  -4.881  1.00  0.00     0.074 A 
ATOM     38  C   UNL     1      -6.339   4.963  -4.738  1.00  0.00     0.049 A 
ATOM     39  N   UNL     1      -7.100   7.877  -4.830  1.00  0.00    -0.248 NA
ATOM     40  C   UNL     1      -4.833   8.412  -4.982  1.00  0.00     0.031 C 
ATOM     41  C   UNL     1      -6.027   3.538  -4.624  1.00  0.00     0.029 A 
ATOM     42  N   UNL     1      -7.710   5.004  -4.728  1.00  0.00    -0.354 N 
ATOM     43  C   UNL     1      -6.953   9.257  -4.869  1.00  0.00     0.074 A 
ATOM     44  C   UNL     1      -5.533   9.533  -4.891  1.00  0.00     0.031 C 
ATOM     45  C   UNL     1      -7.173   2.839  -4.582  1.00  0.00     0.029 A 
ATOM     46  C   UNL     1      -8.298   3.768  -4.622  1.00  0.00     0.049 A 
ATOM     47  H   UNL     1      -8.225   5.841  -4.791  1.00  0.00     0.167 HD
ATOM     48  C   UNL     1      -7.915  10.210  -4.908  1.00  0.00     0.037 A 
ATOM     49  C   UNL     1      -9.597   3.423  -4.556  1.00  0.00     0.037 A 
ATOM     50  C   UNL     1      -9.327   9.933  -4.924  1.00  0.00     0.049 A 
ATOM     51  C   UNL     1     -10.647   4.499  -4.605  1.00  0.00     0.074 A 
ATOM     52  C   UNL     1     -10.380  10.824  -5.023  1.00  0.00     0.029 A 
ATOM     53  N   UNL     1      -9.882   8.664  -4.843  1.00  0.00    -0.354 N 
ATOM     54  N   UNL     1     -10.496   5.798  -4.697  1.00  0.00    -0.248 NA
ATOM     55  C   UNL     1     -12.048   4.060  -4.546  1.00  0.00     0.031 C 
ATOM     56  C   UNL     1     -11.574  10.098  -4.964  1.00  0.00     0.029 A 
ATOM     57  C   UNL     1     -11.264   8.751  -4.874  1.00  0.00     0.049 A 
ATOM     58  H   UNL     1      -9.370   7.826  -4.773  1.00  0.00     0.167 HD
ATOM     59  C   UNL     1     -11.778   6.328  -4.737  1.00  0.00     0.074 A 
ATOM     60  C   UNL     1     -12.696   5.210  -4.670  1.00  0.00     0.031 C 
ATOM     61  C   UNL     1     -12.162   7.626  -4.819  1.00  0.00     0.037 A 
BRANCH  48  62
ATOM     62  C   UNL     1      -7.470  11.643  -4.947  1.00  0.00     0.064 A 
ATOM     63  C   UNL     1      -6.852  12.189  -6.083  1.00  0.00     0.173 A 
ATOM     64  C   UNL     1      -7.692  12.489  -3.851  1.00  0.00     0.173 A 
ATOM     65  F   UNL     1      -6.604  11.419  -7.153  1.00  0.00    -0.203 F 
ATOM     66  C   UNL     1      -6.446  13.520  -6.107  1.00  0.00     0.198 A 
ATOM     67  C   UNL     1      -7.312  13.828  -3.890  1.00  0.00     0.198 A 
ATOM     68  F   UNL     1      -8.284  12.018  -2.742  1.00  0.00    -0.203 F 
ATOM     69  F   UNL     1      -5.811  14.006  -7.183  1.00  0.00    -0.200 F 
ATOM     70  C   UNL     1      -6.683  14.340  -5.014  1.00  0.00     0.200 A 
ATOM     71  F   UNL     1      -7.553  14.622  -2.838  1.00  0.00    -0.200 F 
ATOM     72  F   UNL     1      -6.297  15.623  -5.042  1.00  0.00    -0.200 F 
ENDBRANCH  48  62
BRANCH  49  73
ATOM     73  C   UNL     1      -9.980   1.990  -4.466  1.00  0.00     0.064 A 
ATOM     74  C   UNL     1     -10.591   1.344  -5.550  1.00  0.00     0.173 A 
ATOM     75  C   UNL     1      -9.747   1.240  -3.304  1.00  0.00     0.173 A 
ATOM     76  F   UNL     1     -10.852   2.026  -6.674  1.00  0.00    -0.203 F 
ATOM     77  C   UNL     1     -10.971   0.006  -5.469  1.00  0.00     0.198 A 
ATOM     78  C   UNL     1     -10.104  -0.105  -3.234  1.00  0.00     0.198 A 
ATOM     79  F   UNL     1      -9.161   1.811  -2.242  1.00  0.00    -0.203 F 
ATOM     80  F   UNL     1     -11.591  -0.575  -6.504  1.00  0.00    -0.200 F 
ATOM     81  C   UNL     1     -10.722  -0.719  -4.313  1.00  0.00     0.200 A 
ATOM     82  F   UNL     1      -9.849  -0.806  -2.121  1.00  0.00    -0.200 F 
ATOM     83  F   UNL     1     -11.084  -2.006  -4.237  1.00  0.00    -0.200 F 
ENDBRANCH  49  73
BRANCH  61  84
ATOM     84  C   UNL     1     -13.634   7.905  -4.882  1.00  0.00     0.064 A 
ATOM     85  C   UNL     1     -14.459   7.762  -3.757  1.00  0.00     0.173 A 
ATOM     86  C   UNL     1     -14.218   8.360  -6.074  1.00  0.00     0.173 A 
ATOM     87  F   UNL     1     -13.950   7.314  -2.600  1.00  0.00    -0.203 F 
ATOM     88  C   UNL     1     -15.821   8.043  -3.830  1.00  0.00     0.198 A 
ATOM     89  C   UNL     1     -15.574   8.667  -6.135  1.00  0.00     0.198 A 
ATOM     90  F   UNL     1     -13.470   8.519  -7.176  1.00  0.00    -0.203 F 
ATOM     91  F   UNL     1     -16.599   7.857  -2.755  1.00  0.00    -0.200 F 
ATOM     92  C   UNL     1     -16.375   8.502  -5.016  1.00  0.00     0.200 A 
ATOM     93  F   UNL     1     -16.106   9.122  -7.278  1.00  0.00    -0.200 F 
ATOM     94  F   UNL     1     -17.685   8.779  -5.081  1.00  0.00    -0.200 F 
ENDBRANCH  61  84
ENDBRANCH  35  36
ENDBRANCH  27  30
ENDBRANCH  25  26
ENDBRANCH  24  25
ENDBRANCH  23  24
ENDBRANCH   3  23
TORSDOF 16
