REMARK SMILES CC(=O)Nc1cccc(NC(=O)N[C@H](C(=O)NCCCNC(=O)c2ccc(-c3c4nc(c(-c5c(F)c(F)c(F)c(F)c5F)c5ccc([nH]5)c(-c5c(F)c(F)c(F)c(F)c5F)c5nc(c(-c6c(F)c(F)c(F)c(F)c6F)c6ccc3[nH]6)C=C5)C=C4)cc2)C(C)C)c1
REMARK SMILES IDX 18 1 17 2 15 3 16 4 14 6 13 7 10 8 11 9 12 11 9 13 5 14 6 15
REMARK SMILES IDX 90 16 7 17 8 18 4 19 1 20 2 21 3 22 87 24 88 25 89 26 19 27
REMARK SMILES IDX 20 28 21 29 22 30 23 32 24 33 25 34 86 35 26 36 85 37 27 38
REMARK SMILES IDX 28 39 29 40 79 41 30 42 84 43 78 44 80 45 31 46 83 47 77 48
REMARK SMILES IDX 76 49 32 51 64 52 44 53 63 54 45 55 48 56 62 57 81 58 46 59
REMARK SMILES IDX 47 60 61 62 82 63 49 64 33 65 34 66 42 67 35 68 36 69 40 70
REMARK SMILES IDX 43 71 37 72 38 73 41 74 39 75 65 76 66 77 74 78 67 79 68 80
REMARK SMILES IDX 72 81 75 82 69 83 70 84 73 85 71 86 50 87 51 88 59 89 52 90
REMARK SMILES IDX 53 91 57 92 60 93 54 94 55 95 58 96 56 97
REMARK H PARENT 17 5 10 10 13 12 4 23 21 31 80 50 48 61
REMARK Flexibility Score: inf
ROOT
ATOM      1  C   UNL     1       4.000   5.164   0.513  1.00  0.00     0.117 C 
ENDROOT
BRANCH   1   2
ATOM      2  N   UNL     1       4.791   4.260  -0.303  1.00  0.00    -0.354 N 
ATOM      3  C   UNL     1       4.794   4.094  -1.660  1.00  0.00     0.242 C 
ATOM      4  O   UNL     1       5.375   3.089  -2.075  1.00  0.00    -0.273 OA
ATOM      5  H   UNL     1       5.416   3.683   0.194  1.00  0.00     0.163 HD
BRANCH   3   6
ATOM      6  C   UNL     1       3.922   5.017  -2.557  1.00  0.00     0.175 C 
BRANCH   6   7
ATOM      7  N   UNL     1       3.879   6.440  -2.157  1.00  0.00    -0.326 N 
ATOM      8  N   UNL     1       6.023   7.292  -1.500  1.00  0.00    -0.308 N 
ATOM      9  C   UNL     1       4.720   7.416  -1.800  1.00  0.00     0.319 C 
ATOM     10  H   UNL     1       6.329   8.014  -0.906  1.00  0.00     0.171 HD
ATOM     11  O   UNL     1       4.190   8.506  -1.551  1.00  0.00    -0.248 OA
ATOM     12  H   UNL     1       2.951   6.767  -2.151  1.00  0.00     0.166 HD
BRANCH   8  13
ATOM     13  C   UNL     1       7.061   6.404  -1.811  1.00  0.00     0.044 A 
ATOM     14  C   UNL     1       9.259   5.504  -1.253  1.00  0.00     0.043 A 
ATOM     15  C   UNL     1       9.175   4.657  -2.361  1.00  0.00     0.026 A 
ATOM     16  C   UNL     1       8.195   6.372  -0.977  1.00  0.00     0.052 A 
ATOM     17  C   UNL     1       8.085   4.726  -3.216  1.00  0.00     0.004 A 
ATOM     18  C   UNL     1       7.066   5.639  -2.963  1.00  0.00     0.026 A 
BRANCH  14  19
ATOM     19  N   UNL     1      10.481   5.476  -0.562  1.00  0.00    -0.326 N 
ATOM     20  C   UNL     1       9.830   6.136   1.741  1.00  0.00     0.114 C 
ATOM     21  C   UNL     1      10.859   5.888   0.678  1.00  0.00     0.221 C 
ATOM     22  O   UNL     1      12.063   5.974   0.932  1.00  0.00    -0.275 OA
ATOM     23  H   UNL     1      11.215   5.075  -1.082  1.00  0.00     0.169 HD
ENDBRANCH  14  19
ENDBRANCH   8  13
ENDBRANCH   6   7
BRANCH   6  24
ATOM     24  C   UNL     1       3.944   4.893  -4.112  1.00  0.00     0.015 C 
ATOM     25  C   UNL     1       4.571   3.624  -4.691  1.00  0.00     0.010 C 
ATOM     26  C   UNL     1       2.518   5.017  -4.679  1.00  0.00     0.010 C 
ENDBRANCH   6  24
ENDBRANCH   3   6
ENDBRANCH   1   2
BRANCH   1  27
ATOM     27  C   UNL     1       3.717   4.571   1.882  1.00  0.00     0.042 C 
BRANCH  27  28
ATOM     28  C   UNL     1       4.957   4.495   2.762  1.00  0.00     0.118 C 
BRANCH  28  29
ATOM     29  N   UNL     1       5.322   5.779   3.343  1.00  0.00    -0.352 N 
ATOM     30  C   UNL     1       5.361   6.165   4.664  1.00  0.00     0.251 C 
ATOM     31  H   UNL     1       5.579   6.475   2.695  1.00  0.00     0.163 HD
ATOM     32  O   UNL     1       5.552   7.335   4.960  1.00  0.00    -0.269 OA
BRANCH  30  33
ATOM     33  C   UNL     1       5.137   5.159   5.727  1.00  0.00     0.039 A 
ATOM     34  C   UNL     1       4.283   5.470   6.787  1.00  0.00     0.014 A 
ATOM     35  C   UNL     1       5.748   3.905   5.665  1.00  0.00     0.014 A 
ATOM     36  C   UNL     1       3.988   4.496   7.745  1.00  0.00     0.010 A 
ATOM     37  C   UNL     1       5.365   2.905   6.551  1.00  0.00     0.010 A 
ATOM     38  C   UNL     1       4.494   3.192   7.612  1.00  0.00    -0.014 A 
BRANCH  38  39
ATOM     39  C   UNL     1       4.157   2.125   8.591  1.00  0.00     0.031 A 
ATOM     40  C   UNL     1       5.251   1.465   9.388  1.00  0.00     0.074 A 
ATOM     41  C   UNL     1       2.882   1.709   8.723  1.00  0.00     0.049 A 
ATOM     42  N   UNL     1       5.175   0.478  10.245  1.00  0.00    -0.248 NA
ATOM     43  C   UNL     1       6.621   1.954   9.164  1.00  0.00     0.031 C 
ATOM     44  C   UNL     1       1.739   2.224   7.967  1.00  0.00     0.029 A 
ATOM     45  N   UNL     1       2.333   0.749   9.537  1.00  0.00    -0.354 N 
ATOM     46  C   UNL     1       6.481   0.221  10.643  1.00  0.00     0.074 A 
ATOM     47  C   UNL     1       7.337   1.103   9.882  1.00  0.00     0.031 C 
ATOM     48  C   UNL     1       0.623   1.600   8.376  1.00  0.00     0.029 A 
ATOM     49  C   UNL     1       0.974   0.614   9.393  1.00  0.00     0.049 A 
ATOM     50  H   UNL     1       2.865   0.208  10.165  1.00  0.00     0.167 HD
ATOM     51  C   UNL     1       6.926  -0.648  11.581  1.00  0.00     0.037 A 
ATOM     52  C   UNL     1       0.109  -0.213  10.012  1.00  0.00     0.037 A 
ATOM     53  C   UNL     1       6.069  -1.501  12.360  1.00  0.00     0.049 A 
ATOM     54  C   UNL     1       0.628  -1.163  11.059  1.00  0.00     0.074 A 
ATOM     55  C   UNL     1       6.412  -2.375  13.376  1.00  0.00     0.029 A 
ATOM     56  N   UNL     1       4.692  -1.587  12.206  1.00  0.00    -0.354 N 
ATOM     57  N   UNL     1       1.857  -1.345  11.479  1.00  0.00    -0.248 NA
ATOM     58  C   UNL     1      -0.365  -2.014  11.729  1.00  0.00     0.031 C 
ATOM     59  C   UNL     1       5.251  -3.028  13.801  1.00  0.00     0.029 A 
ATOM     60  C   UNL     1       4.175  -2.513  13.097  1.00  0.00     0.049 A 
ATOM     61  H   UNL     1       4.162  -1.067  11.560  1.00  0.00     0.167 HD
ATOM     62  C   UNL     1       1.780  -2.299  12.485  1.00  0.00     0.074 A 
ATOM     63  C   UNL     1       0.381  -2.647  12.622  1.00  0.00     0.031 C 
ATOM     64  C   UNL     1       2.777  -2.838  13.230  1.00  0.00     0.037 A 
BRANCH  51  65
ATOM     65  C   UNL     1       8.409  -0.711  11.820  1.00  0.00     0.064 A 
ATOM     66  C   UNL     1       9.111   0.361  12.394  1.00  0.00     0.173 A 
ATOM     67  C   UNL     1       9.133  -1.868  11.496  1.00  0.00     0.173 A 
ATOM     68  F   UNL     1       8.470   1.496  12.711  1.00  0.00    -0.203 F 
ATOM     69  C   UNL     1      10.487   0.290  12.599  1.00  0.00     0.198 A 
ATOM     70  C   UNL     1      10.503  -1.949  11.737  1.00  0.00     0.198 A 
ATOM     71  F   UNL     1       8.513  -2.925  10.951  1.00  0.00    -0.203 F 
ATOM     72  F   UNL     1      11.144   1.350  13.092  1.00  0.00    -0.200 F 
ATOM     73  C   UNL     1      11.180  -0.867  12.279  1.00  0.00     0.200 A 
ATOM     74  F   UNL     1      11.168  -3.074  11.441  1.00  0.00    -0.200 F 
ATOM     75  F   UNL     1      12.502  -0.936  12.484  1.00  0.00    -0.200 F 
ENDBRANCH  51  65
BRANCH  52  76
ATOM     76  C   UNL     1      -1.341  -0.158   9.686  1.00  0.00     0.064 A 
ATOM     77  C   UNL     1      -2.274   0.307  10.624  1.00  0.00     0.173 A 
ATOM     78  C   UNL     1      -1.827  -0.579   8.440  1.00  0.00     0.173 A 
ATOM     79  F   UNL     1      -1.862   0.704  11.837  1.00  0.00    -0.203 F 
ATOM     80  C   UNL     1      -3.638   0.322  10.339  1.00  0.00     0.198 A 
ATOM     81  C   UNL     1      -3.188  -0.534   8.144  1.00  0.00     0.198 A 
ATOM     82  F   UNL     1      -0.978  -1.026   7.503  1.00  0.00    -0.203 F 
ATOM     83  F   UNL     1      -4.511   0.719  11.275  1.00  0.00    -0.200 F 
ATOM     84  C   UNL     1      -4.094  -0.094   9.098  1.00  0.00     0.200 A 
ATOM     85  F   UNL     1      -3.623  -0.921   6.937  1.00  0.00    -0.200 F 
ATOM     86  F   UNL     1      -5.405  -0.078   8.823  1.00  0.00    -0.200 F 
ENDBRANCH  52  76
BRANCH  64  87
ATOM     87  C   UNL     1       2.386  -3.818  14.300  1.00  0.00     0.064 A 
ATOM     88  C   UNL     1       1.895  -5.096  13.994  1.00  0.00     0.173 A 
ATOM     89  C   UNL     1       2.533  -3.478  15.654  1.00  0.00     0.173 A 
ATOM     90  F   UNL     1       1.724  -5.466  12.716  1.00  0.00    -0.203 F 
ATOM     91  C   UNL     1       1.530  -5.982  15.004  1.00  0.00     0.198 A 
ATOM     92  C   UNL     1       2.202  -4.381  16.661  1.00  0.00     0.198 A 
ATOM     93  F   UNL     1       3.007  -2.273  16.003  1.00  0.00    -0.203 F 
ATOM     94  F   UNL     1       1.006  -7.175  14.688  1.00  0.00    -0.200 F 
ATOM     95  C   UNL     1       1.690  -5.628  16.335  1.00  0.00     0.200 A 
ATOM     96  F   UNL     1       2.375  -4.043  17.946  1.00  0.00    -0.200 F 
ATOM     97  F   UNL     1       1.343  -6.485  17.305  1.00  0.00    -0.200 F 
ENDBRANCH  64  87
ENDBRANCH  38  39
ENDBRANCH  30  33
ENDBRANCH  28  29
ENDBRANCH  27  28
ENDBRANCH   1  27
TORSDOF 14
