REMARK SMILES CC[C@@H](C)[C@H](NC(=O)[C@@H](C)NC(N)=O)C(=O)NCCCNC(=O)c1ccc(-c2c3nc(c(-c4c(F)c(F)c(F)c(F)c4F)c4ccc([nH]4)c(-c4c(F)c(F)c(F)c(F)c4F)c4nc(c(-c5c(F)c(F)c(F)c(F)c5F)c5ccc2[nH]5)C=C4)C=C3)cc1
REMARK SMILES IDX 18 1 17 2 15 3 16 4 5 6 3 7 4 8 2 9 1 10 6 11 7 12 8 14 9 15
REMARK SMILES IDX 10 16 11 17 12 18 13 20 14 21 19 24 20 25 21 26 22 27 23 29
REMARK SMILES IDX 24 30 25 31 86 32 26 33 85 34 27 35 28 36 29 37 79 38 30 39
REMARK SMILES IDX 84 40 78 41 80 42 31 43 83 44 77 45 76 46 32 48 64 49 44 50
REMARK SMILES IDX 63 51 45 52 48 53 62 54 81 55 46 56 47 57 61 59 82 60 49 61
REMARK SMILES IDX 33 62 34 63 42 64 35 65 36 66 40 67 43 68 37 69 38 70 41 71
REMARK SMILES IDX 39 72 65 73 66 74 74 75 67 76 68 77 72 78 75 79 69 80 70 81
REMARK SMILES IDX 73 82 71 83 50 84 51 85 59 86 52 87 53 88 57 89 60 90 54 91
REMARK SMILES IDX 55 92 58 93 56 94
REMARK H PARENT 17 5 6 13 11 19 13 22 13 23 21 28 80 47 48 58
REMARK Flexibility Score: inf
ROOT
ATOM      1  C   UNL     1       3.605   4.031   0.771  1.00  0.00     0.117 C 
ENDROOT
BRANCH   1   2
ATOM      2  N   UNL     1       2.502   4.970   0.666  1.00  0.00    -0.354 N 
ATOM      3  C   UNL     1       1.180   4.818   0.950  1.00  0.00     0.242 C 
ATOM      4  O   UNL     1       0.445   5.800   0.785  1.00  0.00    -0.273 OA
ATOM      5  H   UNL     1       2.752   5.862   0.335  1.00  0.00     0.163 HD
BRANCH   3   6
ATOM      6  C   UNL     1       0.577   3.490   1.456  1.00  0.00     0.174 C 
BRANCH   6   7
ATOM      7  C   UNL     1       0.817   3.180   2.968  1.00  0.00     0.018 C 
ATOM      8  C   UNL     1       2.266   3.233   3.457  1.00  0.00     0.010 C 
BRANCH   7   9
ATOM      9  C   UNL     1       0.148   1.839   3.357  1.00  0.00     0.002 C 
ATOM     10  C   UNL     1       0.358   1.426   4.809  1.00  0.00     0.004 C 
ENDBRANCH   7   9
ENDBRANCH   6   7
BRANCH   6  11
ATOM     11  N   UNL     1       0.910   2.401   0.544  1.00  0.00    -0.342 N 
ATOM     12  C   UNL     1       0.367   2.047  -0.657  1.00  0.00     0.243 C 
ATOM     13  H   UNL     1       1.650   1.825   0.845  1.00  0.00     0.164 HD
ATOM     14  O   UNL     1       0.870   1.055  -1.198  1.00  0.00    -0.273 OA
BRANCH  12  15
ATOM     15  C   UNL     1      -0.888   2.723  -1.262  1.00  0.00     0.170 C 
ATOM     16  C   UNL     1      -2.155   2.346  -0.501  1.00  0.00     0.041 C 
BRANCH  15  17
ATOM     17  N   UNL     1      -0.787   4.168  -1.428  1.00  0.00    -0.327 N 
ATOM     18  C   UNL     1      -0.868   4.759  -2.651  1.00  0.00     0.312 C 
ATOM     19  H   UNL     1      -0.657   4.732  -0.632  1.00  0.00     0.166 HD
ATOM     20  N   UNL     1      -0.721   6.102  -2.597  1.00  0.00    -0.352 N 
ATOM     21  O   UNL     1      -1.058   4.184  -3.712  1.00  0.00    -0.249 OA
ATOM     22  H   UNL     1      -0.569   6.547  -1.732  1.00  0.00     0.161 HD
ATOM     23  H   UNL     1      -0.766   6.636  -3.424  1.00  0.00     0.161 HD
ENDBRANCH  15  17
ENDBRANCH  12  15
ENDBRANCH   6  11
ENDBRANCH   3   6
ENDBRANCH   1   2
BRANCH   1  24
ATOM     24  C   UNL     1       4.420   3.915  -0.500  1.00  0.00     0.042 C 
BRANCH  24  25
ATOM     25  C   UNL     1       5.115   5.209  -0.889  1.00  0.00     0.118 C 
BRANCH  25  26
ATOM     26  N   UNL     1       6.039   5.694   0.134  1.00  0.00    -0.352 N 
ATOM     27  C   UNL     1       7.413   5.723   0.159  1.00  0.00     0.251 C 
ATOM     28  H   UNL     1       5.606   6.060   0.939  1.00  0.00     0.163 HD
ATOM     29  O   UNL     1       8.002   6.002   1.198  1.00  0.00    -0.269 OA
BRANCH  27  30
ATOM     30  C   UNL     1       8.178   5.385  -1.057  1.00  0.00     0.039 A 
ATOM     31  C   UNL     1       9.303   4.562  -0.955  1.00  0.00     0.014 A 
ATOM     32  C   UNL     1       7.763   5.852  -2.304  1.00  0.00     0.014 A 
ATOM     33  C   UNL     1       9.939   4.118  -2.116  1.00  0.00     0.010 A 
ATOM     34  C   UNL     1       8.317   5.315  -3.456  1.00  0.00     0.010 A 
ATOM     35  C   UNL     1       9.410   4.439  -3.377  1.00  0.00    -0.014 A 
BRANCH  35  36
ATOM     36  C   UNL     1       9.963   3.871  -4.632  1.00  0.00     0.031 A 
ATOM     37  C   UNL     1      10.472   4.791  -5.707  1.00  0.00     0.074 A 
ATOM     38  C   UNL     1       9.899   2.542  -4.848  1.00  0.00     0.049 A 
ATOM     39  N   UNL     1      10.856   4.509  -6.926  1.00  0.00    -0.248 NA
ATOM     40  C   UNL     1      10.518   6.227  -5.384  1.00  0.00     0.031 C 
ATOM     41  C   UNL     1       9.369   1.553  -3.906  1.00  0.00     0.029 A 
ATOM     42  N   UNL     1      10.261   1.792  -5.940  1.00  0.00    -0.354 N 
ATOM     43  C   UNL     1      11.153   5.729  -7.519  1.00  0.00     0.074 A 
ATOM     44  C   UNL     1      10.860   6.758  -6.548  1.00  0.00     0.031 C 
ATOM     45  C   UNL     1       9.457   0.330  -4.452  1.00  0.00     0.029 A 
ATOM     46  C   UNL     1      10.000   0.450  -5.800  1.00  0.00     0.049 A 
ATOM     47  H   UNL     1      10.668   2.180  -6.748  1.00  0.00     0.167 HD
ATOM     48  C   UNL     1      11.647   5.964  -8.757  1.00  0.00     0.037 A 
ATOM     49  C   UNL     1      10.160  -0.565  -6.671  1.00  0.00     0.037 A 
ATOM     50  C   UNL     1      11.984   4.930  -9.698  1.00  0.00     0.049 A 
ATOM     51  C   UNL     1      10.715  -0.271  -8.040  1.00  0.00     0.074 A 
ATOM     52  C   UNL     1      12.592   5.057 -10.934  1.00  0.00     0.029 A 
ATOM     53  N   UNL     1      11.736   3.579  -9.507  1.00  0.00    -0.354 N 
ATOM     54  N   UNL     1      11.089   0.876  -8.553  1.00  0.00    -0.248 NA
ATOM     55  C   UNL     1      10.869  -1.413  -8.953  1.00  0.00     0.031 C 
ATOM     56  C   UNL     1      12.656   3.789 -11.518  1.00  0.00     0.029 A 
ATOM     57  C   UNL     1      12.143   2.865 -10.622  1.00  0.00     0.049 A 
ATOM     58  H   UNL     1      11.331   3.186  -8.700  1.00  0.00     0.167 HD
ATOM     59  C   UNL     1      11.546   0.591  -9.832  1.00  0.00     0.074 A 
ATOM     60  C   UNL     1      11.420  -0.840 -10.012  1.00  0.00     0.031 C 
ATOM     61  C   UNL     1      12.022   1.439 -10.776  1.00  0.00     0.037 A 
BRANCH  48  62
ATOM     62  C   UNL     1      11.862   7.391  -9.170  1.00  0.00     0.064 A 
ATOM     63  C   UNL     1      12.869   8.184  -8.600  1.00  0.00     0.173 A 
ATOM     64  C   UNL     1      11.086   7.954 -10.196  1.00  0.00     0.173 A 
ATOM     65  F   UNL     1      13.631   7.698  -7.608  1.00  0.00    -0.203 F 
ATOM     66  C   UNL     1      13.077   9.493  -9.025  1.00  0.00     0.198 A 
ATOM     67  C   UNL     1      11.319   9.252 -10.641  1.00  0.00     0.198 A 
ATOM     68  F   UNL     1      10.113   7.238 -10.778  1.00  0.00    -0.203 F 
ATOM     69  F   UNL     1      14.017  10.245  -8.436  1.00  0.00    -0.200 F 
ATOM     70  C   UNL     1      12.309  10.023 -10.051  1.00  0.00     0.200 A 
ATOM     71  F   UNL     1      10.585   9.757 -11.642  1.00  0.00    -0.200 F 
ATOM     72  F   UNL     1      12.522  11.278 -10.470  1.00  0.00    -0.200 F 
ENDBRANCH  48  62
BRANCH  49  73
ATOM     73  C   UNL     1       9.794  -1.954  -6.283  1.00  0.00     0.064 A 
ATOM     74  C   UNL     1      10.776  -2.945  -6.143  1.00  0.00     0.173 A 
ATOM     75  C   UNL     1       8.459  -2.329  -6.073  1.00  0.00     0.173 A 
ATOM     76  F   UNL     1      12.066  -2.643  -6.353  1.00  0.00    -0.203 F 
ATOM     77  C   UNL     1      10.435  -4.262  -5.841  1.00  0.00     0.198 A 
ATOM     78  C   UNL     1       8.121  -3.639  -5.737  1.00  0.00     0.198 A 
ATOM     79  F   UNL     1       7.479  -1.420  -6.188  1.00  0.00    -0.203 F 
ATOM     80  F   UNL     1      11.389  -5.200  -5.773  1.00  0.00    -0.200 F 
ATOM     81  C   UNL     1       9.108  -4.607  -5.634  1.00  0.00     0.200 A 
ATOM     82  F   UNL     1       6.840  -3.965  -5.522  1.00  0.00    -0.200 F 
ATOM     83  F   UNL     1       8.780  -5.874  -5.345  1.00  0.00    -0.200 F 
ENDBRANCH  49  73
BRANCH  61  84
ATOM     84  C   UNL     1      12.475   0.842 -12.077  1.00  0.00     0.064 A 
ATOM     85  C   UNL     1      11.559   0.342 -13.014  1.00  0.00     0.173 A 
ATOM     86  C   UNL     1      13.837   0.831 -12.415  1.00  0.00     0.173 A 
ATOM     87  F   UNL     1      10.248   0.317 -12.730  1.00  0.00    -0.203 F 
ATOM     88  C   UNL     1      11.993  -0.164 -14.236  1.00  0.00     0.198 A 
ATOM     89  C   UNL     1      14.263   0.355 -13.651  1.00  0.00     0.198 A 
ATOM     90  F   UNL     1      14.752   1.306 -11.556  1.00  0.00    -0.203 F 
ATOM     91  F   UNL     1      11.105  -0.675 -15.100  1.00  0.00    -0.200 F 
ATOM     92  C   UNL     1      13.342  -0.147 -14.558  1.00  0.00     0.200 A 
ATOM     93  F   UNL     1      15.565   0.388 -13.967  1.00  0.00    -0.200 F 
ATOM     94  F   UNL     1      13.755  -0.619 -15.742  1.00  0.00    -0.200 F 
ENDBRANCH  61  84
ENDBRANCH  35  36
ENDBRANCH  27  30
ENDBRANCH  25  26
ENDBRANCH  24  25
ENDBRANCH   1  24
TORSDOF 15
