REMARK SMILES O=C(NCCCNC(=O)c1ccc([C@H]2Nc3ccc(Cl)cc3[C@@H]3C=CC[C@@H]23)cc1)c1ccc(-c2c3nc(c(-c4c(F)c(F)c(F)c(F)c4F)c4ccc([nH]4)c(-c4c(F)c(F)c(F)c(F)c4F)c4nc(c(-c5c(F)c(F)c(F)c(F)c5F)c5ccc2[nH]5)C=C4)C=C3)cc1
REMARK SMILES IDX 4 1 3 2 1 3 2 4 30 6 31 7 92 8 32 9 91 10 33 11 34 12 35 13
REMARK SMILES IDX 85 14 36 15 90 16 84 17 86 18 37 19 89 20 83 21 82 22 38 24
REMARK SMILES IDX 70 25 50 26 69 27 51 28 54 29 68 30 87 31 52 32 53 33 67 35
REMARK SMILES IDX 88 36 55 37 39 38 40 39 48 40 41 41 42 42 46 43 49 44 43 45
REMARK SMILES IDX 44 46 47 47 45 48 71 49 72 50 80 51 73 52 74 53 78 54 81 55
REMARK SMILES IDX 75 56 76 57 79 58 77 59 56 60 57 61 65 62 58 63 59 64 63 65
REMARK SMILES IDX 66 66 60 67 61 68 64 69 62 70 5 71 6 72 7 73 8 74 9 76 10 77
REMARK SMILES IDX 11 78 29 79 12 80 28 81 13 82 14 83 15 84 27 85 16 86 23 88
REMARK SMILES IDX 26 89 17 90 22 91 24 92 25 93 18 94 21 95 19 96 20 97
REMARK H PARENT 3 5 86 23 54 34 7 75 15 87
REMARK Flexibility Score: inf
ROOT
ATOM      1  C   UNL     1       4.483  -0.415  -1.578  1.00  0.00     0.118 C 
ENDROOT
BRANCH   1   2
ATOM      2  N   UNL     1       3.057  -0.292  -1.308  1.00  0.00    -0.352 N 
ATOM      3  O   UNL     1       1.141  -0.148  -0.140  1.00  0.00    -0.269 OA
ATOM      4  C   UNL     1       2.365  -0.112  -0.130  1.00  0.00     0.251 C 
ATOM      5  H   UNL     1       2.486  -0.348  -2.109  1.00  0.00     0.163 HD
BRANCH   4   6
ATOM      6  C   UNL     1       3.072   0.096   1.159  1.00  0.00     0.039 A 
ATOM      7  C   UNL     1       4.189   0.925   1.256  1.00  0.00     0.014 A 
ATOM      8  C   UNL     1       2.570  -0.517   2.314  1.00  0.00     0.014 A 
ATOM      9  C   UNL     1       4.898   1.003   2.452  1.00  0.00     0.010 A 
ATOM     10  C   UNL     1       3.229  -0.359   3.541  1.00  0.00     0.010 A 
ATOM     11  C   UNL     1       4.423   0.372   3.614  1.00  0.00    -0.014 A 
BRANCH  11  12
ATOM     12  C   UNL     1       5.161   0.546   4.895  1.00  0.00     0.031 A 
ATOM     13  C   UNL     1       5.790  -0.624   5.603  1.00  0.00     0.074 A 
ATOM     14  C   UNL     1       5.290   1.786   5.409  1.00  0.00     0.049 A 
ATOM     15  N   UNL     1       6.492  -0.640   6.711  1.00  0.00    -0.248 NA
ATOM     16  C   UNL     1       5.603  -1.950   4.998  1.00  0.00     0.031 C 
ATOM     17  C   UNL     1       4.711   2.999   4.828  1.00  0.00     0.029 A 
ATOM     18  N   UNL     1       5.955   2.237   6.522  1.00  0.00    -0.354 N 
ATOM     19  C   UNL     1       6.818  -1.970   6.940  1.00  0.00     0.074 A 
ATOM     20  C   UNL     1       6.210  -2.739   5.875  1.00  0.00     0.031 C 
ATOM     21  C   UNL     1       5.081   4.058   5.561  1.00  0.00     0.029 A 
ATOM     22  C   UNL     1       5.865   3.596   6.700  1.00  0.00     0.049 A 
ATOM     23  H   UNL     1       6.448   1.643   7.133  1.00  0.00     0.167 HD
ATOM     24  C   UNL     1       7.564  -2.499   7.942  1.00  0.00     0.037 A 
ATOM     25  C   UNL     1       6.341   4.385   7.682  1.00  0.00     0.037 A 
ATOM     26  C   UNL     1       8.174  -1.727   8.997  1.00  0.00     0.049 A 
ATOM     27  C   UNL     1       7.136   3.766   8.797  1.00  0.00     0.074 A 
ATOM     28  C   UNL     1       8.982  -2.169  10.031  1.00  0.00     0.029 A 
ATOM     29  N   UNL     1       8.036  -0.356   9.159  1.00  0.00    -0.354 N 
ATOM     30  N   UNL     1       7.477   2.513   8.973  1.00  0.00    -0.248 NA
ATOM     31  C   UNL     1       7.615   4.673   9.848  1.00  0.00     0.031 C 
ATOM     32  C   UNL     1       9.279  -1.077  10.854  1.00  0.00     0.029 A 
ATOM     33  C   UNL     1       8.716   0.058  10.295  1.00  0.00     0.049 A 
ATOM     34  H   UNL     1       7.529   0.236   8.557  1.00  0.00     0.167 HD
ATOM     35  C   UNL     1       8.227   2.484  10.141  1.00  0.00     0.074 A 
ATOM     36  C   UNL     1       8.310   3.849  10.618  1.00  0.00     0.031 C 
ATOM     37  C   UNL     1       8.793   1.420  10.762  1.00  0.00     0.037 A 
BRANCH  24  38
ATOM     38  C   UNL     1       7.753  -3.991   7.966  1.00  0.00     0.064 A 
ATOM     39  C   UNL     1       8.544  -4.654   7.016  1.00  0.00     0.173 A 
ATOM     40  C   UNL     1       7.183  -4.761   8.993  1.00  0.00     0.173 A 
ATOM     41  F   UNL     1       9.106  -3.969   6.009  1.00  0.00    -0.203 F 
ATOM     42  C   UNL     1       8.737  -6.033   7.078  1.00  0.00     0.198 A 
ATOM     43  C   UNL     1       7.404  -6.134   9.070  1.00  0.00     0.198 A 
ATOM     44  F   UNL     1       6.425  -4.179   9.935  1.00  0.00    -0.203 F 
ATOM     45  F   UNL     1       9.460  -6.649   6.133  1.00  0.00    -0.200 F 
ATOM     46  C   UNL     1       8.174  -6.770   8.109  1.00  0.00     0.200 A 
ATOM     47  F   UNL     1       6.873  -6.842  10.077  1.00  0.00    -0.200 F 
ATOM     48  F   UNL     1       8.371  -8.094   8.173  1.00  0.00    -0.200 F 
ENDBRANCH  24  38
BRANCH  25  49
ATOM     49  C   UNL     1       6.063   5.845   7.654  1.00  0.00     0.064 A 
ATOM     50  C   UNL     1       7.092   6.777   7.463  1.00  0.00     0.173 A 
ATOM     51  C   UNL     1       4.759   6.338   7.816  1.00  0.00     0.173 A 
ATOM     52  F   UNL     1       8.358   6.357   7.324  1.00  0.00    -0.203 F 
ATOM     53  C   UNL     1       6.830   8.145   7.454  1.00  0.00     0.198 A 
ATOM     54  C   UNL     1       4.493   7.704   7.770  1.00  0.00     0.198 A 
ATOM     55  F   UNL     1       3.737   5.488   7.996  1.00  0.00    -0.203 F 
ATOM     56  F   UNL     1       7.839   9.017   7.319  1.00  0.00    -0.200 F 
ATOM     57  C   UNL     1       5.530   8.607   7.599  1.00  0.00     0.200 A 
ATOM     58  F   UNL     1       3.233   8.143   7.891  1.00  0.00    -0.200 F 
ATOM     59  F   UNL     1       5.279   9.923   7.582  1.00  0.00    -0.200 F 
ENDBRANCH  25  49
BRANCH  37  60
ATOM     60  C   UNL     1       9.585   1.695  12.009  1.00  0.00     0.064 A 
ATOM     61  C   UNL     1       8.969   2.095  13.204  1.00  0.00     0.173 A 
ATOM     62  C   UNL     1      10.979   1.531  12.013  1.00  0.00     0.173 A 
ATOM     63  F   UNL     1       7.641   2.281  13.250  1.00  0.00    -0.203 F 
ATOM     64  C   UNL     1       9.723   2.353  14.347  1.00  0.00     0.198 A 
ATOM     65  C   UNL     1      11.725   1.755  13.167  1.00  0.00     0.198 A 
ATOM     66  F   UNL     1      11.619   1.145  10.899  1.00  0.00    -0.203 F 
ATOM     67  F   UNL     1       9.118   2.790  15.460  1.00  0.00    -0.200 F 
ATOM     68  C   UNL     1      11.098   2.175  14.330  1.00  0.00     0.200 A 
ATOM     69  F   UNL     1      13.052   1.568  13.152  1.00  0.00    -0.200 F 
ATOM     70  F   UNL     1      11.820   2.418  15.432  1.00  0.00    -0.200 F 
ENDBRANCH  37  60
ENDBRANCH  11  12
ENDBRANCH   4   6
ENDBRANCH   1   2
BRANCH   1  71
ATOM     71  C   UNL     1       4.902  -1.790  -2.094  1.00  0.00     0.042 C 
BRANCH  71  72
ATOM     72  C   UNL     1       4.434  -2.151  -3.505  1.00  0.00     0.118 C 
BRANCH  72  73
ATOM     73  N   UNL     1       4.925  -1.240  -4.532  1.00  0.00    -0.352 N 
ATOM     74  C   UNL     1       5.691  -1.412  -5.662  1.00  0.00     0.251 C 
ATOM     75  H   UNL     1       4.649  -0.306  -4.387  1.00  0.00     0.163 HD
ATOM     76  O   UNL     1       6.040  -0.402  -6.273  1.00  0.00    -0.269 OA
BRANCH  74  77
ATOM     77  C   UNL     1       6.161  -2.738  -6.143  1.00  0.00     0.039 A 
ATOM     78  C   UNL     1       7.441  -2.816  -6.710  1.00  0.00     0.014 A 
ATOM     79  C   UNL     1       5.390  -3.896  -6.081  1.00  0.00     0.014 A 
ATOM     80  C   UNL     1       8.022  -4.057  -7.000  1.00  0.00     0.006 A 
ATOM     81  C   UNL     1       5.976  -5.139  -6.357  1.00  0.00     0.006 A 
ATOM     82  C   UNL     1       7.346  -5.238  -6.667  1.00  0.00    -0.025 A 
BRANCH  82  83
ATOM     83  C   UNL     1       8.089  -6.530  -6.288  1.00  0.00     0.114 C 
ATOM     84  N   UNL     1       9.394  -6.710  -6.974  1.00  0.00    -0.378 N 
ATOM     85  C   UNL     1       8.357  -6.567  -4.764  1.00  0.00     0.031 C 
ATOM     86  C   UNL     1      10.602  -6.748  -6.259  1.00  0.00     0.038 A 
ATOM     87  H   UNL     1       9.413  -6.805  -7.953  1.00  0.00     0.161 HD
ATOM     88  C   UNL     1       9.439  -5.508  -4.479  1.00  0.00     0.049 C 
ATOM     89  C   UNL     1       7.277  -6.385  -3.700  1.00  0.00     0.034 C 
ATOM     90  C   UNL     1      11.705  -7.457  -6.738  1.00  0.00     0.027 A 
ATOM     91  C   UNL     1      10.696  -6.156  -4.967  1.00  0.00    -0.016 A 
ATOM     92  C   UNL     1       9.175  -5.120  -3.070  1.00  0.00    -0.023 C 
ATOM     93  C   UNL     1       7.959  -5.524  -2.679  1.00  0.00    -0.030 C 
ATOM     94  C   UNL     1      12.869  -7.567  -5.963  1.00  0.00     0.022 A 
ATOM     95  C   UNL     1      11.871  -6.226  -4.216  1.00  0.00     0.027 A 
ATOM     96  C   UNL     1      12.950  -6.944  -4.717  1.00  0.00     0.041 A 
ATOM     97  Cl  UNL     1      14.381  -7.092  -3.772  1.00  0.00    -0.084 Cl
ENDBRANCH  82  83
ENDBRANCH  74  77
ENDBRANCH  72  73
ENDBRANCH  71  72
ENDBRANCH   1  71
TORSDOF 11
