REMARK SMILES COc1ccc(-c2nc(C(C)C)cc3nn(CC(=O)NCCCNC(=O)c4ccc(-c5c6nc(c(-c7c(F)c(F)c(F)c(F)c7F)c7ccc([nH]7)c(-c7c(F)c(F)c(F)c(F)c7F)c7nc(c(-c8c(F)c(F)c(F)c(F)c8F)c8ccc5[nH]8)C=C7)C=C6)cc4)c(=O)n23)cc1
REMARK SMILES IDX 21 1 20 2 18 3 19 4 17 6 16 7 7 8 8 9 92 10 9 11 14 12 90 13
REMARK SMILES IDX 13 14 15 15 91 16 6 17 3 18 4 19 94 20 5 21 93 22 2 23 1 24
REMARK SMILES IDX 10 25 11 26 12 27 22 28 23 29 24 30 25 31 26 33 27 34 28 35
REMARK SMILES IDX 89 36 29 37 88 38 30 39 31 40 32 41 82 42 33 43 87 44 81 45
REMARK SMILES IDX 83 46 34 47 86 48 80 49 79 50 35 52 67 53 47 54 66 55 48 56
REMARK SMILES IDX 51 57 65 58 84 59 49 60 50 61 64 63 85 64 52 65 36 66 37 67
REMARK SMILES IDX 45 68 38 69 39 70 43 71 46 72 40 73 41 74 44 75 42 76 68 77
REMARK SMILES IDX 69 78 77 79 70 80 71 81 75 82 78 83 72 84 73 85 76 86 74 87
REMARK SMILES IDX 53 88 54 89 62 90 55 91 56 92 60 93 63 94 57 95 58 96 61 97
REMARK SMILES IDX 59 98
REMARK H PARENT 20 5 24 32 83 51 51 62
REMARK Flexibility Score: inf
ROOT
ATOM      1  C   UNL     1      -2.148  -6.676   7.670  1.00  0.00     0.117 C 
ENDROOT
BRANCH   1   2
ATOM      2  N   UNL     1      -2.808  -6.405   6.402  1.00  0.00    -0.354 N 
ATOM      3  C   UNL     1      -2.459  -6.811   5.142  1.00  0.00     0.241 C 
ATOM      4  O   UNL     1      -3.303  -6.683   4.251  1.00  0.00    -0.273 OA
ATOM      5  H   UNL     1      -3.620  -5.851   6.457  1.00  0.00     0.163 HD
BRANCH   3   6
ATOM      6  C   UNL     1      -1.124  -7.507   4.877  1.00  0.00     0.249 C 
BRANCH   6   7
ATOM      7  N   UNL     1      -0.028  -6.665   5.284  1.00  0.00    -0.203 N 
ATOM      8  C   UNL     1       2.145  -3.814   5.370  1.00  0.00     0.150 A 
ATOM      9  N   UNL     1       3.120  -3.588   6.204  1.00  0.00    -0.234 NA
ATOM     10  N   UNL     1       1.403  -4.987   5.406  1.00  0.00    -0.226 N 
ATOM     11  C   UNL     1       3.390  -4.543   7.170  1.00  0.00     0.049 A 
ATOM     12  C   UNL     1       1.615  -5.923   6.356  1.00  0.00     0.165 A 
ATOM     13  C   UNL     1       0.360  -5.486   4.636  1.00  0.00     0.352 A 
ATOM     14  C   UNL     1       2.695  -5.686   7.303  1.00  0.00     0.073 A 
ATOM     15  N   UNL     1       0.808  -6.940   6.340  1.00  0.00    -0.149 NA
ATOM     16  O   UNL     1      -0.133  -5.032   3.613  1.00  0.00    -0.245 OA
BRANCH   8  17
ATOM     17  C   UNL     1       1.768  -2.802   4.358  1.00  0.00     0.018 A 
ATOM     18  C   UNL     1       1.014  -0.975   2.378  1.00  0.00     0.118 A 
ATOM     19  C   UNL     1       0.116  -1.330   3.387  1.00  0.00     0.047 A 
ATOM     20  C   UNL     1       2.307  -1.505   2.388  1.00  0.00     0.047 A 
ATOM     21  C   UNL     1       0.488  -2.239   4.379  1.00  0.00     0.016 A 
ATOM     22  C   UNL     1       2.689  -2.414   3.384  1.00  0.00     0.016 A 
BRANCH  18  23
ATOM     23  O   UNL     1       0.531  -0.070   1.473  1.00  0.00    -0.497 OA
ATOM     24  C   UNL     1       1.121  -0.101   0.178  1.00  0.00     0.278 C 
ENDBRANCH  18  23
ENDBRANCH   8  17
BRANCH  11  25
ATOM     25  C   UNL     1       4.540  -4.217   8.117  1.00  0.00     0.032 C 
ATOM     26  C   UNL     1       4.045  -3.984   9.549  1.00  0.00     0.014 C 
ATOM     27  C   UNL     1       5.625  -5.301   8.097  1.00  0.00     0.014 C 
ENDBRANCH  11  25
ENDBRANCH   6   7
ENDBRANCH   3   6
ENDBRANCH   1   2
BRANCH   1  28
ATOM     28  C   UNL     1      -1.433  -5.458   8.264  1.00  0.00     0.042 C 
BRANCH  28  29
ATOM     29  C   UNL     1      -2.386  -4.391   8.772  1.00  0.00     0.118 C 
BRANCH  29  30
ATOM     30  N   UNL     1      -3.162  -4.800   9.947  1.00  0.00    -0.352 N 
ATOM     31  C   UNL     1      -4.110  -4.069  10.645  1.00  0.00     0.251 C 
ATOM     32  H   UNL     1      -2.988  -5.709  10.282  1.00  0.00     0.163 HD
ATOM     33  O   UNL     1      -4.440  -4.383  11.782  1.00  0.00    -0.269 OA
BRANCH  31  34
ATOM     34  C   UNL     1      -4.717  -2.898   9.991  1.00  0.00     0.039 A 
ATOM     35  C   UNL     1      -4.989  -1.712  10.680  1.00  0.00     0.014 A 
ATOM     36  C   UNL     1      -4.969  -2.997   8.630  1.00  0.00     0.014 A 
ATOM     37  C   UNL     1      -5.436  -0.606   9.958  1.00  0.00     0.010 A 
ATOM     38  C   UNL     1      -5.177  -1.864   7.900  1.00  0.00     0.010 A 
ATOM     39  C   UNL     1      -5.508  -0.689   8.560  1.00  0.00    -0.014 A 
BRANCH  39  40
ATOM     40  C   UNL     1      -5.855   0.457   7.732  1.00  0.00     0.031 A 
ATOM     41  C   UNL     1      -4.991   1.653   7.920  1.00  0.00     0.074 A 
ATOM     42  C   UNL     1      -6.715   0.349   6.694  1.00  0.00     0.049 A 
ATOM     43  N   UNL     1      -5.346   2.828   8.321  1.00  0.00    -0.248 NA
ATOM     44  C   UNL     1      -3.537   1.496   7.749  1.00  0.00     0.031 C 
ATOM     45  C   UNL     1      -7.394  -0.852   6.184  1.00  0.00     0.029 A 
ATOM     46  N   UNL     1      -7.072   1.289   5.781  1.00  0.00    -0.354 N 
ATOM     47  C   UNL     1      -4.198   3.613   8.276  1.00  0.00     0.074 A 
ATOM     48  C   UNL     1      -3.093   2.709   8.085  1.00  0.00     0.031 C 
ATOM     49  C   UNL     1      -7.859  -0.619   4.938  1.00  0.00     0.029 A 
ATOM     50  C   UNL     1      -7.674   0.786   4.635  1.00  0.00     0.049 A 
ATOM     51  H   UNL     1      -6.915   2.251   5.921  1.00  0.00     0.167 HD
ATOM     52  C   UNL     1      -4.275   4.968   8.161  1.00  0.00     0.037 A 
ATOM     53  C   UNL     1      -7.963   1.479   3.505  1.00  0.00     0.037 A 
ATOM     54  C   UNL     1      -5.589   5.449   8.506  1.00  0.00     0.049 A 
ATOM     55  C   UNL     1      -7.964   2.919   3.870  1.00  0.00     0.074 A 
ATOM     56  C   UNL     1      -6.376   5.355   9.639  1.00  0.00     0.029 A 
ATOM     57  N   UNL     1      -6.452   5.781   7.489  1.00  0.00    -0.354 N 
ATOM     58  N   UNL     1      -8.849   3.463   4.661  1.00  0.00    -0.248 NA
ATOM     59  C   UNL     1      -6.704   3.639   3.751  1.00  0.00     0.031 C 
ATOM     60  C   UNL     1      -7.692   5.104   9.148  1.00  0.00     0.029 A 
ATOM     61  C   UNL     1      -7.644   5.151   7.755  1.00  0.00     0.049 A 
ATOM     62  H   UNL     1      -6.254   6.359   6.717  1.00  0.00     0.167 HD
ATOM     63  C   UNL     1      -8.119   4.331   5.461  1.00  0.00     0.074 A 
ATOM     64  C   UNL     1      -6.818   4.453   4.804  1.00  0.00     0.031 C 
ATOM     65  C   UNL     1      -8.520   4.632   6.731  1.00  0.00     0.037 A 
BRANCH  52  66
ATOM     66  C   UNL     1      -3.274   5.809   7.411  1.00  0.00     0.064 A 
ATOM     67  C   UNL     1      -3.322   7.212   7.522  1.00  0.00     0.173 A 
ATOM     68  C   UNL     1      -2.455   5.308   6.375  1.00  0.00     0.173 A 
ATOM     69  F   UNL     1      -4.096   7.797   8.448  1.00  0.00    -0.203 F 
ATOM     70  C   UNL     1      -2.644   8.046   6.629  1.00  0.00     0.198 A 
ATOM     71  C   UNL     1      -1.734   6.141   5.523  1.00  0.00     0.198 A 
ATOM     72  F   UNL     1      -2.409   4.005   6.073  1.00  0.00    -0.203 F 
ATOM     73  F   UNL     1      -2.813   9.373   6.699  1.00  0.00    -0.200 F 
ATOM     74  C   UNL     1      -1.851   7.510   5.630  1.00  0.00     0.200 A 
ATOM     75  F   UNL     1      -0.991   5.601   4.547  1.00  0.00    -0.200 F 
ATOM     76  F   UNL     1      -1.243   8.306   4.741  1.00  0.00    -0.200 F 
ENDBRANCH  52  66
BRANCH  53  77
ATOM     77  C   UNL     1      -7.929   1.006   2.100  1.00  0.00     0.064 A 
ATOM     78  C   UNL     1      -8.520   1.755   1.070  1.00  0.00     0.173 A 
ATOM     79  C   UNL     1      -7.082  -0.047   1.698  1.00  0.00     0.173 A 
ATOM     80  F   UNL     1      -9.306   2.801   1.363  1.00  0.00    -0.203 F 
ATOM     81  C   UNL     1      -8.255   1.488  -0.279  1.00  0.00     0.198 A 
ATOM     82  C   UNL     1      -6.825  -0.318   0.353  1.00  0.00     0.198 A 
ATOM     83  F   UNL     1      -6.411  -0.774   2.603  1.00  0.00    -0.203 F 
ATOM     84  F   UNL     1      -8.787   2.267  -1.231  1.00  0.00    -0.200 F 
ATOM     85  C   UNL     1      -7.399   0.459  -0.635  1.00  0.00     0.200 A 
ATOM     86  F   UNL     1      -5.967  -1.293   0.022  1.00  0.00    -0.200 F 
ATOM     87  F   UNL     1      -7.096   0.244  -1.923  1.00  0.00    -0.200 F 
ENDBRANCH  53  77
BRANCH  65  88
ATOM     88  C   UNL     1      -9.888   4.179   7.173  1.00  0.00     0.064 A 
ATOM     89  C   UNL     1     -10.291   2.833   7.245  1.00  0.00     0.173 A 
ATOM     90  C   UNL     1     -10.770   5.135   7.694  1.00  0.00     0.173 A 
ATOM     91  F   UNL     1      -9.472   1.845   6.870  1.00  0.00    -0.203 F 
ATOM     92  C   UNL     1     -11.530   2.470   7.771  1.00  0.00     0.198 A 
ATOM     93  C   UNL     1     -11.991   4.768   8.254  1.00  0.00     0.198 A 
ATOM     94  F   UNL     1     -10.421   6.432   7.708  1.00  0.00    -0.203 F 
ATOM     95  F   UNL     1     -11.889   1.178   7.817  1.00  0.00    -0.200 F 
ATOM     96  C   UNL     1     -12.376   3.437   8.282  1.00  0.00     0.200 A 
ATOM     97  F   UNL     1     -12.783   5.704   8.794  1.00  0.00    -0.200 F 
ATOM     98  F   UNL     1     -13.549   3.087   8.828  1.00  0.00    -0.200 F 
ENDBRANCH  65  88
ENDBRANCH  39  40
ENDBRANCH  31  34
ENDBRANCH  29  30
ENDBRANCH  28  29
ENDBRANCH   1  28
TORSDOF 14
