REMARK SMILES C[C@]12c3ccccc3[C@](C)(c3ccccc31)[C@@H]1C(=O)N(c3ccc(C(=O)NCCCNC(=O)c4ccc(-c5c6nc(c(-c7c(F)c(F)c(F)c(F)c7F)c7ccc([nH]7)c(-c7c(F)c(F)c(F)c(F)c7F)c7nc(c(-c8c(F)c(F)c(F)c(F)c8F)c8ccc5[nH]8)C=C7)C=C6)cc4)cc3)C(=O)[C@H]12
REMARK SMILES IDX 29 1 28 2 27 3 25 4 26 5 24 7 21 8 22 9 98 10 23 11 97 12
REMARK SMILES IDX 20 13 1 14 2 15 16 16 3 17 101 18 15 19 11 20 8 21 4 22
REMARK SMILES IDX 17 23 99 24 14 25 12 26 9 27 7 28 5 29 18 30 100 31 13 32
REMARK SMILES IDX 10 33 6 34 19 35 30 36 31 37 32 38 33 40 34 41 35 42 96 43
REMARK SMILES IDX 36 44 95 45 37 46 38 47 39 48 89 49 40 50 94 51 88 52 90 53
REMARK SMILES IDX 41 54 93 55 87 56 86 57 42 59 74 60 54 61 73 62 55 63 58 64
REMARK SMILES IDX 72 65 91 66 56 67 57 68 71 70 92 71 59 72 43 73 44 74 52 75
REMARK SMILES IDX 45 76 46 77 50 78 53 79 47 80 48 81 51 82 49 83 75 84 76 85
REMARK SMILES IDX 84 86 77 87 78 88 82 89 85 90 79 91 80 92 83 93 81 94 60 95
REMARK SMILES IDX 61 96 69 97 62 98 63 99 67 100 70 101 64 102 65 103 68 104
REMARK SMILES IDX 66 105
REMARK H PARENT 27 6 31 39 90 58 58 69
REMARK Flexibility Score: inf
ROOT
ATOM      1  C   UNL     1      -3.577   4.240   7.852  1.00  0.00     0.042 C 
ENDROOT
BRANCH   1   2
ATOM      2  C   UNL     1      -4.450   4.030   6.628  1.00  0.00     0.118 C 
BRANCH   2   3
ATOM      3  N   UNL     1      -4.497   5.185   5.743  1.00  0.00    -0.352 N 
ATOM      4  C   UNL     1      -4.245   5.312   4.399  1.00  0.00     0.251 C 
ATOM      5  O   UNL     1      -4.277   6.432   3.894  1.00  0.00    -0.269 OA
ATOM      6  H   UNL     1      -4.756   6.025   6.187  1.00  0.00     0.163 HD
BRANCH   4   7
ATOM      7  C   UNL     1      -3.875   4.144   3.567  1.00  0.00     0.039 A 
ATOM      8  C   UNL     1      -2.870   1.928   2.157  1.00  0.00     0.052 A 
ATOM      9  C   UNL     1      -2.401   3.220   1.883  1.00  0.00     0.027 A 
ATOM     10  C   UNL     1      -3.930   1.781   3.061  1.00  0.00     0.027 A 
ATOM     11  C   UNL     1      -2.905   4.323   2.578  1.00  0.00     0.016 A 
ATOM     12  C   UNL     1      -4.447   2.885   3.740  1.00  0.00     0.016 A 
BRANCH   8  13
ATOM     13  N   UNL     1      -2.252   0.792   1.587  1.00  0.00    -0.250 N 
ATOM     14  C   UNL     1       1.648  -0.513  -0.284  1.00  0.00     0.022 C 
ATOM     15  C   UNL     1       0.466  -1.393   0.119  1.00  0.00     0.030 C 
ATOM     16  C   UNL     1       0.762  -2.443   1.221  1.00  0.00    -0.033 A 
ATOM     17  C   UNL     1      -0.144  -2.239  -1.045  1.00  0.00    -0.033 A 
ATOM     18  C   UNL     1      -0.784  -0.553   0.469  1.00  0.00     0.108 C 
ATOM     19  C   UNL     1       1.990  -2.657   1.840  1.00  0.00     0.005 A 
ATOM     20  C   UNL     1      -0.351  -3.297   1.539  1.00  0.00    -0.033 A 
ATOM     21  C   UNL     1      -1.341  -2.943  -0.672  1.00  0.00    -0.033 A 
ATOM     22  C   UNL     1       0.345  -2.315  -2.346  1.00  0.00     0.005 A 
ATOM     23  C   UNL     1      -1.726  -1.404   1.321  1.00  0.00     0.108 C 
ATOM     24  C   UNL     1      -0.902   0.740   1.207  1.00  0.00     0.238 C 
ATOM     25  C   UNL     1       2.120  -3.710   2.750  1.00  0.00     0.000 A 
ATOM     26  C   UNL     1      -0.203  -4.350   2.437  1.00  0.00     0.005 A 
ATOM     27  C   UNL     1      -1.679  -2.868   0.836  1.00  0.00     0.030 C 
ATOM     28  C   UNL     1      -2.032  -3.679  -1.629  1.00  0.00     0.005 A 
ATOM     29  C   UNL     1      -0.356  -3.070  -3.286  1.00  0.00     0.000 A 
ATOM     30  C   UNL     1      -2.873  -0.458   1.445  1.00  0.00     0.238 C 
ATOM     31  O   UNL     1      -0.010   1.557   1.363  1.00  0.00    -0.274 OA
ATOM     32  C   UNL     1       1.039  -4.553   3.038  1.00  0.00     0.000 A 
ATOM     33  C   UNL     1      -2.915  -3.651   1.274  1.00  0.00     0.022 C 
ATOM     34  C   UNL     1      -1.537  -3.735  -2.934  1.00  0.00     0.000 A 
ATOM     35  O   UNL     1      -4.047  -0.766   1.529  1.00  0.00    -0.274 OA
ENDBRANCH   8  13
ENDBRANCH   4   7
ENDBRANCH   2   3
ENDBRANCH   1   2
BRANCH   1  36
ATOM     36  C   UNL     1      -4.020   5.384   8.746  1.00  0.00     0.118 C 
BRANCH  36  37
ATOM     37  N   UNL     1      -5.310   5.151   9.390  1.00  0.00    -0.352 N 
ATOM     38  C   UNL     1      -5.628   4.828  10.690  1.00  0.00     0.251 C 
ATOM     39  H   UNL     1      -6.086   5.241   8.791  1.00  0.00     0.163 HD
ATOM     40  O   UNL     1      -6.782   4.524  10.980  1.00  0.00    -0.269 OA
BRANCH  38  41
ATOM     41  C   UNL     1      -4.577   4.796  11.729  1.00  0.00     0.039 A 
ATOM     42  C   UNL     1      -3.574   5.760  11.752  1.00  0.00     0.014 A 
ATOM     43  C   UNL     1      -4.569   3.765  12.674  1.00  0.00     0.014 A 
ATOM     44  C   UNL     1      -2.435   5.545  12.512  1.00  0.00     0.010 A 
ATOM     45  C   UNL     1      -3.487   3.636  13.551  1.00  0.00     0.010 A 
ATOM     46  C   UNL     1      -2.374   4.481  13.427  1.00  0.00    -0.014 A 
BRANCH  46  47
ATOM     47  C   UNL     1      -1.136   4.285  14.226  1.00  0.00     0.031 A 
ATOM     48  C   UNL     1      -0.345   3.007  14.130  1.00  0.00     0.074 A 
ATOM     49  C   UNL     1      -0.684   5.297  14.992  1.00  0.00     0.049 A 
ATOM     50  N   UNL     1       0.764   2.674  14.745  1.00  0.00    -0.248 NA
ATOM     51  C   UNL     1      -0.864   1.961  13.236  1.00  0.00     0.031 C 
ATOM     52  C   UNL     1      -1.352   6.591  15.153  1.00  0.00     0.029 A 
ATOM     53  N   UNL     1       0.453   5.416  15.750  1.00  0.00    -0.354 N 
ATOM     54  C   UNL     1       1.056   1.380  14.333  1.00  0.00     0.074 A 
ATOM     55  C   UNL     1      -0.008   0.971  13.443  1.00  0.00     0.031 C 
ATOM     56  C   UNL     1      -0.582   7.394  15.898  1.00  0.00     0.029 A 
ATOM     57  C   UNL     1       0.588   6.647  16.344  1.00  0.00     0.049 A 
ATOM     58  H   UNL     1       1.109   4.690  15.858  1.00  0.00     0.167 HD
ATOM     59  C   UNL     1       2.124   0.610  14.657  1.00  0.00     0.037 A 
ATOM     60  C   UNL     1       1.533   7.121  17.177  1.00  0.00     0.037 A 
ATOM     61  C   UNL     1       3.194   1.035  15.523  1.00  0.00     0.049 A 
ATOM     62  C   UNL     1       2.675   6.229  17.565  1.00  0.00     0.074 A 
ATOM     63  C   UNL     1       4.333   0.340  15.889  1.00  0.00     0.029 A 
ATOM     64  N   UNL     1       3.256   2.267  16.162  1.00  0.00    -0.354 N 
ATOM     65  N   UNL     1       2.944   5.012  17.162  1.00  0.00    -0.248 NA
ATOM     66  C   UNL     1       3.638   6.771  18.532  1.00  0.00     0.031 C 
ATOM     67  C   UNL     1       5.052   1.123  16.796  1.00  0.00     0.029 A 
ATOM     68  C   UNL     1       4.397   2.335  16.946  1.00  0.00     0.049 A 
ATOM     69  H   UNL     1       2.589   2.985  16.070  1.00  0.00     0.167 HD
ATOM     70  C   UNL     1       4.111   4.643  17.815  1.00  0.00     0.074 A 
ATOM     71  C   UNL     1       4.511   5.777  18.623  1.00  0.00     0.031 C 
ATOM     72  C   UNL     1       4.783   3.468  17.752  1.00  0.00     0.037 A 
BRANCH  59  73
ATOM     73  C   UNL     1       2.186  -0.781  14.090  1.00  0.00     0.064 A 
ATOM     74  C   UNL     1       2.412  -1.017  12.725  1.00  0.00     0.173 A 
ATOM     75  C   UNL     1       2.075  -1.897  14.935  1.00  0.00     0.173 A 
ATOM     76  F   UNL     1       2.516   0.011  11.870  1.00  0.00    -0.203 F 
ATOM     77  C   UNL     1       2.497  -2.315  12.225  1.00  0.00     0.198 A 
ATOM     78  C   UNL     1       2.194  -3.192  14.437  1.00  0.00     0.198 A 
ATOM     79  F   UNL     1       1.867  -1.732  16.250  1.00  0.00    -0.203 F 
ATOM     80  F   UNL     1       2.665  -2.515  10.911  1.00  0.00    -0.200 F 
ATOM     81  C   UNL     1       2.398  -3.401  13.082  1.00  0.00     0.200 A 
ATOM     82  F   UNL     1       2.115  -4.239  15.271  1.00  0.00    -0.200 F 
ATOM     83  F   UNL     1       2.493  -4.648  12.601  1.00  0.00    -0.200 F 
ENDBRANCH  59  73
BRANCH  60  84
ATOM     84  C   UNL     1       1.417   8.511  17.688  1.00  0.00     0.064 A 
ATOM     85  C   UNL     1       2.309   9.508  17.273  1.00  0.00     0.173 A 
ATOM     86  C   UNL     1       0.371   8.887  18.547  1.00  0.00     0.173 A 
ATOM     87  F   UNL     1       3.334   9.195  16.466  1.00  0.00    -0.203 F 
ATOM     88  C   UNL     1       2.157  10.828  17.692  1.00  0.00     0.198 A 
ATOM     89  C   UNL     1       0.202  10.212  18.939  1.00  0.00     0.198 A 
ATOM     90  F   UNL     1      -0.514   7.971  18.968  1.00  0.00    -0.203 F 
ATOM     91  F   UNL     1       3.036  11.759  17.296  1.00  0.00    -0.200 F 
ATOM     92  C   UNL     1       1.096  11.181  18.513  1.00  0.00     0.200 A 
ATOM     93  F   UNL     1      -0.839  10.551  19.712  1.00  0.00    -0.200 F 
ATOM     94  F   UNL     1       0.935  12.456  18.892  1.00  0.00    -0.200 F 
ENDBRANCH  60  84
BRANCH  72  95
ATOM     95  C   UNL     1       6.034   3.341  18.572  1.00  0.00     0.064 A 
ATOM     96  C   UNL     1       5.986   3.231  19.970  1.00  0.00     0.173 A 
ATOM     97  C   UNL     1       7.289   3.252  17.949  1.00  0.00     0.173 A 
ATOM     98  F   UNL     1       4.813   3.325  20.614  1.00  0.00    -0.203 F 
ATOM     99  C   UNL     1       7.149   3.051  20.714  1.00  0.00     0.198 A 
ATOM    100  C   UNL     1       8.445   3.038  18.694  1.00  0.00     0.198 A 
ATOM    101  F   UNL     1       7.389   3.343  16.615  1.00  0.00    -0.203 F 
ATOM    102  F   UNL     1       7.082   2.986  22.051  1.00  0.00    -0.200 F 
ATOM    103  C   UNL     1       8.375   2.942  20.075  1.00  0.00     0.200 A 
ATOM    104  F   UNL     1       9.627   2.915  18.073  1.00  0.00    -0.200 F 
ATOM    105  F   UNL     1       9.490   2.747  20.792  1.00  0.00    -0.200 F 
ENDBRANCH  72  95
ENDBRANCH  46  47
ENDBRANCH  38  41
ENDBRANCH  36  37
ENDBRANCH   1  36
TORSDOF 11
