REMARK SMILES CC(C)n1cncc1[C@@H](O)[C@H](C)C(=O)NCCCNC(=O)c1ccc(-c2c3nc(c(-c4c(F)c(F)c(F)c(F)c4F)c4ccc([nH]4)c(-c4c(F)c(F)c(F)c(F)c4F)c4nc(c(-c5c(F)c(F)c(F)c(F)c5F)c5ccc2[nH]5)C=C4)C=C3)cc1
REMARK SMILES IDX 16 1 15 2 13 3 14 4 11 6 12 7 9 8 8 9 4 10 5 11 6 12 7 13
REMARK SMILES IDX 2 14 1 15 3 16 10 17 17 19 18 20 19 21 20 22 21 24 22 25
REMARK SMILES IDX 23 26 84 27 24 28 83 29 25 30 26 31 27 32 77 33 28 34 82 35
REMARK SMILES IDX 76 36 78 37 29 38 81 39 75 40 74 41 30 43 62 44 42 45 61 46
REMARK SMILES IDX 43 47 46 48 60 49 79 50 44 51 45 52 59 54 80 55 47 56 31 57
REMARK SMILES IDX 32 58 40 59 33 60 34 61 38 62 41 63 35 64 36 65 39 66 37 67
REMARK SMILES IDX 63 68 64 69 72 70 65 71 66 72 70 73 73 74 67 75 68 76 71 77
REMARK SMILES IDX 69 78 48 79 49 80 57 81 50 82 51 83 55 84 58 85 52 86 53 87
REMARK SMILES IDX 56 88 54 89
REMARK H PARENT 15 5 10 18 19 23 78 42 46 53
REMARK Flexibility Score: inf
ROOT
ATOM      1  C   UNL     1       1.268   4.698   2.164  1.00  0.00     0.117 C 
ENDROOT
BRANCH   1   2
ATOM      2  N   UNL     1       0.199   5.668   2.006  1.00  0.00    -0.356 N 
ATOM      3  C   UNL     1      -1.145   5.481   2.162  1.00  0.00     0.225 C 
ATOM      4  O   UNL     1      -1.866   6.483   2.198  1.00  0.00    -0.275 OA
ATOM      5  H   UNL     1       0.478   6.577   1.752  1.00  0.00     0.163 HD
BRANCH   3   6
ATOM      6  C   UNL     1      -1.761   4.086   2.201  1.00  0.00     0.110 C 
ATOM      7  C   UNL     1      -1.615   3.414   0.833  1.00  0.00     0.021 C 
BRANCH   6   8
ATOM      8  C   UNL     1      -1.468   3.274   3.493  1.00  0.00     0.175 C 
BRANCH   8   9
ATOM      9  C   UNL     1      -1.164   1.815   3.330  1.00  0.00     0.067 A 
ATOM     10  N   UNL     1      -1.767   0.742   3.966  1.00  0.00    -0.330 N 
ATOM     11  C   UNL     1      -1.256  -0.397   3.373  1.00  0.00     0.199 A 
ATOM     12  N   UNL     1      -0.270  -0.138   2.555  1.00  0.00    -0.245 NA
ATOM     13  C   UNL     1      -0.187   1.218   2.542  1.00  0.00     0.137 A 
BRANCH  10  14
ATOM     14  C   UNL     1      -2.736   0.635   5.061  1.00  0.00     0.082 C 
ATOM     15  C   UNL     1      -2.190  -0.266   6.184  1.00  0.00     0.031 C 
ATOM     16  C   UNL     1      -3.239   1.922   5.716  1.00  0.00     0.031 C 
ENDBRANCH  10  14
ENDBRANCH   8   9
BRANCH   8  17
ATOM     17  O   UNL     1      -0.421   3.805   4.299  1.00  0.00    -0.386 OA
ATOM     18  H   UNL     1       0.426   3.699   3.839  1.00  0.00     0.211 HD
ENDBRANCH   8  17
ENDBRANCH   6   8
ENDBRANCH   3   6
ENDBRANCH   1   2
BRANCH   1  19
ATOM     19  C   UNL     1       2.129   4.492   0.926  1.00  0.00     0.042 C 
BRANCH  19  20
ATOM     20  C   UNL     1       3.084   5.640   0.691  1.00  0.00     0.118 C 
BRANCH  20  21
ATOM     21  N   UNL     1       4.082   5.774   1.753  1.00  0.00    -0.352 N 
ATOM     22  C   UNL     1       5.011   6.785   1.920  1.00  0.00     0.251 C 
ATOM     23  H   UNL     1       4.093   5.059   2.430  1.00  0.00     0.163 HD
ATOM     24  O   UNL     1       5.988   6.647   2.626  1.00  0.00    -0.269 OA
BRANCH  22  25
ATOM     25  C   UNL     1       4.782   8.040   1.182  1.00  0.00     0.039 A 
ATOM     26  C   UNL     1       5.800   8.607   0.418  1.00  0.00     0.014 A 
ATOM     27  C   UNL     1       3.491   8.565   1.174  1.00  0.00     0.014 A 
ATOM     28  C   UNL     1       5.474   9.646  -0.446  1.00  0.00     0.010 A 
ATOM     29  C   UNL     1       3.142   9.475   0.207  1.00  0.00     0.010 A 
ATOM     30  C   UNL     1       4.131  10.048  -0.583  1.00  0.00    -0.014 A 
BRANCH  30  31
ATOM     31  C   UNL     1       3.759  10.992  -1.631  1.00  0.00     0.031 A 
ATOM     32  C   UNL     1       4.297  10.671  -2.980  1.00  0.00     0.074 A 
ATOM     33  C   UNL     1       2.889  12.011  -1.469  1.00  0.00     0.049 A 
ATOM     34  N   UNL     1       5.248  11.287  -3.599  1.00  0.00    -0.248 NA
ATOM     35  C   UNL     1       3.825   9.461  -3.668  1.00  0.00     0.031 C 
ATOM     36  C   UNL     1       2.023  12.310  -0.325  1.00  0.00     0.029 A 
ATOM     37  N   UNL     1       2.544  12.977  -2.366  1.00  0.00    -0.354 N 
ATOM     38  C   UNL     1       5.375  10.667  -4.838  1.00  0.00     0.074 A 
ATOM     39  C   UNL     1       4.597   9.458  -4.759  1.00  0.00     0.031 C 
ATOM     40  C   UNL     1       1.106  13.238  -0.679  1.00  0.00     0.029 A 
ATOM     41  C   UNL     1       1.438  13.732  -2.001  1.00  0.00     0.049 A 
ATOM     42  H   UNL     1       3.039  13.127  -3.204  1.00  0.00     0.167 HD
ATOM     43  C   UNL     1       5.924  11.336  -5.890  1.00  0.00     0.037 A 
ATOM     44  C   UNL     1       0.836  14.699  -2.734  1.00  0.00     0.037 A 
ATOM     45  C   UNL     1       6.639  12.506  -5.436  1.00  0.00     0.049 A 
ATOM     46  C   UNL     1       1.821  15.172  -3.735  1.00  0.00     0.074 A 
ATOM     47  C   UNL     1       7.703  12.729  -4.582  1.00  0.00     0.029 A 
ATOM     48  N   UNL     1       6.020  13.723  -5.578  1.00  0.00    -0.354 N 
ATOM     49  N   UNL     1       2.890  15.855  -3.436  1.00  0.00    -0.248 NA
ATOM     50  C   UNL     1       1.838  14.521  -5.034  1.00  0.00     0.031 C 
ATOM     51  C   UNL     1       7.372  13.930  -3.884  1.00  0.00     0.029 A 
ATOM     52  C   UNL     1       6.168  14.409  -4.402  1.00  0.00     0.049 A 
ATOM     53  H   UNL     1       5.552  14.046  -6.382  1.00  0.00     0.167 HD
ATOM     54  C   UNL     1       3.869  15.347  -4.274  1.00  0.00     0.074 A 
ATOM     55  C   UNL     1       3.141  14.622  -5.312  1.00  0.00     0.031 C 
ATOM     56  C   UNL     1       5.177  15.323  -3.884  1.00  0.00     0.037 A 
BRANCH  43  57
ATOM     57  C   UNL     1       5.491  11.188  -7.333  1.00  0.00     0.064 A 
ATOM     58  C   UNL     1       6.184  11.913  -8.327  1.00  0.00     0.173 A 
ATOM     59  C   UNL     1       4.254  10.643  -7.736  1.00  0.00     0.173 A 
ATOM     60  F   UNL     1       7.371  12.479  -8.060  1.00  0.00    -0.203 F 
ATOM     61  C   UNL     1       5.626  12.168  -9.583  1.00  0.00     0.198 A 
ATOM     62  C   UNL     1       3.725  10.856  -9.009  1.00  0.00     0.198 A 
ATOM     63  F   UNL     1       3.452   9.985  -6.894  1.00  0.00    -0.203 F 
ATOM     64  F   UNL     1       6.257  12.986 -10.436  1.00  0.00    -0.200 F 
ATOM     65  C   UNL     1       4.391  11.649  -9.918  1.00  0.00     0.200 A 
ATOM     66  F   UNL     1       2.518  10.356  -9.310  1.00  0.00    -0.200 F 
ATOM     67  F   UNL     1       3.820  11.952 -11.091  1.00  0.00    -0.200 F 
ENDBRANCH  43  57
BRANCH  44  68
ATOM     68  C   UNL     1      -0.593  15.074  -2.796  1.00  0.00     0.064 A 
ATOM     69  C   UNL     1      -0.993  16.293  -3.367  1.00  0.00     0.173 A 
ATOM     70  C   UNL     1      -1.603  14.118  -2.580  1.00  0.00     0.173 A 
ATOM     71  F   UNL     1      -0.085  17.242  -3.636  1.00  0.00    -0.203 F 
ATOM     72  C   UNL     1      -2.318  16.523  -3.747  1.00  0.00     0.198 A 
ATOM     73  C   UNL     1      -2.927  14.352  -2.954  1.00  0.00     0.198 A 
ATOM     74  F   UNL     1      -1.307  12.902  -2.099  1.00  0.00    -0.203 F 
ATOM     75  F   UNL     1      -2.647  17.668  -4.361  1.00  0.00    -0.200 F 
ATOM     76  C   UNL     1      -3.281  15.547  -3.554  1.00  0.00     0.200 A 
ATOM     77  F   UNL     1      -3.844  13.386  -2.796  1.00  0.00    -0.200 F 
ATOM     78  F   UNL     1      -4.535  15.738  -3.986  1.00  0.00    -0.200 F 
ENDBRANCH  44  68
BRANCH  56  79
ATOM     79  C   UNL     1       5.568  16.158  -2.695  1.00  0.00     0.064 A 
ATOM     80  C   UNL     1       5.047  16.001  -1.399  1.00  0.00     0.173 A 
ATOM     81  C   UNL     1       6.598  17.094  -2.865  1.00  0.00     0.173 A 
ATOM     82  F   UNL     1       4.135  15.059  -1.126  1.00  0.00    -0.203 F 
ATOM     83  C   UNL     1       5.498  16.789  -0.340  1.00  0.00     0.198 A 
ATOM     84  C   UNL     1       7.075  17.849  -1.798  1.00  0.00     0.198 A 
ATOM     85  F   UNL     1       7.171  17.253  -4.069  1.00  0.00    -0.203 F 
ATOM     86  F   UNL     1       4.965  16.642   0.883  1.00  0.00    -0.200 F 
ATOM     87  C   UNL     1       6.514  17.708  -0.540  1.00  0.00     0.200 A 
ATOM     88  F   UNL     1       8.092  18.701  -1.988  1.00  0.00    -0.200 F 
ATOM     89  F   UNL     1       6.970  18.444   0.484  1.00  0.00    -0.200 F 
ENDBRANCH  56  79
ENDBRANCH  30  31
ENDBRANCH  22  25
ENDBRANCH  20  21
ENDBRANCH  19  20
ENDBRANCH   1  19
TORSDOF 14
