REMARK SMILES O=C(NCCCNC(=O)c1[nH]ncc1C[N@H+]1CCC[C@@H](C(=O)c2ccc(Oc3ccccc3)cc2)C1)c1ccc(-c2c3nc(c(-c4c(F)c(F)c(F)c(F)c4F)c4ccc([nH]4)c(-c4c(F)c(F)c(F)c(F)c4F)c4nc(c(-c5c(F)c(F)c(F)c(F)c5F)c5ccc2[nH]5)C=C4)C=C3)cc1
REMARK SMILES IDX 7 1 8 2 9 3 6 5 5 6 4 7 3 8 1 9 2 10 37 12 38 13 99 14 39 15
REMARK SMILES IDX 98 16 40 17 41 18 42 19 92 20 43 21 97 22 91 23 93 24 44 25
REMARK SMILES IDX 96 26 90 27 89 28 45 30 77 31 57 32 76 33 58 34 61 35 75 36
REMARK SMILES IDX 94 37 59 38 60 39 74 41 95 42 62 43 46 44 47 45 55 46 48 47
REMARK SMILES IDX 49 48 53 49 56 50 50 51 51 52 54 53 52 54 78 55 79 56 87 57
REMARK SMILES IDX 80 58 81 59 85 60 88 61 82 62 83 63 86 64 84 65 63 66 64 67
REMARK SMILES IDX 72 68 65 69 66 70 70 71 73 72 67 73 68 74 71 75 69 76 10 77
REMARK SMILES IDX 11 78 14 79 12 80 13 82 15 83 16 84 17 85 36 86 18 88 20 89
REMARK SMILES IDX 19 90 21 91 22 92 23 93 24 94 35 95 25 96 34 97 26 98 27 99
REMARK SMILES IDX 28 100 29 101 33 102 30 103 32 104 31 105
REMARK H PARENT 7 4 3 11 93 29 61 40 11 81 16 87
REMARK Flexibility Score: inf
ROOT
ATOM      1  N   UNL     1       4.892   0.672   4.355  1.00  0.00    -0.351 N 
ATOM      2  C   UNL     1       5.779   0.874   5.378  1.00  0.00     0.269 C 
ATOM      3  O   UNL     1       6.247  -0.113   5.948  1.00  0.00    -0.268 OA
ATOM      4  H   UNL     1       4.506  -0.233   4.306  1.00  0.00     0.163 HD
ENDROOT
BRANCH   1   5
ATOM      5  C   UNL     1       4.436   1.599   3.328  1.00  0.00     0.118 C 
BRANCH   5   6
ATOM      6  C   UNL     1       4.993   1.270   1.956  1.00  0.00     0.042 C 
BRANCH   6   7
ATOM      7  C   UNL     1       4.566  -0.095   1.444  1.00  0.00     0.118 C 
BRANCH   7   8
ATOM      8  N   UNL     1       3.128  -0.188   1.226  1.00  0.00    -0.352 N 
ATOM      9  O   UNL     1       1.175  -0.060   0.117  1.00  0.00    -0.269 OA
ATOM     10  C   UNL     1       2.395  -0.178   0.064  1.00  0.00     0.251 C 
ATOM     11  H   UNL     1       2.592  -0.271   2.047  1.00  0.00     0.163 HD
BRANCH  10  12
ATOM     12  C   UNL     1       3.066  -0.289  -1.250  1.00  0.00     0.039 A 
ATOM     13  C   UNL     1       4.146  -1.151  -1.430  1.00  0.00     0.014 A 
ATOM     14  C   UNL     1       2.581   0.454  -2.331  1.00  0.00     0.014 A 
ATOM     15  C   UNL     1       4.852  -1.137  -2.624  1.00  0.00     0.010 A 
ATOM     16  C   UNL     1       3.221   0.377  -3.572  1.00  0.00     0.010 A 
ATOM     17  C   UNL     1       4.383  -0.395  -3.719  1.00  0.00    -0.014 A 
BRANCH  17  18
ATOM     18  C   UNL     1       5.089  -0.513  -5.018  1.00  0.00     0.031 A 
ATOM     19  C   UNL     1       5.769   0.669  -5.646  1.00  0.00     0.074 A 
ATOM     20  C   UNL     1       5.153  -1.725  -5.602  1.00  0.00     0.049 A 
ATOM     21  N   UNL     1       6.452   0.727  -6.762  1.00  0.00    -0.248 NA
ATOM     22  C   UNL     1       5.668   1.954  -4.939  1.00  0.00     0.031 C 
ATOM     23  C   UNL     1       4.522  -2.942  -5.083  1.00  0.00     0.029 A 
ATOM     24  N   UNL     1       5.797  -2.146  -6.737  1.00  0.00    -0.354 N 
ATOM     25  C   UNL     1       6.841   2.052  -6.902  1.00  0.00     0.074 A 
ATOM     26  C   UNL     1       6.303   2.772  -5.768  1.00  0.00     0.031 C 
ATOM     27  C   UNL     1       4.865  -3.981  -5.857  1.00  0.00     0.029 A 
ATOM     28  C   UNL     1       5.676  -3.494  -6.965  1.00  0.00     0.049 A 
ATOM     29  H   UNL     1       6.297  -1.540  -7.330  1.00  0.00     0.167 HD
ATOM     30  C   UNL     1       7.586   2.610  -7.887  1.00  0.00     0.037 A 
ATOM     31  C   UNL     1       6.154  -4.256  -7.965  1.00  0.00     0.037 A 
ATOM     32  C   UNL     1       8.136   1.882  -9.001  1.00  0.00     0.049 A 
ATOM     33  C   UNL     1       6.962  -3.605  -9.049  1.00  0.00     0.074 A 
ATOM     34  C   UNL     1       8.923   2.353 -10.038  1.00  0.00     0.029 A 
ATOM     35  N   UNL     1       7.958   0.523  -9.222  1.00  0.00    -0.354 N 
ATOM     36  N   UNL     1       7.329  -2.353  -9.164  1.00  0.00    -0.248 NA
ATOM     37  C   UNL     1       7.412  -4.471 -10.146  1.00  0.00     0.031 C 
ATOM     38  C   UNL     1       9.190   1.288 -10.905  1.00  0.00     0.029 A 
ATOM     39  C   UNL     1       8.605   0.144 -10.387  1.00  0.00     0.049 A 
ATOM     40  H   UNL     1       7.447  -0.082  -8.637  1.00  0.00     0.167 HD
ATOM     41  C   UNL     1       8.058  -2.278 -10.341  1.00  0.00     0.074 A 
ATOM     42  C   UNL     1       8.102  -3.618 -10.890  1.00  0.00     0.031 C 
ATOM     43  C   UNL     1       8.633  -1.195 -10.918  1.00  0.00     0.037 A 
BRANCH  30  44
ATOM     44  C   UNL     1       7.840   4.088  -7.815  1.00  0.00     0.064 A 
ATOM     45  C   UNL     1       8.735   4.637  -6.885  1.00  0.00     0.173 A 
ATOM     46  C   UNL     1       7.218   4.959  -8.722  1.00  0.00     0.173 A 
ATOM     47  F   UNL     1       9.345   3.848  -5.988  1.00  0.00    -0.203 F 
ATOM     48  C   UNL     1       8.984   6.007  -6.855  1.00  0.00     0.198 A 
ATOM     49  C   UNL     1       7.488   6.325  -8.704  1.00  0.00     0.198 A 
ATOM     50  F   UNL     1       6.357   4.484  -9.635  1.00  0.00    -0.203 F 
ATOM     51  F   UNL     1       9.815   6.515  -5.934  1.00  0.00    -0.200 F 
ATOM     52  C   UNL     1       8.366   6.849  -7.768  1.00  0.00     0.200 A 
ATOM     53  F   UNL     1       6.897   7.136  -9.594  1.00  0.00    -0.200 F 
ATOM     54  F   UNL     1       8.613   8.166  -7.742  1.00  0.00    -0.200 F 
ENDBRANCH  30  44
BRANCH  31  55
ATOM     55  C   UNL     1       5.872  -5.713  -7.978  1.00  0.00     0.064 A 
ATOM     56  C   UNL     1       6.891  -6.645  -7.744  1.00  0.00     0.173 A 
ATOM     57  C   UNL     1       4.574  -6.200  -8.193  1.00  0.00     0.173 A 
ATOM     58  F   UNL     1       8.150  -6.227  -7.550  1.00  0.00    -0.203 F 
ATOM     59  C   UNL     1       6.622  -8.012  -7.730  1.00  0.00     0.198 A 
ATOM     60  C   UNL     1       4.303  -7.565  -8.151  1.00  0.00     0.198 A 
ATOM     61  F   UNL     1       3.565  -5.345  -8.415  1.00  0.00    -0.203 F 
ATOM     62  F   UNL     1       7.619  -8.886  -7.534  1.00  0.00    -0.200 F 
ATOM     63  C   UNL     1       5.328  -8.470  -7.926  1.00  0.00     0.200 A 
ATOM     64  F   UNL     1       3.047  -8.001  -8.322  1.00  0.00    -0.200 F 
ATOM     65  F   UNL     1       5.068  -9.784  -7.899  1.00  0.00    -0.200 F 
ENDBRANCH  31  55
BRANCH  43  66
ATOM     66  C   UNL     1       9.369  -1.425 -12.202  1.00  0.00     0.064 A 
ATOM     67  C   UNL     1       8.686  -1.656 -13.405  1.00  0.00     0.173 A 
ATOM     68  C   UNL     1      10.771  -1.393 -12.234  1.00  0.00     0.173 A 
ATOM     69  F   UNL     1       7.346  -1.714 -13.419  1.00  0.00    -0.203 F 
ATOM     70  C   UNL     1       9.382  -1.869 -14.591  1.00  0.00     0.198 A 
ATOM     71  C   UNL     1      11.462  -1.581 -13.426  1.00  0.00     0.198 A 
ATOM     72  F   UNL     1      11.468  -1.173 -11.109  1.00  0.00    -0.203 F 
ATOM     73  F   UNL     1       8.711  -2.132 -15.721  1.00  0.00    -0.200 F 
ATOM     74  C   UNL     1      10.768  -1.826 -14.602  1.00  0.00     0.200 A 
ATOM     75  F   UNL     1      12.802  -1.532 -13.437  1.00  0.00    -0.200 F 
ATOM     76  F   UNL     1      11.436  -2.030 -15.745  1.00  0.00    -0.200 F 
ENDBRANCH  43  66
ENDBRANCH  17  18
ENDBRANCH  10  12
ENDBRANCH   7   8
ENDBRANCH   6   7
ENDBRANCH   5   6
ENDBRANCH   1   5
BRANCH   2  77
ATOM     77  C   UNL     1       6.176   2.209   5.704  1.00  0.00     0.131 A 
ATOM     78  N   UNL     1       7.481   2.523   5.970  1.00  0.00    -0.272 N 
ATOM     79  C   UNL     1       5.463   3.389   5.885  1.00  0.00     0.057 A 
ATOM     80  N   UNL     1       7.704   3.840   6.085  1.00  0.00    -0.183 NA
ATOM     81  H   UNL     1       8.189   1.846   6.068  1.00  0.00     0.190 HD
ATOM     82  C   UNL     1       6.480   4.365   6.035  1.00  0.00     0.145 A 
BRANCH  79  83
ATOM     83  C   UNL     1       3.980   3.593   5.827  1.00  0.00     0.303 C 
BRANCH  83  84
ATOM     84  N   UNL     1       3.356   4.032   7.074  1.00  0.00    -0.330 N 
ATOM     85  C   UNL     1       3.483   3.074   8.174  1.00  0.00     0.262 C 
ATOM     86  C   UNL     1       3.728   5.387   7.466  1.00  0.00     0.274 C 
ATOM     87  H   UNL     1       2.359   4.065   6.859  1.00  0.00     0.348 HD
ATOM     88  C   UNL     1       2.607   3.509   9.352  1.00  0.00     0.062 C 
ATOM     89  C   UNL     1       2.853   5.906   8.612  1.00  0.00     0.116 C 
ATOM     90  C   UNL     1       2.930   4.935   9.798  1.00  0.00     0.023 C 
BRANCH  89  91
ATOM     91  C   UNL     1       3.341   7.306   8.982  1.00  0.00     0.171 C 
ATOM     92  O   UNL     1       3.824   7.591  10.073  1.00  0.00    -0.294 OA
BRANCH  91  93
ATOM     93  C   UNL     1       3.295   8.352   7.926  1.00  0.00     0.018 A 
ATOM     94  C   UNL     1       4.440   9.121   7.699  1.00  0.00     0.015 A 
ATOM     95  C   UNL     1       2.164   8.520   7.122  1.00  0.00     0.015 A 
ATOM     96  C   UNL     1       4.452  10.053   6.659  1.00  0.00     0.048 A 
ATOM     97  C   UNL     1       2.183   9.453   6.080  1.00  0.00     0.048 A 
ATOM     98  C   UNL     1       3.322  10.233   5.854  1.00  0.00     0.127 A 
BRANCH  98  99
ATOM     99  O   UNL     1       3.463  11.158   4.842  1.00  0.00    -0.457 OA
BRANCH  99 100
ATOM    100  C   UNL     1       2.336  11.646   4.228  1.00  0.00     0.127 A 
ATOM    101  C   UNL     1       2.249  11.508   2.842  1.00  0.00     0.047 A 
ATOM    102  C   UNL     1       1.344  12.332   4.932  1.00  0.00     0.047 A 
ATOM    103  C   UNL     1       1.139  12.010   2.163  1.00  0.00     0.004 A 
ATOM    104  C   UNL     1       0.230  12.825   4.251  1.00  0.00     0.004 A 
ATOM    105  C   UNL     1       0.126  12.660   2.869  1.00  0.00     0.000 A 
ENDBRANCH  99 100
ENDBRANCH  98  99
ENDBRANCH  91  93
ENDBRANCH  89  91
ENDBRANCH  83  84
ENDBRANCH  79  83
ENDBRANCH   2  77
TORSDOF 16
