REMARK SMILES COc1cc([C@H]([NH3+])C(=O)NCCCNC(=O)c2ccc(-c3c4nc(c(-c5c(F)c(F)c(F)c(F)c5F)c5ccc([nH]5)c(-c5c(F)c(F)c(F)c(F)c5F)c5nc(c(-c6c(F)c(F)c(F)c(F)c6F)c6ccc3[nH]6)C=C5)C=C4)cc2)cc(I)c1OC
REMARK SMILES IDX 12 1 11 2 10 3 8 4 9 5 6 7 5 8 3 9 4 10 83 11 81 12 80 13
REMARK SMILES IDX 82 14 2 15 1 16 84 17 85 18 7 19 13 23 14 24 15 25 16 27
REMARK SMILES IDX 17 28 18 29 79 30 19 31 78 32 20 33 21 34 22 35 72 36 23 37
REMARK SMILES IDX 77 38 71 39 73 40 24 41 76 42 70 43 69 44 25 46 57 47 37 48
REMARK SMILES IDX 56 49 38 50 41 51 55 52 74 53 39 54 40 55 54 57 75 58 42 59
REMARK SMILES IDX 26 60 27 61 35 62 28 63 29 64 33 65 36 66 30 67 31 68 34 69
REMARK SMILES IDX 32 70 58 71 59 72 67 73 60 74 61 75 65 76 68 77 62 78 63 79
REMARK SMILES IDX 66 80 64 81 43 82 44 83 52 84 45 85 46 86 50 87 53 88 47 89
REMARK SMILES IDX 48 90 51 91 49 92
REMARK H PARENT 10 6 7 20 7 21 7 22 14 26 73 45 41 56
REMARK Flexibility Score: inf
ROOT
ATOM      1  C   UNL     1       3.143   0.363   2.121  1.00  0.00     0.042 C 
ENDROOT
BRANCH   1   2
ATOM      2  C   UNL     1       4.051  -0.768   1.680  1.00  0.00     0.118 C 
BRANCH   2   3
ATOM      3  N   UNL     1       4.689  -1.441   2.799  1.00  0.00    -0.351 N 
ATOM      4  C   UNL     1       4.907  -2.776   3.018  1.00  0.00     0.283 C 
ATOM      5  O   UNL     1       5.638  -3.072   3.969  1.00  0.00    -0.268 OA
ATOM      6  H   UNL     1       5.015  -0.845   3.511  1.00  0.00     0.163 HD
BRANCH   4   7
ATOM      7  C   UNL     1       4.271  -3.868   2.117  1.00  0.00     0.302 C 
BRANCH   7   8
ATOM      8  C   UNL     1       4.707  -3.863   0.653  1.00  0.00     0.024 A 
ATOM      9  C   UNL     1       4.496  -4.742  -1.609  1.00  0.00     0.162 A 
ATOM     10  C   UNL     1       4.170  -4.789  -0.245  1.00  0.00     0.061 A 
ATOM     11  C   UNL     1       5.368  -3.752  -2.134  1.00  0.00     0.174 A 
ATOM     12  C   UNL     1       5.956  -2.862  -1.229  1.00  0.00     0.059 A 
ATOM     13  C   UNL     1       5.664  -2.973   0.147  1.00  0.00     0.029 A 
ATOM     14  I   UNL     1       7.264  -1.250  -1.630  1.00  0.00    -0.040 I 
BRANCH   9  15
ATOM     15  O   UNL     1       4.043  -5.695  -2.496  1.00  0.00    -0.493 OA
ATOM     16  C   UNL     1       2.721  -6.173  -2.285  1.00  0.00     0.278 C 
ENDBRANCH   9  15
BRANCH  11  17
ATOM     17  O   UNL     1       5.491  -3.853  -3.491  1.00  0.00    -0.492 OA
ATOM     18  C   UNL     1       6.182  -2.905  -4.274  1.00  0.00     0.278 C 
ENDBRANCH  11  17
ENDBRANCH   7   8
BRANCH   7  19
ATOM     19  N   UNL     1       2.800  -3.812   2.277  1.00  0.00    -0.343 N 
ATOM     20  H   UNL     1       2.456  -2.909   1.948  1.00  0.00     0.345 HD
ATOM     21  H   UNL     1       2.560  -3.928   3.262  1.00  0.00     0.345 HD
ATOM     22  H   UNL     1       2.369  -4.558   1.732  1.00  0.00     0.345 HD
ENDBRANCH   7  19
ENDBRANCH   4   7
ENDBRANCH   2   3
ENDBRANCH   1   2
BRANCH   1  23
ATOM     23  C   UNL     1       3.889   1.518   2.771  1.00  0.00     0.118 C 
BRANCH  23  24
ATOM     24  N   UNL     1       4.824   2.179   1.867  1.00  0.00    -0.352 N 
ATOM     25  C   UNL     1       4.881   3.487   1.457  1.00  0.00     0.251 C 
ATOM     26  H   UNL     1       5.523   1.595   1.492  1.00  0.00     0.163 HD
ATOM     27  O   UNL     1       5.648   3.814   0.554  1.00  0.00    -0.269 OA
BRANCH  25  28
ATOM     28  C   UNL     1       3.999   4.497   2.076  1.00  0.00     0.039 A 
ATOM     29  C   UNL     1       3.382   5.447   1.260  1.00  0.00     0.014 A 
ATOM     30  C   UNL     1       3.765   4.497   3.453  1.00  0.00     0.014 A 
ATOM     31  C   UNL     1       2.468   6.342   1.816  1.00  0.00     0.010 A 
ATOM     32  C   UNL     1       2.774   5.313   3.985  1.00  0.00     0.010 A 
ATOM     33  C   UNL     1       2.118   6.248   3.174  1.00  0.00    -0.014 A 
BRANCH  33  34
ATOM     34  C   UNL     1       1.057   7.111   3.751  1.00  0.00     0.031 A 
ATOM     35  C   UNL     1       1.373   8.065   4.868  1.00  0.00     0.074 A 
ATOM     36  C   UNL     1      -0.208   6.987   3.304  1.00  0.00     0.049 A 
ATOM     37  N   UNL     1       0.575   8.884   5.506  1.00  0.00    -0.248 NA
ATOM     38  C   UNL     1       2.760   8.080   5.357  1.00  0.00     0.031 C 
ATOM     39  C   UNL     1      -0.652   6.041   2.278  1.00  0.00     0.029 A 
ATOM     40  N   UNL     1      -1.353   7.654   3.657  1.00  0.00    -0.354 N 
ATOM     41  C   UNL     1       1.359   9.497   6.474  1.00  0.00     0.074 A 
ATOM     42  C   UNL     1       2.678   8.909   6.385  1.00  0.00     0.031 C 
ATOM     43  C   UNL     1      -1.964   6.215   2.057  1.00  0.00     0.029 A 
ATOM     44  C   UNL     1      -2.463   7.253   2.954  1.00  0.00     0.049 A 
ATOM     45  H   UNL     1      -1.378   8.354   4.349  1.00  0.00     0.167 HD
ATOM     46  C   UNL     1       1.018  10.482   7.339  1.00  0.00     0.037 A 
ATOM     47  C   UNL     1      -3.740   7.673   3.025  1.00  0.00     0.037 A 
ATOM     48  C   UNL     1      -0.293  11.074   7.408  1.00  0.00     0.049 A 
ATOM     49  C   UNL     1      -4.093   8.773   3.987  1.00  0.00     0.074 A 
ATOM     50  C   UNL     1      -0.723  12.129   8.193  1.00  0.00     0.029 A 
ATOM     51  N   UNL     1      -1.390  10.652   6.670  1.00  0.00    -0.354 N 
ATOM     52  N   UNL     1      -3.321   9.415   4.830  1.00  0.00    -0.248 NA
ATOM     53  C   UNL     1      -5.493   9.214   4.000  1.00  0.00     0.031 C 
ATOM     54  C   UNL     1      -2.094  12.303   7.978  1.00  0.00     0.029 A 
ATOM     55  C   UNL     1      -2.506  11.402   7.009  1.00  0.00     0.049 A 
ATOM     56  H   UNL     1      -1.378   9.927   6.004  1.00  0.00     0.167 HD
ATOM     57  C   UNL     1      -4.134  10.347   5.460  1.00  0.00     0.074 A 
ATOM     58  C   UNL     1      -5.454  10.204   4.881  1.00  0.00     0.031 C 
ATOM     59  C   UNL     1      -3.817  11.239   6.432  1.00  0.00     0.037 A 
BRANCH  46  60
ATOM     60  C   UNL     1       2.078  10.974   8.284  1.00  0.00     0.064 A 
ATOM     61  C   UNL     1       3.207  11.675   7.831  1.00  0.00     0.173 A 
ATOM     62  C   UNL     1       1.954  10.761   9.665  1.00  0.00     0.173 A 
ATOM     63  F   UNL     1       3.383  11.898   6.519  1.00  0.00    -0.203 F 
ATOM     64  C   UNL     1       4.189  12.109   8.719  1.00  0.00     0.198 A 
ATOM     65  C   UNL     1       2.920  11.228  10.554  1.00  0.00     0.198 A 
ATOM     66  F   UNL     1       0.894  10.102  10.156  1.00  0.00    -0.203 F 
ATOM     67  F   UNL     1       5.287  12.720   8.254  1.00  0.00    -0.200 F 
ATOM     68  C   UNL     1       4.041  11.891  10.080  1.00  0.00     0.200 A 
ATOM     69  F   UNL     1       2.767  11.030  11.871  1.00  0.00    -0.200 F 
ATOM     70  F   UNL     1       4.983  12.313  10.934  1.00  0.00    -0.200 F 
ENDBRANCH  46  60
BRANCH  47  71
ATOM     71  C   UNL     1      -4.767   7.067   2.137  1.00  0.00     0.064 A 
ATOM     72  C   UNL     1      -5.348   7.804   1.096  1.00  0.00     0.173 A 
ATOM     73  C   UNL     1      -5.176   5.735   2.300  1.00  0.00     0.173 A 
ATOM     74  F   UNL     1      -5.003   9.086   0.910  1.00  0.00    -0.203 F 
ATOM     75  C   UNL     1      -6.311   7.238   0.263  1.00  0.00     0.198 A 
ATOM     76  C   UNL     1      -6.116   5.161   1.447  1.00  0.00     0.198 A 
ATOM     77  F   UNL     1      -4.644   4.984   3.276  1.00  0.00    -0.203 F 
ATOM     78  F   UNL     1      -6.882   7.978  -0.697  1.00  0.00    -0.200 F 
ATOM     79  C   UNL     1      -6.689   5.915   0.435  1.00  0.00     0.200 A 
ATOM     80  F   UNL     1      -6.463   3.876   1.605  1.00  0.00    -0.200 F 
ATOM     81  F   UNL     1      -7.607   5.367  -0.373  1.00  0.00    -0.200 F 
ENDBRANCH  47  71
BRANCH  59  82
ATOM     82  C   UNL     1      -4.917  12.141   6.917  1.00  0.00     0.064 A 
ATOM     83  C   UNL     1      -5.996  11.651   7.668  1.00  0.00     0.173 A 
ATOM     84  C   UNL     1      -4.878  13.518   6.646  1.00  0.00     0.173 A 
ATOM     85  F   UNL     1      -6.088  10.341   7.942  1.00  0.00    -0.203 F 
ATOM     86  C   UNL     1      -7.013  12.499   8.098  1.00  0.00     0.198 A 
ATOM     87  C   UNL     1      -5.878  14.368   7.110  1.00  0.00     0.198 A 
ATOM     88  F   UNL     1      -3.865  14.041   5.940  1.00  0.00    -0.203 F 
ATOM     89  F   UNL     1      -8.065  11.998   8.759  1.00  0.00    -0.200 F 
ATOM     90  C   UNL     1      -6.950  13.857   7.825  1.00  0.00     0.200 A 
ATOM     91  F   UNL     1      -5.806  15.683   6.859  1.00  0.00    -0.200 F 
ATOM     92  F   UNL     1      -7.928  14.672   8.243  1.00  0.00    -0.200 F 
ENDBRANCH  59  82
ENDBRANCH  33  34
ENDBRANCH  25  28
ENDBRANCH  23  24
ENDBRANCH   1  23
TORSDOF 14
