REMARK SMILES CC1=CC2=[NH+]C(=O)C[C@@](C)(C(=O)NCCCNC(=O)c3ccc(-c4c5nc(c(-c6c(F)c(F)c(F)c(F)c6F)c6ccc([nH]6)c(-c6c(F)c(F)c(F)c(F)c6F)c6nc(c(-c7c(F)c(F)c(F)c(F)c7F)c7ccc4[nH]7)C=C6)C=C5)cc3)N2C=C1
REMARK SMILES IDX 16 1 15 2 14 3 13 4 11 5 12 6 9 8 1 9 2 10 3 11 85 12 4 13
REMARK SMILES IDX 84 14 5 15 83 16 6 17 7 19 8 20 10 21 17 22 18 23 19 25
REMARK SMILES IDX 20 26 21 27 82 28 22 29 81 30 23 31 24 32 25 33 75 34 26 35
REMARK SMILES IDX 80 36 74 37 76 38 27 39 79 40 73 41 72 42 28 44 60 45 40 46
REMARK SMILES IDX 59 47 41 48 44 49 58 50 77 51 42 52 43 53 57 55 78 56 45 57
REMARK SMILES IDX 29 58 30 59 38 60 31 61 32 62 36 63 39 64 33 65 34 66 37 67
REMARK SMILES IDX 35 68 61 69 62 70 70 71 63 72 64 73 68 74 71 75 65 76 66 77
REMARK SMILES IDX 69 78 67 79 46 80 47 81 55 82 48 83 49 84 53 85 56 86 50 87
REMARK SMILES IDX 51 88 54 89 52 90
REMARK H PARENT 13 7 5 18 17 24 76 43 44 54
REMARK Flexibility Score: inf
ROOT
ATOM      1  C   UNL     1      -2.630  -3.657   9.027  1.00  0.00     0.118 C 
ENDROOT
BRANCH   1   2
ATOM      2  C   UNL     1      -2.676  -2.181   8.656  1.00  0.00     0.042 C 
BRANCH   2   3
ATOM      3  C   UNL     1      -1.341  -1.447   8.530  1.00  0.00     0.118 C 
BRANCH   3   4
ATOM      4  N   UNL     1      -0.321  -2.014   7.660  1.00  0.00    -0.352 N 
ATOM      5  C   UNL     1       0.016  -1.703   6.364  1.00  0.00     0.268 C 
ATOM      6  O   UNL     1       1.229  -1.709   6.124  1.00  0.00    -0.270 OA
ATOM      7  H   UNL     1       0.214  -2.736   8.065  1.00  0.00     0.163 HD
BRANCH   5   8
ATOM      8  C   UNL     1      -1.055  -1.593   5.232  1.00  0.00     0.197 C 
ATOM      9  C   UNL     1       1.177   0.154   0.141  1.00  0.00     0.045 C 
ATOM     10  C   UNL     1       0.603  -0.375   1.420  1.00  0.00    -0.039 C 
ATOM     11  C   UNL     1      -0.025  -1.562   1.492  1.00  0.00     0.102 C 
ATOM     12  C   UNL     1       0.726   0.461   2.605  1.00  0.00     0.047 C 
ATOM     13  C   UNL     1      -0.678  -1.945   2.787  1.00  0.00     0.282 C 
ATOM     14  C   UNL     1       0.253   0.027   3.784  1.00  0.00     0.202 C 
ATOM     15  N   UNL     1      -1.500  -2.946   2.702  1.00  0.00    -0.210 N 
ATOM     16  N   UNL     1      -0.426  -1.185   3.937  1.00  0.00    -0.219 N 
ATOM     17  C   UNL     1      -2.239  -3.231   3.813  1.00  0.00     0.312 C 
ATOM     18  H   UNL     1      -1.587  -3.474   1.875  1.00  0.00     0.315 HD
ATOM     19  O   UNL     1      -3.377  -3.678   3.770  1.00  0.00    -0.247 OA
ATOM     20  C   UNL     1      -1.559  -3.032   5.124  1.00  0.00     0.191 C 
ATOM     21  C   UNL     1      -2.177  -0.582   5.496  1.00  0.00     0.074 C 
ENDBRANCH   5   8
ENDBRANCH   3   4
ENDBRANCH   2   3
ENDBRANCH   1   2
BRANCH   1  22
ATOM     22  N   UNL     1      -2.085  -3.912  10.347  1.00  0.00    -0.352 N 
ATOM     23  C   UNL     1      -2.673  -4.252  11.540  1.00  0.00     0.251 C 
ATOM     24  H   UNL     1      -1.106  -3.824  10.397  1.00  0.00     0.163 HD
ATOM     25  O   UNL     1      -1.970  -4.269  12.549  1.00  0.00    -0.269 OA
BRANCH  23  26
ATOM     26  C   UNL     1      -4.119  -4.569  11.669  1.00  0.00     0.039 A 
ATOM     27  C   UNL     1      -4.773  -4.176  12.845  1.00  0.00     0.014 A 
ATOM     28  C   UNL     1      -4.826  -5.312  10.721  1.00  0.00     0.014 A 
ATOM     29  C   UNL     1      -6.127  -4.470  13.040  1.00  0.00     0.010 A 
ATOM     30  C   UNL     1      -6.199  -5.538  10.879  1.00  0.00     0.010 A 
ATOM     31  C   UNL     1      -6.865  -5.123  12.042  1.00  0.00    -0.014 A 
BRANCH  31  32
ATOM     32  C   UNL     1      -8.325  -5.371  12.204  1.00  0.00     0.031 A 
ATOM     33  C   UNL     1      -8.869  -6.774  12.263  1.00  0.00     0.074 A 
ATOM     34  C   UNL     1      -9.177  -4.327  12.250  1.00  0.00     0.049 A 
ATOM     35  N   UNL     1     -10.113  -7.179  12.343  1.00  0.00    -0.248 NA
ATOM     36  C   UNL     1      -7.887  -7.867  12.205  1.00  0.00     0.031 C 
ATOM     37  C   UNL     1      -8.790  -2.918  12.166  1.00  0.00     0.029 A 
ATOM     38  N   UNL     1     -10.546  -4.287  12.367  1.00  0.00    -0.354 N 
ATOM     39  C   UNL     1     -10.063  -8.568  12.327  1.00  0.00     0.074 A 
ATOM     40  C   UNL     1      -8.671  -8.936  12.187  1.00  0.00     0.031 C 
ATOM     41  C   UNL     1      -9.889  -2.153  12.249  1.00  0.00     0.029 A 
ATOM     42  C   UNL     1     -11.064  -3.014  12.350  1.00  0.00     0.049 A 
ATOM     43  H   UNL     1     -11.103  -5.094  12.453  1.00  0.00     0.167 HD
ATOM     44  C   UNL     1     -11.083  -9.454  12.437  1.00  0.00     0.037 A 
ATOM     45  C   UNL     1     -12.340  -2.586  12.397  1.00  0.00     0.037 A 
ATOM     46  C   UNL     1     -12.467  -9.088  12.600  1.00  0.00     0.049 A 
ATOM     47  C   UNL     1     -13.454  -3.591  12.509  1.00  0.00     0.074 A 
ATOM     48  C   UNL     1     -13.562  -9.916  12.786  1.00  0.00     0.029 A 
ATOM     49  N   UNL     1     -12.949  -7.788  12.590  1.00  0.00    -0.354 N 
ATOM     50  N   UNL     1     -13.387  -4.898  12.562  1.00  0.00    -0.248 NA
ATOM     51  C   UNL     1     -14.823  -3.058  12.577  1.00  0.00     0.031 C 
ATOM     52  C   UNL     1     -14.711  -9.121  12.833  1.00  0.00     0.029 A 
ATOM     53  C   UNL     1     -14.328  -7.793  12.738  1.00  0.00     0.049 A 
ATOM     54  H   UNL     1     -12.395  -6.980  12.492  1.00  0.00     0.167 HD
ATOM     55  C   UNL     1     -14.695  -5.343  12.694  1.00  0.00     0.074 A 
ATOM     56  C   UNL     1     -15.536  -4.165  12.732  1.00  0.00     0.031 C 
ATOM     57  C   UNL     1     -15.157  -6.615  12.778  1.00  0.00     0.037 A 
BRANCH  44  58
ATOM     58  C   UNL     1     -10.747 -10.918  12.381  1.00  0.00     0.064 A 
ATOM     59  C   UNL     1     -10.060 -11.557  13.424  1.00  0.00     0.173 A 
ATOM     60  C   UNL     1     -11.167 -11.703  11.296  1.00  0.00     0.173 A 
ATOM     61  F   UNL     1      -9.630 -10.853  14.482  1.00  0.00    -0.203 F 
ATOM     62  C   UNL     1      -9.783 -12.921  13.370  1.00  0.00     0.198 A 
ATOM     63  C   UNL     1     -10.915 -13.072  11.260  1.00  0.00     0.198 A 
ATOM     64  F   UNL     1     -11.836 -11.145  10.276  1.00  0.00    -0.203 F 
ATOM     65  F   UNL     1      -9.086 -13.501  14.358  1.00  0.00    -0.200 F 
ATOM     66  C   UNL     1     -10.217 -13.679  12.293  1.00  0.00     0.200 A 
ATOM     67  F   UNL     1     -11.351 -13.806  10.226  1.00  0.00    -0.200 F 
ATOM     68  F   UNL     1      -9.960 -14.993  12.249  1.00  0.00    -0.200 F 
ENDBRANCH  44  58
BRANCH  45  69
ATOM     69  C   UNL     1     -12.633  -1.129  12.348  1.00  0.00     0.064 A 
ATOM     70  C   UNL     1     -13.137  -0.456  13.470  1.00  0.00     0.173 A 
ATOM     71  C   UNL     1     -12.414  -0.380  11.182  1.00  0.00     0.173 A 
ATOM     72  F   UNL     1     -13.383  -1.132  14.601  1.00  0.00    -0.203 F 
ATOM     73  C   UNL     1     -13.430   0.906  13.421  1.00  0.00     0.198 A 
ATOM     74  C   UNL     1     -12.678   0.987  11.144  1.00  0.00     0.198 A 
ATOM     75  F   UNL     1     -11.928  -0.975  10.083  1.00  0.00    -0.203 F 
ATOM     76  F   UNL     1     -13.953   1.515  14.493  1.00  0.00    -0.200 F 
ATOM     77  C   UNL     1     -13.193   1.628  12.261  1.00  0.00     0.200 A 
ATOM     78  F   UNL     1     -12.432   1.684  10.026  1.00  0.00    -0.200 F 
ATOM     79  F   UNL     1     -13.467   2.938  12.217  1.00  0.00    -0.200 F 
ENDBRANCH  45  69
BRANCH  57  80
ATOM     80  C   UNL     1     -16.637  -6.803  12.954  1.00  0.00     0.064 A 
ATOM     81  C   UNL     1     -17.544  -6.543  11.916  1.00  0.00     0.173 A 
ATOM     82  C   UNL     1     -17.151  -7.290  14.166  1.00  0.00     0.173 A 
ATOM     83  F   UNL     1     -17.106  -6.062  10.742  1.00  0.00    -0.203 F 
ATOM     84  C   UNL     1     -18.911  -6.737  12.094  1.00  0.00     0.198 A 
ATOM     85  C   UNL     1     -18.515  -7.514  14.330  1.00  0.00     0.198 A 
ATOM     86  F   UNL     1     -16.327  -7.562  15.190  1.00  0.00    -0.203 F 
ATOM     87  F   UNL     1     -19.763  -6.434  11.104  1.00  0.00    -0.200 F 
ATOM     88  C   UNL     1     -19.395  -7.230  13.297  1.00  0.00     0.200 A 
ATOM     89  F   UNL     1     -18.979  -8.004  15.488  1.00  0.00    -0.200 F 
ATOM     90  F   UNL     1     -20.710  -7.424  13.463  1.00  0.00    -0.200 F 
ENDBRANCH  57  80
ENDBRANCH  31  32
ENDBRANCH  23  26
ENDBRANCH   1  22
TORSDOF 10
