REMARK SMILES Cc1ccc(OC(F)(F)F)cc1C(=O)NCCCNC(=O)c1ccc(-c2c3nc(c(-c4c(F)c(F)c(F)c(F)c4F)c4ccc([nH]4)c(-c4c(F)c(F)c(F)c(F)c4F)c4nc(c(-c5c(F)c(F)c(F)c(F)c5F)c5ccc2[nH]5)C=C4)C=C3)cc1
REMARK SMILES IDX 17 1 16 2 15 3 13 4 14 5 12 7 1 8 2 9 3 10 4 11 11 12 5 13
REMARK SMILES IDX 6 14 7 15 8 16 9 17 10 18 18 19 19 20 20 21 21 23 22 24
REMARK SMILES IDX 23 25 84 26 24 27 83 28 25 29 26 30 27 31 77 32 28 33 82 34
REMARK SMILES IDX 76 35 78 36 29 37 81 38 75 39 74 40 30 42 62 43 42 44 61 45
REMARK SMILES IDX 43 46 46 47 60 48 79 49 44 50 45 51 59 53 80 54 47 55 31 56
REMARK SMILES IDX 32 57 40 58 33 59 34 60 38 61 41 62 35 63 36 64 39 65 37 66
REMARK SMILES IDX 63 67 64 68 72 69 65 70 66 71 70 72 73 73 67 74 68 75 71 76
REMARK SMILES IDX 69 77 48 78 49 79 57 80 50 81 51 82 55 83 58 84 52 85 53 86
REMARK SMILES IDX 56 87 54 88
REMARK H PARENT 15 6 19 22 78 41 46 52
REMARK Flexibility Score: inf
ROOT
ATOM      1  C   UNL     1       4.135   0.530  -0.764  1.00  0.00     0.042 C 
ENDROOT
BRANCH   1   2
ATOM      2  C   UNL     1       3.344   1.151   0.392  1.00  0.00     0.118 C 
BRANCH   2   3
ATOM      3  N   UNL     1       2.286   2.007  -0.111  1.00  0.00    -0.352 N 
ATOM      4  C   UNL     1       0.951   1.854  -0.378  1.00  0.00     0.251 C 
ATOM      5  O   UNL     1       0.401   2.864  -0.833  1.00  0.00    -0.269 OA
ATOM      6  H   UNL     1       2.605   2.918  -0.308  1.00  0.00     0.163 HD
BRANCH   4   7
ATOM      7  C   UNL     1       0.086   0.650  -0.116  1.00  0.00     0.046 A 
ATOM      8  C   UNL     1       1.650  -1.287  -0.817  1.00  0.00     0.045 C 
ATOM      9  C   UNL     1       0.380  -0.718  -0.279  1.00  0.00    -0.038 A 
ATOM     10  C   UNL     1      -0.615  -1.679   0.004  1.00  0.00     0.008 A 
ATOM     11  C   UNL     1      -1.916  -1.308   0.313  1.00  0.00     0.047 A 
ATOM     12  C   UNL     1      -1.258   0.996   0.199  1.00  0.00     0.061 A 
ATOM     13  C   UNL     1      -2.259   0.034   0.362  1.00  0.00     0.130 A 
BRANCH  13  14
ATOM     14  O   UNL     1      -3.586   0.269   0.572  1.00  0.00    -0.406 OA
BRANCH  14  15
ATOM     15  C   UNL     1      -4.096   1.526   0.156  1.00  0.00     0.573 C 
ATOM     16  F   UNL     1      -3.731   2.493   1.023  1.00  0.00    -0.132 F 
ATOM     17  F   UNL     1      -3.685   1.848  -1.088  1.00  0.00    -0.132 F 
ATOM     18  F   UNL     1      -5.446   1.458   0.144  1.00  0.00    -0.132 F 
ENDBRANCH  14  15
ENDBRANCH  13  14
ENDBRANCH   4   7
ENDBRANCH   2   3
ENDBRANCH   1   2
BRANCH   1  19
ATOM     19  C   UNL     1       5.435   1.227  -1.130  1.00  0.00     0.118 C 
BRANCH  19  20
ATOM     20  N   UNL     1       6.598   0.340  -1.037  1.00  0.00    -0.352 N 
ATOM     21  C   UNL     1       7.894   0.566  -1.478  1.00  0.00     0.251 C 
ATOM     22  H   UNL     1       6.439  -0.530  -0.604  1.00  0.00     0.163 HD
ATOM     23  O   UNL     1       8.791  -0.225  -1.272  1.00  0.00    -0.269 OA
BRANCH  21  24
ATOM     24  C   UNL     1       8.161   1.878  -2.104  1.00  0.00     0.039 A 
ATOM     25  C   UNL     1       8.915   2.787  -1.360  1.00  0.00     0.014 A 
ATOM     26  C   UNL     1       7.354   2.293  -3.159  1.00  0.00     0.014 A 
ATOM     27  C   UNL     1       8.642   4.144  -1.491  1.00  0.00     0.010 A 
ATOM     28  C   UNL     1       7.017   3.632  -3.223  1.00  0.00     0.010 A 
ATOM     29  C   UNL     1       7.602   4.542  -2.333  1.00  0.00    -0.014 A 
BRANCH  29  30
ATOM     30  C   UNL     1       7.014   5.875  -2.269  1.00  0.00     0.031 A 
ATOM     31  C   UNL     1       7.346   6.872  -3.304  1.00  0.00     0.074 A 
ATOM     32  C   UNL     1       6.168   6.223  -1.272  1.00  0.00     0.049 A 
ATOM     33  N   UNL     1       7.349   8.147  -3.101  1.00  0.00    -0.248 NA
ATOM     34  C   UNL     1       7.748   6.496  -4.651  1.00  0.00     0.031 C 
ATOM     35  C   UNL     1       5.369   7.445  -1.188  1.00  0.00     0.029 A 
ATOM     36  N   UNL     1       6.015   5.623  -0.011  1.00  0.00    -0.354 N 
ATOM     37  C   UNL     1       7.492   8.763  -4.321  1.00  0.00     0.074 A 
ATOM     38  C   UNL     1       7.794   7.692  -5.245  1.00  0.00     0.031 C 
ATOM     39  C   UNL     1       5.087   7.689   0.100  1.00  0.00     0.029 A 
ATOM     40  C   UNL     1       5.776   6.692   0.894  1.00  0.00     0.049 A 
ATOM     41  H   UNL     1       6.064   4.663   0.201  1.00  0.00     0.167 HD
ATOM     42  C   UNL     1       7.224  10.096  -4.435  1.00  0.00     0.037 A 
ATOM     43  C   UNL     1       6.620   6.941   1.936  1.00  0.00     0.037 A 
ATOM     44  C   UNL     1       6.858  10.693  -3.150  1.00  0.00     0.049 A 
ATOM     45  C   UNL     1       7.302   8.290   1.884  1.00  0.00     0.074 A 
ATOM     46  C   UNL     1       5.657  11.033  -2.549  1.00  0.00     0.029 A 
ATOM     47  N   UNL     1       7.811  10.761  -2.149  1.00  0.00    -0.354 N 
ATOM     48  N   UNL     1       7.102   9.186   0.958  1.00  0.00    -0.248 NA
ATOM     49  C   UNL     1       8.364   8.677   2.814  1.00  0.00     0.031 C 
ATOM     50  C   UNL     1       5.907  11.330  -1.179  1.00  0.00     0.029 A 
ATOM     51  C   UNL     1       7.260  11.165  -0.946  1.00  0.00     0.049 A 
ATOM     52  H   UNL     1       8.763  10.547  -2.276  1.00  0.00     0.167 HD
ATOM     53  C   UNL     1       8.015  10.197   1.104  1.00  0.00     0.074 A 
ATOM     54  C   UNL     1       8.786   9.832   2.277  1.00  0.00     0.031 C 
ATOM     55  C   UNL     1       8.114  11.239   0.227  1.00  0.00     0.037 A 
BRANCH  42  56
ATOM     56  C   UNL     1       7.051  10.797  -5.763  1.00  0.00     0.064 A 
ATOM     57  C   UNL     1       6.170  11.891  -5.896  1.00  0.00     0.173 A 
ATOM     58  C   UNL     1       7.686  10.406  -6.956  1.00  0.00     0.173 A 
ATOM     59  F   UNL     1       5.595  12.462  -4.831  1.00  0.00    -0.203 F 
ATOM     60  C   UNL     1       5.844  12.444  -7.138  1.00  0.00     0.198 A 
ATOM     61  C   UNL     1       7.312  10.911  -8.205  1.00  0.00     0.198 A 
ATOM     62  F   UNL     1       8.730   9.566  -6.944  1.00  0.00    -0.203 F 
ATOM     63  F   UNL     1       4.994  13.478  -7.201  1.00  0.00    -0.200 F 
ATOM     64  C   UNL     1       6.378  11.921  -8.297  1.00  0.00     0.200 A 
ATOM     65  F   UNL     1       7.867  10.411  -9.319  1.00  0.00    -0.200 F 
ATOM     66  F   UNL     1       6.019  12.409  -9.491  1.00  0.00    -0.200 F 
ENDBRANCH  42  56
BRANCH  43  67
ATOM     67  C   UNL     1       7.217   5.693   2.477  1.00  0.00     0.064 A 
ATOM     68  C   UNL     1       6.337   4.727   3.004  1.00  0.00     0.173 A 
ATOM     69  C   UNL     1       8.491   5.271   2.083  1.00  0.00     0.173 A 
ATOM     70  F   UNL     1       5.111   5.089   3.414  1.00  0.00    -0.203 F 
ATOM     71  C   UNL     1       6.649   3.373   2.955  1.00  0.00     0.198 A 
ATOM     72  C   UNL     1       8.813   3.915   2.075  1.00  0.00     0.198 A 
ATOM     73  F   UNL     1       9.372   6.145   1.577  1.00  0.00    -0.203 F 
ATOM     74  F   UNL     1       5.725   2.462   3.293  1.00  0.00    -0.200 F 
ATOM     75  C   UNL     1       7.873   2.967   2.454  1.00  0.00     0.200 A 
ATOM     76  F   UNL     1      10.002   3.521   1.598  1.00  0.00    -0.200 F 
ATOM     77  F   UNL     1       8.127   1.662   2.287  1.00  0.00    -0.200 F 
ENDBRANCH  43  67
BRANCH  55  78
ATOM     78  C   UNL     1       9.063  12.394   0.409  1.00  0.00     0.064 A 
ATOM     79  C   UNL     1       9.316  12.971   1.666  1.00  0.00     0.173 A 
ATOM     80  C   UNL     1       9.679  13.031  -0.690  1.00  0.00     0.173 A 
ATOM     81  F   UNL     1       8.694  12.525   2.767  1.00  0.00    -0.203 F 
ATOM     82  C   UNL     1      10.199  14.041   1.823  1.00  0.00     0.198 A 
ATOM     83  C   UNL     1      10.516  14.135  -0.537  1.00  0.00     0.198 A 
ATOM     84  F   UNL     1       9.507  12.591  -1.944  1.00  0.00    -0.203 F 
ATOM     85  F   UNL     1      10.467  14.507   3.051  1.00  0.00    -0.200 F 
ATOM     86  C   UNL     1      10.796  14.625   0.721  1.00  0.00     0.200 A 
ATOM     87  F   UNL     1      11.057  14.713  -1.619  1.00  0.00    -0.200 F 
ATOM     88  F   UNL     1      11.635  15.659   0.872  1.00  0.00    -0.200 F 
ENDBRANCH  55  78
ENDBRANCH  29  30
ENDBRANCH  21  24
ENDBRANCH  19  20
ENDBRANCH   1  19
TORSDOF 12
