REMARK SMILES O=C(NCCCNC(=O)c1ccccc1C(=O)Nc1ccc(Cl)cn1)c1ccc(-c2c3nc(c(-c4c(F)c(F)c(F)c(F)c4F)c4ccc([nH]4)c(-c4c(F)c(F)c(F)c(F)c4F)c4nc(c(-c5c(F)c(F)c(F)c(F)c5F)c5ccc2[nH]5)C=C4)C=C3)cc1
REMARK SMILES IDX 5 1 4 2 3 3 1 4 2 5 26 7 27 8 88 9 28 10 87 11 29 12 30 13
REMARK SMILES IDX 31 14 81 15 32 16 86 17 80 18 82 19 33 20 85 21 79 22 78 23
REMARK SMILES IDX 34 25 66 26 46 27 65 28 47 29 50 30 64 31 83 32 48 33 49 34
REMARK SMILES IDX 63 36 84 37 51 38 35 39 36 40 44 41 37 42 38 43 42 44 45 45
REMARK SMILES IDX 39 46 40 47 43 48 41 49 67 50 68 51 76 52 69 53 70 54 74 55
REMARK SMILES IDX 77 56 71 57 72 58 75 59 73 60 52 61 53 62 61 63 54 64 55 65
REMARK SMILES IDX 59 66 62 67 56 68 57 69 60 70 58 71 6 72 7 73 8 74 9 76
REMARK SMILES IDX 10 77 11 78 15 79 12 80 14 81 13 82 16 83 17 84 18 85 19 87
REMARK SMILES IDX 20 88 25 89 21 90 24 91 22 92 23 93
REMARK H PARENT 3 6 82 24 50 35 7 75 18 86
REMARK Flexibility Score: inf
ROOT
ATOM      1  C   UNL     1       5.223   2.033   1.218  1.00  0.00     0.042 C 
ENDROOT
BRANCH   1   2
ATOM      2  C   UNL     1       4.788   0.629   0.807  1.00  0.00     0.118 C 
BRANCH   2   3
ATOM      3  N   UNL     1       3.353   0.400   0.904  1.00  0.00    -0.352 N 
ATOM      4  O   UNL     1       1.265  -0.008   0.103  1.00  0.00    -0.269 OA
ATOM      5  C   UNL     1       2.472   0.060  -0.098  1.00  0.00     0.251 C 
ATOM      6  H   UNL     1       2.962   0.501   1.802  1.00  0.00     0.163 HD
BRANCH   5   7
ATOM      7  C   UNL     1       3.015  -0.193  -1.448  1.00  0.00     0.039 A 
ATOM      8  C   UNL     1       4.078  -1.084  -1.607  1.00  0.00     0.014 A 
ATOM      9  C   UNL     1       2.529   0.537  -2.534  1.00  0.00     0.014 A 
ATOM     10  C   UNL     1       4.781  -1.096  -2.803  1.00  0.00     0.010 A 
ATOM     11  C   UNL     1       3.175   0.441  -3.769  1.00  0.00     0.010 A 
ATOM     12  C   UNL     1       4.336  -0.338  -3.901  1.00  0.00    -0.014 A 
BRANCH  12  13
ATOM     13  C   UNL     1       5.085  -0.412  -5.181  1.00  0.00     0.031 A 
ATOM     14  C   UNL     1       5.766   0.796  -5.762  1.00  0.00     0.074 A 
ATOM     15  C   UNL     1       5.185  -1.606  -5.796  1.00  0.00     0.049 A 
ATOM     16  N   UNL     1       6.459   0.899  -6.870  1.00  0.00    -0.248 NA
ATOM     17  C   UNL     1       5.653   2.056  -5.011  1.00  0.00     0.031 C 
ATOM     18  C   UNL     1       4.572  -2.848  -5.321  1.00  0.00     0.029 A 
ATOM     19  N   UNL     1       5.855  -1.980  -6.932  1.00  0.00    -0.354 N 
ATOM     20  C   UNL     1       6.842   2.231  -6.961  1.00  0.00     0.074 A 
ATOM     21  C   UNL     1       6.290   2.907  -5.806  1.00  0.00     0.031 C 
ATOM     22  C   UNL     1       4.939  -3.856  -6.124  1.00  0.00     0.029 A 
ATOM     23  C   UNL     1       5.749  -3.319  -7.212  1.00  0.00     0.049 A 
ATOM     24  H   UNL     1       6.363  -1.349  -7.492  1.00  0.00     0.167 HD
ATOM     25  C   UNL     1       7.591   2.830  -7.919  1.00  0.00     0.037 A 
ATOM     26  C   UNL     1       6.230  -4.037  -8.242  1.00  0.00     0.037 A 
ATOM     27  C   UNL     1       8.155   2.145  -9.056  1.00  0.00     0.049 A 
ATOM     28  C   UNL     1       7.030  -3.341  -9.303  1.00  0.00     0.074 A 
ATOM     29  C   UNL     1       8.947   2.659 -10.068  1.00  0.00     0.029 A 
ATOM     30  N   UNL     1       7.988   0.795  -9.328  1.00  0.00    -0.354 N 
ATOM     31  N   UNL     1       7.387  -2.082  -9.374  1.00  0.00    -0.248 NA
ATOM     32  C   UNL     1       7.483  -4.162 -10.431  1.00  0.00     0.031 C 
ATOM     33  C   UNL     1       9.224   1.630 -10.975  1.00  0.00     0.029 A 
ATOM     34  C   UNL     1       8.645   0.464 -10.504  1.00  0.00     0.049 A 
ATOM     35  H   UNL     1       7.478   0.165  -8.770  1.00  0.00     0.167 HD
ATOM     36  C   UNL     1       8.117  -1.961 -10.546  1.00  0.00     0.074 A 
ATOM     37  C   UNL     1       8.170  -3.280 -11.143  1.00  0.00     0.031 C 
ATOM     38  C   UNL     1       8.686  -0.855 -11.084  1.00  0.00     0.037 A 
BRANCH  25  39
ATOM     39  C   UNL     1       7.834   4.307  -7.799  1.00  0.00     0.064 A 
ATOM     40  C   UNL     1       8.707   4.836  -6.837  1.00  0.00     0.173 A 
ATOM     41  C   UNL     1       7.233   5.201  -8.700  1.00  0.00     0.173 A 
ATOM     42  F   UNL     1       9.300   4.027  -5.947  1.00  0.00    -0.203 F 
ATOM     43  C   UNL     1       8.956   6.205  -6.770  1.00  0.00     0.198 A 
ATOM     44  C   UNL     1       7.503   6.566  -8.646  1.00  0.00     0.198 A 
ATOM     45  F   UNL     1       6.396   4.748  -9.644  1.00  0.00    -0.203 F 
ATOM     46  F   UNL     1       9.767   6.692  -5.820  1.00  0.00    -0.200 F 
ATOM     47  C   UNL     1       8.360   7.068  -7.678  1.00  0.00     0.200 A 
ATOM     48  F   UNL     1       6.937   7.396  -9.533  1.00  0.00    -0.200 F 
ATOM     49  F   UNL     1       8.609   8.384  -7.618  1.00  0.00    -0.200 F 
ENDBRANCH  25  39
BRANCH  26  50
ATOM     50  C   UNL     1       5.953  -5.494  -8.313  1.00  0.00     0.064 A 
ATOM     51  C   UNL     1       6.978  -6.431  -8.132  1.00  0.00     0.173 A 
ATOM     52  C   UNL     1       4.654  -5.977  -8.532  1.00  0.00     0.173 A 
ATOM     53  F   UNL     1       8.238  -6.016  -7.937  1.00  0.00    -0.203 F 
ATOM     54  C   UNL     1       6.715  -7.798  -8.176  1.00  0.00     0.198 A 
ATOM     55  C   UNL     1       4.388  -7.343  -8.546  1.00  0.00     0.198 A 
ATOM     56  F   UNL     1       3.638  -5.118  -8.705  1.00  0.00    -0.203 F 
ATOM     57  F   UNL     1       7.718  -8.675  -8.034  1.00  0.00    -0.200 F 
ATOM     58  C   UNL     1       5.419  -8.253  -8.374  1.00  0.00     0.200 A 
ATOM     59  F   UNL     1       3.132  -7.777  -8.718  1.00  0.00    -0.200 F 
ATOM     60  F   UNL     1       5.166  -9.568  -8.403  1.00  0.00    -0.200 F 
ENDBRANCH  26  50
BRANCH  38  61
ATOM     61  C   UNL     1       9.434  -1.034 -12.370  1.00  0.00     0.064 A 
ATOM     62  C   UNL     1       8.765  -1.254 -13.583  1.00  0.00     0.173 A 
ATOM     63  C   UNL     1      10.835  -0.968 -12.392  1.00  0.00     0.173 A 
ATOM     64  F   UNL     1       7.427  -1.344 -13.609  1.00  0.00    -0.203 F 
ATOM     65  C   UNL     1       9.474  -1.427 -14.768  1.00  0.00     0.198 A 
ATOM     66  C   UNL     1      11.539  -1.114 -13.584  1.00  0.00     0.198 A 
ATOM     67  F   UNL     1      11.520  -0.756 -11.259  1.00  0.00    -0.203 F 
ATOM     68  F   UNL     1       8.817  -1.686 -15.908  1.00  0.00    -0.200 F 
ATOM     69  C   UNL     1      10.859  -1.351 -14.769  1.00  0.00     0.200 A 
ATOM     70  F   UNL     1      12.877  -1.031 -13.585  1.00  0.00    -0.200 F 
ATOM     71  F   UNL     1      11.539  -1.517 -15.912  1.00  0.00    -0.200 F 
ENDBRANCH  38  61
ENDBRANCH  12  13
ENDBRANCH   5   7
ENDBRANCH   2   3
ENDBRANCH   1   2
BRANCH   1  72
ATOM     72  C   UNL     1       5.277   2.226   2.723  1.00  0.00     0.118 C 
BRANCH  72  73
ATOM     73  N   UNL     1       6.229   1.321   3.338  1.00  0.00    -0.352 N 
ATOM     74  C   UNL     1       6.771   1.321   4.586  1.00  0.00     0.252 C 
ATOM     75  H   UNL     1       6.534   0.587   2.758  1.00  0.00     0.163 HD
ATOM     76  O   UNL     1       7.635   0.489   4.859  1.00  0.00    -0.269 OA
BRANCH  74  77
ATOM     77  C   UNL     1       6.423   2.341   5.587  1.00  0.00     0.052 A 
ATOM     78  C   UNL     1       7.559   3.018   6.085  1.00  0.00     0.014 A 
ATOM     79  C   UNL     1       5.144   2.678   6.053  1.00  0.00     0.052 A 
ATOM     80  C   UNL     1       7.433   4.081   6.972  1.00  0.00     0.001 A 
ATOM     81  C   UNL     1       5.043   3.779   6.934  1.00  0.00     0.014 A 
ATOM     82  C   UNL     1       6.169   4.477   7.380  1.00  0.00     0.001 A 
BRANCH  79  83
ATOM     83  C   UNL     1       3.828   2.112   5.638  1.00  0.00     0.257 C 
ATOM     84  O   UNL     1       2.889   2.909   5.532  1.00  0.00    -0.269 OA
ATOM     85  N   UNL     1       3.582   0.823   5.256  1.00  0.00    -0.307 N 
ATOM     86  H   UNL     1       2.695   0.711   4.843  1.00  0.00     0.171 HD
BRANCH  85  87
ATOM     87  C   UNL     1       4.297  -0.358   5.318  1.00  0.00     0.132 A 
ATOM     88  C   UNL     1       5.172  -0.671   6.346  1.00  0.00     0.049 A 
ATOM     89  N   UNL     1       4.077  -1.168   4.259  1.00  0.00    -0.238 NA
ATOM     90  C   UNL     1       5.941  -1.832   6.228  1.00  0.00     0.026 A 
ATOM     91  C   UNL     1       4.858  -2.269   4.155  1.00  0.00     0.134 A 
ATOM     92  C   UNL     1       5.807  -2.627   5.096  1.00  0.00     0.059 A 
ATOM     93  Cl  UNL     1       6.800  -4.005   4.861  1.00  0.00    -0.083 Cl
ENDBRANCH  85  87
ENDBRANCH  79  83
ENDBRANCH  74  77
ENDBRANCH  72  73
ENDBRANCH   1  72
TORSDOF 12
