REMARK SMILES CC(C)(C)OC(=O)[C@]1(C(=O)NCCCNC(=O)c2ccc(-c3c4nc(c(-c5c(F)c(F)c(F)c(F)c5F)c5ccc([nH]5)c(-c5c(F)c(F)c(F)c(F)c5F)c5nc(c(-c6c(F)c(F)c(F)c(F)c6F)c6ccc3[nH]6)C=C5)C=C4)cc2)CC=CC[C@@H]1[NH3+]
REMARK SMILES IDX 12 1 11 2 9 3 10 4 8 6 81 7 85 8 82 9 84 10 83 11 6 12 7 13
REMARK SMILES IDX 5 14 2 15 1 16 3 17 4 18 86 19 13 23 14 24 15 25 16 26 17 28
REMARK SMILES IDX 18 29 19 30 80 31 20 32 79 33 21 34 22 35 23 36 73 37 24 38
REMARK SMILES IDX 78 39 72 40 74 41 25 42 77 43 71 44 70 45 26 47 58 48 38 49
REMARK SMILES IDX 57 50 39 51 42 52 56 53 75 54 40 55 41 56 55 58 76 59 43 60
REMARK SMILES IDX 27 61 28 62 36 63 29 64 30 65 34 66 37 67 31 68 32 69 35 70
REMARK SMILES IDX 33 71 59 72 60 73 68 74 61 75 62 76 66 77 69 78 63 79 64 80
REMARK SMILES IDX 67 81 65 82 44 83 45 84 53 85 46 86 47 87 51 88 54 89 48 90
REMARK SMILES IDX 49 91 52 92 50 93
REMARK H PARENT 11 5 86 20 86 21 86 22 15 27 74 46 42 57
REMARK Flexibility Score: inf
ROOT
ATOM      1  C   UNL     1      -0.409   1.983  -5.709  1.00  0.00     0.117 C 
ENDROOT
BRANCH   1   2
ATOM      2  N   UNL     1      -0.286   1.762  -4.277  1.00  0.00    -0.355 N 
ATOM      3  C   UNL     1       0.439   2.369  -3.296  1.00  0.00     0.244 C 
ATOM      4  O   UNL     1       0.349   1.798  -2.201  1.00  0.00    -0.274 OA
ATOM      5  H   UNL     1      -0.841   1.018  -3.948  1.00  0.00     0.163 HD
BRANCH   3   6
ATOM      6  C   UNL     1       1.263   3.679  -3.497  1.00  0.00     0.201 C 
ATOM      7  C   UNL     1       0.356   4.689  -4.262  1.00  0.00     0.062 C 
ATOM      8  C   UNL     1       1.638   4.203  -2.060  1.00  0.00     0.212 C 
ATOM      9  C   UNL     1       0.349   6.121  -3.843  1.00  0.00    -0.029 C 
ATOM     10  C   UNL     1       1.834   5.728  -1.897  1.00  0.00     0.093 C 
ATOM     11  C   UNL     1       1.009   6.589  -2.786  1.00  0.00    -0.025 C 
BRANCH   6  12
ATOM     12  C   UNL     1       2.465   3.368  -4.395  1.00  0.00     0.328 C 
ATOM     13  O   UNL     1       2.389   2.635  -5.373  1.00  0.00    -0.251 OA
BRANCH  12  14
ATOM     14  O   UNL     1       3.598   4.060  -4.093  1.00  0.00    -0.459 OA
BRANCH  14  15
ATOM     15  C   UNL     1       4.760   3.931  -4.968  1.00  0.00     0.104 C 
ATOM     16  C   UNL     1       5.904   4.638  -4.228  1.00  0.00     0.056 C 
ATOM     17  C   UNL     1       4.493   4.662  -6.290  1.00  0.00     0.056 C 
ATOM     18  C   UNL     1       5.192   2.473  -5.210  1.00  0.00     0.056 C 
ENDBRANCH  14  15
ENDBRANCH  12  14
ENDBRANCH   6  12
BRANCH   8  19
ATOM     19  N   UNL     1       2.797   3.526  -1.433  1.00  0.00    -0.353 N 
ATOM     20  H   UNL     1       3.650   3.782  -1.929  1.00  0.00     0.344 HD
ATOM     21  H   UNL     1       2.667   2.515  -1.480  1.00  0.00     0.344 HD
ATOM     22  H   UNL     1       2.872   3.814  -0.457  1.00  0.00     0.344 HD
ENDBRANCH   8  19
ENDBRANCH   3   6
ENDBRANCH   1   2
BRANCH   1  23
ATOM     23  C   UNL     1       0.172   0.831  -6.516  1.00  0.00     0.042 C 
BRANCH  23  24
ATOM     24  C   UNL     1      -0.573  -0.478  -6.323  1.00  0.00     0.118 C 
BRANCH  24  25
ATOM     25  N   UNL     1      -1.946  -0.408  -6.807  1.00  0.00    -0.352 N 
ATOM     26  C   UNL     1      -2.517  -0.985  -7.909  1.00  0.00     0.251 C 
ATOM     27  H   UNL     1      -2.555   0.138  -6.259  1.00  0.00     0.163 HD
ATOM     28  O   UNL     1      -3.626  -0.602  -8.295  1.00  0.00    -0.269 OA
BRANCH  26  29
ATOM     29  C   UNL     1      -1.816  -2.055  -8.643  1.00  0.00     0.039 A 
ATOM     30  C   UNL     1      -1.889  -2.089 -10.038  1.00  0.00     0.014 A 
ATOM     31  C   UNL     1      -1.112  -3.048  -7.956  1.00  0.00     0.014 A 
ATOM     32  C   UNL     1      -1.212  -3.086 -10.742  1.00  0.00     0.010 A 
ATOM     33  C   UNL     1      -0.354  -3.974  -8.660  1.00  0.00     0.010 A 
ATOM     34  C   UNL     1      -0.414  -4.019 -10.059  1.00  0.00    -0.014 A 
BRANCH  34  35
ATOM     35  C   UNL     1       0.331  -5.080 -10.782  1.00  0.00     0.031 A 
ATOM     36  C   UNL     1       0.008  -6.527 -10.521  1.00  0.00     0.074 A 
ATOM     37  C   UNL     1       1.333  -4.745 -11.617  1.00  0.00     0.049 A 
ATOM     38  N   UNL     1       0.596  -7.604 -10.979  1.00  0.00    -0.248 NA
ATOM     39  C   UNL     1      -1.103  -6.802  -9.594  1.00  0.00     0.031 C 
ATOM     40  C   UNL     1       1.771  -3.380 -11.910  1.00  0.00     0.029 A 
ATOM     41  N   UNL     1       2.171  -5.531 -12.366  1.00  0.00    -0.354 N 
ATOM     42  C   UNL     1      -0.059  -8.673 -10.382  1.00  0.00     0.074 A 
ATOM     43  C   UNL     1      -1.046  -8.120  -9.482  1.00  0.00     0.031 C 
ATOM     44  C   UNL     1       2.779  -3.423 -12.797  1.00  0.00     0.029 A 
ATOM     45  C   UNL     1       3.082  -4.816 -13.104  1.00  0.00     0.049 A 
ATOM     46  H   UNL     1       2.124  -6.515 -12.374  1.00  0.00     0.167 HD
ATOM     47  C   UNL     1       0.125  -9.998 -10.589  1.00  0.00     0.037 A 
ATOM     48  C   UNL     1       4.055  -5.242 -13.932  1.00  0.00     0.037 A 
ATOM     49  C   UNL     1       1.083 -10.543 -11.513  1.00  0.00     0.049 A 
ATOM     50  C   UNL     1       4.232  -6.721 -14.150  1.00  0.00     0.074 A 
ATOM     51  C   UNL     1       1.315 -11.868 -11.836  1.00  0.00     0.029 A 
ATOM     52  N   UNL     1       1.966  -9.785 -12.268  1.00  0.00    -0.354 N 
ATOM     53  N   UNL     1       3.566  -7.722 -13.627  1.00  0.00    -0.248 NA
ATOM     54  C   UNL     1       5.292  -7.129 -15.082  1.00  0.00     0.031 C 
ATOM     55  C   UNL     1       2.365 -11.914 -12.759  1.00  0.00     0.029 A 
ATOM     56  C   UNL     1       2.752 -10.616 -13.049  1.00  0.00     0.049 A 
ATOM     57  H   UNL     1       2.024  -8.802 -12.252  1.00  0.00     0.167 HD
ATOM     58  C   UNL     1       4.100  -8.873 -14.191  1.00  0.00     0.074 A 
ATOM     59  C   UNL     1       5.136  -8.445 -15.107  1.00  0.00     0.031 C 
ATOM     60  C   UNL     1       3.764 -10.167 -13.970  1.00  0.00     0.037 A 
BRANCH  47  61
ATOM     61  C   UNL     1      -0.739 -10.950  -9.812  1.00  0.00     0.064 A 
ATOM     62  C   UNL     1      -2.114 -11.069 -10.067  1.00  0.00     0.173 A 
ATOM     63  C   UNL     1      -0.181 -11.780  -8.828  1.00  0.00     0.173 A 
ATOM     64  F   UNL     1      -2.700 -10.289 -10.988  1.00  0.00    -0.203 F 
ATOM     65  C   UNL     1      -2.903 -11.962  -9.346  1.00  0.00     0.198 A 
ATOM     66  C   UNL     1      -0.967 -12.694  -8.131  1.00  0.00     0.198 A 
ATOM     67  F   UNL     1       1.129 -11.711  -8.547  1.00  0.00    -0.203 F 
ATOM     68  F   UNL     1      -4.222 -12.021  -9.573  1.00  0.00    -0.200 F 
ATOM     69  C   UNL     1      -2.328 -12.779  -8.386  1.00  0.00     0.200 A 
ATOM     70  F   UNL     1      -0.408 -13.494  -7.212  1.00  0.00    -0.200 F 
ATOM     71  F   UNL     1      -3.087 -13.646  -7.700  1.00  0.00    -0.200 F 
ENDBRANCH  47  61
BRANCH  48  72
ATOM     72  C   UNL     1       4.916  -4.260 -14.642  1.00  0.00     0.064 A 
ATOM     73  C   UNL     1       4.824  -4.098 -16.032  1.00  0.00     0.173 A 
ATOM     74  C   UNL     1       5.857  -3.479 -13.956  1.00  0.00     0.173 A 
ATOM     75  F   UNL     1       3.953  -4.836 -16.735  1.00  0.00    -0.203 F 
ATOM     76  C   UNL     1       5.660  -3.214 -16.711  1.00  0.00     0.198 A 
ATOM     77  C   UNL     1       6.671  -2.573 -14.633  1.00  0.00     0.198 A 
ATOM     78  F   UNL     1       5.981  -3.591 -12.625  1.00  0.00    -0.203 F 
ATOM     79  F   UNL     1       5.588  -3.120 -18.046  1.00  0.00    -0.200 F 
ATOM     80  C   UNL     1       6.580  -2.449 -16.011  1.00  0.00     0.200 A 
ATOM     81  F   UNL     1       7.549  -1.825 -13.950  1.00  0.00    -0.200 F 
ATOM     82  F   UNL     1       7.384  -1.600 -16.664  1.00  0.00    -0.200 F 
ENDBRANCH  48  72
BRANCH  60  83
ATOM     83  C   UNL     1       4.488 -11.210 -14.770  1.00  0.00     0.064 A 
ATOM     84  C   UNL     1       5.832 -11.527 -14.527  1.00  0.00     0.173 A 
ATOM     85  C   UNL     1       3.813 -11.927 -15.770  1.00  0.00     0.173 A 
ATOM     86  F   UNL     1       6.524 -10.859 -13.591  1.00  0.00    -0.203 F 
ATOM     87  C   UNL     1       6.482 -12.504 -15.275  1.00  0.00     0.198 A 
ATOM     88  C   UNL     1       4.457 -12.925 -16.494  1.00  0.00     0.198 A 
ATOM     89  F   UNL     1       2.524 -11.668 -16.036  1.00  0.00    -0.203 F 
ATOM     90  F   UNL     1       7.781 -12.755 -15.060  1.00  0.00    -0.200 F 
ATOM     91  C   UNL     1       5.793 -13.207 -16.253  1.00  0.00     0.200 A 
ATOM     92  F   UNL     1       3.786 -13.613 -17.428  1.00  0.00    -0.200 F 
ATOM     93  F   UNL     1       6.420 -14.151 -16.967  1.00  0.00    -0.200 F 
ENDBRANCH  60  83
ENDBRANCH  34  35
ENDBRANCH  26  29
ENDBRANCH  24  25
ENDBRANCH  23  24
ENDBRANCH   1  23
TORSDOF 14
