REMARK SMILES CNC(=O)[C@H](C)Oc1cc([N+](=O)[O-])c(C(=O)NCCCNC(=O)c2ccc(-c3c4nc(c(-c5c(F)c(F)c(F)c(F)c5F)c5ccc([nH]5)c(-c5c(F)c(F)c(F)c(F)c5F)c5nc(c(-c6c(F)c(F)c(F)c(F)c6F)c6ccc3[nH]6)C=C5)C=C4)cc2)cc1OC
REMARK SMILES IDX 18 1 17 2 15 3 16 4 14 6 8 7 9 8 88 9 10 10 87 11 7 12 5 13
REMARK SMILES IDX 6 14 3 15 1 16 2 17 4 19 89 20 90 21 11 22 12 23 13 24 19 25
REMARK SMILES IDX 20 26 21 27 22 28 23 30 24 31 25 32 86 33 26 34 85 35 27 36
REMARK SMILES IDX 28 37 29 38 79 39 30 40 84 41 78 42 80 43 31 44 83 45 77 46
REMARK SMILES IDX 76 47 32 49 64 50 44 51 63 52 45 53 48 54 62 55 81 56 46 57
REMARK SMILES IDX 47 58 61 60 82 61 49 62 33 63 34 64 42 65 35 66 36 67 40 68
REMARK SMILES IDX 43 69 37 70 38 71 41 72 39 73 65 74 66 75 74 76 67 77 68 78
REMARK SMILES IDX 72 79 75 80 69 81 70 82 73 83 71 84 50 85 51 86 59 87 52 88
REMARK SMILES IDX 53 89 57 90 60 91 54 92 55 93 58 94 56 95
REMARK H PARENT 17 5 2 18 21 29 80 48 48 59
REMARK Flexibility Score: inf
ROOT
ATOM      1  C   UNL     1       1.962  -3.309   1.922  1.00  0.00     0.118 C 
ENDROOT
BRANCH   1   2
ATOM      2  N   UNL     1       1.281  -4.322   1.121  1.00  0.00    -0.352 N 
ATOM      3  C   UNL     1       0.273  -4.257   0.179  1.00  0.00     0.258 C 
ATOM      4  O   UNL     1       0.064  -5.262  -0.488  1.00  0.00    -0.269 OA
ATOM      5  H   UNL     1       1.606  -5.237   1.285  1.00  0.00     0.163 HD
BRANCH   3   6
ATOM      6  C   UNL     1      -0.471  -2.997  -0.105  1.00  0.00     0.121 A 
ATOM      7  C   UNL     1      -1.214  -0.358  -0.769  1.00  0.00     0.169 A 
ATOM      8  C   UNL     1      -1.355  -1.365  -1.719  1.00  0.00     0.137 A 
ATOM      9  C   UNL     1      -0.934  -0.712   0.555  1.00  0.00     0.162 A 
ATOM     10  C   UNL     1      -0.994  -2.686  -1.365  1.00  0.00     0.286 A 
ATOM     11  C   UNL     1      -0.606  -2.024   0.875  1.00  0.00     0.071 A 
BRANCH   7  12
ATOM     12  O   UNL     1      -1.448   0.945  -0.999  1.00  0.00    -0.477 OA
BRANCH  12  13
ATOM     13  C   UNL     1      -0.909   1.672  -2.076  1.00  0.00     0.259 C 
ATOM     14  C   UNL     1      -0.930   3.105  -1.481  1.00  0.00     0.064 C 
BRANCH  13  15
ATOM     15  C   UNL     1       0.429   1.667  -2.908  1.00  0.00     0.260 C 
ATOM     16  C   UNL     1       1.708  -0.380  -2.037  1.00  0.00     0.142 C 
ATOM     17  N   UNL     1       1.462   0.806  -2.804  1.00  0.00    -0.356 N 
ATOM     18  H   UNL     1       2.218   1.046  -3.387  1.00  0.00     0.163 HD
ATOM     19  O   UNL     1       0.601   2.552  -3.761  1.00  0.00    -0.271 OA
ENDBRANCH  13  15
ENDBRANCH  12  13
ENDBRANCH   7  12
BRANCH   9  20
ATOM     20  O   UNL     1      -0.964   0.119   1.642  1.00  0.00    -0.493 OA
ATOM     21  C   UNL     1      -0.282   1.358   1.492  1.00  0.00     0.278 C 
ENDBRANCH   9  20
BRANCH  10  22
ATOM     22  N   UNL     1      -1.283  -3.731  -2.326  1.00  0.00     0.063 N 
ATOM     23  O   UNL     1      -0.689  -3.669  -3.410  1.00  0.00    -0.258 OA
ATOM     24  O   UNL     1      -2.197  -4.515  -2.037  1.00  0.00    -0.258 OA
ENDBRANCH  10  22
ENDBRANCH   3   6
ENDBRANCH   1   2
BRANCH   1  25
ATOM     25  C   UNL     1       1.465  -3.268   3.368  1.00  0.00     0.042 C 
BRANCH  25  26
ATOM     26  C   UNL     1       1.937  -4.435   4.223  1.00  0.00     0.118 C 
BRANCH  26  27
ATOM     27  N   UNL     1       3.353  -4.356   4.535  1.00  0.00    -0.352 N 
ATOM     28  C   UNL     1       3.992  -4.283   5.749  1.00  0.00     0.251 C 
ATOM     29  H   UNL     1       3.951  -4.354   3.752  1.00  0.00     0.163 HD
ATOM     30  O   UNL     1       5.190  -4.019   5.779  1.00  0.00    -0.269 OA
BRANCH  28  31
ATOM     31  C   UNL     1       3.256  -4.498   7.018  1.00  0.00     0.039 A 
ATOM     32  C   UNL     1       3.603  -3.724   8.130  1.00  0.00     0.014 A 
ATOM     33  C   UNL     1       2.271  -5.480   7.141  1.00  0.00     0.014 A 
ATOM     34  C   UNL     1       2.930  -3.898   9.342  1.00  0.00     0.010 A 
ATOM     35  C   UNL     1       1.542  -5.596   8.324  1.00  0.00     0.010 A 
ATOM     36  C   UNL     1       1.872  -4.815   9.441  1.00  0.00    -0.014 A 
BRANCH  36  37
ATOM     37  C   UNL     1       1.108  -4.975  10.706  1.00  0.00     0.031 A 
ATOM     38  C   UNL     1       1.129  -6.285  11.445  1.00  0.00     0.074 A 
ATOM     39  C   UNL     1       0.350  -3.958  11.159  1.00  0.00     0.049 A 
ATOM     40  N   UNL     1       0.482  -6.637  12.528  1.00  0.00    -0.248 NA
ATOM     41  C   UNL     1       1.969  -7.352  10.878  1.00  0.00     0.031 C 
ATOM     42  C   UNL     1       0.210  -2.654  10.509  1.00  0.00     0.029 A 
ATOM     43  N   UNL     1      -0.453  -3.864  12.268  1.00  0.00    -0.354 N 
ATOM     44  C   UNL     1       0.824  -7.963  12.760  1.00  0.00     0.074 A 
ATOM     45  C   UNL     1       1.692  -8.371  11.678  1.00  0.00     0.031 C 
ATOM     46  C   UNL     1      -0.611  -1.884  11.240  1.00  0.00     0.029 A 
ATOM     47  C   UNL     1      -1.086  -2.650  12.388  1.00  0.00     0.049 A 
ATOM     48  H   UNL     1      -0.565  -4.596  12.917  1.00  0.00     0.167 HD
ATOM     49  C   UNL     1       0.465  -8.761  13.795  1.00  0.00     0.037 A 
ATOM     50  C   UNL     1      -1.959  -2.209  13.314  1.00  0.00     0.037 A 
ATOM     51  C   UNL     1      -0.381  -8.343  14.883  1.00  0.00     0.049 A 
ATOM     52  C   UNL     1      -2.346  -3.117  14.450  1.00  0.00     0.074 A 
ATOM     53  C   UNL     1      -0.754  -9.056  16.009  1.00  0.00     0.029 A 
ATOM     54  N   UNL     1      -0.989  -7.100  14.978  1.00  0.00    -0.354 N 
ATOM     55  N   UNL     1      -1.960  -4.345  14.696  1.00  0.00    -0.248 NA
ATOM     56  C   UNL     1      -3.284  -2.573  15.442  1.00  0.00     0.031 C 
ATOM     57  C   UNL     1      -1.629  -8.264  16.759  1.00  0.00     0.029 A 
ATOM     58  C   UNL     1      -1.755  -7.035  16.132  1.00  0.00     0.049 A 
ATOM     59  H   UNL     1      -0.891  -6.371  14.323  1.00  0.00     0.167 HD
ATOM     60  C   UNL     1      -2.582  -4.710  15.883  1.00  0.00     0.074 A 
ATOM     61  C   UNL     1      -3.358  -3.567  16.316  1.00  0.00     0.031 C 
ATOM     62  C   UNL     1      -2.516  -5.887  16.553  1.00  0.00     0.037 A 
BRANCH  49  63
ATOM     63  C   UNL     1       0.987 -10.170  13.802  1.00  0.00     0.064 A 
ATOM     64  C   UNL     1       2.345 -10.452  14.011  1.00  0.00     0.173 A 
ATOM     65  C   UNL     1       0.111 -11.254  13.637  1.00  0.00     0.173 A 
ATOM     66  F   UNL     1       3.227  -9.453  14.165  1.00  0.00    -0.203 F 
ATOM     67  C   UNL     1       2.812 -11.764  14.024  1.00  0.00     0.198 A 
ATOM     68  C   UNL     1       0.577 -12.566  13.684  1.00  0.00     0.198 A 
ATOM     69  F   UNL     1      -1.199 -11.043  13.441  1.00  0.00    -0.203 F 
ATOM     70  F   UNL     1       4.122 -12.006  14.175  1.00  0.00    -0.200 F 
ATOM     71  C   UNL     1       1.927 -12.820  13.869  1.00  0.00     0.200 A 
ATOM     72  F   UNL     1      -0.283 -13.586  13.548  1.00  0.00    -0.200 F 
ATOM     73  F   UNL     1       2.376 -14.082  13.890  1.00  0.00    -0.200 F 
ENDBRANCH  49  63
BRANCH  50  74
ATOM     74  C   UNL     1      -2.511  -0.832  13.217  1.00  0.00     0.064 A 
ATOM     75  C   UNL     1      -2.158   0.153  14.150  1.00  0.00     0.173 A 
ATOM     76  C   UNL     1      -3.403  -0.472  12.196  1.00  0.00     0.173 A 
ATOM     77  F   UNL     1      -1.323  -0.147  15.156  1.00  0.00    -0.203 F 
ATOM     78  C   UNL     1      -2.693   1.438  14.079  1.00  0.00     0.198 A 
ATOM     79  C   UNL     1      -3.913   0.821  12.108  1.00  0.00     0.198 A 
ATOM     80  F   UNL     1      -3.768  -1.375  11.274  1.00  0.00    -0.203 F 
ATOM     81  F   UNL     1      -2.375   2.345  15.013  1.00  0.00    -0.200 F 
ATOM     82  C   UNL     1      -3.565   1.773  13.055  1.00  0.00     0.200 A 
ATOM     83  F   UNL     1      -4.743   1.145  11.107  1.00  0.00    -0.200 F 
ATOM     84  F   UNL     1      -4.076   3.010  12.984  1.00  0.00    -0.200 F 
ENDBRANCH  50  74
BRANCH  62  85
ATOM     85  C   UNL     1      -3.273  -5.985  17.847  1.00  0.00     0.064 A 
ATOM     86  C   UNL     1      -4.674  -6.037  17.882  1.00  0.00     0.173 A 
ATOM     87  C   UNL     1      -2.583  -6.063  19.067  1.00  0.00     0.173 A 
ATOM     88  F   UNL     1      -5.381  -5.952  16.745  1.00  0.00    -0.203 F 
ATOM     89  C   UNL     1      -5.357  -6.135  19.091  1.00  0.00     0.198 A 
ATOM     90  C   UNL     1      -3.268  -6.194  20.272  1.00  0.00     0.198 A 
ATOM     91  F   UNL     1      -1.242  -6.024  19.090  1.00  0.00    -0.203 F 
ATOM     92  F   UNL     1      -6.697  -6.130  19.104  1.00  0.00    -0.200 F 
ATOM     93  C   UNL     1      -4.654  -6.221  20.284  1.00  0.00     0.200 A 
ATOM     94  F   UNL     1      -2.586  -6.292  21.421  1.00  0.00    -0.200 F 
ATOM     95  F   UNL     1      -5.313  -6.322  21.446  1.00  0.00    -0.200 F 
ENDBRANCH  62  85
ENDBRANCH  36  37
ENDBRANCH  28  31
ENDBRANCH  26  27
ENDBRANCH  25  26
ENDBRANCH   1  25
TORSDOF 15
