REMARK SMILES C#CC[N@@H+](CC(=O)NCCCNC(=O)c1ccc(-c2c3nc(c(-c4c(F)c(F)c(F)c(F)c4F)c4ccc([nH]4)c(-c4c(F)c(F)c(F)c(F)c4F)c4nc(c(-c5c(F)c(F)c(F)c(F)c5F)c5ccc2[nH]5)C=C4)C=C3)cc1)Cc1cn(CC)c2ccccc12
REMARK SMILES IDX 9 1 8 2 6 3 7 4 5 6 4 7 3 9 2 10 1 11 78 12 79 13 80 14
REMARK SMILES IDX 89 15 81 16 84 17 88 18 85 19 87 20 86 21 82 22 83 23 10 24
REMARK SMILES IDX 11 25 12 26 13 27 14 29 15 30 16 31 77 32 17 33 76 34 18 35
REMARK SMILES IDX 19 36 20 37 70 38 21 39 75 40 69 41 71 42 22 43 74 44 68 45
REMARK SMILES IDX 67 46 23 48 55 49 35 50 54 51 36 52 39 53 53 54 72 55 37 56
REMARK SMILES IDX 38 57 52 59 73 60 40 61 24 62 25 63 33 64 26 65 27 66 31 67
REMARK SMILES IDX 34 68 28 69 29 70 32 71 30 72 56 73 57 74 65 75 58 76 59 77
REMARK SMILES IDX 63 78 66 79 60 80 61 81 64 82 62 83 41 84 42 85 50 86 43 87
REMARK SMILES IDX 44 88 48 89 51 90 45 91 46 92 49 93 47 94
REMARK H PARENT 8 5 4 8 12 28 71 47 39 58
REMARK Flexibility Score: inf
ROOT
ATOM      1  C   UNL     1      -3.846  -1.569  -1.890  1.00  0.00     0.118 C 
ENDROOT
BRANCH   1   2
ATOM      2  N   UNL     1      -4.417  -1.693  -0.556  1.00  0.00    -0.351 N 
ATOM      3  C   UNL     1      -4.527  -0.858   0.517  1.00  0.00     0.275 C 
ATOM      4  O   UNL     1      -5.100  -1.347   1.496  1.00  0.00    -0.269 OA
ATOM      5  H   UNL     1      -4.814  -2.579  -0.392  1.00  0.00     0.163 HD
BRANCH   3   6
ATOM      6  C   UNL     1      -3.999   0.593   0.510  1.00  0.00     0.364 C 
BRANCH   6   7
ATOM      7  N   UNL     1      -2.579   0.790   0.984  1.00  0.00    -0.313 N 
ATOM      8  H   UNL     1      -2.382   1.789   1.028  1.00  0.00     0.349 HD
BRANCH   7   9
ATOM      9  C   UNL     1      -1.772   0.077   0.037  1.00  0.00     0.354 C 
BRANCH   9  10
ATOM     10  C   UNL     1      -0.252   0.077   0.037  1.00  0.00    -0.047 C 
ATOM     11  C   UNL     1       1.052   0.077   0.037  1.00  0.00     0.010 C 
ENDBRANCH   9  10
ENDBRANCH   7   9
BRANCH   7  12
ATOM     12  C   UNL     1      -2.293   0.339   2.365  1.00  0.00     0.302 C 
BRANCH  12  13
ATOM     13  C   UNL     1      -3.350   0.847   3.285  1.00  0.00     0.032 A 
ATOM     14  C   UNL     1      -4.260   0.060   3.964  1.00  0.00     0.096 A 
ATOM     15  C   UNL     1      -3.774   2.199   3.440  1.00  0.00     0.008 A 
ATOM     16  N   UNL     1      -5.409   0.815   4.068  1.00  0.00    -0.347 N 
ATOM     17  C   UNL     1      -5.102   2.152   3.882  1.00  0.00     0.048 A 
ATOM     18  C   UNL     1      -3.215   3.434   3.053  1.00  0.00     0.011 A 
ATOM     19  C   UNL     1      -5.890   3.311   3.938  1.00  0.00     0.027 A 
ATOM     20  C   UNL     1      -3.986   4.593   3.130  1.00  0.00     0.001 A 
ATOM     21  C   UNL     1      -5.307   4.528   3.562  1.00  0.00     0.002 A 
BRANCH  16  22
ATOM     22  C   UNL     1      -6.720   0.203   3.907  1.00  0.00     0.119 C 
ATOM     23  C   UNL     1      -7.710   0.469   5.019  1.00  0.00     0.027 C 
ENDBRANCH  16  22
ENDBRANCH  12  13
ENDBRANCH   7  12
ENDBRANCH   6   7
ENDBRANCH   3   6
ENDBRANCH   1   2
BRANCH   1  24
ATOM     24  C   UNL     1      -2.553  -2.376  -2.092  1.00  0.00     0.042 C 
BRANCH  24  25
ATOM     25  C   UNL     1      -2.556  -3.773  -1.476  1.00  0.00     0.118 C 
BRANCH  25  26
ATOM     26  N   UNL     1      -3.224  -4.718  -2.350  1.00  0.00    -0.352 N 
ATOM     27  C   UNL     1      -2.647  -5.671  -3.154  1.00  0.00     0.251 C 
ATOM     28  H   UNL     1      -4.207  -4.671  -2.370  1.00  0.00     0.163 HD
ATOM     29  O   UNL     1      -3.271  -6.139  -4.098  1.00  0.00    -0.269 OA
BRANCH  27  30
ATOM     30  C   UNL     1      -1.273  -6.144  -2.869  1.00  0.00     0.039 A 
ATOM     31  C   UNL     1      -0.382  -6.329  -3.930  1.00  0.00     0.014 A 
ATOM     32  C   UNL     1      -0.892  -6.480  -1.566  1.00  0.00     0.014 A 
ATOM     33  C   UNL     1       0.893  -6.846  -3.684  1.00  0.00     0.010 A 
ATOM     34  C   UNL     1       0.400  -6.939  -1.314  1.00  0.00     0.010 A 
ATOM     35  C   UNL     1       1.293  -7.157  -2.375  1.00  0.00    -0.014 A 
BRANCH  35  36
ATOM     36  C   UNL     1       2.613  -7.781  -2.104  1.00  0.00     0.031 A 
ATOM     37  C   UNL     1       2.679  -9.195  -1.592  1.00  0.00     0.074 A 
ATOM     38  C   UNL     1       3.744  -7.070  -2.265  1.00  0.00     0.049 A 
ATOM     39  N   UNL     1       3.722  -9.901  -1.233  1.00  0.00    -0.248 NA
ATOM     40  C   UNL     1       1.397  -9.900  -1.433  1.00  0.00     0.031 C 
ATOM     41  C   UNL     1       3.809  -5.676  -2.706  1.00  0.00     0.029 A 
ATOM     42  N   UNL     1       5.056  -7.418  -2.063  1.00  0.00    -0.354 N 
ATOM     43  C   UNL     1       3.220 -11.114  -0.779  1.00  0.00     0.074 A 
ATOM     44  C   UNL     1       1.778 -11.035  -0.868  1.00  0.00     0.031 C 
ATOM     45  C   UNL     1       5.095  -5.291  -2.751  1.00  0.00     0.029 A 
ATOM     46  C   UNL     1       5.941  -6.401  -2.320  1.00  0.00     0.049 A 
ATOM     47  H   UNL     1       5.335  -8.313  -1.762  1.00  0.00     0.167 HD
ATOM     48  C   UNL     1       3.899 -12.204  -0.349  1.00  0.00     0.037 A 
ATOM     49  C   UNL     1       7.283  -6.369  -2.216  1.00  0.00     0.037 A 
ATOM     50  C   UNL     1       5.334 -12.299  -0.310  1.00  0.00     0.049 A 
ATOM     51  C   UNL     1       8.019  -7.606  -1.780  1.00  0.00     0.074 A 
ATOM     52  C   UNL     1       6.120 -13.387   0.025  1.00  0.00     0.029 A 
ATOM     53  N   UNL     1       6.199 -11.261  -0.623  1.00  0.00    -0.354 N 
ATOM     54  N   UNL     1       7.537  -8.773  -1.426  1.00  0.00    -0.248 NA
ATOM     55  C   UNL     1       9.486  -7.527  -1.742  1.00  0.00     0.031 C 
ATOM     56  C   UNL     1       7.462 -12.998  -0.051  1.00  0.00     0.029 A 
ATOM     57  C   UNL     1       7.512 -11.678  -0.472  1.00  0.00     0.049 A 
ATOM     58  H   UNL     1       5.922 -10.361  -0.910  1.00  0.00     0.167 HD
ATOM     59  C   UNL     1       8.637  -9.570  -1.142  1.00  0.00     0.074 A 
ATOM     60  C   UNL     1       9.813  -8.761  -1.381  1.00  0.00     0.031 C 
ATOM     61  C   UNL     1       8.669 -10.858  -0.719  1.00  0.00     0.037 A 
BRANCH  48  62
ATOM     62  C   UNL     1       3.095 -13.386   0.111  1.00  0.00     0.064 A 
ATOM     63  C   UNL     1       2.369 -14.180  -0.789  1.00  0.00     0.173 A 
ATOM     64  C   UNL     1       3.071 -13.745   1.468  1.00  0.00     0.173 A 
ATOM     65  F   UNL     1       2.350 -13.874  -2.095  1.00  0.00    -0.203 F 
ATOM     66  C   UNL     1       1.622 -15.268  -0.345  1.00  0.00     0.198 A 
ATOM     67  C   UNL     1       2.347 -14.851   1.904  1.00  0.00     0.198 A 
ATOM     68  F   UNL     1       3.753 -13.024   2.370  1.00  0.00    -0.203 F 
ATOM     69  F   UNL     1       0.895 -15.980  -1.217  1.00  0.00    -0.200 F 
ATOM     70  C   UNL     1       1.616 -15.606   1.000  1.00  0.00     0.200 A 
ATOM     71  F   UNL     1       2.351 -15.183   3.203  1.00  0.00    -0.200 F 
ATOM     72  F   UNL     1       0.899 -16.655   1.425  1.00  0.00    -0.200 F 
ENDBRANCH  48  62
BRANCH  49  73
ATOM     73  C   UNL     1       8.018  -5.126  -2.564  1.00  0.00     0.064 A 
ATOM     74  C   UNL     1       8.781  -5.045  -3.737  1.00  0.00     0.173 A 
ATOM     75  C   UNL     1       7.960  -3.991  -1.742  1.00  0.00     0.173 A 
ATOM     76  F   UNL     1       8.881  -6.112  -4.544  1.00  0.00    -0.203 F 
ATOM     77  C   UNL     1       9.470  -3.881  -4.068  1.00  0.00     0.198 A 
ATOM     78  C   UNL     1       8.630  -2.819  -2.087  1.00  0.00     0.198 A 
ATOM     79  F   UNL     1       7.238  -4.016  -0.612  1.00  0.00    -0.203 F 
ATOM     80  F   UNL     1      10.221  -3.842  -5.178  1.00  0.00    -0.200 F 
ATOM     81  C   UNL     1       9.389  -2.767  -3.247  1.00  0.00     0.200 A 
ATOM     82  F   UNL     1       8.538  -1.740  -1.298  1.00  0.00    -0.200 F 
ATOM     83  F   UNL     1      10.046  -1.644  -3.570  1.00  0.00    -0.200 F 
ENDBRANCH  49  73
BRANCH  61  84
ATOM     84  C   UNL     1      10.019 -11.478  -0.509  1.00  0.00     0.064 A 
ATOM     85  C   UNL     1      10.816 -11.140   0.594  1.00  0.00     0.173 A 
ATOM     86  C   UNL     1      10.499 -12.453  -1.396  1.00  0.00     0.173 A 
ATOM     87  F   UNL     1      10.406 -10.202   1.461  1.00  0.00    -0.203 F 
ATOM     88  C   UNL     1      12.056 -11.742   0.790  1.00  0.00     0.198 A 
ATOM     89  C   UNL     1      11.727 -13.071  -1.183  1.00  0.00     0.198 A 
ATOM     90  F   UNL     1       9.770 -12.815  -2.463  1.00  0.00    -0.203 F 
ATOM     91  F   UNL     1      12.819 -11.375   1.828  1.00  0.00    -0.200 F 
ATOM     92  C   UNL     1      12.507 -12.711  -0.094  1.00  0.00     0.200 A 
ATOM     93  F   UNL     1      12.157 -14.015  -2.031  1.00  0.00    -0.200 F 
ATOM     94  F   UNL     1      13.698 -13.294   0.101  1.00  0.00    -0.200 F 
ENDBRANCH  61  84
ENDBRANCH  35  36
ENDBRANCH  27  30
ENDBRANCH  25  26
ENDBRANCH  24  25
ENDBRANCH   1  24
TORSDOF 16
