REMARK SMILES CCCCNC(=O)c1cnn([C@@H](C)C(=O)NCCCNC(=O)c2ccc(-c3c4nc(c(-c5c(F)c(F)c(F)c(F)c5F)c5ccc([nH]5)c(-c5c(F)c(F)c(F)c(F)c5F)c5nc(c(-c6c(F)c(F)c(F)c(F)c6F)c6ccc3[nH]6)C=C5)C=C4)cc2)c1
REMARK SMILES IDX 14 1 15 2 16 3 12 5 13 6 11 7 8 8 9 9 86 10 10 11 6 12 5 13
REMARK SMILES IDX 7 15 4 16 3 17 2 18 1 19 17 20 18 21 19 22 20 23 21 24 22 26
REMARK SMILES IDX 23 27 24 28 85 29 25 30 84 31 26 32 27 33 28 34 78 35 29 36
REMARK SMILES IDX 83 37 77 38 79 39 30 40 82 41 76 42 75 43 31 45 63 46 43 47
REMARK SMILES IDX 62 48 44 49 47 50 61 51 80 52 45 53 46 54 60 56 81 57 48 58
REMARK SMILES IDX 32 59 33 60 41 61 34 62 35 63 39 64 42 65 36 66 37 67 40 68
REMARK SMILES IDX 38 69 64 70 65 71 73 72 66 73 67 74 71 75 74 76 68 77 69 78
REMARK SMILES IDX 72 79 70 80 49 81 50 82 58 83 51 84 52 85 56 86 59 87 53 88
REMARK SMILES IDX 54 89 57 90 55 91
REMARK H PARENT 16 4 5 14 20 25 79 44 47 55
REMARK Flexibility Score: inf
ROOT
ATOM      1  C   UNL     1       0.049   7.365  -6.070  1.00  0.00     0.244 C 
ATOM      2  O   UNL     1      -0.853   7.955  -6.682  1.00  0.00    -0.273 OA
ATOM      3  N   UNL     1       1.072   6.882  -6.837  1.00  0.00    -0.354 N 
ATOM      4  H   UNL     1       0.979   7.076  -7.798  1.00  0.00     0.163 HD
ENDROOT
BRANCH   1   5
ATOM      5  C   UNL     1      -0.031   7.258  -4.543  1.00  0.00     0.193 C 
ATOM      6  C   UNL     1       1.112   7.947  -3.803  1.00  0.00     0.044 C 
BRANCH   5   7
ATOM      7  N   UNL     1      -0.273   5.891  -4.102  1.00  0.00    -0.260 N 
ATOM      8  C   UNL     1      -1.062   4.051  -3.188  1.00  0.00     0.077 A 
ATOM      9  C   UNL     1       0.006   3.808  -4.063  1.00  0.00     0.149 A 
ATOM     10  C   UNL     1      -1.275   5.415  -3.299  1.00  0.00     0.123 A 
ATOM     11  N   UNL     1       0.591   4.932  -4.449  1.00  0.00    -0.180 NA
BRANCH   8  12
ATOM     12  C   UNL     1      -1.773   3.087  -2.384  1.00  0.00     0.254 C 
ATOM     13  N   UNL     1      -1.027   2.115  -1.756  1.00  0.00    -0.352 N 
ATOM     14  H   UNL     1      -1.545   1.382  -1.352  1.00  0.00     0.163 HD
ATOM     15  O   UNL     1      -2.991   3.113  -2.242  1.00  0.00    -0.269 OA
BRANCH  13  16
ATOM     16  C   UNL     1       0.421   2.012  -1.602  1.00  0.00     0.116 C 
BRANCH  16  17
ATOM     17  C   UNL     1       0.875   2.201  -0.161  1.00  0.00     0.021 C 
BRANCH  17  18
ATOM     18  C   UNL     1       0.452   1.083   0.785  1.00  0.00    -0.002 C 
ATOM     19  C   UNL     1       0.987  -0.280   0.373  1.00  0.00     0.004 C 
ENDBRANCH  17  18
ENDBRANCH  16  17
ENDBRANCH  13  16
ENDBRANCH   8  12
ENDBRANCH   5   7
ENDBRANCH   1   5
BRANCH   3  20
ATOM     20  C   UNL     1       2.280   6.130  -6.496  1.00  0.00     0.117 C 
BRANCH  20  21
ATOM     21  C   UNL     1       2.188   4.622  -6.776  1.00  0.00     0.042 C 
BRANCH  21  22
ATOM     22  C   UNL     1       2.470   4.256  -8.208  1.00  0.00     0.118 C 
BRANCH  22  23
ATOM     23  N   UNL     1       3.868   4.412  -8.616  1.00  0.00    -0.352 N 
ATOM     24  C   UNL     1       4.415   4.122  -9.866  1.00  0.00     0.251 C 
ATOM     25  H   UNL     1       4.489   4.759  -7.935  1.00  0.00     0.163 HD
ATOM     26  O   UNL     1       5.605   3.998 -10.040  1.00  0.00    -0.269 OA
BRANCH  24  27
ATOM     27  C   UNL     1       3.458   3.975 -10.982  1.00  0.00     0.039 A 
ATOM     28  C   UNL     1       3.494   2.918 -11.894  1.00  0.00     0.014 A 
ATOM     29  C   UNL     1       2.405   4.871 -10.974  1.00  0.00     0.014 A 
ATOM     30  C   UNL     1       2.396   2.738 -12.737  1.00  0.00     0.010 A 
ATOM     31  C   UNL     1       1.228   4.478 -11.527  1.00  0.00     0.010 A 
ATOM     32  C   UNL     1       1.254   3.523 -12.529  1.00  0.00    -0.014 A 
BRANCH  32  33
ATOM     33  C   UNL     1       0.047   3.430 -13.336  1.00  0.00     0.031 A 
ATOM     34  C   UNL     1      -0.625   2.104 -13.370  1.00  0.00     0.074 A 
ATOM     35  C   UNL     1      -0.562   4.553 -13.787  1.00  0.00     0.049 A 
ATOM     36  N   UNL     1      -0.835   1.341 -14.392  1.00  0.00    -0.248 NA
ATOM     37  C   UNL     1      -1.044   1.511 -12.091  1.00  0.00     0.031 C 
ATOM     38  C   UNL     1      -0.226   5.966 -13.527  1.00  0.00     0.029 A 
ATOM     39  N   UNL     1      -1.711   4.663 -14.498  1.00  0.00    -0.354 N 
ATOM     40  C   UNL     1      -1.556   0.245 -13.921  1.00  0.00     0.074 A 
ATOM     41  C   UNL     1      -1.522   0.328 -12.484  1.00  0.00     0.031 C 
ATOM     42  C   UNL     1      -1.270   6.756 -13.850  1.00  0.00     0.029 A 
ATOM     43  C   UNL     1      -2.247   5.941 -14.539  1.00  0.00     0.049 A 
ATOM     44  H   UNL     1      -2.131   3.896 -14.951  1.00  0.00     0.167 HD
ATOM     45  C   UNL     1      -2.296  -0.535 -14.760  1.00  0.00     0.037 A 
ATOM     46  C   UNL     1      -3.429   6.298 -15.090  1.00  0.00     0.037 A 
ATOM     47  C   UNL     1      -1.936  -0.301 -16.135  1.00  0.00     0.049 A 
ATOM     48  C   UNL     1      -3.816   5.207 -16.018  1.00  0.00     0.074 A 
ATOM     49  C   UNL     1      -0.788  -0.484 -16.881  1.00  0.00     0.029 A 
ATOM     50  N   UNL     1      -2.717   0.558 -16.869  1.00  0.00    -0.354 N 
ATOM     51  N   UNL     1      -3.147   4.901 -17.098  1.00  0.00    -0.248 NA
ATOM     52  C   UNL     1      -4.666   4.153 -15.489  1.00  0.00     0.031 C 
ATOM     53  C   UNL     1      -0.730   0.649 -17.747  1.00  0.00     0.029 A 
ATOM     54  C   UNL     1      -1.873   1.419 -17.524  1.00  0.00     0.049 A 
ATOM     55  H   UNL     1      -3.701   0.556 -16.916  1.00  0.00     0.167 HD
ATOM     56  C   UNL     1      -3.172   3.514 -17.154  1.00  0.00     0.074 A 
ATOM     57  C   UNL     1      -4.186   3.115 -16.180  1.00  0.00     0.031 C 
ATOM     58  C   UNL     1      -2.175   2.812 -17.770  1.00  0.00     0.037 A 
BRANCH  45  59
ATOM     59  C   UNL     1      -3.558  -1.273 -14.382  1.00  0.00     0.064 A 
ATOM     60  C   UNL     1      -4.136  -2.172 -15.304  1.00  0.00     0.173 A 
ATOM     61  C   UNL     1      -4.373  -0.930 -13.282  1.00  0.00     0.173 A 
ATOM     62  F   UNL     1      -3.460  -2.560 -16.396  1.00  0.00    -0.203 F 
ATOM     63  C   UNL     1      -5.451  -2.627 -15.172  1.00  0.00     0.198 A 
ATOM     64  C   UNL     1      -5.666  -1.430 -13.125  1.00  0.00     0.198 A 
ATOM     65  F   UNL     1      -4.000  -0.017 -12.378  1.00  0.00    -0.203 F 
ATOM     66  F   UNL     1      -5.995  -3.380 -16.137  1.00  0.00    -0.200 F 
ATOM     67  C   UNL     1      -6.217  -2.251 -14.085  1.00  0.00     0.200 A 
ATOM     68  F   UNL     1      -6.398  -1.041 -12.071  1.00  0.00    -0.200 F 
ATOM     69  F   UNL     1      -7.496  -2.636 -13.986  1.00  0.00    -0.200 F 
ENDBRANCH  45  59
BRANCH  46  70
ATOM     70  C   UNL     1      -4.379   7.311 -14.580  1.00  0.00     0.064 A 
ATOM     71  C   UNL     1      -5.359   7.868 -15.412  1.00  0.00     0.173 A 
ATOM     72  C   UNL     1      -4.514   7.549 -13.197  1.00  0.00     0.173 A 
ATOM     73  F   UNL     1      -5.320   7.649 -16.735  1.00  0.00    -0.203 F 
ATOM     74  C   UNL     1      -6.429   8.601 -14.890  1.00  0.00     0.198 A 
ATOM     75  C   UNL     1      -5.580   8.284 -12.677  1.00  0.00     0.198 A 
ATOM     76  F   UNL     1      -3.667   6.993 -12.319  1.00  0.00    -0.203 F 
ATOM     77  F   UNL     1      -7.381   9.070 -15.709  1.00  0.00    -0.200 F 
ATOM     78  C   UNL     1      -6.545   8.799 -13.523  1.00  0.00     0.200 A 
ATOM     79  F   UNL     1      -5.702   8.434 -11.351  1.00  0.00    -0.200 F 
ATOM     80  F   UNL     1      -7.604   9.447 -13.018  1.00  0.00    -0.200 F 
ENDBRANCH  46  70
BRANCH  58  81
ATOM     81  C   UNL     1      -1.166   3.584 -18.581  1.00  0.00     0.064 A 
ATOM     82  C   UNL     1      -0.255   4.504 -18.033  1.00  0.00     0.173 A 
ATOM     83  C   UNL     1      -1.002   3.255 -19.932  1.00  0.00     0.173 A 
ATOM     84  F   UNL     1      -0.275   4.800 -16.730  1.00  0.00    -0.203 F 
ATOM     85  C   UNL     1       0.746   5.092 -18.807  1.00  0.00     0.198 A 
ATOM     86  C   UNL     1       0.019   3.816 -20.697  1.00  0.00     0.198 A 
ATOM     87  F   UNL     1      -1.802   2.339 -20.500  1.00  0.00    -0.203 F 
ATOM     88  F   UNL     1       1.598   5.968 -18.254  1.00  0.00    -0.200 F 
ATOM     89  C   UNL     1       0.887   4.740 -20.137  1.00  0.00     0.200 A 
ATOM     90  F   UNL     1       0.183   3.434 -21.971  1.00  0.00    -0.200 F 
ATOM     91  F   UNL     1       1.876   5.267 -20.872  1.00  0.00    -0.200 F 
ENDBRANCH  58  81
ENDBRANCH  32  33
ENDBRANCH  24  27
ENDBRANCH  22  23
ENDBRANCH  21  22
ENDBRANCH  20  21
ENDBRANCH   3  20
TORSDOF 15
