REMARK SMILES CCn1ccc(NC(=O)[C@H]2[C@@H](C(=O)NCCCNC(=O)c3ccc(-c4c5nc(c(-c6c(F)c(F)c(F)c(F)c6F)c6ccc([nH]6)c(-c6c(F)c(F)c(F)c(F)c6F)c6nc(c(-c7c(F)c(F)c(F)c(F)c7F)c7ccc4[nH]7)C=C6)C=C5)cc3)[C@H]3C=C[C@@H]2C3)n1
REMARK SMILES IDX 15 1 14 2 12 3 13 4 11 6 10 7 87 8 84 9 86 10 88 11 85 12
REMARK SMILES IDX 8 13 7 14 9 16 6 17 3 18 4 19 89 20 5 21 2 22 1 23 16 24
REMARK SMILES IDX 17 25 18 26 19 27 20 29 21 30 22 31 83 32 23 33 82 34 24 35
REMARK SMILES IDX 25 36 26 37 76 38 27 39 81 40 75 41 77 42 28 43 80 44 74 45
REMARK SMILES IDX 73 46 29 48 61 49 41 50 60 51 42 52 45 53 59 54 78 55 43 56
REMARK SMILES IDX 44 57 58 59 79 60 46 61 30 62 31 63 39 64 32 65 33 66 37 67
REMARK SMILES IDX 40 68 34 69 35 70 38 71 36 72 62 73 63 74 71 75 64 76 65 77
REMARK SMILES IDX 69 78 72 79 66 80 67 81 70 82 68 83 47 84 48 85 56 86 49 87
REMARK SMILES IDX 50 88 54 89 57 90 51 91 52 92 55 93 53 94
REMARK H PARENT 14 5 7 15 18 28 77 47 45 58
REMARK Flexibility Score: inf
ROOT
ATOM      1  C   UNL     1       3.653  -7.224   6.263  1.00  0.00     0.117 C 
ENDROOT
BRANCH   1   2
ATOM      2  N   UNL     1       3.815  -6.123   7.207  1.00  0.00    -0.356 N 
ATOM      3  C   UNL     1       3.049  -5.012   7.437  1.00  0.00     0.224 C 
ATOM      4  O   UNL     1       3.306  -4.331   8.429  1.00  0.00    -0.275 OA
ATOM      5  H   UNL     1       4.615  -6.190   7.777  1.00  0.00     0.163 HD
BRANCH   3   6
ATOM      6  C   UNL     1       1.847  -4.754   6.553  1.00  0.00     0.098 C 
ATOM      7  C   UNL     1       2.076  -4.432   5.046  1.00  0.00     0.099 C 
ATOM      8  C   UNL     1       1.213  -3.162   4.824  1.00  0.00     0.025 C 
ATOM      9  C   UNL     1       0.898  -3.606   6.993  1.00  0.00     0.025 C 
ATOM     10  C   UNL     1       1.800  -2.011   5.608  1.00  0.00    -0.027 C 
ATOM     11  C   UNL     1       0.022  -3.470   5.733  1.00  0.00     0.017 C 
ATOM     12  C   UNL     1       1.609  -2.280   6.907  1.00  0.00    -0.027 C 
BRANCH   7  13
ATOM     13  C   UNL     1       3.465  -4.210   4.480  1.00  0.00     0.230 C 
ATOM     14  N   UNL     1       3.736  -4.595   3.193  1.00  0.00    -0.309 N 
ATOM     15  H   UNL     1       4.641  -4.359   2.884  1.00  0.00     0.171 HD
ATOM     16  O   UNL     1       4.380  -3.723   5.146  1.00  0.00    -0.274 OA
BRANCH  14  17
ATOM     17  C   UNL     1       2.973  -5.250   2.255  1.00  0.00     0.154 A 
ATOM     18  N   UNL     1       2.628  -6.479   0.552  1.00  0.00    -0.271 N 
ATOM     19  C   UNL     1       1.393  -6.281   1.087  1.00  0.00     0.111 A 
ATOM     20  N   UNL     1       3.604  -5.854   1.242  1.00  0.00    -0.155 NA
ATOM     21  C   UNL     1       1.579  -5.439   2.152  1.00  0.00     0.068 A 
BRANCH  18  22
ATOM     22  C   UNL     1       2.971  -7.255  -0.626  1.00  0.00     0.141 C 
ATOM     23  C   UNL     1       1.786  -7.626  -1.508  1.00  0.00     0.029 C 
ENDBRANCH  18  22
ENDBRANCH  14  17
ENDBRANCH   7  13
ENDBRANCH   3   6
ENDBRANCH   1   2
BRANCH   1  24
ATOM     24  C   UNL     1       4.728  -7.277   5.174  1.00  0.00     0.042 C 
BRANCH  24  25
ATOM     25  C   UNL     1       6.139  -7.421   5.702  1.00  0.00     0.118 C 
BRANCH  25  26
ATOM     26  N   UNL     1       6.493  -8.790   6.050  1.00  0.00    -0.352 N 
ATOM     27  C   UNL     1       7.764  -9.286   6.287  1.00  0.00     0.251 C 
ATOM     28  H   UNL     1       5.750  -9.431   6.125  1.00  0.00     0.163 HD
ATOM     29  O   UNL     1       7.991 -10.482   6.217  1.00  0.00    -0.269 OA
BRANCH  27  30
ATOM     30  C   UNL     1       8.845  -8.335   6.626  1.00  0.00     0.039 A 
ATOM     31  C   UNL     1      10.152  -8.538   6.175  1.00  0.00     0.014 A 
ATOM     32  C   UNL     1       8.535  -7.224   7.408  1.00  0.00     0.014 A 
ATOM     33  C   UNL     1      11.122  -7.583   6.475  1.00  0.00     0.010 A 
ATOM     34  C   UNL     1       9.443  -6.210   7.564  1.00  0.00     0.010 A 
ATOM     35  C   UNL     1      10.753  -6.413   7.160  1.00  0.00    -0.014 A 
BRANCH  35  36
ATOM     36  C   UNL     1      11.698  -5.318   7.349  1.00  0.00     0.031 A 
ATOM     37  C   UNL     1      12.262  -4.807   6.072  1.00  0.00     0.074 A 
ATOM     38  C   UNL     1      11.870  -4.690   8.534  1.00  0.00     0.049 A 
ATOM     39  N   UNL     1      13.484  -4.898   5.665  1.00  0.00    -0.248 NA
ATOM     40  C   UNL     1      11.336  -4.287   5.051  1.00  0.00     0.031 C 
ATOM     41  C   UNL     1      11.133  -4.902   9.787  1.00  0.00     0.029 A 
ATOM     42  N   UNL     1      12.689  -3.648   8.854  1.00  0.00    -0.354 N 
ATOM     43  C   UNL     1      13.528  -4.252   4.433  1.00  0.00     0.074 A 
ATOM     44  C   UNL     1      12.161  -4.082   4.021  1.00  0.00     0.031 C 
ATOM     45  C   UNL     1      11.371  -3.879  10.639  1.00  0.00     0.029 A 
ATOM     46  C   UNL     1      12.400  -3.031  10.070  1.00  0.00     0.049 A 
ATOM     47  H   UNL     1      13.427  -3.355   8.271  1.00  0.00     0.167 HD
ATOM     48  C   UNL     1      14.684  -3.673   4.006  1.00  0.00     0.037 A 
ATOM     49  C   UNL     1      12.958  -1.893  10.560  1.00  0.00     0.037 A 
ATOM     50  C   UNL     1      15.804  -4.172   4.768  1.00  0.00     0.049 A 
ATOM     51  C   UNL     1      14.227  -1.684   9.823  1.00  0.00     0.074 A 
ATOM     52  C   UNL     1      16.394  -5.406   4.955  1.00  0.00     0.029 A 
ATOM     53  N   UNL     1      16.238  -3.384   5.803  1.00  0.00    -0.354 N 
ATOM     54  N   UNL     1      15.268  -2.459   9.937  1.00  0.00    -0.248 NA
ATOM     55  C   UNL     1      14.177  -0.871   8.620  1.00  0.00     0.031 C 
ATOM     56  C   UNL     1      16.795  -5.424   6.325  1.00  0.00     0.029 A 
ATOM     57  C   UNL     1      16.506  -4.178   6.883  1.00  0.00     0.049 A 
ATOM     58  H   UNL     1      16.340  -2.405   5.773  1.00  0.00     0.167 HD
ATOM     59  C   UNL     1      15.750  -2.580   8.643  1.00  0.00     0.074 A 
ATOM     60  C   UNL     1      15.106  -1.501   7.897  1.00  0.00     0.031 C 
ATOM     61  C   UNL     1      16.386  -3.723   8.249  1.00  0.00     0.037 A 
BRANCH  48  62
ATOM     62  C   UNL     1      14.766  -2.357   3.254  1.00  0.00     0.064 A 
ATOM     63  C   UNL     1      16.041  -1.868   2.894  1.00  0.00     0.173 A 
ATOM     64  C   UNL     1      13.717  -1.417   3.163  1.00  0.00     0.173 A 
ATOM     65  F   UNL     1      17.119  -2.666   2.939  1.00  0.00    -0.203 F 
ATOM     66  C   UNL     1      16.261  -0.523   2.585  1.00  0.00     0.198 A 
ATOM     67  C   UNL     1      13.933  -0.087   2.804  1.00  0.00     0.198 A 
ATOM     68  F   UNL     1      12.460  -1.702   3.516  1.00  0.00    -0.203 F 
ATOM     69  F   UNL     1      17.512  -0.080   2.394  1.00  0.00    -0.200 F 
ATOM     70  C   UNL     1      15.208   0.370   2.552  1.00  0.00     0.200 A 
ATOM     71  F   UNL     1      12.899   0.767   2.793  1.00  0.00    -0.200 F 
ATOM     72  F   UNL     1      15.423   1.672   2.326  1.00  0.00    -0.200 F 
ENDBRANCH  48  62
BRANCH  49  73
ATOM     73  C   UNL     1      12.356  -0.817  11.387  1.00  0.00     0.064 A 
ATOM     74  C   UNL     1      13.161   0.146  12.023  1.00  0.00     0.173 A 
ATOM     75  C   UNL     1      10.980  -0.527  11.316  1.00  0.00     0.173 A 
ATOM     76  F   UNL     1      14.489  -0.028  12.096  1.00  0.00    -0.203 F 
ATOM     77  C   UNL     1      12.629   1.340  12.522  1.00  0.00     0.198 A 
ATOM     78  C   UNL     1      10.449   0.664  11.817  1.00  0.00     0.198 A 
ATOM     79  F   UNL     1      10.141  -1.347  10.667  1.00  0.00    -0.203 F 
ATOM     80  F   UNL     1      13.441   2.264  13.057  1.00  0.00    -0.200 F 
ATOM     81  C   UNL     1      11.275   1.605  12.406  1.00  0.00     0.200 A 
ATOM     82  F   UNL     1       9.143   0.927  11.664  1.00  0.00    -0.200 F 
ATOM     83  F   UNL     1      10.775   2.778  12.819  1.00  0.00    -0.200 F 
ENDBRANCH  49  73
BRANCH  61  84
ATOM     84  C   UNL     1      16.832  -4.679   9.322  1.00  0.00     0.064 A 
ATOM     85  C   UNL     1      15.969  -5.368  10.193  1.00  0.00     0.173 A 
ATOM     86  C   UNL     1      18.194  -5.004   9.377  1.00  0.00     0.173 A 
ATOM     87  F   UNL     1      14.644  -5.184  10.144  1.00  0.00    -0.203 F 
ATOM     88  C   UNL     1      16.458  -6.310  11.099  1.00  0.00     0.198 A 
ATOM     89  C   UNL     1      18.674  -5.971  10.254  1.00  0.00     0.198 A 
ATOM     90  F   UNL     1      19.059  -4.412   8.539  1.00  0.00    -0.203 F 
ATOM     91  F   UNL     1      15.617  -6.946  11.929  1.00  0.00    -0.200 F 
ATOM     92  C   UNL     1      17.808  -6.617  11.122  1.00  0.00     0.200 A 
ATOM     93  F   UNL     1      19.973  -6.298  10.237  1.00  0.00    -0.200 F 
ATOM     94  F   UNL     1      18.274  -7.551  11.962  1.00  0.00    -0.200 F 
ENDBRANCH  61  84
ENDBRANCH  35  36
ENDBRANCH  27  30
ENDBRANCH  25  26
ENDBRANCH  24  25
ENDBRANCH   1  24
TORSDOF 13
