REMARK SMILES Cc1cc([N+](=O)[O-])ccc1NC(=O)[C@@H]1[C@@H](C(=O)NCCCNC(=O)c2ccc(-c3c4nc(c(-c5c(F)c(F)c(F)c(F)c5F)c5ccc([nH]5)c(-c5c(F)c(F)c(F)c(F)c5F)c5nc(c(-c6c(F)c(F)c(F)c(F)c6F)c6ccc3[nH]6)C=C5)C=C4)cc2)[C@H]2C=C[C@@H]1C2
REMARK SMILES IDX 19 1 18 2 16 3 17 4 15 6 14 7 91 8 88 9 90 10 92 11 89 12
REMARK SMILES IDX 12 13 11 14 13 16 10 17 1 18 2 19 3 20 4 21 9 22 8 23 5 24
REMARK SMILES IDX 6 25 7 26 20 27 21 28 22 29 23 30 24 32 25 33 26 34 87 35
REMARK SMILES IDX 27 36 86 37 28 38 29 39 30 40 80 41 31 42 85 43 79 44 81 45
REMARK SMILES IDX 32 46 84 47 78 48 77 49 33 51 65 52 45 53 64 54 46 55 49 56
REMARK SMILES IDX 63 57 82 58 47 59 48 60 62 62 83 63 50 64 34 65 35 66 43 67
REMARK SMILES IDX 36 68 37 69 41 70 44 71 38 72 39 73 42 74 40 75 66 76 67 77
REMARK SMILES IDX 75 78 68 79 69 80 73 81 76 82 70 83 71 84 74 85 72 86 51 87
REMARK SMILES IDX 52 88 60 89 53 90 54 91 58 92 61 93 55 94 56 95 59 96 57 97
REMARK H PARENT 18 5 11 15 22 31 81 50 49 61
REMARK Flexibility Score: inf
ROOT
ATOM      1  C   UNL     1      -4.211   7.249   0.811  1.00  0.00     0.117 C 
ENDROOT
BRANCH   1   2
ATOM      2  N   UNL     1      -3.696   6.551  -0.356  1.00  0.00    -0.356 N 
ATOM      3  C   UNL     1      -2.732   5.610  -0.530  1.00  0.00     0.224 C 
ATOM      4  O   UNL     1      -2.540   5.260  -1.701  1.00  0.00    -0.275 OA
ATOM      5  H   UNL     1      -4.139   6.816  -1.195  1.00  0.00     0.163 HD
BRANCH   3   6
ATOM      6  C   UNL     1      -1.842   5.073   0.593  1.00  0.00     0.098 C 
ATOM      7  C   UNL     1      -1.359   3.599   0.230  1.00  0.00     0.099 C 
ATOM      8  C   UNL     1      -1.716   2.807   1.515  1.00  0.00     0.025 C 
ATOM      9  C   UNL     1      -2.467   4.851   1.990  1.00  0.00     0.025 C 
ATOM     10  C   UNL     1      -3.222   2.718   1.580  1.00  0.00    -0.027 C 
ATOM     11  C   UNL     1      -1.488   3.851   2.604  1.00  0.00     0.017 C 
ATOM     12  C   UNL     1      -3.674   3.945   1.871  1.00  0.00    -0.027 C 
BRANCH   7  13
ATOM     13  C   UNL     1       0.118   3.467  -0.116  1.00  0.00     0.228 C 
ATOM     14  N   UNL     1       0.694   2.247  -0.384  1.00  0.00    -0.326 N 
ATOM     15  H   UNL     1       1.659   2.300  -0.568  1.00  0.00     0.169 HD
ATOM     16  O   UNL     1       0.866   4.450  -0.112  1.00  0.00    -0.274 OA
BRANCH  14  17
ATOM     17  C   UNL     1       0.179   0.933  -0.447  1.00  0.00     0.044 A 
ATOM     18  C   UNL     1       2.498  -0.051   0.135  1.00  0.00     0.047 C 
ATOM     19  C   UNL     1       1.015  -0.159  -0.119  1.00  0.00    -0.021 A 
ATOM     20  C   UNL     1       0.458  -1.455  -0.023  1.00  0.00     0.091 A 
ATOM     21  C   UNL     1      -0.903  -1.664  -0.263  1.00  0.00     0.269 A 
ATOM     22  C   UNL     1      -1.151   0.668  -0.803  1.00  0.00     0.033 A 
ATOM     23  C   UNL     1      -1.705  -0.610  -0.687  1.00  0.00     0.088 A 
BRANCH  21  24
ATOM     24  N   UNL     1      -1.493  -2.992  -0.067  1.00  0.00     0.062 N 
ATOM     25  O   UNL     1      -0.721  -3.944   0.111  1.00  0.00    -0.258 OA
ATOM     26  O   UNL     1      -2.729  -3.078  -0.075  1.00  0.00    -0.258 OA
ENDBRANCH  21  24
ENDBRANCH  14  17
ENDBRANCH   7  13
ENDBRANCH   3   6
ENDBRANCH   1   2
BRANCH   1  27
ATOM     27  C   UNL     1      -3.478   8.559   1.062  1.00  0.00     0.042 C 
BRANCH  27  28
ATOM     28  C   UNL     1      -4.208   9.740   0.432  1.00  0.00     0.118 C 
BRANCH  28  29
ATOM     29  N   UNL     1      -5.231  10.329   1.286  1.00  0.00    -0.352 N 
ATOM     30  C   UNL     1      -6.204  11.276   0.956  1.00  0.00     0.251 C 
ATOM     31  H   UNL     1      -5.238  10.019   2.220  1.00  0.00     0.163 HD
ATOM     32  O   UNL     1      -6.992  11.679   1.793  1.00  0.00    -0.269 OA
BRANCH  30  33
ATOM     33  C   UNL     1      -6.325  11.684  -0.457  1.00  0.00     0.039 A 
ATOM     34  C   UNL     1      -7.564  11.536  -1.087  1.00  0.00     0.014 A 
ATOM     35  C   UNL     1      -5.180  11.962  -1.199  1.00  0.00     0.014 A 
ATOM     36  C   UNL     1      -7.608  11.414  -2.474  1.00  0.00     0.010 A 
ATOM     37  C   UNL     1      -5.203  11.729  -2.559  1.00  0.00     0.010 A 
ATOM     38  C   UNL     1      -6.406  11.392  -3.187  1.00  0.00    -0.014 A 
BRANCH  38  39
ATOM     39  C   UNL     1      -6.313  10.904  -4.559  1.00  0.00     0.031 A 
ATOM     40  C   UNL     1      -6.063  11.838  -5.676  1.00  0.00     0.074 A 
ATOM     41  C   UNL     1      -6.420   9.580  -4.816  1.00  0.00     0.049 A 
ATOM     42  N   UNL     1      -6.517  11.658  -6.872  1.00  0.00    -0.248 NA
ATOM     43  C   UNL     1      -5.296  13.071  -5.527  1.00  0.00     0.031 C 
ATOM     44  C   UNL     1      -6.151   8.907  -6.084  1.00  0.00     0.029 A 
ATOM     45  N   UNL     1      -6.988   8.580  -4.004  1.00  0.00    -0.354 N 
ATOM     46  C   UNL     1      -5.908  12.581  -7.686  1.00  0.00     0.074 A 
ATOM     47  C   UNL     1      -5.203  13.476  -6.797  1.00  0.00     0.031 C 
ATOM     48  C   UNL     1      -6.808   7.737  -6.100  1.00  0.00     0.029 A 
ATOM     49  C   UNL     1      -7.613   7.676  -4.894  1.00  0.00     0.049 A 
ATOM     50  H   UNL     1      -6.956   8.523  -3.022  1.00  0.00     0.167 HD
ATOM     51  C   UNL     1      -5.940  12.430  -9.039  1.00  0.00     0.037 A 
ATOM     52  C   UNL     1      -8.955   7.437  -4.854  1.00  0.00     0.037 A 
ATOM     53  C   UNL     1      -6.659  11.230  -9.438  1.00  0.00     0.049 A 
ATOM     54  C   UNL     1      -9.677   7.763  -6.139  1.00  0.00     0.074 A 
ATOM     55  C   UNL     1      -6.229   9.950  -9.751  1.00  0.00     0.029 A 
ATOM     56  N   UNL     1      -8.030  11.144  -9.228  1.00  0.00    -0.354 N 
ATOM     57  N   UNL     1      -9.166   8.497  -7.088  1.00  0.00    -0.248 NA
ATOM     58  C   UNL     1     -11.044   7.342  -6.435  1.00  0.00     0.031 C 
ATOM     59  C   UNL     1      -7.343   9.081  -9.681  1.00  0.00     0.029 A 
ATOM     60  C   UNL     1      -8.453   9.834  -9.346  1.00  0.00     0.049 A 
ATOM     61  H   UNL     1      -8.617  11.908  -9.024  1.00  0.00     0.167 HD
ATOM     62  C   UNL     1     -10.101   8.686  -8.072  1.00  0.00     0.074 A 
ATOM     63  C   UNL     1     -11.252   7.924  -7.629  1.00  0.00     0.031 C 
ATOM     64  C   UNL     1      -9.848   9.473  -9.157  1.00  0.00     0.037 A 
BRANCH  51  65
ATOM     65  C   UNL     1      -5.041  13.231  -9.939  1.00  0.00     0.064 A 
ATOM     66  C   UNL     1      -4.330  12.630 -10.997  1.00  0.00     0.173 A 
ATOM     67  C   UNL     1      -4.802  14.605  -9.751  1.00  0.00     0.173 A 
ATOM     68  F   UNL     1      -4.519  11.347 -11.328  1.00  0.00    -0.203 F 
ATOM     69  C   UNL     1      -3.374  13.326 -11.739  1.00  0.00     0.198 A 
ATOM     70  C   UNL     1      -3.809  15.288 -10.459  1.00  0.00     0.198 A 
ATOM     71  F   UNL     1      -5.527  15.311  -8.870  1.00  0.00    -0.203 F 
ATOM     72  F   UNL     1      -2.713  12.701 -12.724  1.00  0.00    -0.200 F 
ATOM     73  C   UNL     1      -3.087  14.644 -11.446  1.00  0.00     0.200 A 
ATOM     74  F   UNL     1      -3.543  16.568 -10.165  1.00  0.00    -0.200 F 
ATOM     75  F   UNL     1      -2.126  15.293 -12.117  1.00  0.00    -0.200 F 
ENDBRANCH  51  65
BRANCH  52  76
ATOM     76  C   UNL     1      -9.532   7.557  -3.492  1.00  0.00     0.064 A 
ATOM     77  C   UNL     1      -9.107   6.645  -2.508  1.00  0.00     0.173 A 
ATOM     78  C   UNL     1     -10.163   8.729  -3.061  1.00  0.00     0.173 A 
ATOM     79  F   UNL     1      -8.496   5.505  -2.870  1.00  0.00    -0.203 F 
ATOM     80  C   UNL     1      -9.199   6.947  -1.152  1.00  0.00     0.198 A 
ATOM     81  C   UNL     1     -10.265   9.023  -1.700  1.00  0.00     0.198 A 
ATOM     82  F   UNL     1     -10.573   9.645  -3.950  1.00  0.00    -0.203 F 
ATOM     83  F   UNL     1      -8.678   6.111  -0.243  1.00  0.00    -0.200 F 
ATOM     84  C   UNL     1      -9.752   8.151  -0.750  1.00  0.00     0.200 A 
ATOM     85  F   UNL     1     -10.779  10.198  -1.309  1.00  0.00    -0.200 F 
ATOM     86  F   UNL     1      -9.753   8.487   0.547  1.00  0.00    -0.200 F 
ENDBRANCH  52  76
BRANCH  64  87
ATOM     87  C   UNL     1     -10.853   9.908 -10.191  1.00  0.00     0.064 A 
ATOM     88  C   UNL     1     -12.206  10.149  -9.910  1.00  0.00     0.173 A 
ATOM     89  C   UNL     1     -10.426  10.248 -11.498  1.00  0.00     0.173 A 
ATOM     90  F   UNL     1     -12.704   9.964  -8.680  1.00  0.00    -0.203 F 
ATOM     91  C   UNL     1     -13.081  10.648 -10.880  1.00  0.00     0.198 A 
ATOM     92  C   UNL     1     -11.289  10.795 -12.445  1.00  0.00     0.198 A 
ATOM     93  F   UNL     1      -9.152  10.081 -11.882  1.00  0.00    -0.203 F 
ATOM     94  F   UNL     1     -14.374  10.830 -10.575  1.00  0.00    -0.200 F 
ATOM     95  C   UNL     1     -12.620  10.982 -12.140  1.00  0.00     0.200 A 
ATOM     96  F   UNL     1     -10.816  11.158 -13.646  1.00  0.00    -0.200 F 
ATOM     97  F   UNL     1     -13.453  11.503 -13.051  1.00  0.00    -0.200 F 
ENDBRANCH  64  87
ENDBRANCH  38  39
ENDBRANCH  30  33
ENDBRANCH  28  29
ENDBRANCH  27  28
ENDBRANCH   1  27
TORSDOF 13
