REMARK SMILES O=C(C[C@@H]([NH2+]Cc1ccccc1)C(=O)NCCCNC(=O)c1ccc(-c2c3nc(c(-c4c(F)c(F)c(F)c(F)c4F)c4ccc([nH]4)c(-c4c(F)c(F)c(F)c(F)c4F)c4nc(c(-c5c(F)c(F)c(F)c(F)c5F)c5ccc2[nH]5)C=C4)C=C3)cc1)Nc1cccc(Cl)c1Cl
REMARK SMILES IDX 16 1 15 2 13 3 14 4 4 6 3 7 2 8 1 9 85 10 86 12 87 13 92 14
REMARK SMILES IDX 88 15 90 16 93 17 89 18 91 19 5 20 6 23 7 24 8 25 12 26 9 27
REMARK SMILES IDX 11 28 10 29 17 30 18 31 19 32 20 33 21 35 22 36 23 37 84 38
REMARK SMILES IDX 24 39 83 40 25 41 26 42 27 43 77 44 28 45 82 46 76 47 78 48
REMARK SMILES IDX 29 49 81 50 75 51 74 52 30 54 62 55 42 56 61 57 43 58 46 59
REMARK SMILES IDX 60 60 79 61 44 62 45 63 59 65 80 66 47 67 31 68 32 69 40 70
REMARK SMILES IDX 33 71 34 72 38 73 41 74 35 75 36 76 39 77 37 78 63 79 64 80
REMARK SMILES IDX 72 81 65 82 66 83 70 84 73 85 67 86 68 87 71 88 69 89 48 90
REMARK SMILES IDX 49 91 57 92 50 93 51 94 55 95 58 96 52 97 53 98 56 99 54 100
REMARK H PARENT 15 5 85 11 5 21 5 22 19 34 78 53 46 64
REMARK Flexibility Score: inf
ROOT
ATOM      1  C   UNL     1       6.003  -1.768   1.265  1.00  0.00     0.118 C 
ENDROOT
BRANCH   1   2
ATOM      2  N   UNL     1       5.504  -2.861   0.452  1.00  0.00    -0.351 N 
ATOM      3  C   UNL     1       4.518  -2.887  -0.489  1.00  0.00     0.278 C 
ATOM      4  O   UNL     1       4.289  -3.970  -1.035  1.00  0.00    -0.268 OA
ATOM      5  H   UNL     1       5.950  -3.725   0.606  1.00  0.00     0.163 HD
BRANCH   3   6
ATOM      6  C   UNL     1       3.729  -1.621  -0.876  1.00  0.00     0.282 C 
BRANCH   6   7
ATOM      7  C   UNL     1       2.847  -1.189   0.301  1.00  0.00     0.175 C 
BRANCH   7   8
ATOM      8  C   UNL     1       1.948  -0.030  -0.052  1.00  0.00     0.230 C 
ATOM      9  O   UNL     1       0.775  -0.191  -0.370  1.00  0.00    -0.274 OA
ATOM     10  N   UNL     1       2.626   1.180  -0.052  1.00  0.00    -0.325 N 
ATOM     11  H   UNL     1       3.593   1.168   0.133  1.00  0.00     0.169 HD
BRANCH  10  12
ATOM     12  C   UNL     1       2.014   2.426  -0.299  1.00  0.00     0.061 A 
ATOM     13  C   UNL     1       2.661   3.253  -1.229  1.00  0.00     0.028 A 
ATOM     14  C   UNL     1       0.844   2.876   0.346  1.00  0.00     0.083 A 
ATOM     15  C   UNL     1       2.111   4.483  -1.585  1.00  0.00     0.004 A 
ATOM     16  C   UNL     1       0.308   4.125  -0.009  1.00  0.00     0.061 A 
ATOM     17  Cl  UNL     1       0.187   2.008   1.702  1.00  0.00    -0.080 Cl
ATOM     18  C   UNL     1       0.931   4.914  -0.982  1.00  0.00     0.022 A 
ATOM     19  Cl  UNL     1      -1.105   4.783   0.745  1.00  0.00    -0.083 Cl
ENDBRANCH  10  12
ENDBRANCH   7   8
ENDBRANCH   6   7
BRANCH   6  20
ATOM     20  N   UNL     1       4.625  -0.525  -1.368  1.00  0.00    -0.332 N 
ATOM     21  H   UNL     1       5.210  -0.211  -0.594  1.00  0.00     0.347 HD
ATOM     22  H   UNL     1       4.028   0.224  -1.719  1.00  0.00     0.347 HD
BRANCH  20  23
ATOM     23  C   UNL     1       5.501  -0.953  -2.479  1.00  0.00     0.297 C 
BRANCH  23  24
ATOM     24  C   UNL     1       4.721  -1.206  -3.745  1.00  0.00     0.006 A 
ATOM     25  C   UNL     1       4.135  -0.137  -4.442  1.00  0.00     0.009 A 
ATOM     26  C   UNL     1       4.492  -2.515  -4.189  1.00  0.00     0.009 A 
ATOM     27  C   UNL     1       3.307  -0.378  -5.537  1.00  0.00     0.001 A 
ATOM     28  C   UNL     1       3.668  -2.753  -5.288  1.00  0.00     0.001 A 
ATOM     29  C   UNL     1       3.069  -1.686  -5.955  1.00  0.00     0.000 A 
ENDBRANCH  23  24
ENDBRANCH  20  23
ENDBRANCH   6  20
ENDBRANCH   3   6
ENDBRANCH   1   2
BRANCH   1  30
ATOM     30  C   UNL     1       5.590  -1.919   2.726  1.00  0.00     0.042 C 
BRANCH  30  31
ATOM     31  C   UNL     1       6.202  -3.130   3.421  1.00  0.00     0.118 C 
BRANCH  31  32
ATOM     32  N   UNL     1       7.647  -3.029   3.545  1.00  0.00    -0.352 N 
ATOM     33  C   UNL     1       8.441  -3.092   4.660  1.00  0.00     0.251 C 
ATOM     34  H   UNL     1       8.130  -2.895   2.697  1.00  0.00     0.163 HD
ATOM     35  O   UNL     1       9.633  -2.793   4.570  1.00  0.00    -0.269 OA
BRANCH  33  36
ATOM     36  C   UNL     1       7.886  -3.498   5.968  1.00  0.00     0.039 A 
ATOM     37  C   UNL     1       8.326  -2.833   7.117  1.00  0.00     0.014 A 
ATOM     38  C   UNL     1       6.977  -4.554   6.080  1.00  0.00     0.014 A 
ATOM     39  C   UNL     1       7.824  -3.198   8.368  1.00  0.00     0.010 A 
ATOM     40  C   UNL     1       6.421  -4.867   7.318  1.00  0.00     0.010 A 
ATOM     41  C   UNL     1       6.850  -4.203   8.476  1.00  0.00    -0.014 A 
BRANCH  41  42
ATOM     42  C   UNL     1       6.293  -4.588   9.797  1.00  0.00     0.031 A 
ATOM     43  C   UNL     1       6.548  -5.961  10.354  1.00  0.00     0.074 A 
ATOM     44  C   UNL     1       5.518  -3.718  10.473  1.00  0.00     0.049 A 
ATOM     45  N   UNL     1       6.114  -6.499  11.466  1.00  0.00    -0.248 NA
ATOM     46  C   UNL     1       7.382  -6.860   9.540  1.00  0.00     0.031 C 
ATOM     47  C   UNL     1       5.154  -2.377  10.014  1.00  0.00     0.029 A 
ATOM     48  N   UNL     1       4.890  -3.837  11.687  1.00  0.00    -0.354 N 
ATOM     49  C   UNL     1       6.603  -7.798  11.474  1.00  0.00     0.074 A 
ATOM     50  C   UNL     1       7.326  -7.986  10.235  1.00  0.00     0.031 C 
ATOM     51  C   UNL     1       4.386  -1.788  10.945  1.00  0.00     0.029 A 
ATOM     52  C   UNL     1       4.181  -2.719  12.051  1.00  0.00     0.049 A 
ATOM     53  H   UNL     1       4.942  -4.647  12.244  1.00  0.00     0.167 HD
ATOM     54  C   UNL     1       6.479  -8.742  12.437  1.00  0.00     0.037 A 
ATOM     55  C   UNL     1       3.450  -2.474  13.154  1.00  0.00     0.037 A 
ATOM     56  C   UNL     1       5.788  -8.543  13.684  1.00  0.00     0.049 A 
ATOM     57  C   UNL     1       3.354  -3.528  14.223  1.00  0.00     0.074 A 
ATOM     58  C   UNL     1       5.656  -9.417  14.748  1.00  0.00     0.029 A 
ATOM     59  N   UNL     1       5.115  -7.382  14.033  1.00  0.00    -0.354 N 
ATOM     60  N   UNL     1       3.876  -4.730  14.248  1.00  0.00    -0.248 NA
ATOM     61  C   UNL     1       2.577  -3.185  15.422  1.00  0.00     0.031 C 
ATOM     62  C   UNL     1       4.875  -8.797  15.730  1.00  0.00     0.029 A 
ATOM     63  C   UNL     1       4.556  -7.521  15.294  1.00  0.00     0.049 A 
ATOM     64  H   UNL     1       5.044  -6.578  13.470  1.00  0.00     0.167 HD
ATOM     65  C   UNL     1       3.517  -5.276  15.473  1.00  0.00     0.074 A 
ATOM     66  C   UNL     1       2.744  -4.268  16.168  1.00  0.00     0.031 C 
ATOM     67  C   UNL     1       3.800  -6.502  15.976  1.00  0.00     0.037 A 
BRANCH  54  68
ATOM     68  C   UNL     1       7.115 -10.078  12.182  1.00  0.00     0.064 A 
ATOM     69  C   UNL     1       8.508 -10.241  12.184  1.00  0.00     0.173 A 
ATOM     70  C   UNL     1       6.322 -11.214  11.961  1.00  0.00     0.173 A 
ATOM     71  F   UNL     1       9.311  -9.184  12.378  1.00  0.00    -0.203 F 
ATOM     72  C   UNL     1       9.085 -11.486  11.946  1.00  0.00     0.198 A 
ATOM     73  C   UNL     1       6.902 -12.463  11.751  1.00  0.00     0.198 A 
ATOM     74  F   UNL     1       4.984 -11.115  11.953  1.00  0.00    -0.203 F 
ATOM     75  F   UNL     1      10.419 -11.607  11.905  1.00  0.00    -0.200 F 
ATOM     76  C   UNL     1       8.282 -12.596  11.736  1.00  0.00     0.200 A 
ATOM     77  F   UNL     1       6.124 -13.538  11.560  1.00  0.00    -0.200 F 
ATOM     78  F   UNL     1       8.839 -13.795  11.512  1.00  0.00    -0.200 F 
ENDBRANCH  54  68
BRANCH  55  79
ATOM     79  C   UNL     1       2.785  -1.157  13.324  1.00  0.00     0.064 A 
ATOM     80  C   UNL     1       3.255  -0.233  14.267  1.00  0.00     0.173 A 
ATOM     81  C   UNL     1       1.673  -0.795  12.551  1.00  0.00     0.173 A 
ATOM     82  F   UNL     1       4.305  -0.543  15.042  1.00  0.00    -0.203 F 
ATOM     83  C   UNL     1       2.624   0.997  14.446  1.00  0.00     0.198 A 
ATOM     84  C   UNL     1       1.058   0.445  12.713  1.00  0.00     0.198 A 
ATOM     85  F   UNL     1       1.190  -1.642  11.631  1.00  0.00    -0.203 F 
ATOM     86  F   UNL     1       3.068   1.844  15.384  1.00  0.00    -0.200 F 
ATOM     87  C   UNL     1       1.530   1.337  13.666  1.00  0.00     0.200 A 
ATOM     88  F   UNL     1       0.009   0.776  11.949  1.00  0.00    -0.200 F 
ATOM     89  F   UNL     1       0.925   2.520  13.836  1.00  0.00    -0.200 F 
ENDBRANCH  55  79
BRANCH  67  90
ATOM     90  C   UNL     1       3.306  -6.805  17.359  1.00  0.00     0.064 A 
ATOM     91  C   UNL     1       1.948  -7.037  17.622  1.00  0.00     0.173 A 
ATOM     92  C   UNL     1       4.209  -6.891  18.430  1.00  0.00     0.173 A 
ATOM     93  F   UNL     1       1.046  -6.951  16.633  1.00  0.00    -0.203 F 
ATOM     94  C   UNL     1       1.508  -7.316  18.913  1.00  0.00     0.198 A 
ATOM     95  C   UNL     1       3.768  -7.197  19.714  1.00  0.00     0.198 A 
ATOM     96  F   UNL     1       5.519  -6.684  18.230  1.00  0.00    -0.203 F 
ATOM     97  F   UNL     1       0.200  -7.485  19.150  1.00  0.00    -0.200 F 
ATOM     98  C   UNL     1       2.418  -7.401  19.956  1.00  0.00     0.200 A 
ATOM     99  F   UNL     1       4.650  -7.290  20.720  1.00  0.00    -0.200 F 
ATOM    100  F   UNL     1       1.992  -7.672  21.198  1.00  0.00    -0.200 F 
ENDBRANCH  67  90
ENDBRANCH  41  42
ENDBRANCH  33  36
ENDBRANCH  31  32
ENDBRANCH  30  31
ENDBRANCH   1  30
TORSDOF 16
