REMARK SMILES O=C(COc1ccc(NC(=O)c2ccc(Br)cc2)cc1-c1nc2ccccc2o1)NCCCNC(=O)c1ccc(-c2c3nc(c(-c4c(F)c(F)c(F)c(F)c4F)c4ccc([nH]4)c(-c4c(F)c(F)c(F)c(F)c4F)c4nc(c(-c5c(F)c(F)c(F)c(F)c5F)c5ccc2[nH]5)C=C4)C=C3)cc1
REMARK SMILES IDX 31 1 30 2 1 3 2 4 3 6 4 7 5 8 6 9 20 10 7 11 19 12 8 13
REMARK SMILES IDX 21 14 22 15 29 16 23 17 28 18 24 19 27 20 25 21 26 22 9 23
REMARK SMILES IDX 10 24 11 26 12 27 13 28 18 29 14 30 17 31 15 32 16 33 32 34
REMARK SMILES IDX 33 35 34 36 35 37 36 39 37 40 38 41 99 42 39 43 98 44 40 45
REMARK SMILES IDX 41 46 42 47 92 48 43 49 97 50 91 51 93 52 44 53 96 54 90 55
REMARK SMILES IDX 89 56 45 58 77 59 57 60 76 61 58 62 61 63 75 64 94 65 59 66
REMARK SMILES IDX 60 67 74 69 95 70 62 71 46 72 47 73 55 74 48 75 49 76 53 77
REMARK SMILES IDX 56 78 50 79 51 80 54 81 52 82 78 83 79 84 87 85 80 86 81 87
REMARK SMILES IDX 85 88 88 89 82 90 83 91 86 92 84 93 63 94 64 95 72 96 65 97
REMARK SMILES IDX 66 98 70 99 73 100 67 101 68 102 71 103 69 104
REMARK H PARENT 30 5 9 25 34 38 93 57 61 68
REMARK Flexibility Score: inf
ROOT
ATOM      1  C   UNL     1       3.583   1.027   1.787  1.00  0.00     0.117 C 
ENDROOT
BRANCH   1   2
ATOM      2  N   UNL     1       4.559   0.220   1.073  1.00  0.00    -0.353 N 
ATOM      3  O   UNL     1       3.868  -1.935   0.653  1.00  0.00    -0.271 OA
ATOM      4  C   UNL     1       4.103  -0.805   0.242  1.00  0.00     0.257 C 
ATOM      5  H   UNL     1       5.523   0.392   1.173  1.00  0.00     0.163 HD
BRANCH   4   6
ATOM      6  C   UNL     1       3.983  -0.369  -1.225  1.00  0.00     0.329 C 
BRANCH   6   7
ATOM      7  O   UNL     1       3.887   1.051  -1.117  1.00  0.00    -0.483 OA
BRANCH   7   8
ATOM      8  C   UNL     1       3.077   1.745  -1.961  1.00  0.00     0.132 A 
ATOM      9  C   UNL     1       3.839   2.537  -2.808  1.00  0.00     0.049 A 
ATOM     10  C   UNL     1       1.701   1.995  -1.727  1.00  0.00     0.081 A 
ATOM     11  C   UNL     1       3.268   3.635  -3.407  1.00  0.00     0.030 A 
ATOM     12  C   UNL     1       1.134   3.114  -2.380  1.00  0.00     0.043 A 
ATOM     13  C   UNL     1       1.913   3.920  -3.247  1.00  0.00     0.042 A 
BRANCH  10  14
ATOM     14  C   UNL     1       0.946   1.099  -0.829  1.00  0.00     0.231 A 
ATOM     15  N   UNL     1       1.279  -0.141  -0.528  1.00  0.00    -0.209 NA
ATOM     16  O   UNL     1      -0.126   1.573  -0.093  1.00  0.00    -0.436 OA
ATOM     17  C   UNL     1       0.533  -0.458   0.564  1.00  0.00     0.110 A 
ATOM     18  C   UNL     1      -0.375   0.556   0.816  1.00  0.00     0.155 A 
ATOM     19  C   UNL     1       0.627  -1.557   1.427  1.00  0.00     0.032 A 
ATOM     20  C   UNL     1      -1.294   0.502   1.861  1.00  0.00     0.049 A 
ATOM     21  C   UNL     1      -0.234  -1.610   2.526  1.00  0.00     0.003 A 
ATOM     22  C   UNL     1      -1.195  -0.611   2.721  1.00  0.00     0.004 A 
ENDBRANCH  10  14
BRANCH  13  23
ATOM     23  N   UNL     1       1.335   5.033  -3.897  1.00  0.00    -0.322 N 
ATOM     24  C   UNL     1       1.812   5.795  -4.958  1.00  0.00     0.255 C 
ATOM     25  H   UNL     1       0.461   5.314  -3.543  1.00  0.00     0.170 HD
ATOM     26  O   UNL     1       1.352   6.916  -5.170  1.00  0.00    -0.269 OA
BRANCH  24  27
ATOM     27  C   UNL     1       2.845   5.267  -5.895  1.00  0.00     0.040 A 
ATOM     28  C   UNL     1       3.948   6.069  -6.222  1.00  0.00     0.015 A 
ATOM     29  C   UNL     1       2.760   3.962  -6.403  1.00  0.00     0.015 A 
ATOM     30  C   UNL     1       4.997   5.539  -6.983  1.00  0.00     0.016 A 
ATOM     31  C   UNL     1       3.817   3.430  -7.147  1.00  0.00     0.016 A 
ATOM     32  C   UNL     1       4.935   4.216  -7.422  1.00  0.00     0.018 A 
ATOM     33  Br  UNL     1       6.387   3.473  -8.378  1.00  0.00    -0.051 Br
ENDBRANCH  24  27
ENDBRANCH  13  23
ENDBRANCH   7   8
ENDBRANCH   6   7
ENDBRANCH   4   6
ENDBRANCH   1   2
BRANCH   1  34
ATOM     34  C   UNL     1       3.270   0.529   3.177  1.00  0.00     0.042 C 
BRANCH  34  35
ATOM     35  C   UNL     1       4.503   0.545   4.048  1.00  0.00     0.118 C 
BRANCH  35  36
ATOM     36  N   UNL     1       5.015   1.888   4.297  1.00  0.00    -0.352 N 
ATOM     37  C   UNL     1       5.691   2.340   5.398  1.00  0.00     0.251 C 
ATOM     38  H   UNL     1       4.853   2.551   3.587  1.00  0.00     0.163 HD
ATOM     39  O   UNL     1       5.957   3.535   5.522  1.00  0.00    -0.269 OA
BRANCH  37  40
ATOM     40  C   UNL     1       6.059   1.379   6.454  1.00  0.00     0.039 A 
ATOM     41  C   UNL     1       5.870   1.740   7.787  1.00  0.00     0.014 A 
ATOM     42  C   UNL     1       6.544   0.110   6.126  1.00  0.00     0.014 A 
ATOM     43  C   UNL     1       6.143   0.810   8.787  1.00  0.00     0.010 A 
ATOM     44  C   UNL     1       6.683  -0.854   7.110  1.00  0.00     0.010 A 
ATOM     45  C   UNL     1       6.529  -0.500   8.454  1.00  0.00    -0.014 A 
BRANCH  45  46
ATOM     46  C   UNL     1       6.829  -1.490   9.512  1.00  0.00     0.031 A 
ATOM     47  C   UNL     1       8.215  -2.064   9.631  1.00  0.00     0.074 A 
ATOM     48  C   UNL     1       5.850  -1.869  10.354  1.00  0.00     0.049 A 
ATOM     49  N   UNL     1       8.695  -2.884  10.531  1.00  0.00    -0.248 NA
ATOM     50  C   UNL     1       9.184  -1.699   8.584  1.00  0.00     0.031 C 
ATOM     51  C   UNL     1       4.452  -1.440  10.273  1.00  0.00     0.029 A 
ATOM     52  N   UNL     1       5.884  -2.686  11.453  1.00  0.00    -0.354 N 
ATOM     53  C   UNL     1      10.008  -3.131  10.153  1.00  0.00     0.074 A 
ATOM     54  C   UNL     1      10.228  -2.447   8.901  1.00  0.00     0.031 C 
ATOM     55  C   UNL     1       3.776  -1.948  11.315  1.00  0.00     0.029 A 
ATOM     56  C   UNL     1       4.685  -2.759  12.117  1.00  0.00     0.049 A 
ATOM     57  H   UNL     1       6.691  -3.172  11.739  1.00  0.00     0.167 HD
ATOM     58  C   UNL     1      10.959  -3.832  10.813  1.00  0.00     0.037 A 
ATOM     59  C   UNL     1       4.367  -3.395  13.260  1.00  0.00     0.037 A 
ATOM     60  C   UNL     1      10.732  -4.487  12.073  1.00  0.00     0.049 A 
ATOM     61  C   UNL     1       5.451  -4.138  13.993  1.00  0.00     0.074 A 
ATOM     62  C   UNL     1      11.630  -5.181  12.862  1.00  0.00     0.029 A 
ATOM     63  N   UNL     1       9.508  -4.526  12.728  1.00  0.00    -0.354 N 
ATOM     64  N   UNL     1       6.714  -4.291  13.675  1.00  0.00    -0.248 NA
ATOM     65  C   UNL     1       5.067  -4.779  15.256  1.00  0.00     0.031 C 
ATOM     66  C   UNL     1      10.938  -5.683  13.970  1.00  0.00     0.029 A 
ATOM     67  C   UNL     1       9.623  -5.249  13.903  1.00  0.00     0.049 A 
ATOM     68  H   UNL     1       8.681  -4.103  12.404  1.00  0.00     0.167 HD
ATOM     69  C   UNL     1       7.282  -5.023  14.709  1.00  0.00     0.074 A 
ATOM     70  C   UNL     1       6.229  -5.255  15.677  1.00  0.00     0.031 C 
ATOM     71  C   UNL     1       8.557  -5.468  14.847  1.00  0.00     0.037 A 
BRANCH  58  72
ATOM     72  C   UNL     1      12.322  -3.914  10.187  1.00  0.00     0.064 A 
ATOM     73  C   UNL     1      13.148  -2.784  10.064  1.00  0.00     0.173 A 
ATOM     74  C   UNL     1      12.819  -5.139   9.718  1.00  0.00     0.173 A 
ATOM     75  F   UNL     1      12.717  -1.584  10.480  1.00  0.00    -0.203 F 
ATOM     76  C   UNL     1      14.403  -2.872   9.466  1.00  0.00     0.198 A 
ATOM     77  C   UNL     1      14.089  -5.229   9.152  1.00  0.00     0.198 A 
ATOM     78  F   UNL     1      12.075  -6.251   9.809  1.00  0.00    -0.203 F 
ATOM     79  F   UNL     1      15.146  -1.768   9.307  1.00  0.00    -0.200 F 
ATOM     80  C   UNL     1      14.876  -4.095   9.018  1.00  0.00     0.200 A 
ATOM     81  F   UNL     1      14.550  -6.415   8.731  1.00  0.00    -0.200 F 
ATOM     82  F   UNL     1      16.086  -4.180   8.450  1.00  0.00    -0.200 F 
ENDBRANCH  58  72
BRANCH  59  83
ATOM     83  C   UNL     1       2.986  -3.307  13.803  1.00  0.00     0.064 A 
ATOM     84  C   UNL     1       2.719  -2.610  14.990  1.00  0.00     0.173 A 
ATOM     85  C   UNL     1       1.905  -3.914  13.148  1.00  0.00     0.173 A 
ATOM     86  F   UNL     1       3.720  -2.022  15.661  1.00  0.00    -0.203 F 
ATOM     87  C   UNL     1       1.430  -2.549  15.515  1.00  0.00     0.198 A 
ATOM     88  C   UNL     1       0.612  -3.825  13.657  1.00  0.00     0.198 A 
ATOM     89  F   UNL     1       2.104  -4.583  12.002  1.00  0.00    -0.203 F 
ATOM     90  F   UNL     1       1.212  -1.920  16.679  1.00  0.00    -0.200 F 
ATOM     91  C   UNL     1       0.376  -3.151  14.846  1.00  0.00     0.200 A 
ATOM     92  F   UNL     1      -0.407  -4.392  12.996  1.00  0.00    -0.200 F 
ATOM     93  F   UNL     1      -0.864  -3.089  15.349  1.00  0.00    -0.200 F 
ENDBRANCH  59  83
BRANCH  71  94
ATOM     94  C   UNL     1       8.878  -6.221  16.105  1.00  0.00     0.064 A 
ATOM     95  C   UNL     1       8.350  -7.497  16.358  1.00  0.00     0.173 A 
ATOM     96  C   UNL     1       9.726  -5.658  17.071  1.00  0.00     0.173 A 
ATOM     97  F   UNL     1       7.524  -8.074  15.471  1.00  0.00    -0.203 F 
ATOM     98  C   UNL     1       8.619  -8.158  17.552  1.00  0.00     0.198 A 
ATOM     99  C   UNL     1      10.025  -6.340  18.246  1.00  0.00     0.198 A 
ATOM    100  F   UNL     1      10.268  -4.447  16.873  1.00  0.00    -0.203 F 
ATOM    101  F   UNL     1       8.043  -9.341  17.805  1.00  0.00    -0.200 F 
ATOM    102  C   UNL     1       9.459  -7.581  18.493  1.00  0.00     0.200 A 
ATOM    103  F   UNL     1      10.851  -5.789  19.146  1.00  0.00    -0.200 F 
ATOM    104  F   UNL     1       9.714  -8.217  19.645  1.00  0.00    -0.200 F 
ENDBRANCH  71  94
ENDBRANCH  45  46
ENDBRANCH  37  40
ENDBRANCH  35  36
ENDBRANCH  34  35
ENDBRANCH   1  34
TORSDOF 15
