REMARK SMILES CC1(C)C(NC(=O)N[C@]2(C(=O)NCCCNC(=O)c3ccc(-c4c5nc(c(-c6c(F)c(F)c(F)c(F)c6F)c6ccc([nH]6)c(-c6c(F)c(F)c(F)c(F)c6F)c6nc(c(-c7c(F)c(F)c(F)c(F)c7F)c7ccc4[nH]7)C=C6)C=C5)cc3)CC[C@@H](C)CC2)C1(C)C
REMARK SMILES IDX 14 1 13 2 12 3 10 4 11 5 9 7 85 8 84 9 86 10 83 11 87 12
REMARK SMILES IDX 82 13 8 14 6 15 7 17 5 18 4 20 2 21 88 22 1 23 3 24 89 25
REMARK SMILES IDX 90 26 15 27 16 28 17 29 18 31 19 32 20 33 81 34 21 35 80 36
REMARK SMILES IDX 22 37 23 38 24 39 74 40 25 41 79 42 73 43 75 44 26 45 78 46
REMARK SMILES IDX 72 47 71 48 27 50 59 51 39 52 58 53 40 54 43 55 57 56 76 57
REMARK SMILES IDX 41 58 42 59 56 61 77 62 44 63 28 64 29 65 37 66 30 67 31 68
REMARK SMILES IDX 35 69 38 70 32 71 33 72 36 73 34 74 60 75 61 76 69 77 62 78
REMARK SMILES IDX 63 79 67 80 70 81 64 82 65 83 68 84 66 85 45 86 46 87 54 88
REMARK SMILES IDX 47 89 48 90 52 91 55 92 49 93 50 94 53 95 51 96
REMARK H PARENT 12 6 8 16 5 19 16 30 75 49 43 60
REMARK Flexibility Score: inf
ROOT
ATOM      1  C   UNL     1      -2.908   4.335  -1.548  1.00  0.00     0.042 C 
ENDROOT
BRANCH   1   2
ATOM      2  C   UNL     1      -2.912   2.823  -1.388  1.00  0.00     0.117 C 
BRANCH   2   3
ATOM      3  N   UNL     1      -1.668   2.226  -1.839  1.00  0.00    -0.354 N 
ATOM      4  C   UNL     1      -1.075   1.048  -1.482  1.00  0.00     0.245 C 
ATOM      5  O   UNL     1      -0.015   0.788  -2.058  1.00  0.00    -0.272 OA
ATOM      6  H   UNL     1      -1.173   2.753  -2.507  1.00  0.00     0.163 HD
BRANCH   4   7
ATOM      7  C   UNL     1      -1.588   0.217  -0.266  1.00  0.00     0.120 C 
ATOM      8  C   UNL     1       2.607  -0.010   0.471  1.00  0.00     0.007 C 
ATOM      9  C   UNL     1       1.157  -0.235   0.913  1.00  0.00    -0.014 C 
ATOM     10  C   UNL     1       0.504  -1.269  -0.018  1.00  0.00     0.006 C 
ATOM     11  C   UNL     1       0.430   1.115   1.019  1.00  0.00     0.006 C 
ATOM     12  C   UNL     1      -1.017  -1.204  -0.095  1.00  0.00     0.039 C 
ATOM     13  C   UNL     1      -1.097   1.001   0.986  1.00  0.00     0.039 C 
BRANCH   7  14
ATOM     14  N   UNL     1      -3.060   0.141  -0.269  1.00  0.00    -0.324 N 
ATOM     15  C   UNL     1      -3.983  -0.319  -1.125  1.00  0.00     0.315 C 
ATOM     16  H   UNL     1      -3.459   0.518   0.548  1.00  0.00     0.166 HD
ATOM     17  O   UNL     1      -5.149  -0.343  -0.717  1.00  0.00    -0.249 OA
ATOM     18  N   UNL     1      -3.761  -0.702  -2.396  1.00  0.00    -0.334 N 
ATOM     19  H   UNL     1      -4.589  -0.980  -2.851  1.00  0.00     0.165 HD
BRANCH  18  20
ATOM     20  C   UNL     1      -2.616  -0.803  -3.244  1.00  0.00     0.096 C 
ATOM     21  C   UNL     1      -2.680  -1.539  -4.581  1.00  0.00    -0.007 C 
ATOM     22  C   UNL     1      -2.462  -0.020  -4.546  1.00  0.00    -0.007 C 
ATOM     23  C   UNL     1      -1.513  -2.462  -4.883  1.00  0.00     0.014 C 
ATOM     24  C   UNL     1      -3.973  -2.075  -5.150  1.00  0.00     0.014 C 
ATOM     25  C   UNL     1      -3.566   0.919  -4.982  1.00  0.00     0.014 C 
ATOM     26  C   UNL     1      -1.099   0.506  -4.948  1.00  0.00     0.014 C 
ENDBRANCH  18  20
ENDBRANCH   7  14
ENDBRANCH   4   7
ENDBRANCH   2   3
ENDBRANCH   1   2
BRANCH   1  27
ATOM     27  C   UNL     1      -2.930   4.784  -2.999  1.00  0.00     0.118 C 
BRANCH  27  28
ATOM     28  N   UNL     1      -4.199   4.542  -3.668  1.00  0.00    -0.352 N 
ATOM     29  C   UNL     1      -4.720   5.257  -4.725  1.00  0.00     0.251 C 
ATOM     30  H   UNL     1      -4.740   3.792  -3.332  1.00  0.00     0.163 HD
ATOM     31  O   UNL     1      -5.819   5.010  -5.192  1.00  0.00    -0.269 OA
BRANCH  29  32
ATOM     32  C   UNL     1      -3.915   6.380  -5.244  1.00  0.00     0.039 A 
ATOM     33  C   UNL     1      -4.419   7.675  -5.122  1.00  0.00     0.014 A 
ATOM     34  C   UNL     1      -2.615   6.151  -5.703  1.00  0.00     0.014 A 
ATOM     35  C   UNL     1      -3.586   8.758  -5.397  1.00  0.00     0.010 A 
ATOM     36  C   UNL     1      -1.768   7.233  -5.915  1.00  0.00     0.010 A 
ATOM     37  C   UNL     1      -2.244   8.544  -5.757  1.00  0.00    -0.014 A 
BRANCH  37  38
ATOM     38  C   UNL     1      -1.323   9.685  -5.970  1.00  0.00     0.031 A 
ATOM     39  C   UNL     1      -0.783   9.959  -7.343  1.00  0.00     0.074 A 
ATOM     40  C   UNL     1      -0.930  10.433  -4.921  1.00  0.00     0.049 A 
ATOM     41  N   UNL     1       0.069  10.873  -7.730  1.00  0.00    -0.248 NA
ATOM     42  C   UNL     1      -1.243   9.069  -8.421  1.00  0.00     0.031 C 
ATOM     43  C   UNL     1      -1.344  10.229  -3.532  1.00  0.00     0.029 A 
ATOM     44  N   UNL     1      -0.083  11.512  -4.860  1.00  0.00    -0.354 N 
ATOM     45  C   UNL     1       0.253  10.662  -9.089  1.00  0.00     0.074 A 
ATOM     46  C   UNL     1      -0.532   9.502  -9.450  1.00  0.00     0.031 C 
ATOM     47  C   UNL     1      -0.765  11.161  -2.759  1.00  0.00     0.029 A 
ATOM     48  C   UNL     1       0.081  12.012  -3.591  1.00  0.00     0.049 A 
ATOM     49  H   UNL     1       0.364  11.891  -5.650  1.00  0.00     0.167 HD
ATOM     50  C   UNL     1       0.991  11.388  -9.962  1.00  0.00     0.037 A 
ATOM     51  C   UNL     1       0.830  13.041  -3.153  1.00  0.00     0.037 A 
ATOM     52  C   UNL     1       1.751  12.555  -9.603  1.00  0.00     0.049 A 
ATOM     53  C   UNL     1       1.631  13.840  -4.147  1.00  0.00     0.074 A 
ATOM     54  C   UNL     1       2.491  13.388 -10.422  1.00  0.00     0.029 A 
ATOM     55  N   UNL     1       1.864  13.054  -8.314  1.00  0.00    -0.354 N 
ATOM     56  N   UNL     1       1.742  13.674  -5.442  1.00  0.00    -0.248 NA
ATOM     57  C   UNL     1       2.400  14.976  -3.619  1.00  0.00     0.031 C 
ATOM     58  C   UNL     1       3.080  14.374  -9.623  1.00  0.00     0.029 A 
ATOM     59  C   UNL     1       2.673  14.178  -8.313  1.00  0.00     0.049 A 
ATOM     60  H   UNL     1       1.433  12.666  -7.518  1.00  0.00     0.167 HD
ATOM     61  C   UNL     1       2.569  14.696  -5.888  1.00  0.00     0.074 A 
ATOM     62  C   UNL     1       2.921  15.486  -4.726  1.00  0.00     0.031 C 
ATOM     63  C   UNL     1       2.999  14.957  -7.147  1.00  0.00     0.037 A 
BRANCH  50  64
ATOM     64  C   UNL     1       0.998  10.941 -11.393  1.00  0.00     0.064 A 
ATOM     65  C   UNL     1      -0.133  11.087 -12.210  1.00  0.00     0.173 A 
ATOM     66  C   UNL     1       2.152  10.383 -11.961  1.00  0.00     0.173 A 
ATOM     67  F   UNL     1      -1.266  11.601 -11.709  1.00  0.00    -0.203 F 
ATOM     68  C   UNL     1      -0.117  10.665 -13.537  1.00  0.00     0.198 A 
ATOM     69  C   UNL     1       2.173   9.988 -13.296  1.00  0.00     0.198 A 
ATOM     70  F   UNL     1       3.261  10.224 -11.223  1.00  0.00    -0.203 F 
ATOM     71  F   UNL     1      -1.225  10.770 -14.284  1.00  0.00    -0.200 F 
ATOM     72  C   UNL     1       1.037  10.122 -14.080  1.00  0.00     0.200 A 
ATOM     73  F   UNL     1       3.292   9.471 -13.823  1.00  0.00    -0.200 F 
ATOM     74  F   UNL     1       1.052   9.720 -15.358  1.00  0.00    -0.200 F 
ENDBRANCH  50  64
BRANCH  51  75
ATOM     75  C   UNL     1       0.837  13.397  -1.711  1.00  0.00     0.064 A 
ATOM     76  C   UNL     1       0.219  14.571  -1.256  1.00  0.00     0.173 A 
ATOM     77  C   UNL     1       1.465  12.579  -0.760  1.00  0.00     0.173 A 
ATOM     78  F   UNL     1      -0.377  15.394  -2.131  1.00  0.00    -0.203 F 
ATOM     79  C   UNL     1       0.248  14.924   0.091  1.00  0.00     0.198 A 
ATOM     80  C   UNL     1       1.472  12.921   0.590  1.00  0.00     0.198 A 
ATOM     81  F   UNL     1       2.065  11.443  -1.144  1.00  0.00    -0.203 F 
ATOM     82  F   UNL     1      -0.311  16.074   0.492  1.00  0.00    -0.200 F 
ATOM     83  C   UNL     1       0.871  14.097   1.014  1.00  0.00     0.200 A 
ATOM     84  F   UNL     1       2.063  12.114   1.481  1.00  0.00    -0.200 F 
ATOM     85  F   UNL     1       0.898  14.437   2.310  1.00  0.00    -0.200 F 
ENDBRANCH  51  75
BRANCH  63  86
ATOM     86  C   UNL     1       3.867  16.165  -7.340  1.00  0.00     0.064 A 
ATOM     87  C   UNL     1       5.207  16.179  -6.928  1.00  0.00     0.173 A 
ATOM     88  C   UNL     1       3.363  17.302  -7.989  1.00  0.00     0.173 A 
ATOM     89  F   UNL     1       5.728  15.120  -6.290  1.00  0.00    -0.203 F 
ATOM     90  C   UNL     1       6.007  17.297  -7.142  1.00  0.00     0.198 A 
ATOM     91  C   UNL     1       4.174  18.408  -8.224  1.00  0.00     0.198 A 
ATOM     92  F   UNL     1       2.089  17.334  -8.406  1.00  0.00    -0.203 F 
ATOM     93  F   UNL     1       7.274  17.305  -6.706  1.00  0.00    -0.200 F 
ATOM     94  C   UNL     1       5.493  18.407  -7.796  1.00  0.00     0.200 A 
ATOM     95  F   UNL     1       3.679  19.476  -8.866  1.00  0.00    -0.200 F 
ATOM     96  F   UNL     1       6.268  19.480  -8.009  1.00  0.00    -0.200 F 
ENDBRANCH  63  86
ENDBRANCH  37  38
ENDBRANCH  29  32
ENDBRANCH  27  28
ENDBRANCH   1  27
TORSDOF 12
