REMARK SMILES NC(=O)CC[N@@H+]1[C@@H](C(=O)NCCCNC(=O)c2ccc(-c3c4nc(c(-c5c(F)c(F)c(F)c(F)c5F)c5ccc([nH]5)c(-c5c(F)c(F)c(F)c(F)c5F)c5nc(c(-c6c(F)c(F)c(F)c(F)c6F)c6ccc3[nH]6)C=C5)C=C4)cc2)CC[C@@H]2CCCC[C@H]21
REMARK SMILES IDX 11 1 10 2 8 3 9 4 7 6 6 7 87 8 80 10 82 11 86 12 81 13 83 14
REMARK SMILES IDX 85 15 84 16 5 17 4 18 2 19 1 20 3 23 12 24 13 25 14 26 15 27
REMARK SMILES IDX 16 29 17 30 18 31 79 32 19 33 78 34 20 35 21 36 22 37 72 38
REMARK SMILES IDX 23 39 77 40 71 41 73 42 24 43 76 44 70 45 69 46 25 48 57 49
REMARK SMILES IDX 37 50 56 51 38 52 41 53 55 54 74 55 39 56 40 57 54 59 75 60
REMARK SMILES IDX 42 61 26 62 27 63 35 64 28 65 29 66 33 67 36 68 30 69 31 70
REMARK SMILES IDX 34 71 32 72 58 73 59 74 67 75 60 76 61 77 65 78 68 79 62 80
REMARK SMILES IDX 63 81 66 82 64 83 43 84 44 85 52 86 45 87 46 88 50 89 53 90
REMARK SMILES IDX 47 91 48 92 51 93 49 94
REMARK H PARENT 10 5 6 9 1 21 1 22 14 28 73 47 41 58
REMARK Flexibility Score: inf
ROOT
ATOM      1  C   UNL     1       1.297  -2.253  -0.283  1.00  0.00     0.118 C 
ENDROOT
BRANCH   1   2
ATOM      2  N   UNL     1       1.296  -3.076   0.909  1.00  0.00    -0.351 N 
ATOM      3  C   UNL     1       2.085  -3.002   2.017  1.00  0.00     0.278 C 
ATOM      4  O   UNL     1       1.848  -3.789   2.940  1.00  0.00    -0.268 OA
ATOM      5  H   UNL     1       0.625  -3.796   0.920  1.00  0.00     0.163 HD
BRANCH   3   6
ATOM      6  C   UNL     1       3.264  -2.007   2.120  1.00  0.00     0.274 C 
ATOM      7  N   UNL     1       2.852  -0.562   1.932  1.00  0.00    -0.322 N 
ATOM      8  C   UNL     1       4.076   0.303   2.030  1.00  0.00     0.187 C 
ATOM      9  H   UNL     1       2.440  -0.407   1.012  1.00  0.00     0.349 HD
ATOM     10  C   UNL     1       4.355  -2.484   1.151  1.00  0.00     0.076 C 
ATOM     11  C   UNL     1       5.106  -0.116   0.942  1.00  0.00     0.048 C 
ATOM     12  C   UNL     1       3.785   1.814   1.918  1.00  0.00     0.065 C 
ATOM     13  C   UNL     1       5.555  -1.562   1.156  1.00  0.00     0.016 C 
ATOM     14  C   UNL     1       6.346   0.787   0.913  1.00  0.00     0.010 C 
ATOM     15  C   UNL     1       5.038   2.683   1.862  1.00  0.00     0.006 C 
ATOM     16  C   UNL     1       5.970   2.250   0.745  1.00  0.00     0.001 C 
BRANCH   7  17
ATOM     17  C   UNL     1       1.809  -0.217   2.942  1.00  0.00     0.273 C 
BRANCH  17  18
ATOM     18  C   UNL     1       0.783   0.861   2.563  1.00  0.00     0.161 C 
BRANCH  18  19
ATOM     19  C   UNL     1      -0.027   0.549   1.329  1.00  0.00     0.223 C 
ATOM     20  N   UNL     1       0.576   0.849   0.144  1.00  0.00    -0.369 N 
ATOM     21  H   UNL     1       0.108   0.673  -0.705  1.00  0.00     0.159 HD
ATOM     22  H   UNL     1       1.479   1.241   0.136  1.00  0.00     0.159 HD
ATOM     23  O   UNL     1      -1.163   0.090   1.359  1.00  0.00    -0.275 OA
ENDBRANCH  18  19
ENDBRANCH  17  18
ENDBRANCH   7  17
ENDBRANCH   3   6
ENDBRANCH   1   2
BRANCH   1  24
ATOM     24  C   UNL     1       1.530  -3.062  -1.549  1.00  0.00     0.042 C 
BRANCH  24  25
ATOM     25  C   UNL     1       0.359  -3.969  -1.906  1.00  0.00     0.118 C 
BRANCH  25  26
ATOM     26  N   UNL     1      -0.841  -3.223  -2.272  1.00  0.00    -0.352 N 
ATOM     27  C   UNL     1      -1.487  -3.113  -3.480  1.00  0.00     0.251 C 
ATOM     28  H   UNL     1      -1.255  -2.718  -1.535  1.00  0.00     0.163 HD
ATOM     29  O   UNL     1      -2.369  -2.273  -3.633  1.00  0.00    -0.269 OA
BRANCH  27  30
ATOM     30  C   UNL     1      -1.098  -3.979  -4.612  1.00  0.00     0.039 A 
ATOM     31  C   UNL     1      -0.964  -3.412  -5.883  1.00  0.00     0.014 A 
ATOM     32  C   UNL     1      -0.855  -5.341  -4.424  1.00  0.00     0.014 A 
ATOM     33  C   UNL     1      -0.479  -4.186  -6.938  1.00  0.00     0.010 A 
ATOM     34  C   UNL     1      -0.294  -6.090  -5.452  1.00  0.00     0.010 A 
ATOM     35  C   UNL     1      -0.081  -5.514  -6.714  1.00  0.00    -0.014 A 
BRANCH  35  36
ATOM     36  C   UNL     1       0.611  -6.306  -7.761  1.00  0.00     0.031 A 
ATOM     37  C   UNL     1      -0.007  -7.567  -8.290  1.00  0.00     0.074 A 
ATOM     38  C   UNL     1       1.848  -5.941  -8.151  1.00  0.00     0.049 A 
ATOM     39  N   UNL     1       0.502  -8.461  -9.099  1.00  0.00    -0.248 NA
ATOM     40  C   UNL     1      -1.368  -7.880  -7.827  1.00  0.00     0.031 C 
ATOM     41  C   UNL     1       2.571  -4.761  -7.674  1.00  0.00     0.029 A 
ATOM     42  N   UNL     1       2.726  -6.537  -9.022  1.00  0.00    -0.354 N 
ATOM     43  C   UNL     1      -0.467  -9.447  -9.229  1.00  0.00     0.074 A 
ATOM     44  C   UNL     1      -1.576  -9.066  -8.381  1.00  0.00     0.031 C 
ATOM     45  C   UNL     1       3.775  -4.712  -8.265  1.00  0.00     0.029 A 
ATOM     46  C   UNL     1       3.929  -5.881  -9.125  1.00  0.00     0.049 A 
ATOM     47  H   UNL     1       2.514  -7.356  -9.525  1.00  0.00     0.167 HD
ATOM     48  C   UNL     1      -0.438 -10.558 -10.002  1.00  0.00     0.037 A 
ATOM     49  C   UNL     1       5.040  -6.199  -9.815  1.00  0.00     0.037 A 
ATOM     50  C   UNL     1       0.659 -10.920 -10.861  1.00  0.00     0.049 A 
ATOM     51  C   UNL     1       5.056  -7.456 -10.640  1.00  0.00     0.074 A 
ATOM     52  C   UNL     1       0.751 -11.983 -11.742  1.00  0.00     0.029 A 
ATOM     53  N   UNL     1       1.860 -10.230 -10.939  1.00  0.00    -0.354 N 
ATOM     54  N   UNL     1       4.108  -8.343 -10.812  1.00  0.00    -0.248 NA
ATOM     55  C   UNL     1       6.301  -7.759 -11.361  1.00  0.00     0.031 C 
ATOM     56  C   UNL     1       2.027 -11.965 -12.316  1.00  0.00     0.029 A 
ATOM     57  C   UNL     1       2.713 -10.865 -11.828  1.00  0.00     0.049 A 
ATOM     58  H   UNL     1       2.075  -9.410 -10.438  1.00  0.00     0.167 HD
ATOM     59  C   UNL     1       4.631  -9.300 -11.670  1.00  0.00     0.074 A 
ATOM     60  C   UNL     1       5.975  -8.874 -12.001  1.00  0.00     0.031 C 
ATOM     61  C   UNL     1       4.051 -10.431 -12.140  1.00  0.00     0.037 A 
BRANCH  48  62
ATOM     62  C   UNL     1      -1.632 -11.466  -9.959  1.00  0.00     0.064 A 
ATOM     63  C   UNL     1      -2.861 -11.092 -10.523  1.00  0.00     0.173 A 
ATOM     64  C   UNL     1      -1.535 -12.743  -9.385  1.00  0.00     0.173 A 
ATOM     65  F   UNL     1      -3.009  -9.879 -11.074  1.00  0.00    -0.203 F 
ATOM     66  C   UNL     1      -3.956 -11.953 -10.491  1.00  0.00     0.198 A 
ATOM     67  C   UNL     1      -2.623 -13.612  -9.381  1.00  0.00     0.198 A 
ATOM     68  F   UNL     1      -0.381 -13.153  -8.838  1.00  0.00    -0.203 F 
ATOM     69  F   UNL     1      -5.132 -11.556 -10.997  1.00  0.00    -0.200 F 
ATOM     70  C   UNL     1      -3.834 -13.214  -9.927  1.00  0.00     0.200 A 
ATOM     71  F   UNL     1      -2.500 -14.835  -8.847  1.00  0.00    -0.200 F 
ATOM     72  F   UNL     1      -4.886 -14.044  -9.905  1.00  0.00    -0.200 F 
ENDBRANCH  48  62
BRANCH  49  73
ATOM     73  C   UNL     1       6.230  -5.310  -9.755  1.00  0.00     0.064 A 
ATOM     74  C   UNL     1       6.624  -4.563 -10.874  1.00  0.00     0.173 A 
ATOM     75  C   UNL     1       6.994  -5.187  -8.585  1.00  0.00     0.173 A 
ATOM     76  F   UNL     1       5.938  -4.664 -12.021  1.00  0.00    -0.203 F 
ATOM     77  C   UNL     1       7.746  -3.738 -10.829  1.00  0.00     0.198 A 
ATOM     78  C   UNL     1       8.099  -4.340  -8.534  1.00  0.00     0.198 A 
ATOM     79  F   UNL     1       6.656  -5.877  -7.486  1.00  0.00    -0.203 F 
ATOM     80  F   UNL     1       8.124  -3.066 -11.925  1.00  0.00    -0.200 F 
ATOM     81  C   UNL     1       8.479  -3.622  -9.657  1.00  0.00     0.200 A 
ATOM     82  F   UNL     1       8.795  -4.220  -7.395  1.00  0.00    -0.200 F 
ATOM     83  F   UNL     1       9.554  -2.824  -9.613  1.00  0.00    -0.200 F 
ENDBRANCH  49  73
BRANCH  61  84
ATOM     84  C   UNL     1       4.863 -11.285 -13.068  1.00  0.00     0.064 A 
ATOM     85  C   UNL     1       5.931 -12.063 -12.597  1.00  0.00     0.173 A 
ATOM     86  C   UNL     1       4.541 -11.364 -14.431  1.00  0.00     0.173 A 
ATOM     87  F   UNL     1       6.289 -12.006 -11.305  1.00  0.00    -0.203 F 
ATOM     88  C   UNL     1       6.657 -12.877 -13.461  1.00  0.00     0.198 A 
ATOM     89  C   UNL     1       5.251 -12.201 -15.286  1.00  0.00     0.198 A 
ATOM     90  F   UNL     1       3.526 -10.642 -14.928  1.00  0.00    -0.203 F 
ATOM     91  F   UNL     1       7.698 -13.582 -12.998  1.00  0.00    -0.200 F 
ATOM     92  C   UNL     1       6.311 -12.953 -14.802  1.00  0.00     0.200 A 
ATOM     93  F   UNL     1       4.908 -12.282 -16.579  1.00  0.00    -0.200 F 
ATOM     94  F   UNL     1       7.004 -13.746 -15.630  1.00  0.00    -0.200 F 
ENDBRANCH  61  84
ENDBRANCH  35  36
ENDBRANCH  27  30
ENDBRANCH  25  26
ENDBRANCH  24  25
ENDBRANCH   1  24
TORSDOF 13
