REMARK SMILES CC(C)[C@@H]1CCCN1C(=O)N1CCO[C@H](CC(=O)NCCCNC(=O)c2ccc(-c3c4nc(c(-c5c(F)c(F)c(F)c(F)c5F)c5ccc([nH]5)c(-c5c(F)c(F)c(F)c(F)c5F)c5nc(c(-c6c(F)c(F)c(F)c(F)c6F)c6ccc3[nH]6)C=C5)C=C4)cc2)C1
REMARK SMILES IDX 20 1 19 2 17 3 18 4 16 6 15 7 11 8 12 9 89 10 13 11 14 12
REMARK SMILES IDX 9 13 10 14 8 15 4 16 5 17 6 18 7 19 2 20 1 21 3 22 21 23
REMARK SMILES IDX 22 24 23 25 24 26 25 28 26 29 27 30 88 31 28 32 87 33 29 34
REMARK SMILES IDX 30 35 31 36 81 37 32 38 86 39 80 40 82 41 33 42 85 43 79 44
REMARK SMILES IDX 78 45 34 47 66 48 46 49 65 50 47 51 50 52 64 53 83 54 48 55
REMARK SMILES IDX 49 56 63 58 84 59 51 60 35 61 36 62 44 63 37 64 38 65 42 66
REMARK SMILES IDX 45 67 39 68 40 69 43 70 41 71 67 72 68 73 76 74 69 75 70 76
REMARK SMILES IDX 74 77 77 78 71 79 72 80 75 81 73 82 52 83 53 84 61 85 54 86
REMARK SMILES IDX 55 87 59 88 62 89 56 90 57 91 60 92 58 93
REMARK H PARENT 19 5 23 27 82 46 50 57
REMARK Flexibility Score: inf
ROOT
ATOM      1  C   UNL     1       2.358  -0.939  -2.215  1.00  0.00     0.117 C 
ENDROOT
BRANCH   1   2
ATOM      2  N   UNL     1       2.307  -1.483  -3.551  1.00  0.00    -0.356 N 
ATOM      3  C   UNL     1       1.529  -2.511  -4.003  1.00  0.00     0.222 C 
ATOM      4  O   UNL     1       1.619  -2.855  -5.181  1.00  0.00    -0.275 OA
ATOM      5  H   UNL     1       2.903  -1.064  -4.215  1.00  0.00     0.163 HD
BRANCH   3   6
ATOM      6  C   UNL     1       0.525  -3.145  -3.071  1.00  0.00     0.133 C 
BRANCH   6   7
ATOM      7  C   UNL     1       0.942  -4.499  -2.488  1.00  0.00     0.147 C 
ATOM      8  N   UNL     1      -0.080  -4.213  -0.278  1.00  0.00    -0.320 N 
ATOM      9  C   UNL     1       1.170  -4.516   0.397  1.00  0.00     0.150 C 
ATOM     10  C   UNL     1      -0.162  -4.966  -1.527  1.00  0.00     0.154 C 
ATOM     11  C   UNL     1       2.355  -4.172  -0.501  1.00  0.00     0.182 C 
ATOM     12  O   UNL     1       2.243  -4.563  -1.875  1.00  0.00    -0.374 OA
BRANCH   8  13
ATOM     13  C   UNL     1      -1.224  -4.172   0.483  1.00  0.00     0.320 C 
ATOM     14  O   UNL     1      -1.743  -5.213   0.884  1.00  0.00    -0.248 OA
BRANCH  13  15
ATOM     15  N   UNL     1      -1.785  -2.930   0.698  1.00  0.00    -0.321 N 
ATOM     16  C   UNL     1      -1.352  -1.573   0.314  1.00  0.00     0.089 C 
ATOM     17  C   UNL     1      -2.424  -0.659   0.933  1.00  0.00     0.027 C 
ATOM     18  C   UNL     1      -3.675  -1.512   0.899  1.00  0.00     0.024 C 
ATOM     19  C   UNL     1      -3.144  -2.899   1.219  1.00  0.00     0.122 C 
BRANCH  16  20
ATOM     20  C   UNL     1       0.072  -1.133   0.712  1.00  0.00     0.005 C 
ATOM     21  C   UNL     1       0.322   0.343   0.365  1.00  0.00     0.009 C 
ATOM     22  C   UNL     1       0.453  -1.377   2.170  1.00  0.00     0.009 C 
ENDBRANCH  16  20
ENDBRANCH  13  15
ENDBRANCH   8  13
ENDBRANCH   6   7
ENDBRANCH   3   6
ENDBRANCH   1   2
BRANCH   1  23
ATOM     23  C   UNL     1       3.742  -1.025  -1.597  1.00  0.00     0.042 C 
BRANCH  23  24
ATOM     24  C   UNL     1       4.476   0.296  -1.671  1.00  0.00     0.118 C 
BRANCH  24  25
ATOM     25  N   UNL     1       3.935   1.272  -0.725  1.00  0.00    -0.352 N 
ATOM     26  C   UNL     1       4.493   1.833   0.400  1.00  0.00     0.251 C 
ATOM     27  H   UNL     1       3.021   1.578  -0.926  1.00  0.00     0.163 HD
ATOM     28  O   UNL     1       3.776   2.442   1.193  1.00  0.00    -0.269 OA
BRANCH  26  29
ATOM     29  C   UNL     1       5.940   1.696   0.667  1.00  0.00     0.039 A 
ATOM     30  C   UNL     1       6.402   1.611   1.984  1.00  0.00     0.014 A 
ATOM     31  C   UNL     1       6.852   1.657  -0.386  1.00  0.00     0.014 A 
ATOM     32  C   UNL     1       7.763   1.407   2.228  1.00  0.00     0.010 A 
ATOM     33  C   UNL     1       8.169   1.298  -0.151  1.00  0.00     0.010 A 
ATOM     34  C   UNL     1       8.651   1.199   1.159  1.00  0.00    -0.014 A 
BRANCH  34  35
ATOM     35  C   UNL     1      10.093   0.911   1.369  1.00  0.00     0.031 A 
ATOM     36  C   UNL     1      11.133   1.803   0.736  1.00  0.00     0.074 A 
ATOM     37  C   UNL     1      10.463  -0.198   2.038  1.00  0.00     0.049 A 
ATOM     38  N   UNL     1      12.434   1.661   0.697  1.00  0.00    -0.248 NA
ATOM     39  C   UNL     1      10.643   2.985   0.005  1.00  0.00     0.031 C 
ATOM     40  C   UNL     1       9.548  -1.182   2.622  1.00  0.00     0.029 A 
ATOM     41  N   UNL     1      11.708  -0.694   2.329  1.00  0.00    -0.354 N 
ATOM     42  C   UNL     1      12.903   2.708  -0.088  1.00  0.00     0.074 A 
ATOM     43  C   UNL     1      11.750   3.435  -0.564  1.00  0.00     0.031 C 
ATOM     44  C   UNL     1      10.261  -2.142   3.230  1.00  0.00     0.029 A 
ATOM     45  C   UNL     1      11.681  -1.868   3.042  1.00  0.00     0.049 A 
ATOM     46  H   UNL     1      12.543  -0.251   2.052  1.00  0.00     0.167 HD
ATOM     47  C   UNL     1      14.184   3.054  -0.357  1.00  0.00     0.037 A 
ATOM     48  C   UNL     1      12.692  -2.638   3.488  1.00  0.00     0.037 A 
ATOM     49  C   UNL     1      15.327   2.359   0.171  1.00  0.00     0.049 A 
ATOM     50  C   UNL     1      14.107  -2.204   3.214  1.00  0.00     0.074 A 
ATOM     51  C   UNL     1      16.666   2.676   0.042  1.00  0.00     0.029 A 
ATOM     52  N   UNL     1      15.259   1.204   0.938  1.00  0.00    -0.354 N 
ATOM     53  N   UNL     1      14.540  -1.161   2.547  1.00  0.00    -0.248 NA
ATOM     54  C   UNL     1      15.175  -3.048   3.766  1.00  0.00     0.031 C 
ATOM     55  C   UNL     1      17.412   1.685   0.687  1.00  0.00     0.029 A 
ATOM     56  C   UNL     1      16.536   0.783   1.269  1.00  0.00     0.049 A 
ATOM     57  H   UNL     1      14.427   0.751   1.206  1.00  0.00     0.167 HD
ATOM     58  C   UNL     1      15.925  -1.210   2.619  1.00  0.00     0.074 A 
ATOM     59  C   UNL     1      16.259  -2.370   3.419  1.00  0.00     0.031 C 
ATOM     60  C   UNL     1      16.841  -0.374   2.070  1.00  0.00     0.037 A 
BRANCH  47  61
ATOM     61  C   UNL     1      14.420   4.244  -1.244  1.00  0.00     0.064 A 
ATOM     62  C   UNL     1      14.102   5.548  -0.833  1.00  0.00     0.173 A 
ATOM     63  C   UNL     1      15.011   4.084  -2.507  1.00  0.00     0.173 A 
ATOM     64  F   UNL     1      13.523   5.759   0.359  1.00  0.00    -0.203 F 
ATOM     65  C   UNL     1      14.340   6.642  -1.662  1.00  0.00     0.198 A 
ATOM     66  C   UNL     1      15.279   5.183  -3.319  1.00  0.00     0.198 A 
ATOM     67  F   UNL     1      15.338   2.861  -2.951  1.00  0.00    -0.203 F 
ATOM     68  F   UNL     1      13.979   7.871  -1.268  1.00  0.00    -0.200 F 
ATOM     69  C   UNL     1      14.937   6.459  -2.900  1.00  0.00     0.200 A 
ATOM     70  F   UNL     1      15.869   5.006  -4.510  1.00  0.00    -0.200 F 
ATOM     71  F   UNL     1      15.177   7.514  -3.692  1.00  0.00    -0.200 F 
ENDBRANCH  47  61
BRANCH  48  72
ATOM     72  C   UNL     1      12.405  -3.876   4.262  1.00  0.00     0.064 A 
ATOM     73  C   UNL     1      12.734  -3.969   5.622  1.00  0.00     0.173 A 
ATOM     74  C   UNL     1      11.809  -4.994   3.660  1.00  0.00     0.173 A 
ATOM     75  F   UNL     1      13.320  -2.933   6.241  1.00  0.00    -0.203 F 
ATOM     76  C   UNL     1      12.506  -5.140   6.342  1.00  0.00     0.198 A 
ATOM     77  C   UNL     1      11.550  -6.153   4.389  1.00  0.00     0.198 A 
ATOM     78  F   UNL     1      11.464  -4.956   2.365  1.00  0.00    -0.203 F 
ATOM     79  F   UNL     1      12.882  -5.218   7.625  1.00  0.00    -0.200 F 
ATOM     80  C   UNL     1      11.910  -6.230   5.726  1.00  0.00     0.200 A 
ATOM     81  F   UNL     1      10.956  -7.197   3.796  1.00  0.00    -0.200 F 
ATOM     82  F   UNL     1      11.689  -7.355   6.419  1.00  0.00    -0.200 F 
ENDBRANCH  48  72
BRANCH  60  83
ATOM     83  C   UNL     1      18.287  -0.671   2.345  1.00  0.00     0.064 A 
ATOM     84  C   UNL     1      18.930  -1.784   1.784  1.00  0.00     0.173 A 
ATOM     85  C   UNL     1      19.044   0.186   3.159  1.00  0.00     0.173 A 
ATOM     86  F   UNL     1      18.246  -2.640   1.009  1.00  0.00    -0.203 F 
ATOM     87  C   UNL     1      20.268  -2.049   2.058  1.00  0.00     0.198 A 
ATOM     88  C   UNL     1      20.391  -0.062   3.400  1.00  0.00     0.198 A 
ATOM     89  F   UNL     1      18.479   1.270   3.711  1.00  0.00    -0.203 F 
ATOM     90  F   UNL     1      20.846  -3.151   1.561  1.00  0.00    -0.200 F 
ATOM     91  C   UNL     1      20.999  -1.185   2.860  1.00  0.00     0.200 A 
ATOM     92  F   UNL     1      21.101   0.783   4.160  1.00  0.00    -0.200 F 
ATOM     93  F   UNL     1      22.289  -1.440   3.119  1.00  0.00    -0.200 F 
ENDBRANCH  60  83
ENDBRANCH  34  35
ENDBRANCH  26  29
ENDBRANCH  24  25
ENDBRANCH  23  24
ENDBRANCH   1  23
TORSDOF 14
