REMARK SMILES O=C(NCCCNC(=O)[C@@H](Cc1c[nH]c2ccccc12)NC(=O)c1ccc(F)cc1F)c1ccc(-c2c3nc(c(-c4c(F)c(F)c(F)c(F)c4F)c4ccc([nH]4)c(-c4c(F)c(F)c(F)c(F)c4F)c4nc(c(-c5c(F)c(F)c(F)c(F)c5F)c5ccc2[nH]5)C=C4)C=C3)cc1
REMARK SMILES IDX 5 1 4 2 3 3 1 4 2 5 32 7 33 8 94 9 34 10 93 11 35 12 36 13
REMARK SMILES IDX 37 14 87 15 38 16 92 17 86 18 88 19 39 20 91 21 85 22 84 23
REMARK SMILES IDX 40 25 72 26 52 27 71 28 53 29 56 30 70 31 89 32 54 33 55 34
REMARK SMILES IDX 69 36 90 37 57 38 41 39 42 40 50 41 43 42 44 43 48 44 51 45
REMARK SMILES IDX 45 46 46 47 49 48 47 49 73 50 74 51 82 52 75 53 76 54 80 55
REMARK SMILES IDX 83 56 77 57 78 58 81 59 79 60 58 61 59 62 67 63 60 64 61 65
REMARK SMILES IDX 65 66 68 67 62 68 63 69 66 70 64 71 6 72 7 73 8 74 9 76
REMARK SMILES IDX 10 77 11 78 12 79 13 80 20 81 14 82 15 83 19 84 16 86 18 87
REMARK SMILES IDX 17 88 21 89 22 90 23 92 24 93 25 94 30 95 26 96 29 97 31 98
REMARK SMILES IDX 27 99 28 100
REMARK H PARENT 3 6 88 24 56 35 7 75 14 85 21 91
REMARK Flexibility Score: inf
ROOT
ATOM      1  C   UNL     1       4.105   1.956   1.434  1.00  0.00     0.042 C 
ENDROOT
BRANCH   1   2
ATOM      2  C   UNL     1       3.695   0.533   1.785  1.00  0.00     0.118 C 
BRANCH   2   3
ATOM      3  N   UNL     1       2.371   0.213   1.286  1.00  0.00    -0.352 N 
ATOM      4  O   UNL     1       0.747  -0.218  -0.182  1.00  0.00    -0.269 OA
ATOM      5  C   UNL     1       1.948  -0.278   0.077  1.00  0.00     0.251 C 
ATOM      6  H   UNL     1       1.646   0.378   1.931  1.00  0.00     0.163 HD
BRANCH   5   7
ATOM      7  C   UNL     1       2.866  -0.883  -0.926  1.00  0.00     0.039 A 
ATOM      8  C   UNL     1       3.972  -1.659  -0.576  1.00  0.00     0.014 A 
ATOM      9  C   UNL     1       2.493  -0.815  -2.278  1.00  0.00     0.014 A 
ATOM     10  C   UNL     1       4.725  -2.310  -1.557  1.00  0.00     0.010 A 
ATOM     11  C   UNL     1       3.189  -1.541  -3.252  1.00  0.00     0.010 A 
ATOM     12  C   UNL     1       4.302  -2.312  -2.895  1.00  0.00    -0.014 A 
BRANCH  12  13
ATOM     13  C   UNL     1       4.908  -3.272  -3.857  1.00  0.00     0.031 A 
ATOM     14  C   UNL     1       5.684  -2.814  -5.055  1.00  0.00     0.074 A 
ATOM     15  C   UNL     1       4.733  -4.591  -3.639  1.00  0.00     0.049 A 
ATOM     16  N   UNL     1       6.260  -3.532  -5.987  1.00  0.00    -0.248 NA
ATOM     17  C   UNL     1       5.831  -1.363  -5.236  1.00  0.00     0.031 C 
ATOM     18  C   UNL     1       3.981  -5.162  -2.519  1.00  0.00     0.029 A 
ATOM     19  N   UNL     1       5.183  -5.689  -4.328  1.00  0.00    -0.354 N 
ATOM     20  C   UNL     1       6.835  -2.627  -6.867  1.00  0.00     0.074 A 
ATOM     21  C   UNL     1       6.515  -1.302  -6.372  1.00  0.00     0.031 C 
ATOM     22  C   UNL     1       4.073  -6.498  -2.562  1.00  0.00     0.029 A 
ATOM     23  C   UNL     1       4.833  -6.882  -3.745  1.00  0.00     0.049 A 
ATOM     24  H   UNL     1       5.706  -5.627  -5.159  1.00  0.00     0.167 HD
ATOM     25  C   UNL     1       7.568  -2.880  -7.979  1.00  0.00     0.037 A 
ATOM     26  C   UNL     1       5.086  -8.149  -4.120  1.00  0.00     0.037 A 
ATOM     27  C   UNL     1       7.868  -4.199  -8.480  1.00  0.00     0.049 A 
ATOM     28  C   UNL     1       5.864  -8.401  -5.376  1.00  0.00     0.074 A 
ATOM     29  C   UNL     1       8.585  -4.552  -9.611  1.00  0.00     0.029 A 
ATOM     30  N   UNL     1       7.465  -5.384  -7.881  1.00  0.00    -0.354 N 
ATOM     31  N   UNL     1       6.396  -7.535  -6.202  1.00  0.00    -0.248 NA
ATOM     32  C   UNL     1       6.070  -9.805  -5.755  1.00  0.00     0.031 C 
ATOM     33  C   UNL     1       8.586  -5.947  -9.716  1.00  0.00     0.029 A 
ATOM     34  C   UNL     1       7.911  -6.468  -8.624  1.00  0.00     0.049 A 
ATOM     35  H   UNL     1       6.939  -5.447  -7.051  1.00  0.00     0.167 HD
ATOM     36  C   UNL     1       7.013  -8.284  -7.192  1.00  0.00     0.074 A 
ATOM     37  C   UNL     1       6.801  -9.678  -6.855  1.00  0.00     0.031 C 
ATOM     38  C   UNL     1       7.694  -7.851  -8.281  1.00  0.00     0.037 A 
BRANCH  25  39
ATOM     39  C   UNL     1       8.091  -1.698  -8.745  1.00  0.00     0.064 A 
ATOM     40  C   UNL     1       7.568  -1.373 -10.005  1.00  0.00     0.173 A 
ATOM     41  C   UNL     1       9.141  -0.912  -8.248  1.00  0.00     0.173 A 
ATOM     42  F   UNL     1       6.566  -2.095 -10.529  1.00  0.00    -0.203 F 
ATOM     43  C   UNL     1       8.079  -0.306 -10.741  1.00  0.00     0.198 A 
ATOM     44  C   UNL     1       9.634   0.169  -8.975  1.00  0.00     0.198 A 
ATOM     45  F   UNL     1       9.668  -1.174  -7.042  1.00  0.00    -0.203 F 
ATOM     46  F   UNL     1       7.577  -0.026 -11.951  1.00  0.00    -0.200 F 
ATOM     47  C   UNL     1       9.107   0.467 -10.223  1.00  0.00     0.200 A 
ATOM     48  F   UNL     1      10.610   0.930  -8.461  1.00  0.00    -0.200 F 
ATOM     49  F   UNL     1       9.586   1.505 -10.923  1.00  0.00    -0.200 F 
ENDBRANCH  25  39
BRANCH  26  50
ATOM     50  C   UNL     1       4.617  -9.265  -3.261  1.00  0.00     0.064 A 
ATOM     51  C   UNL     1       3.255  -9.578  -3.146  1.00  0.00     0.173 A 
ATOM     52  C   UNL     1       5.525  -9.989  -2.478  1.00  0.00     0.173 A 
ATOM     53  F   UNL     1       2.349  -8.906  -3.871  1.00  0.00    -0.203 F 
ATOM     54  C   UNL     1       2.816 -10.554  -2.255  1.00  0.00     0.198 A 
ATOM     55  C   UNL     1       5.087 -10.981  -1.604  1.00  0.00     0.198 A 
ATOM     56  F   UNL     1       6.839  -9.735  -2.568  1.00  0.00    -0.203 F 
ATOM     57  F   UNL     1       1.505 -10.802  -2.128  1.00  0.00    -0.200 F 
ATOM     58  C   UNL     1       3.732 -11.254  -1.484  1.00  0.00     0.200 A 
ATOM     59  F   UNL     1       5.976 -11.668  -0.873  1.00  0.00    -0.200 F 
ATOM     60  F   UNL     1       3.309 -12.190  -0.624  1.00  0.00    -0.200 F 
ENDBRANCH  26  50
BRANCH  38  61
ATOM     61  C   UNL     1       8.286  -8.898  -9.177  1.00  0.00     0.064 A 
ATOM     62  C   UNL     1       9.673  -9.107  -9.200  1.00  0.00     0.173 A 
ATOM     63  C   UNL     1       7.489  -9.671 -10.033  1.00  0.00     0.173 A 
ATOM     64  F   UNL     1      10.479  -8.391  -8.401  1.00  0.00    -0.203 F 
ATOM     65  C   UNL     1      10.241 -10.051 -10.051  1.00  0.00     0.198 A 
ATOM     66  C   UNL     1       8.058 -10.632 -10.866  1.00  0.00     0.198 A 
ATOM     67  F   UNL     1       6.157  -9.519 -10.035  1.00  0.00    -0.203 F 
ATOM     68  F   UNL     1      11.570 -10.223 -10.068  1.00  0.00    -0.200 F 
ATOM     69  C   UNL     1       9.433 -10.817 -10.878  1.00  0.00     0.200 A 
ATOM     70  F   UNL     1       7.274 -11.389 -11.646  1.00  0.00    -0.200 F 
ATOM     71  F   UNL     1       9.979 -11.739 -11.683  1.00  0.00    -0.200 F 
ENDBRANCH  38  61
ENDBRANCH  12  13
ENDBRANCH   5   7
ENDBRANCH   2   3
ENDBRANCH   1   2
BRANCH   1  72
ATOM     72  C   UNL     1       3.779   2.976   2.522  1.00  0.00     0.117 C 
BRANCH  72  73
ATOM     73  N   UNL     1       4.691   2.824   3.644  1.00  0.00    -0.354 N 
ATOM     74  C   UNL     1       5.830   3.485   3.977  1.00  0.00     0.242 C 
ATOM     75  H   UNL     1       4.439   2.113   4.276  1.00  0.00     0.163 HD
ATOM     76  O   UNL     1       6.641   2.852   4.666  1.00  0.00    -0.273 OA
BRANCH  74  77
ATOM     77  C   UNL     1       6.190   4.908   3.498  1.00  0.00     0.176 C 
BRANCH  77  78
ATOM     78  C   UNL     1       7.122   4.976   2.274  1.00  0.00     0.072 C 
BRANCH  78  79
ATOM     79  C   UNL     1       6.586   4.535   0.946  1.00  0.00    -0.020 A 
ATOM     80  C   UNL     1       7.043   3.440   0.234  1.00  0.00     0.087 A 
ATOM     81  C   UNL     1       5.589   5.164   0.125  1.00  0.00     0.003 A 
ATOM     82  N   UNL     1       6.315   3.333  -0.919  1.00  0.00    -0.361 N 
ATOM     83  C   UNL     1       5.391   4.347  -0.990  1.00  0.00     0.046 A 
ATOM     84  C   UNL     1       4.814   6.339   0.228  1.00  0.00     0.010 A 
ATOM     85  H   UNL     1       6.435   2.631  -1.599  1.00  0.00     0.166 HD
ATOM     86  C   UNL     1       4.411   4.601  -1.958  1.00  0.00     0.026 A 
ATOM     87  C   UNL     1       3.829   6.609  -0.730  1.00  0.00     0.001 A 
ATOM     88  C   UNL     1       3.622   5.742  -1.798  1.00  0.00     0.002 A 
ENDBRANCH  78  79
ENDBRANCH  77  78
BRANCH  77  89
ATOM     89  N   UNL     1       5.076   5.860   3.451  1.00  0.00    -0.340 N 
ATOM     90  C   UNL     1       4.802   6.932   4.258  1.00  0.00     0.254 C 
ATOM     91  H   UNL     1       4.426   5.706   2.728  1.00  0.00     0.164 HD
ATOM     92  O   UNL     1       3.753   7.560   4.096  1.00  0.00    -0.269 OA
BRANCH  90  93
ATOM     93  C   UNL     1       5.756   7.370   5.290  1.00  0.00     0.075 A 
ATOM     94  C   UNL     1       7.074   7.712   4.955  1.00  0.00     0.020 A 
ATOM     95  C   UNL     1       5.321   7.496   6.611  1.00  0.00     0.138 A 
ATOM     96  C   UNL     1       7.959   8.114   5.957  1.00  0.00     0.040 A 
ATOM     97  C   UNL     1       6.196   7.916   7.608  1.00  0.00     0.079 A 
ATOM     98  F   UNL     1       4.062   7.190   6.953  1.00  0.00    -0.206 F 
ATOM     99  C   UNL     1       7.511   8.211   7.272  1.00  0.00     0.126 A 
ATOM    100  F   UNL     1       8.364   8.599   8.229  1.00  0.00    -0.207 F 
ENDBRANCH  90  93
ENDBRANCH  77  89
ENDBRANCH  74  77
ENDBRANCH  72  73
ENDBRANCH   1  72
TORSDOF 14
