REMARK SMILES O=C(CCc1nc(-c2ccccc2)c(-c2ccccc2)o1)NCCCNC(=O)c1ccc(-c2c3nc(c(-c4c(F)c(F)c(F)c(F)c4F)c4ccc([nH]4)c(-c4c(F)c(F)c(F)c(F)c4F)c4nc(c(-c5c(F)c(F)c(F)c(F)c5F)c5ccc2[nH]5)C=C4)C=C3)cc1
REMARK SMILES IDX 23 1 22 2 1 3 2 4 3 6 4 7 5 8 6 9 21 10 7 11 14 12 8 13 9 14
REMARK SMILES IDX 13 15 10 16 12 17 11 18 15 19 16 20 20 21 17 22 19 23 18 24
REMARK SMILES IDX 24 25 25 26 26 27 27 28 28 30 29 31 30 32 91 33 31 34 90 35
REMARK SMILES IDX 32 36 33 37 34 38 84 39 35 40 89 41 83 42 85 43 36 44 88 45
REMARK SMILES IDX 82 46 81 47 37 49 69 50 49 51 68 52 50 53 53 54 67 55 86 56
REMARK SMILES IDX 51 57 52 58 66 60 87 61 54 62 38 63 39 64 47 65 40 66 41 67
REMARK SMILES IDX 45 68 48 69 42 70 43 71 46 72 44 73 70 74 71 75 79 76 72 77
REMARK SMILES IDX 73 78 77 79 80 80 74 81 75 82 78 83 76 84 55 85 56 86 64 87
REMARK SMILES IDX 57 88 58 89 62 90 65 91 59 92 60 93 63 94 61 95
REMARK H PARENT 22 5 26 29 85 48 53 59
REMARK Flexibility Score: inf
ROOT
ATOM      1  C   UNL     1       1.606   1.940  -1.425  1.00  0.00     0.117 C 
ENDROOT
BRANCH   1   2
ATOM      2  N   UNL     1       2.470   1.047  -0.684  1.00  0.00    -0.356 N 
ATOM      3  O   UNL     1       0.837  -0.390   0.040  1.00  0.00    -0.275 OA
ATOM      4  C   UNL     1       2.016  -0.064  -0.015  1.00  0.00     0.220 C 
ATOM      5  H   UNL     1       3.434   1.246  -0.657  1.00  0.00     0.163 HD
BRANCH   4   6
ATOM      6  C   UNL     1       3.101  -0.863   0.681  1.00  0.00     0.110 C 
BRANCH   6   7
ATOM      7  C   UNL     1       3.947  -1.676  -0.292  1.00  0.00     0.107 C 
BRANCH   7   8
ATOM      8  C   UNL     1       5.089  -0.946  -0.923  1.00  0.00     0.196 A 
ATOM      9  N   UNL     1       6.079  -1.464  -1.631  1.00  0.00    -0.213 NA
ATOM     10  O   UNL     1       5.118   0.429  -0.824  1.00  0.00    -0.440 OA
ATOM     11  C   UNL     1       6.811  -0.372  -2.016  1.00  0.00     0.117 A 
ATOM     12  C   UNL     1       6.202   0.782  -1.569  1.00  0.00     0.162 A 
BRANCH  11  13
ATOM     13  C   UNL     1       7.979  -0.349  -2.873  1.00  0.00     0.004 A 
ATOM     14  C   UNL     1       9.106   0.399  -2.490  1.00  0.00     0.010 A 
ATOM     15  C   UNL     1       7.907  -0.869  -4.167  1.00  0.00     0.010 A 
ATOM     16  C   UNL     1      10.107   0.695  -3.413  1.00  0.00     0.001 A 
ATOM     17  C   UNL     1       8.919  -0.580  -5.087  1.00  0.00     0.001 A 
ATOM     18  C   UNL     1      10.005   0.216  -4.716  1.00  0.00     0.000 A 
ENDBRANCH  11  13
BRANCH  12  19
ATOM     19  C   UNL     1       6.483   2.183  -1.809  1.00  0.00     0.020 A 
ATOM     20  C   UNL     1       6.998   2.994  -0.795  1.00  0.00     0.012 A 
ATOM     21  C   UNL     1       6.483   2.650  -3.133  1.00  0.00     0.012 A 
ATOM     22  C   UNL     1       7.572   4.226  -1.118  1.00  0.00     0.001 A 
ATOM     23  C   UNL     1       7.049   3.882  -3.450  1.00  0.00     0.001 A 
ATOM     24  C   UNL     1       7.610   4.662  -2.444  1.00  0.00     0.000 A 
ENDBRANCH  12  19
ENDBRANCH   7   8
ENDBRANCH   6   7
ENDBRANCH   4   6
ENDBRANCH   1   2
BRANCH   1  25
ATOM     25  C   UNL     1       1.657   3.367  -0.885  1.00  0.00     0.042 C 
BRANCH  25  26
ATOM     26  C   UNL     1       3.009   4.064  -1.032  1.00  0.00     0.118 C 
BRANCH  26  27
ATOM     27  N   UNL     1       3.387   4.267  -2.417  1.00  0.00    -0.352 N 
ATOM     28  C   UNL     1       4.056   5.276  -3.058  1.00  0.00     0.251 C 
ATOM     29  H   UNL     1       3.107   3.536  -3.014  1.00  0.00     0.163 HD
ATOM     30  O   UNL     1       4.107   5.217  -4.288  1.00  0.00    -0.269 OA
BRANCH  28  31
ATOM     31  C   UNL     1       4.723   6.415  -2.364  1.00  0.00     0.039 A 
ATOM     32  C   UNL     1       5.077   7.519  -3.156  1.00  0.00     0.014 A 
ATOM     33  C   UNL     1       5.107   6.413  -1.019  1.00  0.00     0.014 A 
ATOM     34  C   UNL     1       5.764   8.605  -2.610  1.00  0.00     0.010 A 
ATOM     35  C   UNL     1       5.758   7.515  -0.456  1.00  0.00     0.010 A 
ATOM     36  C   UNL     1       6.080   8.623  -1.246  1.00  0.00    -0.014 A 
BRANCH  36  37
ATOM     37  C   UNL     1       6.603   9.854  -0.615  1.00  0.00     0.031 A 
ATOM     38  C   UNL     1       8.017   9.960  -0.132  1.00  0.00     0.074 A 
ATOM     39  C   UNL     1       5.734  10.864  -0.424  1.00  0.00     0.049 A 
ATOM     40  N   UNL     1       8.627  10.983   0.411  1.00  0.00    -0.248 NA
ATOM     41  C   UNL     1       8.854   8.757  -0.256  1.00  0.00     0.031 C 
ATOM     42  C   UNL     1       4.317  10.826  -0.793  1.00  0.00     0.029 A 
ATOM     43  N   UNL     1       5.902  12.104   0.131  1.00  0.00    -0.354 N 
ATOM     44  C   UNL     1       9.920  10.558   0.682  1.00  0.00     0.074 A 
ATOM     45  C   UNL     1       9.993   9.164   0.290  1.00  0.00     0.031 C 
ATOM     46  C   UNL     1       3.748  11.995  -0.469  1.00  0.00     0.029 A 
ATOM     47  C   UNL     1       4.752  12.852   0.150  1.00  0.00     0.049 A 
ATOM     48  H   UNL     1       6.764  12.427   0.481  1.00  0.00     0.167 HD
ATOM     49  C   UNL     1      10.949  11.276   1.196  1.00  0.00     0.037 A 
ATOM     50  C   UNL     1       4.533  14.095   0.615  1.00  0.00     0.037 A 
ATOM     51  C   UNL     1      10.843  12.658   1.601  1.00  0.00     0.049 A 
ATOM     52  C   UNL     1       5.691  14.867   1.177  1.00  0.00     0.074 A 
ATOM     53  C   UNL     1      11.832  13.497   2.086  1.00  0.00     0.029 A 
ATOM     54  N   UNL     1       9.668  13.399   1.586  1.00  0.00    -0.354 N 
ATOM     55  N   UNL     1       6.938  14.492   1.333  1.00  0.00    -0.248 NA
ATOM     56  C   UNL     1       5.417  16.243   1.605  1.00  0.00     0.031 C 
ATOM     57  C   UNL     1      11.244  14.723   2.420  1.00  0.00     0.029 A 
ATOM     58  C   UNL     1       9.902  14.675   2.077  1.00  0.00     0.049 A 
ATOM     59  H   UNL     1       8.796  13.067   1.272  1.00  0.00     0.167 HD
ATOM     60  C   UNL     1       7.607  15.596   1.841  1.00  0.00     0.074 A 
ATOM     61  C   UNL     1       6.627  16.658   1.952  1.00  0.00     0.031 C 
ATOM     62  C   UNL     1       8.914  15.721   2.180  1.00  0.00     0.037 A 
BRANCH  49  63
ATOM     63  C   UNL     1      12.279  10.590   1.353  1.00  0.00     0.064 A 
ATOM     64  C   UNL     1      13.042  10.199   0.241  1.00  0.00     0.173 A 
ATOM     65  C   UNL     1      12.829  10.373   2.627  1.00  0.00     0.173 A 
ATOM     66  F   UNL     1      12.566  10.377  -1.001  1.00  0.00    -0.203 F 
ATOM     67  C   UNL     1      14.288   9.595   0.398  1.00  0.00     0.198 A 
ATOM     68  C   UNL     1      14.089   9.798   2.780  1.00  0.00     0.198 A 
ATOM     69  F   UNL     1      12.150  10.732   3.727  1.00  0.00    -0.203 F 
ATOM     70  F   UNL     1      14.976   9.191  -0.679  1.00  0.00    -0.200 F 
ATOM     71  C   UNL     1      14.814   9.403   1.666  1.00  0.00     0.200 A 
ATOM     72  F   UNL     1      14.602   9.627   4.006  1.00  0.00    -0.200 F 
ATOM     73  F   UNL     1      16.017   8.831   1.815  1.00  0.00    -0.200 F 
ENDBRANCH  49  63
BRANCH  50  74
ATOM     74  C   UNL     1       3.176  14.689   0.511  1.00  0.00     0.064 A 
ATOM     75  C   UNL     1       2.918  15.745  -0.373  1.00  0.00     0.173 A 
ATOM     76  C   UNL     1       2.105  14.198   1.273  1.00  0.00     0.173 A 
ATOM     77  F   UNL     1       3.912  16.254  -1.116  1.00  0.00    -0.203 F 
ATOM     78  C   UNL     1       1.647  16.306  -0.473  1.00  0.00     0.198 A 
ATOM     79  C   UNL     1       0.827  14.738   1.148  1.00  0.00     0.198 A 
ATOM     80  F   UNL     1       2.296  13.177   2.121  1.00  0.00    -0.203 F 
ATOM     81  F   UNL     1       1.439  17.345  -1.292  1.00  0.00    -0.200 F 
ATOM     82  C   UNL     1       0.601  15.798   0.283  1.00  0.00     0.200 A 
ATOM     83  F   UNL     1      -0.185  14.229   1.864  1.00  0.00    -0.200 F 
ATOM     84  F   UNL     1      -0.623  16.332   0.180  1.00  0.00    -0.200 F 
ENDBRANCH  50  74
BRANCH  62  85
ATOM     85  C   UNL     1       9.364  17.073   2.658  1.00  0.00     0.064 A 
ATOM     86  C   UNL     1       8.946  17.604   3.887  1.00  0.00     0.173 A 
ATOM     87  C   UNL     1      10.229  17.847   1.869  1.00  0.00     0.173 A 
ATOM     88  F   UNL     1       8.107  16.912   4.672  1.00  0.00    -0.203 F 
ATOM     89  C   UNL     1       9.341  18.878   4.288  1.00  0.00     0.198 A 
ATOM     90  C   UNL     1      10.654  19.104   2.291  1.00  0.00     0.198 A 
ATOM     91  F   UNL     1      10.666  17.384   0.688  1.00  0.00    -0.203 F 
ATOM     92  F   UNL     1       8.872  19.394   5.432  1.00  0.00    -0.200 F 
ATOM     93  C   UNL     1      10.199  19.624   3.493  1.00  0.00     0.200 A 
ATOM     94  F   UNL     1      11.495  19.816   1.529  1.00  0.00    -0.200 F 
ATOM     95  F   UNL     1      10.577  20.850   3.880  1.00  0.00    -0.200 F 
ENDBRANCH  62  85
ENDBRANCH  36  37
ENDBRANCH  28  31
ENDBRANCH  26  27
ENDBRANCH  25  26
ENDBRANCH   1  25
TORSDOF 14
