REMARK SMILES CCCC1CN(c2cc(C(=O)NCCCNC(=O)c3ccc(-c4c5nc(c(-c6c(F)c(F)c(F)c(F)c6F)c6ccc([nH]6)c(-c6c(F)c(F)c(F)c(F)c6F)c6nc(c(-c7c(F)c(F)c(F)c(F)c7F)c7ccc4[nH]7)C=C6)C=C5)cc3)ccc2C)C1
REMARK SMILES IDX 13 1 12 2 10 3 11 4 9 6 7 7 8 8 84 9 83 10 85 11 82 12 6 13
REMARK SMILES IDX 4 14 5 15 86 16 3 17 2 18 1 19 14 20 15 21 16 22 17 23 18 25
REMARK SMILES IDX 19 26 20 27 81 28 21 29 80 30 22 31 23 32 24 33 74 34 25 35
REMARK SMILES IDX 79 36 73 37 75 38 26 39 78 40 72 41 71 42 27 44 59 45 39 46
REMARK SMILES IDX 58 47 40 48 43 49 57 50 76 51 41 52 42 53 56 55 77 56 44 57
REMARK SMILES IDX 28 58 29 59 37 60 30 61 31 62 35 63 38 64 32 65 33 66 36 67
REMARK SMILES IDX 34 68 60 69 61 70 69 71 62 72 63 73 67 74 70 75 64 76 65 77
REMARK SMILES IDX 68 78 66 79 45 80 46 81 54 82 47 83 48 84 52 85 55 86 49 87
REMARK SMILES IDX 50 88 53 89 51 90
REMARK H PARENT 12 5 16 24 75 43 43 54
REMARK Flexibility Score: inf
ROOT
ATOM      1  C   UNL     1       1.163   6.788  -1.904  1.00  0.00     0.118 C 
ENDROOT
BRANCH   1   2
ATOM      2  N   UNL     1       0.150   7.833  -1.855  1.00  0.00    -0.352 N 
ATOM      3  C   UNL     1      -0.804   8.190  -0.930  1.00  0.00     0.251 C 
ATOM      4  O   UNL     1      -1.467   9.195  -1.203  1.00  0.00    -0.269 OA
ATOM      5  H   UNL     1       0.148   8.407  -2.654  1.00  0.00     0.163 HD
BRANCH   3   6
ATOM      6  C   UNL     1      -1.093   7.466   0.349  1.00  0.00     0.041 A 
ATOM      7  C   UNL     1      -0.878   5.590   1.927  1.00  0.00     0.040 A 
ATOM      8  C   UNL     1      -0.549   6.238   0.723  1.00  0.00     0.040 A 
ATOM      9  C   UNL     1      -1.800   6.197   2.792  1.00  0.00    -0.028 A 
ATOM     10  C   UNL     1      -2.361   7.432   2.431  1.00  0.00     0.006 A 
ATOM     11  C   UNL     1      -2.189   5.603   4.117  1.00  0.00     0.046 C 
ATOM     12  C   UNL     1      -2.011   8.056   1.228  1.00  0.00     0.014 A 
BRANCH   7  13
ATOM     13  N   UNL     1      -0.278   4.351   2.245  1.00  0.00    -0.371 N 
ATOM     14  C   UNL     1       0.441   2.588   1.402  1.00  0.00     0.028 C 
ATOM     15  C   UNL     1      -0.883   3.065   2.022  1.00  0.00     0.122 C 
ATOM     16  C   UNL     1       1.043   3.898   1.919  1.00  0.00     0.122 C 
BRANCH  14  17
ATOM     17  C   UNL     1       1.090   1.330   1.967  1.00  0.00     0.007 C 
BRANCH  17  18
ATOM     18  C   UNL     1       0.496   0.059   1.361  1.00  0.00    -0.003 C 
ATOM     19  C   UNL     1       0.980  -0.198  -0.061  1.00  0.00     0.004 C 
ENDBRANCH  17  18
ENDBRANCH  14  17
ENDBRANCH   7  13
ENDBRANCH   3   6
ENDBRANCH   1   2
BRANCH   1  20
ATOM     20  C   UNL     1       0.577   5.437  -2.329  1.00  0.00     0.042 C 
BRANCH  20  21
ATOM     21  C   UNL     1       0.771   5.125  -3.804  1.00  0.00     0.118 C 
BRANCH  21  22
ATOM     22  N   UNL     1       1.891   4.223  -4.075  1.00  0.00    -0.352 N 
ATOM     23  C   UNL     1       2.394   3.833  -5.308  1.00  0.00     0.251 C 
ATOM     24  H   UNL     1       2.342   3.846  -3.286  1.00  0.00     0.163 HD
ATOM     25  O   UNL     1       3.333   3.068  -5.403  1.00  0.00    -0.269 OA
BRANCH  23  26
ATOM     26  C   UNL     1       1.814   4.477  -6.507  1.00  0.00     0.039 A 
ATOM     27  C   UNL     1       2.642   5.326  -7.246  1.00  0.00     0.014 A 
ATOM     28  C   UNL     1       0.430   4.489  -6.668  1.00  0.00     0.014 A 
ATOM     29  C   UNL     1       2.061   6.371  -7.956  1.00  0.00     0.010 A 
ATOM     30  C   UNL     1      -0.141   5.576  -7.302  1.00  0.00     0.010 A 
ATOM     31  C   UNL     1       0.679   6.558  -7.871  1.00  0.00    -0.014 A 
BRANCH  31  32
ATOM     32  C   UNL     1       0.050   7.836  -8.187  1.00  0.00     0.031 A 
ATOM     33  C   UNL     1      -0.764   8.004  -9.405  1.00  0.00     0.074 A 
ATOM     34  C   UNL     1       0.171   8.866  -7.319  1.00  0.00     0.049 A 
ATOM     35  N   UNL     1      -0.946   9.132 -10.008  1.00  0.00    -0.248 NA
ATOM     36  C   UNL     1      -1.407   6.883 -10.074  1.00  0.00     0.031 C 
ATOM     37  C   UNL     1      -0.573  10.123  -7.326  1.00  0.00     0.029 A 
ATOM     38  N   UNL     1       1.167   9.056  -6.344  1.00  0.00    -0.354 N 
ATOM     39  C   UNL     1      -1.939   8.951 -10.945  1.00  0.00     0.074 A 
ATOM     40  C   UNL     1      -2.127   7.519 -11.003  1.00  0.00     0.031 C 
ATOM     41  C   UNL     1       0.137  11.048  -6.662  1.00  0.00     0.029 A 
ATOM     42  C   UNL     1       1.415  10.448  -6.327  1.00  0.00     0.049 A 
ATOM     43  H   UNL     1       1.600   8.367  -5.791  1.00  0.00     0.167 HD
ATOM     44  C   UNL     1      -2.586  10.045 -11.449  1.00  0.00     0.037 A 
ATOM     45  C   UNL     1       2.633  10.968  -6.651  1.00  0.00     0.037 A 
ATOM     46  C   UNL     1      -1.995  11.288 -10.950  1.00  0.00     0.049 A 
ATOM     47  C   UNL     1       2.596  11.960  -7.788  1.00  0.00     0.074 A 
ATOM     48  C   UNL     1      -2.375  12.171  -9.952  1.00  0.00     0.029 A 
ATOM     49  N   UNL     1      -0.688  11.625 -11.293  1.00  0.00    -0.354 N 
ATOM     50  N   UNL     1       1.628  12.028  -8.658  1.00  0.00    -0.248 NA
ATOM     51  C   UNL     1       3.666  12.914  -8.062  1.00  0.00     0.031 C 
ATOM     52  C   UNL     1      -1.282  13.027  -9.677  1.00  0.00     0.029 A 
ATOM     53  C   UNL     1      -0.237  12.671 -10.511  1.00  0.00     0.049 A 
ATOM     54  H   UNL     1      -0.160  11.181 -11.995  1.00  0.00     0.167 HD
ATOM     55  C   UNL     1       1.931  12.976  -9.603  1.00  0.00     0.074 A 
ATOM     56  C   UNL     1       3.205  13.518  -9.171  1.00  0.00     0.031 C 
ATOM     57  C   UNL     1       1.105  13.212 -10.665  1.00  0.00     0.037 A 
BRANCH  44  58
ATOM     58  C   UNL     1      -3.951   9.989 -12.120  1.00  0.00     0.064 A 
ATOM     59  C   UNL     1      -4.837  11.089 -12.055  1.00  0.00     0.173 A 
ATOM     60  C   UNL     1      -4.481   8.862 -12.771  1.00  0.00     0.173 A 
ATOM     61  F   UNL     1      -4.440  12.288 -11.612  1.00  0.00    -0.203 F 
ATOM     62  C   UNL     1      -6.176  11.006 -12.452  1.00  0.00     0.198 A 
ATOM     63  C   UNL     1      -5.833   8.757 -13.120  1.00  0.00     0.198 A 
ATOM     64  F   UNL     1      -3.699   7.850 -13.161  1.00  0.00    -0.203 F 
ATOM     65  F   UNL     1      -6.970  12.081 -12.342  1.00  0.00    -0.200 F 
ATOM     66  C   UNL     1      -6.687   9.824 -12.941  1.00  0.00     0.200 A 
ATOM     67  F   UNL     1      -6.298   7.610 -13.636  1.00  0.00    -0.200 F 
ATOM     68  F   UNL     1      -7.981   9.725 -13.273  1.00  0.00    -0.200 F 
ENDBRANCH  44  58
BRANCH  45  69
ATOM     69  C   UNL     1       3.769  10.055  -6.367  1.00  0.00     0.064 A 
ATOM     70  C   UNL     1       3.999   9.661  -5.035  1.00  0.00     0.173 A 
ATOM     71  C   UNL     1       4.386   9.310  -7.378  1.00  0.00     0.173 A 
ATOM     72  F   UNL     1       3.423  10.335  -4.027  1.00  0.00    -0.203 F 
ATOM     73  C   UNL     1       4.721   8.509  -4.734  1.00  0.00     0.198 A 
ATOM     74  C   UNL     1       5.122   8.164  -7.072  1.00  0.00     0.198 A 
ATOM     75  F   UNL     1       4.188   9.620  -8.667  1.00  0.00    -0.203 F 
ATOM     76  F   UNL     1       4.822   8.096  -3.462  1.00  0.00    -0.200 F 
ATOM     77  C   UNL     1       5.262   7.748  -5.755  1.00  0.00     0.200 A 
ATOM     78  F   UNL     1       5.617   7.406  -8.061  1.00  0.00    -0.200 F 
ATOM     79  F   UNL     1       5.878   6.591  -5.476  1.00  0.00    -0.200 F 
ENDBRANCH  45  69
BRANCH  57  80
ATOM     80  C   UNL     1       1.423  14.049 -11.884  1.00  0.00     0.064 A 
ATOM     81  C   UNL     1       2.723  14.289 -12.361  1.00  0.00     0.173 A 
ATOM     82  C   UNL     1       0.379  14.538 -12.709  1.00  0.00     0.173 A 
ATOM     83  F   UNL     1       3.798  13.773 -11.753  1.00  0.00    -0.203 F 
ATOM     84  C   UNL     1       2.962  15.022 -13.529  1.00  0.00     0.198 A 
ATOM     85  C   UNL     1       0.620  15.216 -13.904  1.00  0.00     0.198 A 
ATOM     86  F   UNL     1      -0.911  14.347 -12.396  1.00  0.00    -0.203 F 
ATOM     87  F   UNL     1       4.223  15.261 -13.915  1.00  0.00    -0.200 F 
ATOM     88  C   UNL     1       1.912  15.475 -14.305  1.00  0.00     0.200 A 
ATOM     89  F   UNL     1      -0.411  15.599 -14.672  1.00  0.00    -0.200 F 
ATOM     90  F   UNL     1       2.147  16.137 -15.446  1.00  0.00    -0.200 F 
ENDBRANCH  57  80
ENDBRANCH  31  32
ENDBRANCH  23  26
ENDBRANCH  21  22
ENDBRANCH  20  21
ENDBRANCH   1  20
TORSDOF 13
