REMARK SMILES Cc1nn2c(nnc3c(=O)n(CCCC(=O)NCCCNC(=O)c4ccc(-c5c6nc(c(-c7c(F)c(F)c(F)c(F)c7F)c7ccc([nH]7)c(-c7c(F)c(F)c(F)c(F)c7F)c7nc(c(-c8c(F)c(F)c(F)c(F)c8F)c8ccc5[nH]8)C=C7)C=C6)cc4)ccc32)c1-c1ccc(F)cc1
REMARK SMILES IDX 18 1 17 2 15 3 16 4 14 6 13 7 12 8 11 9 1 10 2 11 3 12 90 13
REMARK SMILES IDX 4 14 5 15 89 16 6 17 8 18 88 19 7 20 9 21 87 22 10 23 91 24
REMARK SMILES IDX 92 25 97 26 93 27 96 28 94 29 95 30 19 31 20 32 21 33 22 34
REMARK SMILES IDX 23 36 24 37 25 38 86 39 26 40 85 41 27 42 28 43 29 44 79 45
REMARK SMILES IDX 30 46 84 47 78 48 80 49 31 50 83 51 77 52 76 53 32 55 64 56
REMARK SMILES IDX 44 57 63 58 45 59 48 60 62 61 81 62 46 63 47 64 61 66 82 67
REMARK SMILES IDX 49 68 33 69 34 70 42 71 35 72 36 73 40 74 43 75 37 76 38 77
REMARK SMILES IDX 41 78 39 79 65 80 66 81 74 82 67 83 68 84 72 85 75 86 69 87
REMARK SMILES IDX 70 88 73 89 71 90 50 91 51 92 59 93 52 94 53 95 57 96 60 97
REMARK SMILES IDX 54 98 55 99 58 100 56 101
REMARK H PARENT 17 5 21 35 80 54 48 65
REMARK Flexibility Score: inf
ROOT
ATOM      1  C   UNL     1      -3.726  -7.990  -2.139  1.00  0.00     0.117 C 
ENDROOT
BRANCH   1   2
ATOM      2  N   UNL     1      -3.632  -9.295  -2.757  1.00  0.00    -0.356 N 
ATOM      3  C   UNL     1      -2.960  -9.776  -3.828  1.00  0.00     0.220 C 
ATOM      4  O   UNL     1      -3.035 -11.004  -3.979  1.00  0.00    -0.275 OA
ATOM      5  H   UNL     1      -4.173  -9.980  -2.300  1.00  0.00     0.163 HD
BRANCH   3   6
ATOM      6  C   UNL     1      -2.065  -8.980  -4.766  1.00  0.00     0.102 C 
BRANCH   6   7
ATOM      7  C   UNL     1      -2.491  -7.750  -5.575  1.00  0.00     0.032 C 
BRANCH   7   8
ATOM      8  C   UNL     1      -3.009  -6.427  -5.000  1.00  0.00     0.126 C 
BRANCH   8   9
ATOM      9  N   UNL     1      -2.224  -5.532  -4.124  1.00  0.00    -0.313 N 
ATOM     10  C   UNL     1       0.826   0.133  -0.060  1.00  0.00     0.069 C 
ATOM     11  C   UNL     1       0.521  -1.284  -0.374  1.00  0.00     0.070 A 
ATOM     12  N   UNL     1      -0.475  -1.592  -1.220  1.00  0.00    -0.170 NA
ATOM     13  C   UNL     1       1.195  -2.435   0.095  1.00  0.00     0.051 A 
ATOM     14  N   UNL     1      -0.380  -2.940  -1.387  1.00  0.00    -0.210 N 
ATOM     15  C   UNL     1       0.601  -3.482  -0.567  1.00  0.00     0.186 A 
ATOM     16  C   UNL     1      -1.052  -3.773  -2.282  1.00  0.00     0.102 A 
ATOM     17  N   UNL     1       0.850  -4.821  -0.567  1.00  0.00    -0.129 NA
ATOM     18  C   UNL     1      -0.633  -5.049  -2.302  1.00  0.00     0.177 A 
ATOM     19  C   UNL     1      -2.111  -3.341  -3.165  1.00  0.00     0.049 A 
ATOM     20  N   UNL     1       0.298  -5.558  -1.418  1.00  0.00    -0.141 NA
ATOM     21  C   UNL     1      -1.157  -5.976  -3.344  1.00  0.00     0.280 A 
ATOM     22  C   UNL     1      -2.674  -4.215  -4.011  1.00  0.00     0.091 A 
ATOM     23  O   UNL     1      -0.640  -7.082  -3.424  1.00  0.00    -0.267 OA
BRANCH  13  24
ATOM     24  C   UNL     1       2.299  -2.627   1.008  1.00  0.00    -0.012 A 
ATOM     25  C   UNL     1       2.145  -2.326   2.366  1.00  0.00     0.012 A 
ATOM     26  C   UNL     1       3.498  -3.198   0.552  1.00  0.00     0.012 A 
ATOM     27  C   UNL     1       3.180  -2.605   3.261  1.00  0.00     0.040 A 
ATOM     28  C   UNL     1       4.531  -3.472   1.448  1.00  0.00     0.040 A 
ATOM     29  C   UNL     1       4.361  -3.175   2.795  1.00  0.00     0.123 A 
ATOM     30  F   UNL     1       5.345  -3.452   3.659  1.00  0.00    -0.207 F 
ENDBRANCH  13  24
ENDBRANCH   8   9
ENDBRANCH   7   8
ENDBRANCH   6   7
ENDBRANCH   3   6
ENDBRANCH   1   2
BRANCH   1  31
ATOM     31  C   UNL     1      -5.046  -7.285  -2.465  1.00  0.00     0.042 C 
BRANCH  31  32
ATOM     32  C   UNL     1      -6.141  -7.622  -1.482  1.00  0.00     0.118 C 
BRANCH  32  33
ATOM     33  N   UNL     1      -5.967  -6.954  -0.193  1.00  0.00    -0.352 N 
ATOM     34  C   UNL     1      -6.820  -7.002   0.897  1.00  0.00     0.251 C 
ATOM     35  H   UNL     1      -5.153  -6.410  -0.088  1.00  0.00     0.163 HD
ATOM     36  O   UNL     1      -6.788  -6.151   1.766  1.00  0.00    -0.269 OA
BRANCH  34  37
ATOM     37  C   UNL     1      -7.774  -8.122   0.969  1.00  0.00     0.039 A 
ATOM     38  C   UNL     1      -9.090  -7.931   1.394  1.00  0.00     0.014 A 
ATOM     39  C   UNL     1      -7.329  -9.373   0.548  1.00  0.00     0.014 A 
ATOM     40  C   UNL     1      -9.967  -9.007   1.321  1.00  0.00     0.010 A 
ATOM     41  C   UNL     1      -8.232 -10.365   0.288  1.00  0.00     0.010 A 
ATOM     42  C   UNL     1      -9.529 -10.212   0.746  1.00  0.00    -0.014 A 
BRANCH  42  43
ATOM     43  C   UNL     1     -10.446 -11.315   0.534  1.00  0.00     0.031 A 
ATOM     44  C   UNL     1     -11.629 -10.962  -0.282  1.00  0.00     0.074 A 
ATOM     45  C   UNL     1     -10.172 -12.582   0.905  1.00  0.00     0.049 A 
ATOM     46  N   UNL     1     -12.826 -10.774   0.158  1.00  0.00    -0.248 NA
ATOM     47  C   UNL     1     -11.448 -10.601  -1.695  1.00  0.00     0.031 C 
ATOM     48  C   UNL     1      -8.928 -13.139   1.444  1.00  0.00     0.029 A 
ATOM     49  N   UNL     1     -10.966 -13.679   0.799  1.00  0.00    -0.354 N 
ATOM     50  C   UNL     1     -13.604 -10.495  -0.957  1.00  0.00     0.074 A 
ATOM     51  C   UNL     1     -12.680 -10.199  -2.021  1.00  0.00     0.031 C 
ATOM     52  C   UNL     1      -8.978 -14.489   1.399  1.00  0.00     0.029 A 
ATOM     53  C   UNL     1     -10.310 -14.889   0.986  1.00  0.00     0.049 A 
ATOM     54  H   UNL     1     -11.929 -13.621   0.606  1.00  0.00     0.167 HD
ATOM     55  C   UNL     1     -14.930 -10.807  -0.950  1.00  0.00     0.037 A 
ATOM     56  C   UNL     1     -10.832 -16.124   0.771  1.00  0.00     0.037 A 
ATOM     57  C   UNL     1     -15.383 -11.062   0.401  1.00  0.00     0.049 A 
ATOM     58  C   UNL     1     -12.313 -15.984   0.844  1.00  0.00     0.074 A 
ATOM     59  C   UNL     1     -15.371 -10.334   1.577  1.00  0.00     0.029 A 
ATOM     60  N   UNL     1     -15.564 -12.372   0.782  1.00  0.00    -0.354 N 
ATOM     61  N   UNL     1     -12.950 -15.681   1.944  1.00  0.00    -0.248 NA
ATOM     62  C   UNL     1     -13.016 -15.665  -0.392  1.00  0.00     0.031 C 
ATOM     63  C   UNL     1     -15.025 -11.278   2.589  1.00  0.00     0.029 A 
ATOM     64  C   UNL     1     -14.944 -12.537   1.993  1.00  0.00     0.049 A 
ATOM     65  H   UNL     1     -16.049 -13.063   0.277  1.00  0.00     0.167 HD
ATOM     66  C   UNL     1     -13.899 -14.747   1.555  1.00  0.00     0.074 A 
ATOM     67  C   UNL     1     -13.935 -14.825   0.094  1.00  0.00     0.031 C 
ATOM     68  C   UNL     1     -14.342 -13.781   2.413  1.00  0.00     0.037 A 
BRANCH  55  69
ATOM     69  C   UNL     1     -15.706 -11.303  -2.148  1.00  0.00     0.064 A 
ATOM     70  C   UNL     1     -17.081 -11.576  -1.986  1.00  0.00     0.173 A 
ATOM     71  C   UNL     1     -15.119 -11.832  -3.317  1.00  0.00     0.173 A 
ATOM     72  F   UNL     1     -17.748 -11.116  -0.916  1.00  0.00    -0.203 F 
ATOM     73  C   UNL     1     -17.774 -12.421  -2.853  1.00  0.00     0.198 A 
ATOM     74  C   UNL     1     -15.830 -12.632  -4.210  1.00  0.00     0.198 A 
ATOM     75  F   UNL     1     -13.820 -11.697  -3.597  1.00  0.00    -0.203 F 
ATOM     76  F   UNL     1     -19.034 -12.776  -2.567  1.00  0.00    -0.200 F 
ATOM     77  C   UNL     1     -17.144 -12.961  -3.956  1.00  0.00     0.200 A 
ATOM     78  F   UNL     1     -15.197 -13.154  -5.270  1.00  0.00    -0.200 F 
ATOM     79  F   UNL     1     -17.782 -13.833  -4.747  1.00  0.00    -0.200 F 
ENDBRANCH  55  69
BRANCH  56  80
ATOM     80  C   UNL     1     -10.151 -17.296   0.161  1.00  0.00     0.064 A 
ATOM     81  C   UNL     1     -10.744 -18.570   0.171  1.00  0.00     0.173 A 
ATOM     82  C   UNL     1      -9.029 -17.143  -0.679  1.00  0.00     0.173 A 
ATOM     83  F   UNL     1     -11.847 -18.795   0.900  1.00  0.00    -0.203 F 
ATOM     84  C   UNL     1     -10.257 -19.616  -0.624  1.00  0.00     0.198 A 
ATOM     85  C   UNL     1      -8.540 -18.188  -1.466  1.00  0.00     0.198 A 
ATOM     86  F   UNL     1      -8.437 -15.950  -0.830  1.00  0.00    -0.203 F 
ATOM     87  F   UNL     1     -10.887 -20.800  -0.632  1.00  0.00    -0.200 F 
ATOM     88  C   UNL     1      -9.161 -19.421  -1.448  1.00  0.00     0.200 A 
ATOM     89  F   UNL     1      -7.503 -17.971  -2.287  1.00  0.00    -0.200 F 
ATOM     90  F   UNL     1      -8.731 -20.403  -2.252  1.00  0.00    -0.200 F 
ENDBRANCH  56  80
BRANCH  68  91
ATOM     91  C   UNL     1     -13.988 -13.881   3.871  1.00  0.00     0.064 A 
ATOM     92  C   UNL     1     -12.675 -13.826   4.372  1.00  0.00     0.173 A 
ATOM     93  C   UNL     1     -15.034 -13.815   4.802  1.00  0.00     0.173 A 
ATOM     94  F   UNL     1     -11.621 -13.789   3.549  1.00  0.00    -0.203 F 
ATOM     95  C   UNL     1     -12.429 -13.728   5.742  1.00  0.00     0.198 A 
ATOM     96  C   UNL     1     -14.786 -13.680   6.165  1.00  0.00     0.198 A 
ATOM     97  F   UNL     1     -16.309 -13.812   4.379  1.00  0.00    -0.203 F 
ATOM     98  F   UNL     1     -11.168 -13.669   6.196  1.00  0.00    -0.200 F 
ATOM     99  C   UNL     1     -13.484 -13.642   6.635  1.00  0.00     0.200 A 
ATOM    100  F   UNL     1     -15.811 -13.544   7.017  1.00  0.00    -0.200 F 
ATOM    101  F   UNL     1     -13.248 -13.489   7.946  1.00  0.00    -0.200 F 
ENDBRANCH  68  91
ENDBRANCH  42  43
ENDBRANCH  34  37
ENDBRANCH  32  33
ENDBRANCH  31  32
ENDBRANCH   1  31
TORSDOF 14
