REMARK SMILES C=C[C@@H]1[C@@H](O)C[C@@H]2[C@@]3(CC[C@@]4(C)[C@@H]([C@H](C)CCC=C(C)C)CC[C@@]24C)C[C@@]13CCC(=O)NCCCNC(=O)c1ccc(-c2c3nc(c(-c4c(F)c(F)c(F)c(F)c4F)c4ccc([nH]4)c(-c4c(F)c(F)c(F)c(F)c4F)c4nc(c(-c5c(F)c(F)c(F)c(F)c5F)c5ccc2[nH]5)C=C4)C=C3)cc1
REMARK SMILES IDX 30 1 31 2 32 3 29 5 28 6 27 7 3 8 4 9 6 10 8 11 26 12 7 13
REMARK SMILES IDX 9 14 24 15 10 16 11 17 23 18 25 19 12 20 13 21 22 22 2 23
REMARK SMILES IDX 1 24 5 25 14 27 15 28 16 29 17 30 18 31 19 32 20 33 21 34
REMARK SMILES IDX 33 35 34 36 35 37 36 38 37 39 38 41 39 42 40 43 101 44 41 45
REMARK SMILES IDX 100 46 42 47 43 48 44 49 94 50 45 51 99 52 93 53 95 54 46 55
REMARK SMILES IDX 98 56 92 57 91 58 47 60 79 61 59 62 78 63 60 64 63 65 77 66
REMARK SMILES IDX 96 67 61 68 62 69 76 71 97 72 64 73 48 74 49 75 57 76 50 77
REMARK SMILES IDX 51 78 55 79 58 80 52 81 53 82 56 83 54 84 80 85 81 86 89 87
REMARK SMILES IDX 82 88 83 89 87 90 90 91 84 92 85 93 88 94 86 95 65 96 66 97
REMARK SMILES IDX 74 98 67 99 68 100 72 101 75 102 69 103 70 104 73 105 71 106
REMARK H PARENT 32 4 5 26 36 40 95 59 63 70
REMARK Flexibility Score: inf
ROOT
ATOM      1  C   UNL     1      -2.197   0.292   5.920  1.00  0.00     0.220 C 
ATOM      2  O   UNL     1      -3.290  -0.246   6.141  1.00  0.00    -0.275 OA
ATOM      3  N   UNL     1      -2.148   1.070   4.805  1.00  0.00    -0.356 N 
ATOM      4  H   UNL     1      -3.009   1.132   4.330  1.00  0.00     0.163 HD
ENDROOT
BRANCH   1   5
ATOM      5  C   UNL     1      -1.030   0.001   6.853  1.00  0.00     0.100 C 
BRANCH   5   6
ATOM      6  C   UNL     1       0.241   0.851   7.016  1.00  0.00     0.018 C 
BRANCH   6   7
ATOM      7  C   UNL     1       0.034   2.342   7.125  1.00  0.00    -0.014 C 
ATOM      8  C   UNL     1      -0.797   2.826   8.374  1.00  0.00     0.047 C 
ATOM      9  C   UNL     1      -2.192   3.413   8.027  1.00  0.00     0.122 C 
ATOM     10  C   UNL     1      -2.198   4.283   6.745  1.00  0.00     0.037 C 
ATOM     11  C   UNL     1       0.007   3.015   5.697  1.00  0.00    -0.019 C 
ATOM     12  C   UNL     1       0.994   3.429   6.750  1.00  0.00     0.016 C 
ATOM     13  C   UNL     1      -1.844   3.361   5.547  1.00  0.00     0.005 C 
ATOM     14  C   UNL     1       1.093   2.467   4.200  1.00  0.00     0.008 C 
ATOM     15  C   UNL     1      -2.664   3.403   3.778  1.00  0.00    -0.023 C 
ATOM     16  C   UNL     1       0.273   2.274   2.465  1.00  0.00     0.008 C 
ATOM     17  C   UNL     1      -1.656   2.557   2.236  1.00  0.00    -0.024 C 
ATOM     18  C   UNL     1      -4.063   2.763   3.547  1.00  0.00     0.008 C 
ATOM     19  C   UNL     1      -3.145   4.949   4.185  1.00  0.00     0.012 C 
ATOM     20  C   UNL     1      -1.566   2.956   0.668  1.00  0.00     0.012 C 
ATOM     21  C   UNL     1      -2.641   1.216   1.982  1.00  0.00    -0.002 C 
ATOM     22  C   UNL     1      -4.052   1.770   2.366  1.00  0.00     0.005 C 
BRANCH   8  23
ATOM     23  C   UNL     1      -0.776   1.850   9.548  1.00  0.00    -0.028 C 
ATOM     24  C   UNL     1      -1.792   1.131  10.047  1.00  0.00     0.004 C 
ENDBRANCH   8  23
BRANCH   9  25
ATOM     25  O   UNL     1      -2.693   4.223   9.098  1.00  0.00    -0.392 OA
ATOM     26  H   UNL     1      -2.111   4.989   9.223  1.00  0.00     0.210 HD
ENDBRANCH   9  25
BRANCH  21  27
ATOM     27  C   UNL     1      -2.342  -0.385   2.127  1.00  0.00    -0.010 C 
ATOM     28  C   UNL     1      -3.467  -1.167   2.834  1.00  0.00     0.008 C 
BRANCH  27  29
ATOM     29  C   UNL     1      -0.930  -1.102   2.309  1.00  0.00     0.008 C 
BRANCH  29  30
ATOM     30  C   UNL     1      -0.379  -1.350   3.740  1.00  0.00     0.027 C 
BRANCH  30  31
ATOM     31  C   UNL     1       0.331  -2.647   4.081  1.00  0.00    -0.028 C 
ATOM     32  C   UNL     1       1.280  -2.841   5.031  1.00  0.00    -0.080 C 
ATOM     33  C   UNL     1       1.650  -4.229   5.495  1.00  0.00     0.039 C 
ATOM     34  C   UNL     1       2.010  -1.783   5.814  1.00  0.00     0.039 C 
ENDBRANCH  30  31
ENDBRANCH  29  30
ENDBRANCH  27  29
ENDBRANCH  21  27
ENDBRANCH   6   7
ENDBRANCH   5   6
ENDBRANCH   1   5
BRANCH   3  35
ATOM     35  C   UNL     1      -1.042   1.854   4.150  1.00  0.00     0.117 C 
BRANCH  35  36
ATOM     36  C   UNL     1      -0.637   3.855   3.671  1.00  0.00     0.042 C 
BRANCH  36  37
ATOM     37  C   UNL     1      -1.156   5.036   2.412  1.00  0.00     0.118 C 
BRANCH  37  38
ATOM     38  N   UNL     1      -2.546   5.088   1.783  1.00  0.00    -0.352 N 
ATOM     39  C   UNL     1      -3.318   6.161   1.363  1.00  0.00     0.251 C 
ATOM     40  H   UNL     1      -2.967   4.208   1.653  1.00  0.00     0.163 HD
ATOM     41  O   UNL     1      -4.527   6.167   1.323  1.00  0.00    -0.269 OA
BRANCH  39  42
ATOM     42  C   UNL     1      -2.522   7.250   0.869  1.00  0.00     0.039 A 
ATOM     43  C   UNL     1      -2.409   8.461   1.544  1.00  0.00     0.014 A 
ATOM     44  C   UNL     1      -1.630   6.776  -0.084  1.00  0.00     0.014 A 
ATOM     45  C   UNL     1      -1.301   9.225   1.243  1.00  0.00     0.010 A 
ATOM     46  C   UNL     1      -0.430   7.397  -0.162  1.00  0.00     0.010 A 
ATOM     47  C   UNL     1      -0.315   8.668   0.410  1.00  0.00    -0.014 A 
BRANCH  47  48
ATOM     48  C   UNL     1       0.806   9.445  -0.094  1.00  0.00     0.031 A 
ATOM     49  C   UNL     1       0.857   9.643  -1.580  1.00  0.00     0.074 A 
ATOM     50  C   UNL     1       1.762   9.823   0.761  1.00  0.00     0.049 A 
ATOM     51  N   UNL     1       1.822  10.112  -2.313  1.00  0.00    -0.248 NA
ATOM     52  C   UNL     1      -0.293   9.135  -2.366  1.00  0.00     0.031 C 
ATOM     53  C   UNL     1       1.775   9.566   2.204  1.00  0.00     0.029 A 
ATOM     54  N   UNL     1       2.903  10.524   0.530  1.00  0.00    -0.354 N 
ATOM     55  C   UNL     1       1.404   9.911  -3.620  1.00  0.00     0.074 A 
ATOM     56  C   UNL     1       0.202   9.123  -3.589  1.00  0.00     0.031 C 
ATOM     57  C   UNL     1       2.838  10.184   2.744  1.00  0.00     0.029 A 
ATOM     58  C   UNL     1       3.588  10.831   1.675  1.00  0.00     0.049 A 
ATOM     59  H   UNL     1       3.207  10.784  -0.369  1.00  0.00     0.167 HD
ATOM     60  C   UNL     1       1.933  10.435  -4.744  1.00  0.00     0.037 A 
ATOM     61  C   UNL     1       4.689  11.587   1.804  1.00  0.00     0.037 A 
ATOM     62  C   UNL     1       3.071  11.302  -4.697  1.00  0.00     0.049 A 
ATOM     63  C   UNL     1       5.251  12.190   0.544  1.00  0.00     0.074 A 
ATOM     64  C   UNL     1       3.701  11.966  -5.724  1.00  0.00     0.029 A 
ATOM     65  N   UNL     1       3.733  11.634  -3.518  1.00  0.00    -0.354 N 
ATOM     66  N   UNL     1       4.827  12.068  -0.695  1.00  0.00    -0.248 NA
ATOM     67  C   UNL     1       6.431  13.042   0.696  1.00  0.00     0.031 C 
ATOM     68  C   UNL     1       4.785  12.658  -5.172  1.00  0.00     0.029 A 
ATOM     69  C   UNL     1       4.788  12.477  -3.793  1.00  0.00     0.049 A 
ATOM     70  H   UNL     1       3.485  11.314  -2.621  1.00  0.00     0.167 HD
ATOM     71  C   UNL     1       5.672  12.844  -1.471  1.00  0.00     0.074 A 
ATOM     72  C   UNL     1       6.620  13.450  -0.551  1.00  0.00     0.031 C 
ATOM     73  C   UNL     1       5.684  13.044  -2.814  1.00  0.00     0.037 A 
BRANCH  60  74
ATOM     74  C   UNL     1       1.267  10.090  -6.043  1.00  0.00     0.064 A 
ATOM     75  C   UNL     1      -0.058  10.468  -6.330  1.00  0.00     0.173 A 
ATOM     76  C   UNL     1       1.935   9.298  -6.987  1.00  0.00     0.173 A 
ATOM     77  F   UNL     1      -0.760  11.198  -5.449  1.00  0.00    -0.203 F 
ATOM     78  C   UNL     1      -0.703  10.018  -7.479  1.00  0.00     0.198 A 
ATOM     79  C   UNL     1       1.300   8.888  -8.157  1.00  0.00     0.198 A 
ATOM     80  F   UNL     1       3.194   8.896  -6.761  1.00  0.00    -0.203 F 
ATOM     81  F   UNL     1      -1.997  10.309  -7.678  1.00  0.00    -0.200 F 
ATOM     82  C   UNL     1      -0.021   9.233  -8.395  1.00  0.00     0.200 A 
ATOM     83  F   UNL     1       1.962   8.132  -9.044  1.00  0.00    -0.200 F 
ATOM     84  F   UNL     1      -0.644   8.793  -9.497  1.00  0.00    -0.200 F 
ENDBRANCH  60  74
BRANCH  61  85
ATOM     85  C   UNL     1       5.246  11.862   3.151  1.00  0.00     0.064 A 
ATOM     86  C   UNL     1       5.183  13.147   3.707  1.00  0.00     0.173 A 
ATOM     87  C   UNL     1       5.811  10.843   3.932  1.00  0.00     0.173 A 
ATOM     88  F   UNL     1       4.645  14.155   3.005  1.00  0.00    -0.203 F 
ATOM     89  C   UNL     1       5.688  13.409   4.980  1.00  0.00     0.198 A 
ATOM     90  C   UNL     1       6.290  11.099   5.215  1.00  0.00     0.198 A 
ATOM     91  F   UNL     1       5.872   9.589   3.459  1.00  0.00    -0.203 F 
ATOM     92  F   UNL     1       5.647  14.654   5.471  1.00  0.00    -0.200 F 
ATOM     93  C   UNL     1       6.237  12.383   5.734  1.00  0.00     0.200 A 
ATOM     94  F   UNL     1       6.795  10.099   5.951  1.00  0.00    -0.200 F 
ATOM     95  F   UNL     1       6.715  12.633   6.961  1.00  0.00    -0.200 F 
ENDBRANCH  61  85
BRANCH  73  96
ATOM     96  C   UNL     1       6.736  13.968  -3.342  1.00  0.00     0.064 A 
ATOM     97  C   UNL     1       8.085  13.594  -3.377  1.00  0.00     0.173 A 
ATOM     98  C   UNL     1       6.373  15.209  -3.885  1.00  0.00     0.173 A 
ATOM     99  F   UNL     1       8.475  12.418  -2.860  1.00  0.00    -0.203 F 
ATOM    100  C   UNL     1       9.043  14.447  -3.911  1.00  0.00     0.198 A 
ATOM    101  C   UNL     1       7.327  16.040  -4.456  1.00  0.00     0.198 A 
ATOM    102  F   UNL     1       5.088  15.598  -3.888  1.00  0.00    -0.203 F 
ATOM    103  F   UNL     1      10.336  14.096  -3.886  1.00  0.00    -0.200 F 
ATOM    104  C   UNL     1       8.662  15.663  -4.460  1.00  0.00     0.200 A 
ATOM    105  F   UNL     1       6.955  17.202  -5.010  1.00  0.00    -0.200 F 
ATOM    106  F   UNL     1       9.585  16.476  -4.990  1.00  0.00    -0.200 F 
ENDBRANCH  73  96
ENDBRANCH  47  48
ENDBRANCH  39  42
ENDBRANCH  37  38
ENDBRANCH  36  37
ENDBRANCH  35  36
ENDBRANCH   3  35
TORSDOF 18
