REMARK SMILES O=C(CC[P@TB4](=O)(O)C[NH+]1CCCCC1)NCCCNC(=O)c1ccc(-c2c3nc(c(-c4c(F)c(F)c(F)c(F)c4F)c4ccc([nH]4)c(-c4c(F)c(F)c(F)c(F)c4F)c4nc(c(-c5c(F)c(F)c(F)c(F)c5F)c5ccc2[nH]5)C=C4)C=C3)cc1
REMARK SMILES IDX 16 1 15 2 1 3 2 4 3 6 4 7 5 8 6 9 7 10 8 12 9 13 10 14 14 15
REMARK SMILES IDX 11 17 13 18 12 19 17 20 18 21 19 22 20 23 21 25 22 26 23 27
REMARK SMILES IDX 84 28 24 29 83 30 25 31 26 32 27 33 77 34 28 35 82 36 76 37
REMARK SMILES IDX 78 38 29 39 81 40 75 41 74 42 30 44 62 45 42 46 61 47 43 48
REMARK SMILES IDX 46 49 60 50 79 51 44 52 45 53 59 55 80 56 47 57 31 58 32 59
REMARK SMILES IDX 40 60 33 61 34 62 38 63 41 64 35 65 36 66 39 67 37 68 63 69
REMARK SMILES IDX 64 70 72 71 65 72 66 73 70 74 73 75 67 76 68 77 71 78 69 79
REMARK SMILES IDX 48 80 49 81 57 82 50 83 51 84 55 85 58 86 52 87 53 88 56 89
REMARK SMILES IDX 54 90
REMARK H PARENT 15 5 7 11 9 16 19 24 78 43 46 54
REMARK Flexibility Score: inf
ROOT
ATOM      1  C   UNL     1       1.696   1.872  -1.459  1.00  0.00       nan C 
ENDROOT
BRANCH   1   2
ATOM      2  N   UNL     1       2.399   1.229  -0.357  1.00  0.00       nan N 
ATOM      3  O   UNL     1       1.122  -0.681  -0.501  1.00  0.00       nan OA
ATOM      4  C   UNL     1       2.094  -0.088  -0.038  1.00  0.00       nan C 
ATOM      5  H   UNL     1       3.080   1.722   0.155  1.00  0.00       nan HD
BRANCH   4   6
ATOM      6  C   UNL     1       3.084  -0.805   0.873  1.00  0.00       nan C 
BRANCH   6   7
ATOM      7  C   UNL     1       3.960  -1.807   0.086  1.00  0.00       nan C 
BRANCH   7   8
ATOM      8  P   UNL     1       5.149  -0.844  -0.917  1.00  0.00       nan P 
ATOM      9  O   UNL     1       5.745  -2.170  -1.419  1.00  0.00       nan OA
BRANCH   8  10
ATOM     10  O   UNL     1       3.970  -0.499  -2.024  1.00  0.00       nan OA
ATOM     11  H   UNL     1       3.137  -0.910  -1.747  1.00  0.00       nan HD
ENDBRANCH   8  10
BRANCH   8  12
ATOM     12  C   UNL     1       6.338   0.119  -1.921  1.00  0.00       nan C 
BRANCH  12  13
ATOM     13  N   UNL     1       6.990   0.994  -0.914  1.00  0.00       nan N 
ATOM     14  C   UNL     1       8.443   1.058  -1.145  1.00  0.00       nan C 
ATOM     15  C   UNL     1       6.391   2.329  -0.954  1.00  0.00       nan C 
ATOM     16  H   UNL     1       6.841   0.598   0.014  1.00  0.00       nan HD
ATOM     17  C   UNL     1       9.140   1.987  -0.143  1.00  0.00       nan C 
ATOM     18  C   UNL     1       7.010   3.242   0.103  1.00  0.00       nan C 
ATOM     19  C   UNL     1       8.508   3.373  -0.129  1.00  0.00       nan C 
ENDBRANCH  12  13
ENDBRANCH   8  12
ENDBRANCH   7   8
ENDBRANCH   6   7
ENDBRANCH   4   6
ENDBRANCH   1   2
BRANCH   1  20
ATOM     20  C   UNL     1       1.793   3.397  -1.539  1.00  0.00       nan C 
BRANCH  20  21
ATOM     21  C   UNL     1       3.157   4.002  -1.869  1.00  0.00       nan C 
BRANCH  21  22
ATOM     22  N   UNL     1       3.717   3.609  -3.154  1.00  0.00       nan N 
ATOM     23  C   UNL     1       4.544   4.309  -4.010  1.00  0.00       nan C 
ATOM     24  H   UNL     1       3.469   2.706  -3.459  1.00  0.00       nan HD
ATOM     25  O   UNL     1       4.804   3.840  -5.114  1.00  0.00       nan OA
BRANCH  23  26
ATOM     26  C   UNL     1       5.133   5.622  -3.629  1.00  0.00       nan A 
ATOM     27  C   UNL     1       5.275   6.624  -4.596  1.00  0.00       nan A 
ATOM     28  C   UNL     1       5.611   5.858  -2.341  1.00  0.00       nan A 
ATOM     29  C   UNL     1       5.829   7.866  -4.251  1.00  0.00       inf A 
ATOM     30  C   UNL     1       6.128   7.102  -1.982  1.00  0.00       inf A 
ATOM     31  C   UNL     1       6.233   8.126  -2.930  1.00  0.00    -0.014 A 
BRANCH  31  32
ATOM     32  C   UNL     1       6.684   9.476  -2.499  1.00  0.00     0.031 A 
ATOM     33  C   UNL     1       8.093   9.722  -2.032  1.00  0.00     0.074 A 
ATOM     34  C   UNL     1       5.776  10.468  -2.421  1.00  0.00     0.049 A 
ATOM     35  N   UNL     1       8.639  10.831  -1.597  1.00  0.00    -0.248 NA
ATOM     36  C   UNL     1       9.001   8.565  -2.023  1.00  0.00     0.031 C 
ATOM     37  C   UNL     1       4.356  10.336  -2.752  1.00  0.00     0.029 A 
ATOM     38  N   UNL     1       5.904  11.775  -2.022  1.00  0.00    -0.354 N 
ATOM     39  C   UNL     1       9.949  10.510  -1.266  1.00  0.00     0.074 A 
ATOM     40  C   UNL     1      10.100   9.088  -1.495  1.00  0.00     0.031 C 
ATOM     41  C   UNL     1       3.749  11.517  -2.559  1.00  0.00     0.029 A 
ATOM     42  C   UNL     1       4.729  12.483  -2.073  1.00  0.00     0.049 A 
ATOM     43  H   UNL     1       6.758  12.167  -1.726  1.00  0.00     0.167 HD
ATOM     44  C   UNL     1      10.940  11.329  -0.834  1.00  0.00     0.037 A 
ATOM     45  C   UNL     1       4.468  13.769  -1.769  1.00  0.00     0.037 A 
ATOM     46  C   UNL     1      10.788  12.746  -0.612  1.00  0.00     0.049 A 
ATOM     47  C   UNL     1       5.590  14.662  -1.315  1.00  0.00     0.074 A 
ATOM     48  C   UNL     1      11.751  13.672  -0.247  1.00  0.00     0.029 A 
ATOM     49  N   UNL     1       9.592  13.440  -0.723  1.00  0.00    -0.354 N 
ATOM     50  N   UNL     1       6.852  14.372  -1.118  1.00  0.00    -0.248 NA
ATOM     51  C   UNL     1       5.252  16.070  -1.062  1.00  0.00     0.031 C 
ATOM     52  C   UNL     1      11.130  14.916  -0.091  1.00  0.00     0.029 A 
ATOM     53  C   UNL     1       9.790  14.778  -0.413  1.00  0.00     0.049 A 
ATOM     54  H   UNL     1       8.730  13.042  -0.983  1.00  0.00     0.167 HD
ATOM     55  C   UNL     1       7.465  15.563  -0.754  1.00  0.00     0.074 A 
ATOM     56  C   UNL     1       6.438  16.583  -0.769  1.00  0.00     0.031 C 
ATOM     57  C   UNL     1       8.764  15.790  -0.441  1.00  0.00     0.037 A 
BRANCH  44  58
ATOM     58  C   UNL     1      12.293  10.720  -0.587  1.00  0.00     0.064 A 
ATOM     59  C   UNL     1      13.089  10.251  -1.643  1.00  0.00     0.173 A 
ATOM     60  C   UNL     1      12.826  10.659   0.710  1.00  0.00     0.173 A 
ATOM     61  F   UNL     1      12.626  10.283  -2.902  1.00  0.00    -0.203 F 
ATOM     62  C   UNL     1      14.353   9.717  -1.408  1.00  0.00     0.198 A 
ATOM     63  C   UNL     1      14.104  10.153   0.938  1.00  0.00     0.198 A 
ATOM     64  F   UNL     1      12.115  11.104   1.757  1.00  0.00    -0.203 F 
ATOM     65  F   UNL     1      15.075   9.233  -2.429  1.00  0.00    -0.200 F 
ATOM     66  C   UNL     1      14.863   9.675  -0.120  1.00  0.00     0.200 A 
ATOM     67  F   UNL     1      14.602  10.129   2.182  1.00  0.00    -0.200 F 
ATOM     68  F   UNL     1      16.084   9.170   0.104  1.00  0.00    -0.200 F 
ENDBRANCH  44  58
BRANCH  45  69
ATOM     69  C   UNL     1       3.093  14.303  -1.943  1.00  0.00     0.064 A 
ATOM     70  C   UNL     1       2.802  15.208  -2.974  1.00  0.00     0.173 A 
ATOM     71  C   UNL     1       2.046  13.920  -1.094  1.00  0.00     0.173 A 
ATOM     72  F   UNL     1       3.776  15.616  -3.800  1.00  0.00    -0.203 F 
ATOM     73  C   UNL     1       1.520  15.729  -3.133  1.00  0.00     0.198 A 
ATOM     74  C   UNL     1       0.758  14.419  -1.272  1.00  0.00     0.198 A 
ATOM     75  F   UNL     1       2.271  13.048  -0.100  1.00  0.00    -0.203 F 
ATOM     76  F   UNL     1       1.281  16.628  -4.097  1.00  0.00    -0.200 F 
ATOM     77  C   UNL     1       0.498  15.330  -2.286  1.00  0.00     0.200 A 
ATOM     78  F   UNL     1      -0.232  14.019  -0.462  1.00  0.00    -0.200 F 
ATOM     79  F   UNL     1      -0.736  15.827  -2.443  1.00  0.00    -0.200 F 
ENDBRANCH  45  69
BRANCH  57  80
ATOM     80  C   UNL     1       9.162  17.206  -0.132  1.00  0.00     0.064 A 
ATOM     81  C   UNL     1       8.758  17.848   1.048  1.00  0.00     0.173 A 
ATOM     82  C   UNL     1       9.979  17.921  -1.022  1.00  0.00     0.173 A 
ATOM     83  F   UNL     1       7.964  17.215   1.924  1.00  0.00    -0.203 F 
ATOM     84  C   UNL     1       9.132  19.164   1.310  1.00  0.00     0.198 A 
ATOM     85  C   UNL     1      10.377  19.225  -0.741  1.00  0.00     0.198 A 
ATOM     86  F   UNL     1      10.399  17.351  -2.162  1.00  0.00    -0.203 F 
ATOM     87  F   UNL     1       8.690  19.776   2.418  1.00  0.00    -0.200 F 
ATOM     88  C   UNL     1       9.946  19.848   0.420  1.00  0.00     0.200 A 
ATOM     89  F   UNL     1      11.175  19.879  -1.596  1.00  0.00    -0.200 F 
ATOM     90  F   UNL     1      10.308  21.113   0.677  1.00  0.00    -0.200 F 
ENDBRANCH  57  80
ENDBRANCH  31  32
ENDBRANCH  23  26
ENDBRANCH  21  22
ENDBRANCH  20  21
ENDBRANCH   1  20
TORSDOF 15
