REMARK SMILES O=C(C[C@@H](NC(=O)C1CCN(C(=O)c2cccs2)CC1)c1cccs1)NCCCNC(=O)c1ccc(-c2c3nc(c(-c4c(F)c(F)c(F)c(F)c4F)c4ccc([nH]4)c(-c4c(F)c(F)c(F)c(F)c4F)c4nc(c(-c5c(F)c(F)c(F)c(F)c5F)c5ccc2[nH]5)C=C4)C=C3)cc1
REMARK SMILES IDX 27 1 26 2 1 3 2 4 3 6 4 7 5 8 6 9 7 11 8 12 9 13 20 14 10 15
REMARK SMILES IDX 19 16 11 17 12 18 13 19 14 20 15 21 18 22 16 23 17 24 21 25
REMARK SMILES IDX 22 26 25 27 23 28 24 29 28 30 29 31 30 32 31 33 32 35 33 36
REMARK SMILES IDX 34 37 95 38 35 39 94 40 36 41 37 42 38 43 88 44 39 45 93 46
REMARK SMILES IDX 87 47 89 48 40 49 92 50 86 51 85 52 41 54 73 55 53 56 72 57
REMARK SMILES IDX 54 58 57 59 71 60 90 61 55 62 56 63 70 65 91 66 58 67 42 68
REMARK SMILES IDX 43 69 51 70 44 71 45 72 49 73 52 74 46 75 47 76 50 77 48 78
REMARK SMILES IDX 74 79 75 80 83 81 76 82 77 83 81 84 84 85 78 86 79 87 82 88
REMARK SMILES IDX 80 89 59 90 60 91 68 92 61 93 62 94 66 95 69 96 63 97 64 98
REMARK SMILES IDX 67 99 65 100
REMARK H PARENT 26 5 5 10 30 34 89 53 57 64
REMARK Flexibility Score: inf
ROOT
ATOM      1  C   UNL     1       2.296   0.212  -2.432  1.00  0.00     0.117 C 
ENDROOT
BRANCH   1   2
ATOM      2  N   UNL     1       2.958   0.240  -1.141  1.00  0.00    -0.356 N 
ATOM      3  O   UNL     1       1.133  -0.445   0.076  1.00  0.00    -0.275 OA
ATOM      4  C   UNL     1       2.307  -0.099   0.025  1.00  0.00     0.222 C 
ATOM      5  H   UNL     1       3.904   0.510  -1.096  1.00  0.00     0.163 HD
BRANCH   4   6
ATOM      6  C   UNL     1       3.183  -0.071   1.254  1.00  0.00     0.130 C 
BRANCH   6   7
ATOM      7  C   UNL     1       3.869  -1.434   1.433  1.00  0.00     0.131 C 
BRANCH   7   8
ATOM      8  N   UNL     1       4.927  -1.627   0.415  1.00  0.00    -0.348 N 
ATOM      9  C   UNL     1       6.248  -1.303   0.331  1.00  0.00     0.223 C 
ATOM     10  H   UNL     1       4.601  -2.098  -0.386  1.00  0.00     0.164 HD
ATOM     11  O   UNL     1       6.662  -0.940  -0.772  1.00  0.00    -0.275 OA
BRANCH   9  12
ATOM     12  C   UNL     1       7.188  -1.539   1.506  1.00  0.00     0.082 C 
ATOM     13  C   UNL     1       8.542  -0.813   1.369  1.00  0.00     0.035 C 
ATOM     14  C   UNL     1       7.361  -3.056   1.711  1.00  0.00     0.035 C 
ATOM     15  C   UNL     1       9.554  -1.546   0.490  1.00  0.00     0.120 C 
ATOM     16  C   UNL     1       8.374  -3.665   0.744  1.00  0.00     0.120 C 
ATOM     17  N   UNL     1       9.635  -2.949   0.873  1.00  0.00    -0.338 N 
ATOM     18  C   UNL     1      10.736  -3.405   1.611  1.00  0.00     0.263 C 
ATOM     19  O   UNL     1      11.593  -2.617   2.016  1.00  0.00    -0.268 OA
BRANCH  18  20
ATOM     20  C   UNL     1      10.829  -4.834   1.866  1.00  0.00     0.092 A 
ATOM     21  C   UNL     1      10.782  -5.885   0.967  1.00  0.00     0.025 A 
ATOM     22  S   UNL     1      11.081  -5.390   3.466  1.00  0.00    -0.139 S 
ATOM     23  C   UNL     1      10.906  -7.153   1.606  1.00  0.00     0.012 A 
ATOM     24  C   UNL     1      11.069  -7.028   2.968  1.00  0.00     0.065 A 
ENDBRANCH  18  20
ENDBRANCH   9  12
ENDBRANCH   7   8
BRANCH   7  25
ATOM     25  C   UNL     1       4.311  -1.647   2.857  1.00  0.00     0.027 A 
ATOM     26  C   UNL     1       4.721  -0.714   3.798  1.00  0.00     0.017 A 
ATOM     27  S   UNL     1       4.239  -3.218   3.554  1.00  0.00    -0.147 S 
ATOM     28  C   UNL     1       5.085  -1.307   5.040  1.00  0.00     0.012 A 
ATOM     29  C   UNL     1       4.892  -2.669   5.033  1.00  0.00     0.065 A 
ENDBRANCH   7  25
ENDBRANCH   6   7
ENDBRANCH   4   6
ENDBRANCH   1   2
BRANCH   1  30
ATOM     30  C   UNL     1       2.401   1.542  -3.171  1.00  0.00     0.042 C 
BRANCH  30  31
ATOM     31  C   UNL     1       3.822   1.954  -3.540  1.00  0.00     0.118 C 
BRANCH  31  32
ATOM     32  N   UNL     1       4.456   1.052  -4.489  1.00  0.00    -0.352 N 
ATOM     33  C   UNL     1       5.217   1.345  -5.594  1.00  0.00     0.251 C 
ATOM     34  H   UNL     1       4.320   0.093  -4.314  1.00  0.00     0.163 HD
ATOM     35  O   UNL     1       5.567   0.444  -6.353  1.00  0.00    -0.269 OA
BRANCH  33  36
ATOM     36  C   UNL     1       5.591   2.743  -5.898  1.00  0.00     0.039 A 
ATOM     37  C   UNL     1       5.468   3.198  -7.215  1.00  0.00     0.014 A 
ATOM     38  C   UNL     1       6.076   3.598  -4.905  1.00  0.00     0.014 A 
ATOM     39  C   UNL     1       5.767   4.527  -7.524  1.00  0.00     0.010 A 
ATOM     40  C   UNL     1       6.324   4.937  -5.202  1.00  0.00     0.010 A 
ATOM     41  C   UNL     1       6.167   5.414  -6.513  1.00  0.00    -0.014 A 
BRANCH  41  42
ATOM     42  C   UNL     1       6.426   6.847  -6.801  1.00  0.00     0.031 A 
ATOM     43  C   UNL     1       7.815   7.401  -6.674  1.00  0.00     0.074 A 
ATOM     44  C   UNL     1       5.398   7.664  -7.099  1.00  0.00     0.049 A 
ATOM     45  N   UNL     1       8.222   8.643  -6.754  1.00  0.00    -0.248 NA
ATOM     46  C   UNL     1       8.887   6.433  -6.394  1.00  0.00     0.031 C 
ATOM     47  C   UNL     1       3.999   7.255  -7.220  1.00  0.00     0.029 A 
ATOM     48  N   UNL     1       5.372   9.016  -7.336  1.00  0.00    -0.354 N 
ATOM     49  C   UNL     1       9.588   8.609  -6.507  1.00  0.00     0.074 A 
ATOM     50  C   UNL     1       9.937   7.228  -6.249  1.00  0.00     0.031 C 
ATOM     51  C   UNL     1       3.251   8.330  -7.517  1.00  0.00     0.029 A 
ATOM     52  C   UNL     1       4.113   9.508  -7.574  1.00  0.00     0.049 A 
ATOM     53  H   UNL     1       6.180   9.579  -7.335  1.00  0.00     0.167 HD
ATOM     54  C   UNL     1      10.470   9.636  -6.505  1.00  0.00     0.037 A 
ATOM     55  C   UNL     1       3.698  10.769  -7.799  1.00  0.00     0.037 A 
ATOM     56  C   UNL     1      10.132  11.002  -6.802  1.00  0.00     0.049 A 
ATOM     57  C   UNL     1       4.703  11.886  -7.818  1.00  0.00     0.074 A 
ATOM     58  C   UNL     1      10.969  12.102  -6.879  1.00  0.00     0.029 A 
ATOM     59  N   UNL     1       8.851  11.454  -7.078  1.00  0.00    -0.354 N 
ATOM     60  N   UNL     1       5.997  11.837  -7.615  1.00  0.00    -0.248 NA
ATOM     61  C   UNL     1       4.189  13.235  -8.098  1.00  0.00     0.031 C 
ATOM     62  C   UNL     1      10.190  13.225  -7.181  1.00  0.00     0.029 A 
ATOM     63  C   UNL     1       8.873  12.818  -7.319  1.00  0.00     0.049 A 
ATOM     64  H   UNL     1       8.045  10.889  -7.100  1.00  0.00     0.167 HD
ATOM     65  C   UNL     1       6.455  13.138  -7.764  1.00  0.00     0.074 A 
ATOM     66  C   UNL     1       5.303  13.955  -8.082  1.00  0.00     0.031 C 
ATOM     67  C   UNL     1       7.718  13.613  -7.646  1.00  0.00     0.037 A 
BRANCH  54  68
ATOM     68  C   UNL     1      11.896   9.317  -6.171  1.00  0.00     0.064 A 
ATOM     69  C   UNL     1      12.734   8.660  -7.083  1.00  0.00     0.173 A 
ATOM     70  C   UNL     1      12.439   9.702  -4.936  1.00  0.00     0.173 A 
ATOM     71  F   UNL     1      12.255   8.261  -8.271  1.00  0.00    -0.203 F 
ATOM     72  C   UNL     1      14.059   8.380  -6.763  1.00  0.00     0.198 A 
ATOM     73  C   UNL     1      13.771   9.440  -4.628  1.00  0.00     0.198 A 
ATOM     74  F   UNL     1      11.678  10.336  -4.031  1.00  0.00    -0.203 F 
ATOM     75  F   UNL     1      14.831   7.716  -7.634  1.00  0.00    -0.200 F 
ATOM     76  C   UNL     1      14.578   8.774  -5.538  1.00  0.00     0.200 A 
ATOM     77  F   UNL     1      14.273   9.829  -3.447  1.00  0.00    -0.200 F 
ATOM     78  F   UNL     1      15.855   8.507  -5.233  1.00  0.00    -0.200 F 
ENDBRANCH  54  68
BRANCH  55  79
ATOM     79  C   UNL     1       2.260  11.039  -8.044  1.00  0.00     0.064 A 
ATOM     80  C   UNL     1       1.800  11.348  -9.331  1.00  0.00     0.173 A 
ATOM     81  C   UNL     1       1.321  10.990  -7.005  1.00  0.00     0.173 A 
ATOM     82  F   UNL     1       2.668  11.427 -10.350  1.00  0.00    -0.203 F 
ATOM     83  C   UNL     1       0.453  11.611  -9.568  1.00  0.00     0.198 A 
ATOM     84  C   UNL     1      -0.029  11.234  -7.247  1.00  0.00     0.198 A 
ATOM     85  F   UNL     1       1.715  10.696  -5.757  1.00  0.00    -0.203 F 
ATOM     86  F   UNL     1       0.044  11.938 -10.801  1.00  0.00    -0.200 F 
ATOM     87  C   UNL     1      -0.461  11.549  -8.526  1.00  0.00     0.200 A 
ATOM     88  F   UNL     1      -0.911  11.165  -6.240  1.00  0.00    -0.200 F 
ATOM     89  F   UNL     1      -1.757  11.800  -8.755  1.00  0.00    -0.200 F 
ENDBRANCH  55  79
BRANCH  67  90
ATOM     90  C   UNL     1       7.926  15.075  -7.892  1.00  0.00     0.064 A 
ATOM     91  C   UNL     1       7.572  16.036  -6.934  1.00  0.00     0.173 A 
ATOM     92  C   UNL     1       8.521  15.517  -9.083  1.00  0.00     0.173 A 
ATOM     93  F   UNL     1       6.984  15.661  -5.788  1.00  0.00    -0.203 F 
ATOM     94  C   UNL     1       7.794  17.390  -7.167  1.00  0.00     0.198 A 
ATOM     95  C   UNL     1       8.759  16.870  -9.304  1.00  0.00     0.198 A 
ATOM     96  F   UNL     1       8.878  14.633 -10.028  1.00  0.00    -0.203 F 
ATOM     97  F   UNL     1       7.418  18.295  -6.253  1.00  0.00    -0.200 F 
ATOM     98  C   UNL     1       8.392  17.805  -8.348  1.00  0.00     0.200 A 
ATOM     99  F   UNL     1       9.342  17.270 -10.442  1.00  0.00    -0.200 F 
ATOM    100  F   UNL     1       8.608  19.109  -8.568  1.00  0.00    -0.200 F 
ENDBRANCH  67  90
ENDBRANCH  41  42
ENDBRANCH  33  36
ENDBRANCH  31  32
ENDBRANCH  30  31
ENDBRANCH   1  30
TORSDOF 15
