REMARK SMILES Cn1cc(Cl)c(C(=O)N2CCC[C@H](c3ccc(C(=O)NCCCNC(=O)c4ccc(-c5c6nc(c(-c7c(F)c(F)c(F)c(F)c7F)c7ccc([nH]7)c(-c7c(F)c(F)c(F)c(F)c7F)c7nc(c(-c8c(F)c(F)c(F)c(F)c8F)c8ccc5[nH]8)C=C7)C=C6)cc4)cc3)C2)n1
REMARK SMILES IDX 21 1 20 2 18 3 19 4 17 6 14 7 15 8 91 9 16 10 90 11 13 12
REMARK SMILES IDX 9 13 10 14 92 15 11 16 12 17 7 18 8 19 6 20 1 21 2 22 3 23
REMARK SMILES IDX 93 24 4 25 5 26 22 27 23 28 24 29 25 30 26 32 27 33 28 34
REMARK SMILES IDX 89 35 29 36 88 37 30 38 31 39 32 40 82 41 33 42 87 43 81 44
REMARK SMILES IDX 83 45 34 46 86 47 80 48 79 49 35 51 67 52 47 53 66 54 48 55
REMARK SMILES IDX 51 56 65 57 84 58 49 59 50 60 64 62 85 63 52 64 36 65 37 66
REMARK SMILES IDX 45 67 38 68 39 69 43 70 46 71 40 72 41 73 44 74 42 75 68 76
REMARK SMILES IDX 69 77 77 78 70 79 71 80 75 81 78 82 72 83 73 84 76 85 74 86
REMARK SMILES IDX 53 87 54 88 62 89 55 90 56 91 60 92 63 93 57 94 58 95 61 96
REMARK SMILES IDX 59 97
REMARK H PARENT 20 5 24 31 83 50 51 61
REMARK Flexibility Score: inf
ROOT
ATOM      1  C   UNL     1      -1.827   8.545   5.024  1.00  0.00     0.118 C 
ENDROOT
BRANCH   1   2
ATOM      2  N   UNL     1      -0.652   7.773   5.392  1.00  0.00    -0.352 N 
ATOM      3  C   UNL     1      -0.245   6.515   5.028  1.00  0.00     0.251 C 
ATOM      4  O   UNL     1       0.870   6.133   5.380  1.00  0.00    -0.269 OA
ATOM      5  H   UNL     1      -0.041   8.234   6.012  1.00  0.00     0.163 HD
BRANCH   3   6
ATOM      6  C   UNL     1      -1.086   5.622   4.194  1.00  0.00     0.039 A 
ATOM      7  C   UNL     1      -2.569   3.856   2.556  1.00  0.00    -0.043 A 
ATOM      8  C   UNL     1      -1.190   4.017   2.372  1.00  0.00     0.005 A 
ATOM      9  C   UNL     1      -3.181   4.565   3.607  1.00  0.00     0.005 A 
ATOM     10  C   UNL     1      -0.456   4.887   3.186  1.00  0.00     0.014 A 
ATOM     11  C   UNL     1      -2.447   5.430   4.424  1.00  0.00     0.014 A 
BRANCH   7  12
ATOM     12  C   UNL     1      -3.441   2.963   1.676  1.00  0.00     0.039 C 
ATOM     13  N   UNL     1      -2.137   2.510  -0.446  1.00  0.00    -0.337 N 
ATOM     14  C   UNL     1      -3.001   3.398  -1.218  1.00  0.00     0.120 C 
ATOM     15  C   UNL     1      -2.705   1.935   0.781  1.00  0.00     0.128 C 
ATOM     16  C   UNL     1      -3.673   4.457  -0.356  1.00  0.00     0.022 C 
ATOM     17  C   UNL     1      -4.402   3.811   0.818  1.00  0.00     0.012 C 
BRANCH  13  18
ATOM     18  C   UNL     1      -0.905   2.147  -1.014  1.00  0.00     0.275 C 
ATOM     19  O   UNL     1      -0.432   2.774  -1.963  1.00  0.00    -0.267 OA
BRANCH  18  20
ATOM     20  C   UNL     1      -0.198   0.973  -0.485  1.00  0.00     0.168 A 
ATOM     21  C   UNL     1       2.819  -0.506   0.498  1.00  0.00     0.173 C 
ATOM     22  N   UNL     1       1.442  -0.211   0.176  1.00  0.00    -0.273 N 
ATOM     23  C   UNL     1       0.443  -1.112  -0.031  1.00  0.00     0.129 A 
ATOM     24  N   UNL     1       1.070   1.064  -0.028  1.00  0.00    -0.166 NA
ATOM     25  C   UNL     1      -0.626  -0.383  -0.492  1.00  0.00     0.092 A 
ATOM     26  Cl  UNL     1      -2.105  -1.003  -1.041  1.00  0.00    -0.080 Cl
ENDBRANCH  18  20
ENDBRANCH  13  18
ENDBRANCH   7  12
ENDBRANCH   3   6
ENDBRANCH   1   2
BRANCH   1  27
ATOM     27  C   UNL     1      -2.825   8.652   6.178  1.00  0.00     0.042 C 
BRANCH  27  28
ATOM     28  C   UNL     1      -2.314   9.443   7.380  1.00  0.00     0.118 C 
BRANCH  28  29
ATOM     29  N   UNL     1      -2.295  10.876   7.141  1.00  0.00    -0.352 N 
ATOM     30  C   UNL     1      -2.756  11.900   7.931  1.00  0.00     0.251 C 
ATOM     31  H   UNL     1      -1.893  11.153   6.286  1.00  0.00     0.163 HD
ATOM     32  O   UNL     1      -2.793  13.042   7.481  1.00  0.00    -0.269 OA
BRANCH  30  33
ATOM     33  C   UNL     1      -3.228  11.649   9.314  1.00  0.00     0.039 A 
ATOM     34  C   UNL     1      -4.375  12.318   9.757  1.00  0.00     0.014 A 
ATOM     35  C   UNL     1      -2.522  10.823  10.195  1.00  0.00     0.014 A 
ATOM     36  C   UNL     1      -4.834  12.133  11.064  1.00  0.00     0.010 A 
ATOM     37  C   UNL     1      -3.006  10.605  11.487  1.00  0.00     0.010 A 
ATOM     38  C   UNL     1      -4.160  11.266  11.935  1.00  0.00    -0.014 A 
BRANCH  38  39
ATOM     39  C   UNL     1      -4.632  11.067  13.328  1.00  0.00     0.031 A 
ATOM     40  C   UNL     1      -3.842  11.621  14.480  1.00  0.00     0.074 A 
ATOM     41  C   UNL     1      -5.747  10.350  13.562  1.00  0.00     0.049 A 
ATOM     42  N   UNL     1      -4.060  11.504  15.766  1.00  0.00    -0.248 NA
ATOM     43  C   UNL     1      -2.637  12.392  14.142  1.00  0.00     0.031 C 
ATOM     44  C   UNL     1      -6.582   9.727  12.536  1.00  0.00     0.029 A 
ATOM     45  N   UNL     1      -6.362  10.015  14.743  1.00  0.00    -0.354 N 
ATOM     46  C   UNL     1      -3.007  12.160  16.389  1.00  0.00     0.074 A 
ATOM     47  C   UNL     1      -2.140  12.657  15.342  1.00  0.00     0.031 C 
ATOM     48  C   UNL     1      -7.605   9.092  13.131  1.00  0.00     0.029 A 
ATOM     49  C   UNL     1      -7.487   9.248  14.579  1.00  0.00     0.049 A 
ATOM     50  H   UNL     1      -6.027  10.299  15.624  1.00  0.00     0.167 HD
ATOM     51  C   UNL     1      -2.789  12.342  17.713  1.00  0.00     0.037 A 
ATOM     52  C   UNL     1      -8.328   8.727  15.492  1.00  0.00     0.037 A 
ATOM     53  C   UNL     1      -3.670  11.889  18.756  1.00  0.00     0.049 A 
ATOM     54  C   UNL     1      -8.092   8.986  16.953  1.00  0.00     0.074 A 
ATOM     55  C   UNL     1      -3.564  12.085  20.123  1.00  0.00     0.029 A 
ATOM     56  N   UNL     1      -4.825  11.152  18.546  1.00  0.00    -0.354 N 
ATOM     57  N   UNL     1      -7.119   9.651  17.527  1.00  0.00    -0.248 NA
ATOM     58  C   UNL     1      -9.075   8.428  17.893  1.00  0.00     0.031 C 
ATOM     59  C   UNL     1      -4.647  11.450  20.742  1.00  0.00     0.029 A 
ATOM     60  C   UNL     1      -5.438  10.879  19.758  1.00  0.00     0.049 A 
ATOM     61  H   UNL     1      -5.160  10.866  17.666  1.00  0.00     0.167 HD
ATOM     62  C   UNL     1      -7.379   9.606  18.889  1.00  0.00     0.074 A 
ATOM     63  C   UNL     1      -8.607   8.857  19.058  1.00  0.00     0.031 C 
ATOM     64  C   UNL     1      -6.662  10.138  19.907  1.00  0.00     0.037 A 
BRANCH  51  65
ATOM     65  C   UNL     1      -1.540  13.066  18.110  1.00  0.00     0.064 A 
ATOM     66  C   UNL     1      -1.428  14.457  17.978  1.00  0.00     0.173 A 
ATOM     67  C   UNL     1      -0.456  12.364  18.656  1.00  0.00     0.173 A 
ATOM     68  F   UNL     1      -2.435  15.168  17.449  1.00  0.00    -0.203 F 
ATOM     69  C   UNL     1      -0.264  15.119  18.361  1.00  0.00     0.198 A 
ATOM     70  C   UNL     1       0.699  13.031  19.055  1.00  0.00     0.198 A 
ATOM     71  F   UNL     1      -0.518  11.032  18.804  1.00  0.00    -0.203 F 
ATOM     72  F   UNL     1      -0.163  16.445  18.194  1.00  0.00    -0.200 F 
ATOM     73  C   UNL     1       0.796  14.406  18.902  1.00  0.00     0.200 A 
ATOM     74  F   UNL     1       1.720  12.343  19.584  1.00  0.00    -0.200 F 
ATOM     75  F   UNL     1       1.915  15.045  19.271  1.00  0.00    -0.200 F 
ENDBRANCH  51  65
BRANCH  52  76
ATOM     76  C   UNL     1      -9.494   7.930  15.043  1.00  0.00     0.064 A 
ATOM     77  C   UNL     1     -10.784   8.478  15.056  1.00  0.00     0.173 A 
ATOM     78  C   UNL     1      -9.342   6.617  14.580  1.00  0.00     0.173 A 
ATOM     79  F   UNL     1     -10.976   9.725  15.512  1.00  0.00    -0.203 F 
ATOM     80  C   UNL     1     -11.882   7.736  14.630  1.00  0.00     0.198 A 
ATOM     81  C   UNL     1     -10.439   5.882  14.137  1.00  0.00     0.198 A 
ATOM     82  F   UNL     1      -8.126   6.053  14.548  1.00  0.00    -0.203 F 
ATOM     83  F   UNL     1     -13.109   8.273  14.676  1.00  0.00    -0.200 F 
ATOM     84  C   UNL     1     -11.708   6.441  14.165  1.00  0.00     0.200 A 
ATOM     85  F   UNL     1     -10.268   4.633  13.682  1.00  0.00    -0.200 F 
ATOM     86  F   UNL     1     -12.765   5.729  13.750  1.00  0.00    -0.200 F 
ENDBRANCH  52  76
BRANCH  64  87
ATOM     87  C   UNL     1      -7.197   9.946  21.293  1.00  0.00     0.064 A 
ATOM     88  C   UNL     1      -7.041   8.729  21.971  1.00  0.00     0.173 A 
ATOM     89  C   UNL     1      -7.836  11.000  21.961  1.00  0.00     0.173 A 
ATOM     90  F   UNL     1      -6.450   7.689  21.363  1.00  0.00    -0.203 F 
ATOM     91  C   UNL     1      -7.520   8.570  23.268  1.00  0.00     0.198 A 
ATOM     92  C   UNL     1      -8.299  10.843  23.264  1.00  0.00     0.198 A 
ATOM     93  F   UNL     1      -8.006  12.183  21.351  1.00  0.00    -0.203 F 
ATOM     94  F   UNL     1      -7.388   7.390  23.889  1.00  0.00    -0.200 F 
ATOM     95  C   UNL     1      -8.144   9.628  23.915  1.00  0.00     0.200 A 
ATOM     96  F   UNL     1      -8.898  11.865  23.889  1.00  0.00    -0.200 F 
ATOM     97  F   UNL     1      -8.602   9.473  25.164  1.00  0.00    -0.200 F 
ENDBRANCH  64  87
ENDBRANCH  38  39
ENDBRANCH  30  33
ENDBRANCH  28  29
ENDBRANCH  27  28
ENDBRANCH   1  27
TORSDOF 13
