REMARK SMILES CC(C)CC(=O)Nc1ccc(NC(=O)[C@@H]2CCCC[C@@H]2C(=O)NCCCNC(=O)c2ccc(-c3c4nc(c(-c5c(F)c(F)c(F)c(F)c5F)c5ccc([nH]5)c(-c5c(F)c(F)c(F)c(F)c5F)c5nc(c(-c6c(F)c(F)c(F)c(F)c6F)c6ccc3[nH]6)C=C5)C=C4)cc2)cc1
REMARK SMILES IDX 21 1 22 2 23 3 20 5 15 6 16 7 17 8 19 9 18 10 13 11 12 12
REMARK SMILES IDX 14 14 11 15 8 16 9 17 94 18 10 19 93 20 7 21 5 22 6 23 4 25
REMARK SMILES IDX 2 26 1 27 3 28 24 29 25 30 26 31 27 32 28 33 29 35 30 36
REMARK SMILES IDX 31 37 92 38 32 39 91 40 33 41 34 42 35 43 85 44 36 45 90 46
REMARK SMILES IDX 84 47 86 48 37 49 89 50 83 51 82 52 38 54 70 55 50 56 69 57
REMARK SMILES IDX 51 58 54 59 68 60 87 61 52 62 53 63 67 65 88 66 55 67 39 68
REMARK SMILES IDX 40 69 48 70 41 71 42 72 46 73 49 74 43 75 44 76 47 77 45 78
REMARK SMILES IDX 71 79 72 80 80 81 73 82 74 83 78 84 81 85 75 86 76 87 79 88
REMARK SMILES IDX 77 89 56 90 57 91 65 92 58 93 59 94 63 95 66 96 60 97 61 98
REMARK SMILES IDX 64 99 62 100
REMARK H PARENT 23 4 12 13 7 24 27 34 86 53 54 64
REMARK Flexibility Score: inf
ROOT
ATOM      1  C   UNL     1       1.735  -0.553   8.595  1.00  0.00     0.223 C 
ATOM      2  O   UNL     1       2.064   0.220   9.496  1.00  0.00    -0.275 OA
ATOM      3  N   UNL     1       2.454  -1.703   8.448  1.00  0.00    -0.356 N 
ATOM      4  H   UNL     1       3.188  -1.797   9.097  1.00  0.00     0.163 HD
ENDROOT
BRANCH   1   5
ATOM      5  C   UNL     1       0.540  -0.265   7.694  1.00  0.00     0.091 C 
ATOM      6  C   UNL     1       0.822   0.648   6.489  1.00  0.00     0.091 C 
ATOM      7  C   UNL     1       0.904   2.136   6.843  1.00  0.00     0.014 C 
ATOM      8  C   UNL     1      -0.358   2.609   7.537  1.00  0.00     0.001 C 
ATOM      9  C   UNL     1      -0.657   0.284   8.508  1.00  0.00     0.014 C 
ATOM     10  C   UNL     1      -0.613   1.788   8.792  1.00  0.00     0.001 C 
BRANCH   6  11
ATOM     11  C   UNL     1       2.058   0.356   5.681  1.00  0.00     0.228 C 
ATOM     12  N   UNL     1       2.077   0.473   4.328  1.00  0.00    -0.326 N 
ATOM     13  H   UNL     1       2.961   0.248   3.957  1.00  0.00     0.169 HD
ATOM     14  O   UNL     1       3.139   0.099   6.218  1.00  0.00    -0.274 OA
BRANCH  12  15
ATOM     15  C   UNL     1       1.170   0.831   3.316  1.00  0.00     0.041 A 
ATOM     16  C   UNL     1      -0.428   1.333   1.042  1.00  0.00     0.041 A 
ATOM     17  C   UNL     1      -0.970   1.462   2.311  1.00  0.00     0.028 A 
ATOM     18  C   UNL     1       0.933   1.099   0.923  1.00  0.00     0.028 A 
ATOM     19  C   UNL     1      -0.170   1.214   3.442  1.00  0.00     0.028 A 
ATOM     20  C   UNL     1       1.717   0.816   2.034  1.00  0.00     0.028 A 
BRANCH  16  21
ATOM     21  N   UNL     1      -1.219   1.499  -0.100  1.00  0.00    -0.326 N 
ATOM     22  C   UNL     1      -1.047   0.879  -1.319  1.00  0.00     0.224 C 
ATOM     23  O   UNL     1      -1.500   1.397  -2.340  1.00  0.00    -0.275 OA
ATOM     24  H   UNL     1      -1.976   2.124  -0.026  1.00  0.00     0.169 HD
BRANCH  22  25
ATOM     25  C   UNL     1      -0.507  -0.554  -1.324  1.00  0.00     0.103 C 
BRANCH  25  26
ATOM     26  C   UNL     1       0.628  -0.863  -2.318  1.00  0.00    -0.008 C 
ATOM     27  C   UNL     1       2.024  -0.640  -1.728  1.00  0.00     0.008 C 
ATOM     28  C   UNL     1       0.530  -2.328  -2.757  1.00  0.00     0.008 C 
ENDBRANCH  25  26
ENDBRANCH  22  25
ENDBRANCH  16  21
ENDBRANCH  12  15
ENDBRANCH   6  11
ENDBRANCH   1   5
BRANCH   3  29
ATOM     29  C   UNL     1       2.348  -2.819   7.516  1.00  0.00     0.117 C 
BRANCH  29  30
ATOM     30  C   UNL     1       3.506  -2.933   6.520  1.00  0.00     0.042 C 
BRANCH  30  31
ATOM     31  C   UNL     1       4.902  -2.798   7.120  1.00  0.00     0.118 C 
BRANCH  31  32
ATOM     32  N   UNL     1       5.314  -4.012   7.810  1.00  0.00    -0.352 N 
ATOM     33  C   UNL     1       6.411  -4.802   7.584  1.00  0.00     0.251 C 
ATOM     34  H   UNL     1       4.722  -4.306   8.540  1.00  0.00     0.163 HD
ATOM     35  O   UNL     1       6.479  -5.919   8.099  1.00  0.00    -0.269 OA
BRANCH  33  36
ATOM     36  C   UNL     1       7.515  -4.333   6.716  1.00  0.00     0.039 A 
ATOM     37  C   UNL     1       8.080  -5.224   5.798  1.00  0.00     0.014 A 
ATOM     38  C   UNL     1       8.031  -3.039   6.838  1.00  0.00     0.014 A 
ATOM     39  C   UNL     1       9.132  -4.807   4.976  1.00  0.00     0.010 A 
ATOM     40  C   UNL     1       9.044  -2.607   5.981  1.00  0.00     0.010 A 
ATOM     41  C   UNL     1       9.611  -3.489   5.048  1.00  0.00    -0.014 A 
BRANCH  41  42
ATOM     42  C   UNL     1      10.715  -3.024   4.168  1.00  0.00     0.031 A 
ATOM     43  C   UNL     1      12.049  -2.656   4.757  1.00  0.00     0.074 A 
ATOM     44  C   UNL     1      10.506  -2.885   2.845  1.00  0.00     0.049 A 
ATOM     45  N   UNL     1      13.112  -2.171   4.165  1.00  0.00    -0.248 NA
ATOM     46  C   UNL     1      12.203  -2.840   6.208  1.00  0.00     0.031 C 
ATOM     47  C   UNL     1       9.251  -3.178   2.153  1.00  0.00     0.029 A 
ATOM     48  N   UNL     1      11.344  -2.451   1.846  1.00  0.00    -0.354 N 
ATOM     49  C   UNL     1      14.051  -1.979   5.170  1.00  0.00     0.074 A 
ATOM     50  C   UNL     1      13.419  -2.358   6.416  1.00  0.00     0.031 C 
ATOM     51  C   UNL     1       9.406  -2.933   0.841  1.00  0.00     0.029 A 
ATOM     52  C   UNL     1      10.758  -2.434   0.605  1.00  0.00     0.049 A 
ATOM     53  H   UNL     1      12.276  -2.179   2.006  1.00  0.00     0.167 HD
ATOM     54  C   UNL     1      15.331  -1.547   5.062  1.00  0.00     0.037 A 
ATOM     55  C   UNL     1      11.252  -2.052  -0.589  1.00  0.00     0.037 A 
ATOM     56  C   UNL     1      15.969  -1.192   3.821  1.00  0.00     0.049 A 
ATOM     57  C   UNL     1      12.672  -1.563  -0.679  1.00  0.00     0.074 A 
ATOM     58  C   UNL     1      17.277  -0.792   3.606  1.00  0.00     0.029 A 
ATOM     59  N   UNL     1      15.344  -1.196   2.583  1.00  0.00    -0.354 N 
ATOM     60  N   UNL     1      13.566  -1.438   0.270  1.00  0.00    -0.248 NA
ATOM     61  C   UNL     1      13.152  -1.166  -2.011  1.00  0.00     0.031 C 
ATOM     62  C   UNL     1      17.433  -0.517   2.243  1.00  0.00     0.029 A 
ATOM     63  C   UNL     1      16.235  -0.788   1.603  1.00  0.00     0.049 A 
ATOM     64  H   UNL     1      14.407  -1.452   2.425  1.00  0.00     0.167 HD
ATOM     65  C   UNL     1      14.720  -0.977  -0.350  1.00  0.00     0.074 A 
ATOM     66  C   UNL     1      14.416  -0.855  -1.760  1.00  0.00     0.031 C 
ATOM     67  C   UNL     1      15.922  -0.681   0.201  1.00  0.00     0.037 A 
BRANCH  54  68
ATOM     68  C   UNL     1      16.133  -1.436   6.326  1.00  0.00     0.064 A 
ATOM     69  C   UNL     1      16.574  -2.575   7.017  1.00  0.00     0.173 A 
ATOM     70  C   UNL     1      16.500  -0.180   6.831  1.00  0.00     0.173 A 
ATOM     71  F   UNL     1      16.242  -3.800   6.580  1.00  0.00    -0.203 F 
ATOM     72  C   UNL     1      17.328  -2.460   8.181  1.00  0.00     0.198 A 
ATOM     73  C   UNL     1      17.279  -0.069   7.981  1.00  0.00     0.198 A 
ATOM     74  F   UNL     1      16.112   0.941   6.205  1.00  0.00    -0.203 F 
ATOM     75  F   UNL     1      17.700  -3.562   8.849  1.00  0.00    -0.200 F 
ATOM     76  C   UNL     1      17.686  -1.208   8.659  1.00  0.00     0.200 A 
ATOM     77  F   UNL     1      17.634   1.141   8.433  1.00  0.00    -0.200 F 
ATOM     78  F   UNL     1      18.418  -1.099   9.775  1.00  0.00    -0.200 F 
ENDBRANCH  54  68
BRANCH  55  79
ATOM     79  C   UNL     1      10.402  -2.141  -1.804  1.00  0.00     0.064 A 
ATOM     80  C   UNL     1      10.666  -3.098  -2.794  1.00  0.00     0.173 A 
ATOM     81  C   UNL     1       9.316  -1.277  -2.003  1.00  0.00     0.173 A 
ATOM     82  F   UNL     1      11.707  -3.932  -2.658  1.00  0.00    -0.203 F 
ATOM     83  C   UNL     1       9.885  -3.176  -3.945  1.00  0.00     0.198 A 
ATOM     84  C   UNL     1       8.520  -1.373  -3.142  1.00  0.00     0.198 A 
ATOM     85  F   UNL     1       9.020  -0.347  -1.083  1.00  0.00    -0.203 F 
ATOM     86  F   UNL     1      10.183  -4.074  -4.894  1.00  0.00    -0.200 F 
ATOM     87  C   UNL     1       8.809  -2.318  -4.116  1.00  0.00     0.200 A 
ATOM     88  F   UNL     1       7.473  -0.552  -3.296  1.00  0.00    -0.200 F 
ATOM     89  F   UNL     1       8.055  -2.397  -5.220  1.00  0.00    -0.200 F 
ENDBRANCH  55  79
BRANCH  67  90
ATOM     90  C   UNL     1      17.012  -0.231  -0.726  1.00  0.00     0.064 A 
ATOM     91  C   UNL     1      17.004   1.046  -1.305  1.00  0.00     0.173 A 
ATOM     92  C   UNL     1      18.100  -1.073  -1.004  1.00  0.00     0.173 A 
ATOM     93  F   UNL     1      15.978   1.882  -1.083  1.00  0.00    -0.203 F 
ATOM     94  C   UNL     1      18.034   1.456  -2.147  1.00  0.00     0.198 A 
ATOM     95  C   UNL     1      19.141  -0.650  -1.825  1.00  0.00     0.198 A 
ATOM     96  F   UNL     1      18.157  -2.302  -0.470  1.00  0.00    -0.203 F 
ATOM     97  F   UNL     1      17.985   2.665  -2.724  1.00  0.00    -0.200 F 
ATOM     98  C   UNL     1      19.105   0.611  -2.401  1.00  0.00     0.200 A 
ATOM     99  F   UNL     1      20.180  -1.463  -2.060  1.00  0.00    -0.200 F 
ATOM    100  F   UNL     1      20.099   1.010  -3.207  1.00  0.00    -0.200 F 
ENDBRANCH  67  90
ENDBRANCH  41  42
ENDBRANCH  33  36
ENDBRANCH  31  32
ENDBRANCH  30  31
ENDBRANCH  29  30
ENDBRANCH   3  29
TORSDOF 15
