REMARK SMILES COc1ccc(-c2[nH]nc3nc(-c4ccc(C(F)(F)F)cc4)cc(C(=O)NCCCNC(=O)c4ccc(-c5c6nc(c(-c7c(F)c(F)c(F)c(F)c7F)c7ccc([nH]7)c(-c7c(F)c(F)c(F)c(F)c7F)c7nc(c(-c8c(F)c(F)c(F)c(F)c8F)c8ccc5[nH]8)C=C7)C=C6)cc4)c23)cc1
REMARK SMILES IDX 29 1 28 2 27 3 25 4 26 5 24 7 7 8 8 9 97 10 9 11 10 13 11 14
REMARK SMILES IDX 23 15 12 16 6 17 3 18 4 19 99 20 5 21 98 22 2 23 1 24 13 25
REMARK SMILES IDX 14 26 22 27 15 28 21 29 16 30 17 31 18 32 19 33 20 34 30 35
REMARK SMILES IDX 31 36 32 37 33 39 34 40 35 41 96 42 36 43 95 44 37 45 38 46
REMARK SMILES IDX 39 47 89 48 40 49 94 50 88 51 90 52 41 53 93 54 87 55 86 56
REMARK SMILES IDX 42 58 74 59 54 60 73 61 55 62 58 63 72 64 91 65 56 66 57 67
REMARK SMILES IDX 71 69 92 70 59 71 43 72 44 73 52 74 45 75 46 76 50 77 53 78
REMARK SMILES IDX 47 79 48 80 51 81 49 82 75 83 76 84 84 85 77 86 78 87 82 88
REMARK SMILES IDX 85 89 79 90 80 91 83 92 81 93 60 94 61 95 69 96 62 97 63 98
REMARK SMILES IDX 67 99 70 100 64 101 65 102 68 103 66 104
REMARK H PARENT 27 6 8 12 31 38 90 57 58 68
REMARK Flexibility Score: inf
ROOT
ATOM      1  C   UNL     1       7.314   3.526  -6.671  1.00  0.00     0.042 C 
ENDROOT
BRANCH   1   2
ATOM      2  C   UNL     1       5.846   3.258  -7.039  1.00  0.00     0.118 C 
BRANCH   2   3
ATOM      3  N   UNL     1       5.043   2.846  -5.895  1.00  0.00    -0.352 N 
ATOM      4  C   UNL     1       4.240   3.498  -4.983  1.00  0.00     0.252 C 
ATOM      5  O   UNL     1       3.595   2.751  -4.258  1.00  0.00    -0.269 OA
ATOM      6  H   UNL     1       5.082   1.875  -5.737  1.00  0.00     0.163 HD
BRANCH   4   7
ATOM      7  C   UNL     1       4.123   4.973  -4.878  1.00  0.00     0.055 A 
ATOM      8  C   UNL     1       2.156   5.379  -3.301  1.00  0.00     0.075 A 
ATOM      9  N   UNL     1       1.540   6.564  -2.962  1.00  0.00    -0.275 N 
ATOM     10  C   UNL     1       3.165   5.744  -4.183  1.00  0.00     0.059 A 
ATOM     11  N   UNL     1       2.058   7.661  -3.524  1.00  0.00    -0.154 NA
ATOM     12  H   UNL     1       0.772   6.601  -2.347  1.00  0.00     0.190 HD
ATOM     13  C   UNL     1       3.056   7.191  -4.267  1.00  0.00     0.182 A 
ATOM     14  N   UNL     1       3.872   7.958  -5.035  1.00  0.00    -0.226 NA
ATOM     15  C   UNL     1       4.999   5.838  -5.543  1.00  0.00     0.043 A 
ATOM     16  C   UNL     1       4.822   7.234  -5.663  1.00  0.00     0.074 A 
BRANCH   8  17
ATOM     17  C   UNL     1       1.693   4.144  -2.678  1.00  0.00     0.001 A 
ATOM     18  C   UNL     1       0.800   1.749  -1.496  1.00  0.00     0.118 A 
ATOM     19  C   UNL     1      -0.034   2.473  -2.350  1.00  0.00     0.047 A 
ATOM     20  C   UNL     1       2.076   2.235  -1.217  1.00  0.00     0.047 A 
ATOM     21  C   UNL     1       0.403   3.665  -2.934  1.00  0.00     0.014 A 
ATOM     22  C   UNL     1       2.511   3.438  -1.788  1.00  0.00     0.014 A 
BRANCH  18  23
ATOM     23  O   UNL     1       0.270   0.577  -1.031  1.00  0.00    -0.497 OA
ATOM     24  C   UNL     1       0.902   0.008   0.110  1.00  0.00     0.278 C 
ENDBRANCH  18  23
ENDBRANCH   8  17
BRANCH  16  25
ATOM     25  C   UNL     1       5.682   7.927  -6.636  1.00  0.00     0.000 A 
ATOM     26  C   UNL     1       6.629   8.881  -6.250  1.00  0.00     0.011 A 
ATOM     27  C   UNL     1       5.647   7.530  -7.988  1.00  0.00     0.011 A 
ATOM     28  C   UNL     1       7.550   9.382  -7.181  1.00  0.00     0.014 A 
ATOM     29  C   UNL     1       6.562   8.026  -8.916  1.00  0.00     0.014 A 
ATOM     30  C   UNL     1       7.537   8.946  -8.518  1.00  0.00     0.056 A 
BRANCH  30  31
ATOM     31  C   UNL     1       8.565   9.454  -9.500  1.00  0.00     0.416 C 
ATOM     32  F   UNL     1       8.503  10.801  -9.678  1.00  0.00    -0.166 F 
ATOM     33  F   UNL     1       9.839   9.184  -9.100  1.00  0.00    -0.166 F 
ATOM     34  F   UNL     1       8.445   8.905 -10.742  1.00  0.00    -0.166 F 
ENDBRANCH  30  31
ENDBRANCH  16  25
ENDBRANCH   4   7
ENDBRANCH   2   3
ENDBRANCH   1   2
BRANCH   1  35
ATOM     35  C   UNL     1       8.155   2.261  -6.648  1.00  0.00     0.118 C 
BRANCH  35  36
ATOM     36  N   UNL     1       8.289   1.665  -7.977  1.00  0.00    -0.352 N 
ATOM     37  C   UNL     1       8.766   0.420  -8.329  1.00  0.00     0.251 C 
ATOM     38  H   UNL     1       7.998   2.234  -8.727  1.00  0.00     0.163 HD
ATOM     39  O   UNL     1       9.090   0.174  -9.483  1.00  0.00    -0.269 OA
BRANCH  37  40
ATOM     40  C   UNL     1       8.901  -0.606  -7.284  1.00  0.00     0.039 A 
ATOM     41  C   UNL     1      10.047  -1.402  -7.202  1.00  0.00     0.014 A 
ATOM     42  C   UNL     1       7.887  -0.714  -6.340  1.00  0.00     0.014 A 
ATOM     43  C   UNL     1      10.206  -2.245  -6.105  1.00  0.00     0.010 A 
ATOM     44  C   UNL     1       8.124  -1.407  -5.182  1.00  0.00     0.010 A 
ATOM     45  C   UNL     1       9.247  -2.227  -5.084  1.00  0.00    -0.014 A 
BRANCH  45  46
ATOM     46  C   UNL     1       9.420  -3.018  -3.868  1.00  0.00     0.031 A 
ATOM     47  C   UNL     1      10.649  -2.749  -3.062  1.00  0.00     0.074 A 
ATOM     48  C   UNL     1       8.402  -3.745  -3.358  1.00  0.00     0.049 A 
ATOM     49  N   UNL     1      11.553  -3.585  -2.663  1.00  0.00    -0.248 NA
ATOM     50  C   UNL     1      10.934  -1.353  -2.692  1.00  0.00     0.031 C 
ATOM     51  C   UNL     1       7.016  -3.836  -3.842  1.00  0.00     0.029 A 
ATOM     52  N   UNL     1       8.359  -4.454  -2.200  1.00  0.00    -0.354 N 
ATOM     53  C   UNL     1      12.447  -2.858  -1.873  1.00  0.00     0.074 A 
ATOM     54  C   UNL     1      12.087  -1.473  -2.031  1.00  0.00     0.031 C 
ATOM     55  C   UNL     1       6.229  -4.334  -2.867  1.00  0.00     0.029 A 
ATOM     56  C   UNL     1       7.078  -4.775  -1.778  1.00  0.00     0.049 A 
ATOM     57  H   UNL     1       9.167  -4.717  -1.703  1.00  0.00     0.167 HD
ATOM     58  C   UNL     1      13.302  -3.469  -1.004  1.00  0.00     0.037 A 
ATOM     59  C   UNL     1       6.728  -5.338  -0.600  1.00  0.00     0.037 A 
ATOM     60  C   UNL     1      13.438  -4.869  -1.306  1.00  0.00     0.049 A 
ATOM     61  C   UNL     1       7.944  -5.955  -0.022  1.00  0.00     0.074 A 
ATOM     62  C   UNL     1      13.911  -5.590  -2.384  1.00  0.00     0.029 A 
ATOM     63  N   UNL     1      12.736  -5.767  -0.542  1.00  0.00    -0.354 N 
ATOM     64  N   UNL     1       8.554  -6.988  -0.536  1.00  0.00    -0.248 NA
ATOM     65  C   UNL     1       8.740  -5.153   0.894  1.00  0.00     0.031 C 
ATOM     66  C   UNL     1      13.059  -6.731  -2.464  1.00  0.00     0.029 A 
ATOM     67  C   UNL     1      12.155  -6.660  -1.403  1.00  0.00     0.049 A 
ATOM     68  H   UNL     1      12.664  -5.770   0.440  1.00  0.00     0.167 HD
ATOM     69  C   UNL     1       9.904  -6.733  -0.346  1.00  0.00     0.074 A 
ATOM     70  C   UNL     1       9.951  -5.649   0.632  1.00  0.00     0.031 C 
ATOM     71  C   UNL     1      10.842  -7.229  -1.205  1.00  0.00     0.037 A 
BRANCH  58  72
ATOM     72  C   UNL     1      13.781  -2.893   0.312  1.00  0.00     0.064 A 
ATOM     73  C   UNL     1      14.756  -3.590   1.059  1.00  0.00     0.173 A 
ATOM     74  C   UNL     1      13.118  -1.858   1.006  1.00  0.00     0.173 A 
ATOM     75  F   UNL     1      15.447  -4.600   0.510  1.00  0.00    -0.203 F 
ATOM     76  C   UNL     1      14.982  -3.329   2.414  1.00  0.00     0.198 A 
ATOM     77  C   UNL     1      13.386  -1.564   2.344  1.00  0.00     0.198 A 
ATOM     78  F   UNL     1      12.113  -1.166   0.460  1.00  0.00    -0.203 F 
ATOM     79  F   UNL     1      15.822  -4.106   3.111  1.00  0.00    -0.200 F 
ATOM     80  C   UNL     1      14.290  -2.321   3.058  1.00  0.00     0.200 A 
ATOM     81  F   UNL     1      12.695  -0.591   2.954  1.00  0.00    -0.200 F 
ATOM     82  F   UNL     1      14.456  -2.111   4.370  1.00  0.00    -0.200 F 
ENDBRANCH  58  72
BRANCH  59  83
ATOM     83  C   UNL     1       5.475  -5.146   0.156  1.00  0.00     0.064 A 
ATOM     84  C   UNL     1       5.020  -6.104   1.071  1.00  0.00     0.173 A 
ATOM     85  C   UNL     1       4.822  -3.896   0.170  1.00  0.00     0.173 A 
ATOM     86  F   UNL     1       5.620  -7.300   1.146  1.00  0.00    -0.203 F 
ATOM     87  C   UNL     1       3.979  -5.824   1.962  1.00  0.00     0.198 A 
ATOM     88  C   UNL     1       3.780  -3.620   1.053  1.00  0.00     0.198 A 
ATOM     89  F   UNL     1       5.246  -2.894  -0.615  1.00  0.00    -0.203 F 
ATOM     90  F   UNL     1       3.603  -6.745   2.860  1.00  0.00    -0.200 F 
ATOM     91  C   UNL     1       3.366  -4.580   1.957  1.00  0.00     0.200 A 
ATOM     92  F   UNL     1       3.220  -2.401   1.064  1.00  0.00    -0.200 F 
ATOM     93  F   UNL     1       2.407  -4.294   2.848  1.00  0.00    -0.200 F 
ENDBRANCH  59  83
BRANCH  71  94
ATOM     94  C   UNL     1      10.405  -8.268  -2.200  1.00  0.00     0.064 A 
ATOM     95  C   UNL     1       9.482  -8.023  -3.232  1.00  0.00     0.173 A 
ATOM     96  C   UNL     1      11.067  -9.502  -2.210  1.00  0.00     0.173 A 
ATOM     97  F   UNL     1       8.887  -6.833  -3.356  1.00  0.00    -0.203 F 
ATOM     98  C   UNL     1       9.205  -8.985  -4.201  1.00  0.00     0.198 A 
ATOM     99  C   UNL     1      10.816 -10.448  -3.200  1.00  0.00     0.198 A 
ATOM    100  F   UNL     1      12.003  -9.770  -1.286  1.00  0.00    -0.203 F 
ATOM    101  F   UNL     1       8.314  -8.727  -5.170  1.00  0.00    -0.200 F 
ATOM    102  C   UNL     1       9.879 -10.194  -4.189  1.00  0.00     0.200 A 
ATOM    103  F   UNL     1      11.508 -11.596  -3.215  1.00  0.00    -0.200 F 
ATOM    104  F   UNL     1       9.648 -11.102  -5.147  1.00  0.00    -0.200 F 
ENDBRANCH  71  94
ENDBRANCH  45  46
ENDBRANCH  37  40
ENDBRANCH  35  36
ENDBRANCH   1  35
TORSDOF 14
