REMARK SMILES Cc1c(Cl)cccc1NC(=O)C[C@H](C(=O)NCCCNC(=O)c1ccc(-c2c3nc(c(-c4c(F)c(F)c(F)c(F)c4F)c4ccc([nH]4)c(-c4c(F)c(F)c(F)c(F)c4F)c4nc(c(-c5c(F)c(F)c(F)c(F)c5F)c5ccc2[nH]5)C=C4)C=C3)cc1)[C@H](C)c1ccccc1
REMARK SMILES IDX 17 1 16 2 14 3 15 4 13 6 12 7 10 8 9 9 11 11 8 12 1 13 2 14
REMARK SMILES IDX 3 15 4 16 5 17 7 18 6 19 86 20 87 21 88 22 89 23 93 24 90 25
REMARK SMILES IDX 92 26 91 27 18 28 19 29 20 30 21 31 22 33 23 34 24 35 85 36
REMARK SMILES IDX 25 37 84 38 26 39 27 40 28 41 78 42 29 43 83 44 77 45 79 46
REMARK SMILES IDX 30 47 82 48 76 49 75 50 31 52 63 53 43 54 62 55 44 56 47 57
REMARK SMILES IDX 61 58 80 59 45 60 46 61 60 63 81 64 48 65 32 66 33 67 41 68
REMARK SMILES IDX 34 69 35 70 39 71 42 72 36 73 37 74 40 75 38 76 64 77 65 78
REMARK SMILES IDX 73 79 66 80 67 81 71 82 74 83 68 84 69 85 72 86 70 87 49 88
REMARK SMILES IDX 50 89 58 90 51 91 52 92 56 93 59 94 53 95 54 96 57 97 55 98
REMARK H PARENT 16 5 9 10 20 32 79 51 47 62
REMARK Flexibility Score: inf
ROOT
ATOM      1  C   UNL     1      -4.788  -0.950   0.778  1.00  0.00     0.117 C 
ENDROOT
BRANCH   1   2
ATOM      2  N   UNL     1      -6.046  -1.639   0.042  1.00  0.00    -0.356 N 
ATOM      3  C   UNL     1      -6.746  -1.364  -1.085  1.00  0.00     0.224 C 
ATOM      4  O   UNL     1      -7.811  -1.962  -1.251  1.00  0.00    -0.275 OA
ATOM      5  H   UNL     1      -6.380  -2.435   0.516  1.00  0.00     0.163 HD
BRANCH   3   6
ATOM      6  C   UNL     1      -6.242  -0.351  -2.096  1.00  0.00     0.095 C 
BRANCH   6   7
ATOM      7  C   UNL     1      -6.719   1.051  -1.641  1.00  0.00     0.114 C 
BRANCH   7   8
ATOM      8  C   UNL     1      -5.785   2.175  -1.250  1.00  0.00     0.225 C 
ATOM      9  N   UNL     1      -5.118   2.207  -0.060  1.00  0.00    -0.326 N 
ATOM     10  H   UNL     1      -4.697   3.063   0.184  1.00  0.00     0.169 HD
ATOM     11  O   UNL     1      -5.580   3.107  -2.035  1.00  0.00    -0.275 OA
BRANCH   9  12
ATOM     12  C   UNL     1      -4.966   1.161   0.848  1.00  0.00     0.045 A 
ATOM     13  C   UNL     1      -2.110   1.375   0.624  1.00  0.00     0.048 C 
ATOM     14  C   UNL     1      -3.280   0.567   1.107  1.00  0.00    -0.009 A 
ATOM     15  C   UNL     1      -2.985  -1.004   1.927  1.00  0.00     0.046 A 
ATOM     16  Cl  UNL     1      -1.385  -1.575   2.173  1.00  0.00    -0.084 Cl
ATOM     17  C   UNL     1      -4.371  -1.973   2.542  1.00  0.00     0.021 A 
ATOM     18  C   UNL     1      -6.360   0.235   1.508  1.00  0.00     0.026 A 
ATOM     19  C   UNL     1      -6.072  -1.355   2.346  1.00  0.00     0.004 A 
ENDBRANCH   9  12
ENDBRANCH   7   8
ENDBRANCH   6   7
BRANCH   6  20
ATOM     20  C   UNL     1      -4.801  -0.755  -2.549  1.00  0.00     0.029 C 
ATOM     21  C   UNL     1      -3.811   0.383  -2.780  1.00  0.00     0.013 C 
BRANCH  20  22
ATOM     22  C   UNL     1      -4.783  -1.813  -3.663  1.00  0.00    -0.044 A 
ATOM     23  C   UNL     1      -5.196  -3.130  -3.373  1.00  0.00     0.004 A 
ATOM     24  C   UNL     1      -4.226  -1.561  -4.922  1.00  0.00     0.004 A 
ATOM     25  C   UNL     1      -4.998  -4.165  -4.287  1.00  0.00     0.000 A 
ATOM     26  C   UNL     1      -4.013  -2.601  -5.829  1.00  0.00     0.000 A 
ATOM     27  C   UNL     1      -4.385  -3.904  -5.506  1.00  0.00     0.000 A 
ENDBRANCH  20  22
ENDBRANCH   6  20
ENDBRANCH   3   6
ENDBRANCH   1   2
BRANCH   1  28
ATOM     28  C   UNL     1      -4.649   0.096   2.693  1.00  0.00     0.042 C 
BRANCH  28  29
ATOM     29  C   UNL     1      -5.359  -0.127   4.253  1.00  0.00     0.118 C 
BRANCH  29  30
ATOM     30  N   UNL     1      -5.155  -1.400   4.964  1.00  0.00    -0.352 N 
ATOM     31  C   UNL     1      -4.308  -1.682   6.000  1.00  0.00     0.251 C 
ATOM     32  H   UNL     1      -5.706  -2.153   4.651  1.00  0.00     0.163 HD
ATOM     33  O   UNL     1      -3.907  -2.816   6.218  1.00  0.00    -0.269 OA
BRANCH  31  34
ATOM     34  C   UNL     1      -3.979  -0.567   6.886  1.00  0.00     0.039 A 
ATOM     35  C   UNL     1      -2.688  -0.387   7.373  1.00  0.00     0.014 A 
ATOM     36  C   UNL     1      -5.015   0.323   7.187  1.00  0.00     0.014 A 
ATOM     37  C   UNL     1      -2.436   0.727   8.165  1.00  0.00     0.010 A 
ATOM     38  C   UNL     1      -4.726   1.500   7.828  1.00  0.00     0.010 A 
ATOM     39  C   UNL     1      -3.454   1.672   8.382  1.00  0.00    -0.014 A 
BRANCH  39  40
ATOM     40  C   UNL     1      -3.280   2.817   9.287  1.00  0.00     0.031 A 
ATOM     41  C   UNL     1      -4.168   2.906  10.498  1.00  0.00     0.074 A 
ATOM     42  C   UNL     1      -2.419   3.790   8.951  1.00  0.00     0.049 A 
ATOM     43  N   UNL     1      -4.294   3.877  11.361  1.00  0.00    -0.248 NA
ATOM     44  C   UNL     1      -5.094   1.780  10.730  1.00  0.00     0.031 C 
ATOM     45  C   UNL     1      -1.591   3.813   7.743  1.00  0.00     0.029 A 
ATOM     46  N   UNL     1      -2.106   4.952   9.595  1.00  0.00    -0.354 N 
ATOM     47  C   UNL     1      -5.330   3.491  12.203  1.00  0.00     0.074 A 
ATOM     48  C   UNL     1      -5.867   2.255  11.691  1.00  0.00     0.031 C 
ATOM     49  C   UNL     1      -0.827   4.916   7.759  1.00  0.00     0.029 A 
ATOM     50  C   UNL     1      -1.141   5.687   8.956  1.00  0.00     0.049 A 
ATOM     51  H   UNL     1      -2.531   5.236  10.437  1.00  0.00     0.167 HD
ATOM     52  C   UNL     1      -5.756   4.096  13.334  1.00  0.00     0.037 A 
ATOM     53  C   UNL     1      -0.574   6.849   9.322  1.00  0.00     0.037 A 
ATOM     54  C   UNL     1      -5.152   5.293  13.847  1.00  0.00     0.049 A 
ATOM     55  C   UNL     1      -1.017   7.466  10.621  1.00  0.00     0.074 A 
ATOM     56  C   UNL     1      -5.431   5.974  15.016  1.00  0.00     0.029 A 
ATOM     57  N   UNL     1      -4.123   5.978  13.213  1.00  0.00    -0.354 N 
ATOM     58  N   UNL     1      -1.945   7.063  11.457  1.00  0.00    -0.248 NA
ATOM     59  C   UNL     1      -0.320   8.686  11.038  1.00  0.00     0.031 C 
ATOM     60  C   UNL     1      -4.595   7.095  15.069  1.00  0.00     0.029 A 
ATOM     61  C   UNL     1      -3.757   7.080  13.963  1.00  0.00     0.049 A 
ATOM     62  H   UNL     1      -3.714   5.717  12.356  1.00  0.00     0.167 HD
ATOM     63  C   UNL     1      -1.923   7.958  12.516  1.00  0.00     0.074 A 
ATOM     64  C   UNL     1      -0.873   8.914  12.221  1.00  0.00     0.031 C 
ATOM     65  C   UNL     1      -2.696   7.997  13.630  1.00  0.00     0.037 A 
BRANCH  52  66
ATOM     66  C   UNL     1      -6.895   3.458  14.079  1.00  0.00     0.064 A 
ATOM     67  C   UNL     1      -6.771   2.196  14.684  1.00  0.00     0.173 A 
ATOM     68  C   UNL     1      -8.131   4.112  14.187  1.00  0.00     0.173 A 
ATOM     69  F   UNL     1      -5.618   1.514  14.597  1.00  0.00    -0.203 F 
ATOM     70  C   UNL     1      -7.850   1.596  15.329  1.00  0.00     0.198 A 
ATOM     71  C   UNL     1      -9.197   3.526  14.867  1.00  0.00     0.198 A 
ATOM     72  F   UNL     1      -8.311   5.317  13.627  1.00  0.00    -0.203 F 
ATOM     73  F   UNL     1      -7.724   0.361  15.834  1.00  0.00    -0.200 F 
ATOM     74  C   UNL     1      -9.059   2.265  15.427  1.00  0.00     0.200 A 
ATOM     75  F   UNL     1     -10.363   4.178  14.970  1.00  0.00    -0.200 F 
ATOM     76  F   UNL     1     -10.096   1.690  16.051  1.00  0.00    -0.200 F 
ENDBRANCH  52  66
BRANCH  53  77
ATOM     77  C   UNL     1       0.505   7.444   8.494  1.00  0.00     0.064 A 
ATOM     78  C   UNL     1       1.828   7.476   8.957  1.00  0.00     0.173 A 
ATOM     79  C   UNL     1       0.248   7.969   7.220  1.00  0.00     0.173 A 
ATOM     80  F   UNL     1       2.125   6.988  10.171  1.00  0.00    -0.203 F 
ATOM     81  C   UNL     1       2.847   8.040   8.191  1.00  0.00     0.198 A 
ATOM     82  C   UNL     1       1.273   8.504   6.442  1.00  0.00     0.198 A 
ATOM     83  F   UNL     1      -0.996   7.942   6.720  1.00  0.00    -0.203 F 
ATOM     84  F   UNL     1       4.094   8.098   8.678  1.00  0.00    -0.200 F 
ATOM     85  C   UNL     1       2.569   8.549   6.932  1.00  0.00     0.200 A 
ATOM     86  F   UNL     1       1.005   8.974   5.215  1.00  0.00    -0.200 F 
ATOM     87  F   UNL     1       3.550   9.085   6.193  1.00  0.00    -0.200 F 
ENDBRANCH  53  77
BRANCH  65  88
ATOM     88  C   UNL     1      -2.394   9.081  14.621  1.00  0.00     0.064 A 
ATOM     89  C   UNL     1      -2.676  10.428  14.350  1.00  0.00     0.173 A 
ATOM     90  C   UNL     1      -1.839   8.759  15.869  1.00  0.00     0.173 A 
ATOM     91  F   UNL     1      -3.196  10.784  13.165  1.00  0.00    -0.203 F 
ATOM     92  C   UNL     1      -2.373  11.419  15.277  1.00  0.00     0.198 A 
ATOM     93  C   UNL     1      -1.574   9.749  16.808  1.00  0.00     0.198 A 
ATOM     94  F   UNL     1      -1.565   7.483  16.180  1.00  0.00    -0.203 F 
ATOM     95  F   UNL     1      -2.588  12.706  14.972  1.00  0.00    -0.200 F 
ATOM     96  C   UNL     1      -1.829  11.079  16.507  1.00  0.00     0.200 A 
ATOM     97  F   UNL     1      -1.067   9.417  18.004  1.00  0.00    -0.200 F 
ATOM     98  F   UNL     1      -1.541  12.035  17.400  1.00  0.00    -0.200 F 
ENDBRANCH  65  88
ENDBRANCH  39  40
ENDBRANCH  31  34
ENDBRANCH  29  30
ENDBRANCH  28  29
ENDBRANCH   1  28
TORSDOF 15
