REMARK SMILES C#CCN(CC(=O)NCCCNC(=O)c1ccc(-c2c3nc(c(-c4c(F)c(F)c(F)c(F)c4F)c4ccc([nH]4)c(-c4c(F)c(F)c(F)c(F)c4F)c4nc(c(-c5c(F)c(F)c(F)c(F)c5F)c5ccc2[nH]5)C=C4)C=C3)cc1)C(=O)N(C)[C@H](C)c1cccs1
REMARK SMILES IDX 6 1 7 2 8 3 5 5 4 6 3 7 2 8 1 9 78 10 79 11 80 12 81 13
REMARK SMILES IDX 82 14 83 15 84 16 85 17 88 18 86 19 87 20 9 21 10 22 11 23
REMARK SMILES IDX 12 24 13 25 14 27 15 28 16 29 77 30 17 31 76 32 18 33 19 34
REMARK SMILES IDX 20 35 70 36 21 37 75 38 69 39 71 40 22 41 74 42 68 43 67 44
REMARK SMILES IDX 23 46 55 47 35 48 54 49 36 50 39 51 53 52 72 53 37 54 38 55
REMARK SMILES IDX 52 57 73 58 40 59 24 60 25 61 33 62 26 63 27 64 31 65 34 66
REMARK SMILES IDX 28 67 29 68 32 69 30 70 56 71 57 72 65 73 58 74 59 75 63 76
REMARK SMILES IDX 66 77 60 78 61 79 64 80 62 81 41 82 42 83 50 84 43 85 44 86
REMARK SMILES IDX 48 87 51 88 45 89 46 90 49 91 47 92
REMARK H PARENT 8 4 12 26 71 45 39 56
REMARK Flexibility Score: inf
ROOT
ATOM      1  C   UNL     1      -2.527   1.232   7.309  1.00  0.00     0.239 C 
ATOM      2  O   UNL     1      -2.259   2.180   8.053  1.00  0.00    -0.273 OA
ATOM      3  N   UNL     1      -1.653   0.186   7.287  1.00  0.00    -0.354 N 
ATOM      4  H   UNL     1      -0.757   0.377   7.648  1.00  0.00     0.163 HD
ENDROOT
BRANCH   1   5
ATOM      5  C   UNL     1      -3.868   1.175   6.563  1.00  0.00     0.222 C 
BRANCH   5   6
ATOM      6  N   UNL     1      -3.779   0.885   5.129  1.00  0.00    -0.304 N 
BRANCH   6   7
ATOM      7  C   UNL     1      -4.411  -0.369   4.699  1.00  0.00     0.211 C 
BRANCH   7   8
ATOM      8  C   UNL     1      -5.583  -0.127   3.762  1.00  0.00    -0.085 C 
ATOM      9  C   UNL     1      -6.588   0.081   2.958  1.00  0.00     0.006 C 
ENDBRANCH   7   8
ENDBRANCH   6   7
BRANCH   6  10
ATOM     10  C   UNL     1      -3.150   1.607   4.125  1.00  0.00     0.321 C 
ATOM     11  O   UNL     1      -2.893   1.002   3.077  1.00  0.00    -0.248 OA
BRANCH  10  12
ATOM     12  N   UNL     1      -2.829   2.948   4.243  1.00  0.00    -0.320 N 
ATOM     13  C   UNL     1      -2.991   3.803   5.412  1.00  0.00     0.149 C 
BRANCH  12  14
ATOM     14  C   UNL     1      -2.162   3.644   3.111  1.00  0.00     0.124 C 
ATOM     15  C   UNL     1      -2.530   3.247   1.676  1.00  0.00     0.037 C 
BRANCH  14  16
ATOM     16  C   UNL     1      -0.664   3.735   3.323  1.00  0.00     0.027 A 
ATOM     17  C   UNL     1       0.090   4.892   3.426  1.00  0.00     0.017 A 
ATOM     18  S   UNL     1       0.330   2.341   3.439  1.00  0.00    -0.147 S 
ATOM     19  C   UNL     1       1.480   4.630   3.585  1.00  0.00     0.012 A 
ATOM     20  C   UNL     1       1.748   3.281   3.604  1.00  0.00     0.065 A 
ENDBRANCH  14  16
ENDBRANCH  12  14
ENDBRANCH  10  12
ENDBRANCH   6  10
ENDBRANCH   5   6
ENDBRANCH   1   5
BRANCH   3  21
ATOM     21  C   UNL     1      -1.853  -1.165   6.808  1.00  0.00     0.117 C 
BRANCH  21  22
ATOM     22  C   UNL     1      -1.138  -1.457   5.495  1.00  0.00     0.042 C 
BRANCH  22  23
ATOM     23  C   UNL     1       0.383  -1.413   5.575  1.00  0.00     0.118 C 
BRANCH  23  24
ATOM     24  N   UNL     1       0.923  -2.373   6.528  1.00  0.00    -0.352 N 
ATOM     25  C   UNL     1       1.755  -3.446   6.358  1.00  0.00     0.251 C 
ATOM     26  H   UNL     1       0.640  -2.223   7.459  1.00  0.00     0.163 HD
ATOM     27  O   UNL     1       1.910  -4.230   7.295  1.00  0.00    -0.269 OA
BRANCH  25  28
ATOM     28  C   UNL     1       2.469  -3.690   5.084  1.00  0.00     0.039 A 
ATOM     29  C   UNL     1       2.681  -5.016   4.686  1.00  0.00     0.014 A 
ATOM     30  C   UNL     1       3.007  -2.648   4.324  1.00  0.00     0.014 A 
ATOM     31  C   UNL     1       3.393  -5.293   3.517  1.00  0.00     0.010 A 
ATOM     32  C   UNL     1       3.654  -2.921   3.119  1.00  0.00     0.010 A 
ATOM     33  C   UNL     1       3.868  -4.246   2.713  1.00  0.00    -0.014 A 
BRANCH  33  34
ATOM     34  C   UNL     1       4.613  -4.525   1.459  1.00  0.00     0.031 A 
ATOM     35  C   UNL     1       6.065  -4.155   1.341  1.00  0.00     0.074 A 
ATOM     36  C   UNL     1       3.970  -5.074   0.412  1.00  0.00     0.049 A 
ATOM     37  N   UNL     1       6.873  -4.283   0.318  1.00  0.00    -0.248 NA
ATOM     38  C   UNL     1       6.688  -3.537   2.522  1.00  0.00     0.031 C 
ATOM     39  C   UNL     1       2.552  -5.435   0.386  1.00  0.00     0.029 A 
ATOM     40  N   UNL     1       4.424  -5.419  -0.836  1.00  0.00    -0.354 N 
ATOM     41  C   UNL     1       8.087  -3.746   0.725  1.00  0.00     0.074 A 
ATOM     42  C   UNL     1       7.901  -3.250   2.072  1.00  0.00     0.031 C 
ATOM     43  C   UNL     1       2.257  -5.973  -0.808  1.00  0.00     0.029 A 
ATOM     44  C   UNL     1       3.457  -5.968  -1.641  1.00  0.00     0.049 A 
ATOM     45  H   UNL     1       5.355  -5.285  -1.127  1.00  0.00     0.167 HD
ATOM     46  C   UNL     1       9.258  -3.690   0.046  1.00  0.00     0.037 A 
ATOM     47  C   UNL     1       3.531  -6.420  -2.906  1.00  0.00     0.037 A 
ATOM     48  C   UNL     1       9.451  -4.212  -1.282  1.00  0.00     0.049 A 
ATOM     49  C   UNL     1       4.848  -6.370  -3.630  1.00  0.00     0.074 A 
ATOM     50  C   UNL     1      10.611  -4.251  -2.036  1.00  0.00     0.029 A 
ATOM     51  N   UNL     1       8.454  -4.793  -2.052  1.00  0.00    -0.354 N 
ATOM     52  N   UNL     1       6.004  -5.915  -3.213  1.00  0.00    -0.248 NA
ATOM     53  C   UNL     1       4.872  -6.909  -4.997  1.00  0.00     0.031 C 
ATOM     54  C   UNL     1      10.310  -4.828  -3.274  1.00  0.00     0.029 A 
ATOM     55  C   UNL     1       8.971  -5.184  -3.277  1.00  0.00     0.049 A 
ATOM     56  H   UNL     1       7.518  -4.910  -1.770  1.00  0.00     0.167 HD
ATOM     57  C   UNL     1       6.898  -6.136  -4.251  1.00  0.00     0.074 A 
ATOM     58  C   UNL     1       6.153  -6.778  -5.315  1.00  0.00     0.031 C 
ATOM     59  C   UNL     1       8.218  -5.835  -4.317  1.00  0.00     0.037 A 
BRANCH  46  60
ATOM     60  C   UNL     1      10.426  -3.046   0.733  1.00  0.00     0.064 A 
ATOM     61  C   UNL     1      11.079  -3.667   1.808  1.00  0.00     0.173 A 
ATOM     62  C   UNL     1      10.919  -1.808   0.293  1.00  0.00     0.173 A 
ATOM     63  F   UNL     1      10.639  -4.846   2.274  1.00  0.00    -0.203 F 
ATOM     64  C   UNL     1      12.163  -3.060   2.437  1.00  0.00     0.198 A 
ATOM     65  C   UNL     1      12.020  -1.216   0.906  1.00  0.00     0.198 A 
ATOM     66  F   UNL     1      10.335  -1.174  -0.735  1.00  0.00    -0.203 F 
ATOM     67  F   UNL     1      12.740  -3.650   3.492  1.00  0.00    -0.200 F 
ATOM     68  C   UNL     1      12.636  -1.839   1.982  1.00  0.00     0.200 A 
ATOM     69  F   UNL     1      12.483  -0.041   0.459  1.00  0.00    -0.200 F 
ATOM     70  F   UNL     1      13.682  -1.257   2.585  1.00  0.00    -0.200 F 
ENDBRANCH  46  60
BRANCH  47  71
ATOM     71  C   UNL     1       2.329  -7.003  -3.553  1.00  0.00     0.064 A 
ATOM     72  C   UNL     1       2.236  -8.383  -3.779  1.00  0.00     0.173 A 
ATOM     73  C   UNL     1       1.250  -6.200  -3.950  1.00  0.00     0.173 A 
ATOM     74  F   UNL     1       3.252  -9.187  -3.433  1.00  0.00    -0.203 F 
ATOM     75  C   UNL     1       1.115  -8.938  -4.392  1.00  0.00     0.198 A 
ATOM     76  C   UNL     1       0.119  -6.759  -4.542  1.00  0.00     0.198 A 
ATOM     77  F   UNL     1       1.291  -4.875  -3.752  1.00  0.00    -0.203 F 
ATOM     78  F   UNL     1       1.068 -10.255  -4.630  1.00  0.00    -0.200 F 
ATOM     79  C   UNL     1       0.055  -8.126  -4.768  1.00  0.00     0.200 A 
ATOM     80  F   UNL     1      -0.908  -5.974  -4.894  1.00  0.00    -0.200 F 
ATOM     81  F   UNL     1      -1.024  -8.661  -5.354  1.00  0.00    -0.200 F 
ENDBRANCH  47  71
BRANCH  59  82
ATOM     82  C   UNL     1       8.949  -6.233  -5.564  1.00  0.00     0.064 A 
ATOM     83  C   UNL     1       8.773  -5.542  -6.771  1.00  0.00     0.173 A 
ATOM     84  C   UNL     1       9.861  -7.299  -5.540  1.00  0.00     0.173 A 
ATOM     85  F   UNL     1       7.901  -4.526  -6.847  1.00  0.00    -0.203 F 
ATOM     86  C   UNL     1       9.468  -5.920  -7.918  1.00  0.00     0.198 A 
ATOM     87  C   UNL     1      10.572  -7.657  -6.682  1.00  0.00     0.198 A 
ATOM     88  F   UNL     1      10.067  -7.987  -4.408  1.00  0.00    -0.203 F 
ATOM     89  F   UNL     1       9.253  -5.274  -9.072  1.00  0.00    -0.200 F 
ATOM     90  C   UNL     1      10.370  -6.972  -7.870  1.00  0.00     0.200 A 
ATOM     91  F   UNL     1      11.450  -8.668  -6.633  1.00  0.00    -0.200 F 
ATOM     92  F   UNL     1      11.040  -7.332  -8.974  1.00  0.00    -0.200 F 
ENDBRANCH  59  82
ENDBRANCH  33  34
ENDBRANCH  25  28
ENDBRANCH  23  24
ENDBRANCH  22  23
ENDBRANCH  21  22
ENDBRANCH   3  21
TORSDOF 17
