REMARK SMILES O=C(Cc1ccccc1Nc1c(F)cccc1C(F)(F)F)NCCCNC(=O)c1ccc(-c2c3nc(c(-c4c(F)c(F)c(F)c(F)c4F)c4ccc([nH]4)c(-c4c(F)c(F)c(F)c(F)c4F)c4nc(c(-c5c(F)c(F)c(F)c(F)c5F)c5ccc2[nH]5)C=C4)C=C3)cc1
REMARK SMILES IDX 23 1 22 2 1 3 2 4 3 6 4 7 5 8 9 9 6 10 8 11 7 12 10 13 11 15
REMARK SMILES IDX 12 16 17 17 13 18 14 19 16 20 15 21 18 22 19 23 20 24 21 25
REMARK SMILES IDX 24 26 25 27 26 28 27 29 28 31 29 32 30 33 91 34 31 35 90 36
REMARK SMILES IDX 32 37 33 38 34 39 84 40 35 41 89 42 83 43 85 44 36 45 88 46
REMARK SMILES IDX 82 47 81 48 37 50 69 51 49 52 68 53 50 54 53 55 67 56 86 57
REMARK SMILES IDX 51 58 52 59 66 61 87 62 54 63 38 64 39 65 47 66 40 67 41 68
REMARK SMILES IDX 45 69 48 70 42 71 43 72 46 73 44 74 70 75 71 76 79 77 72 78
REMARK SMILES IDX 73 79 77 80 80 81 74 82 75 83 78 84 76 85 55 86 56 87 64 88
REMARK SMILES IDX 57 89 58 90 62 91 65 92 59 93 60 94 63 95 61 96
REMARK H PARENT 22 5 10 14 26 30 85 49 53 60
REMARK Flexibility Score: inf
ROOT
ATOM      1  C   UNL     1       2.258   0.127  -2.357  1.00  0.00     0.117 C 
ENDROOT
BRANCH   1   2
ATOM      2  N   UNL     1       2.888  -0.070  -1.068  1.00  0.00    -0.356 N 
ATOM      3  O   UNL     1       0.957   0.119   0.158  1.00  0.00    -0.275 OA
ATOM      4  C   UNL     1       2.169  -0.075   0.107  1.00  0.00     0.224 C 
ATOM      5  H   UNL     1       3.863  -0.205  -1.030  1.00  0.00     0.163 HD
BRANCH   4   6
ATOM      6  C   UNL     1       2.999  -0.246   1.365  1.00  0.00     0.137 C 
BRANCH   6   7
ATOM      7  C   UNL     1       3.898  -1.466   1.364  1.00  0.00    -0.015 A 
ATOM      8  C   UNL     1       3.282  -2.733   1.312  1.00  0.00     0.006 A 
ATOM      9  C   UNL     1       5.307  -1.382   1.424  1.00  0.00     0.042 A 
ATOM     10  C   UNL     1       4.039  -3.902   1.325  1.00  0.00     0.000 A 
ATOM     11  C   UNL     1       6.045  -2.577   1.461  1.00  0.00     0.026 A 
ATOM     12  C   UNL     1       5.422  -3.824   1.409  1.00  0.00     0.002 A 
BRANCH   9  13
ATOM     13  N   UNL     1       5.957  -0.128   1.410  1.00  0.00    -0.352 N 
ATOM     14  H   UNL     1       5.377   0.643   1.605  1.00  0.00     0.167 HD
BRANCH  13  15
ATOM     15  C   UNL     1       7.312   0.193   1.162  1.00  0.00     0.087 A 
ATOM     16  C   UNL     1       7.974   0.975   2.132  1.00  0.00     0.147 A 
ATOM     17  C   UNL     1       8.058  -0.272   0.065  1.00  0.00     0.082 A 
ATOM     18  F   UNL     1       7.268   1.462   3.166  1.00  0.00    -0.205 F 
ATOM     19  C   UNL     1       9.335   1.250   2.070  1.00  0.00     0.041 A 
ATOM     20  C   UNL     1       9.449  -0.012   0.027  1.00  0.00     0.015 A 
ATOM     21  C   UNL     1      10.083   0.737   1.020  1.00  0.00     0.004 A 
BRANCH  17  22
ATOM     22  C   UNL     1       7.456  -1.009  -1.109  1.00  0.00     0.418 C 
ATOM     23  F   UNL     1       8.062  -0.659  -2.285  1.00  0.00    -0.166 F 
ATOM     24  F   UNL     1       7.611  -2.359  -1.020  1.00  0.00    -0.166 F 
ATOM     25  F   UNL     1       6.129  -0.776  -1.327  1.00  0.00    -0.166 F 
ENDBRANCH  17  22
ENDBRANCH  13  15
ENDBRANCH   9  13
ENDBRANCH   6   7
ENDBRANCH   4   6
ENDBRANCH   1   2
BRANCH   1  26
ATOM     26  C   UNL     1       2.548   1.506  -2.937  1.00  0.00     0.042 C 
BRANCH  26  27
ATOM     27  C   UNL     1       4.023   1.761  -3.232  1.00  0.00     0.118 C 
BRANCH  27  28
ATOM     28  N   UNL     1       4.559   0.884  -4.265  1.00  0.00    -0.352 N 
ATOM     29  C   UNL     1       5.186   1.184  -5.447  1.00  0.00     0.251 C 
ATOM     30  H   UNL     1       4.456  -0.078  -4.085  1.00  0.00     0.163 HD
ATOM     31  O   UNL     1       5.425   0.288  -6.257  1.00  0.00    -0.269 OA
BRANCH  29  32
ATOM     32  C   UNL     1       5.559   2.577  -5.775  1.00  0.00     0.039 A 
ATOM     33  C   UNL     1       5.359   3.041  -7.080  1.00  0.00     0.014 A 
ATOM     34  C   UNL     1       6.130   3.420  -4.818  1.00  0.00     0.014 A 
ATOM     35  C   UNL     1       5.663   4.366  -7.404  1.00  0.00     0.010 A 
ATOM     36  C   UNL     1       6.359   4.760  -5.121  1.00  0.00     0.010 A 
ATOM     37  C   UNL     1       6.129   5.248  -6.417  1.00  0.00    -0.014 A 
BRANCH  37  38
ATOM     38  C   UNL     1       6.388   6.682  -6.712  1.00  0.00     0.031 A 
ATOM     39  C   UNL     1       7.778   7.241  -6.573  1.00  0.00     0.074 A 
ATOM     40  C   UNL     1       5.364   7.498  -7.027  1.00  0.00     0.049 A 
ATOM     41  N   UNL     1       8.187   8.482  -6.664  1.00  0.00    -0.248 NA
ATOM     42  C   UNL     1       8.846   6.279  -6.261  1.00  0.00     0.031 C 
ATOM     43  C   UNL     1       3.966   7.088  -7.163  1.00  0.00     0.029 A 
ATOM     44  N   UNL     1       5.339   8.850  -7.272  1.00  0.00    -0.354 N 
ATOM     45  C   UNL     1       9.550   8.451  -6.402  1.00  0.00     0.074 A 
ATOM     46  C   UNL     1       9.891   7.077  -6.098  1.00  0.00     0.031 C 
ATOM     47  C   UNL     1       3.222   8.160  -7.479  1.00  0.00     0.029 A 
ATOM     48  C   UNL     1       4.080   9.340  -7.523  1.00  0.00     0.049 A 
ATOM     49  H   UNL     1       6.146   9.413  -7.268  1.00  0.00     0.167 HD
ATOM     50  C   UNL     1      10.441   9.471  -6.432  1.00  0.00     0.037 A 
ATOM     51  C   UNL     1       3.662  10.601  -7.745  1.00  0.00     0.037 A 
ATOM     52  C   UNL     1      10.104  10.832  -6.757  1.00  0.00     0.049 A 
ATOM     53  C   UNL     1       4.669  11.721  -7.751  1.00  0.00     0.074 A 
ATOM     54  C   UNL     1      10.944  11.927  -6.867  1.00  0.00     0.029 A 
ATOM     55  N   UNL     1       8.820  11.287  -7.023  1.00  0.00    -0.354 N 
ATOM     56  N   UNL     1       5.965  11.671  -7.557  1.00  0.00    -0.248 NA
ATOM     57  C   UNL     1       4.154  13.073  -8.010  1.00  0.00     0.031 C 
ATOM     58  C   UNL     1      10.162  13.053  -7.146  1.00  0.00     0.029 A 
ATOM     59  C   UNL     1       8.843  12.650  -7.272  1.00  0.00     0.049 A 
ATOM     60  H   UNL     1       8.012  10.724  -7.034  1.00  0.00     0.167 HD
ATOM     61  C   UNL     1       6.423  12.973  -7.706  1.00  0.00     0.074 A 
ATOM     62  C   UNL     1       5.269  13.790  -8.017  1.00  0.00     0.031 C 
ATOM     63  C   UNL     1       7.688  13.449  -7.596  1.00  0.00     0.037 A 
BRANCH  50  64
ATOM     64  C   UNL     1      11.872   9.155  -6.100  1.00  0.00     0.064 A 
ATOM     65  C   UNL     1      12.674   8.380  -6.952  1.00  0.00     0.173 A 
ATOM     66  C   UNL     1      12.460   9.664  -4.931  1.00  0.00     0.173 A 
ATOM     67  F   UNL     1      12.159   7.860  -8.076  1.00  0.00    -0.203 F 
ATOM     68  C   UNL     1      13.999   8.098  -6.630  1.00  0.00     0.198 A 
ATOM     69  C   UNL     1      13.796   9.409  -4.631  1.00  0.00     0.198 A 
ATOM     70  F   UNL     1      11.743  10.417  -4.084  1.00  0.00    -0.203 F 
ATOM     71  F   UNL     1      14.728   7.310  -7.432  1.00  0.00    -0.200 F 
ATOM     72  C   UNL     1      14.561   8.619  -5.475  1.00  0.00     0.200 A 
ATOM     73  F   UNL     1      14.341   9.925  -3.521  1.00  0.00    -0.200 F 
ATOM     74  F   UNL     1      15.839   8.353  -5.170  1.00  0.00    -0.200 F 
ENDBRANCH  50  64
BRANCH  51  75
ATOM     75  C   UNL     1       2.222  10.875  -7.994  1.00  0.00     0.064 A 
ATOM     76  C   UNL     1       1.778  11.302  -9.254  1.00  0.00     0.173 A 
ATOM     77  C   UNL     1       1.263  10.732  -6.981  1.00  0.00     0.173 A 
ATOM     78  F   UNL     1       2.660  11.476 -10.250  1.00  0.00    -0.203 F 
ATOM     79  C   UNL     1       0.436  11.597  -9.484  1.00  0.00     0.198 A 
ATOM     80  C   UNL     1      -0.084  10.997  -7.220  1.00  0.00     0.198 A 
ATOM     81  F   UNL     1       1.634  10.323  -5.758  1.00  0.00    -0.203 F 
ATOM     82  F   UNL     1       0.049  12.054 -10.683  1.00  0.00    -0.200 F 
ATOM     83  C   UNL     1      -0.494  11.439  -8.468  1.00  0.00     0.200 A 
ATOM     84  F   UNL     1      -0.982  10.829  -6.240  1.00  0.00    -0.200 F 
ATOM     85  F   UNL     1      -1.785  11.722  -8.690  1.00  0.00    -0.200 F 
ENDBRANCH  51  75
BRANCH  63  86
ATOM     86  C   UNL     1       7.903  14.912  -7.863  1.00  0.00     0.064 A 
ATOM     87  C   UNL     1       7.456  15.901  -6.975  1.00  0.00     0.173 A 
ATOM     88  C   UNL     1       8.607  15.325  -9.006  1.00  0.00     0.173 A 
ATOM     89  F   UNL     1       6.766  15.560  -5.876  1.00  0.00    -0.203 F 
ATOM     90  C   UNL     1       7.683  17.251  -7.234  1.00  0.00     0.198 A 
ATOM     91  C   UNL     1       8.861  16.673  -9.244  1.00  0.00     0.198 A 
ATOM     92  F   UNL     1       9.063  14.419  -9.884  1.00  0.00    -0.203 F 
ATOM     93  F   UNL     1       7.204  18.181  -6.397  1.00  0.00    -0.200 F 
ATOM     94  C   UNL     1       8.392  17.635  -8.363  1.00  0.00     0.200 A 
ATOM     95  F   UNL     1       9.560  17.040 -10.327  1.00  0.00    -0.200 F 
ATOM     96  F   UNL     1       8.617  18.933  -8.605  1.00  0.00    -0.200 F 
ENDBRANCH  63  86
ENDBRANCH  37  38
ENDBRANCH  29  32
ENDBRANCH  27  28
ENDBRANCH  26  27
ENDBRANCH   1  26
TORSDOF 14
