REMARK SMILES CN(C)S(=O)(=O)c1c[nH]c(C(=O)NCCCNC(=O)c2ccc(-c3c4nc(c(-c5c(F)c(F)c(F)c(F)c5F)c5ccc([nH]5)c(-c5c(F)c(F)c(F)c(F)c5F)c5nc(c(-c6c(F)c(F)c(F)c(F)c6F)c6ccc3[nH]6)C=C5)C=C4)cc2)c1
REMARK SMILES IDX 15 1 14 2 13 3 11 4 12 5 10 7 7 8 8 9 83 10 9 11 4 13 5 14
REMARK SMILES IDX 6 15 2 16 1 17 3 18 16 19 17 20 18 21 19 23 20 24 21 25
REMARK SMILES IDX 82 26 22 27 81 28 23 29 24 30 25 31 75 32 26 33 80 34 74 35
REMARK SMILES IDX 76 36 27 37 79 38 73 39 72 40 28 42 60 43 40 44 59 45 41 46
REMARK SMILES IDX 44 47 58 48 77 49 42 50 43 51 57 53 78 54 45 55 29 56 30 57
REMARK SMILES IDX 38 58 31 59 32 60 36 61 39 62 33 63 34 64 37 65 35 66 61 67
REMARK SMILES IDX 62 68 70 69 63 70 64 71 68 72 71 73 65 74 66 75 69 76 67 77
REMARK SMILES IDX 46 78 47 79 55 80 48 81 49 82 53 83 56 84 50 85 51 86 54 87
REMARK SMILES IDX 52 88
REMARK H PARENT 13 6 9 12 17 22 76 41 44 52
REMARK Flexibility Score: inf
ROOT
ATOM      1  C   UNL     1      -0.673  -1.302   7.809  1.00  0.00     0.042 C 
ENDROOT
BRANCH   1   2
ATOM      2  C   UNL     1      -1.704  -0.283   7.312  1.00  0.00     0.118 C 
BRANCH   2   3
ATOM      3  N   UNL     1      -1.399   1.059   7.769  1.00  0.00    -0.351 N 
ATOM      4  C   UNL     1      -0.743   2.094   7.155  1.00  0.00     0.267 C 
ATOM      5  O   UNL     1      -0.731   3.175   7.744  1.00  0.00    -0.268 OA
ATOM      6  H   UNL     1      -1.719   1.262   8.678  1.00  0.00     0.163 HD
BRANCH   4   7
ATOM      7  C   UNL     1      -0.128   1.943   5.854  1.00  0.00     0.105 A 
ATOM      8  C   UNL     1       0.738   1.327   3.842  1.00  0.00     0.100 A 
ATOM      9  C   UNL     1       0.742   2.704   3.900  1.00  0.00     0.104 A 
ATOM     10  C   UNL     1       0.245   0.854   5.084  1.00  0.00     0.055 A 
ATOM     11  N   UNL     1       0.253   3.061   5.129  1.00  0.00    -0.356 N 
ATOM     12  H   UNL     1       0.181   3.988   5.453  1.00  0.00     0.166 HD
BRANCH   8  13
ATOM     13  S   UNL     1       1.232   0.328   2.521  1.00  0.00     0.244 S 
ATOM     14  O   UNL     1       0.681  -0.983   2.840  1.00  0.00    -0.207 OA
ATOM     15  O   UNL     1       2.647   0.549   2.413  1.00  0.00    -0.207 OA
BRANCH  13  16
ATOM     16  N   UNL     1       0.471   0.870   1.091  1.00  0.00    -0.204 NA
ATOM     17  C   UNL     1       0.959   0.149  -0.108  1.00  0.00     0.124 C 
ATOM     18  C   UNL     1      -1.007   0.892   1.139  1.00  0.00     0.124 C 
ENDBRANCH  13  16
ENDBRANCH   8  13
ENDBRANCH   4   7
ENDBRANCH   2   3
ENDBRANCH   1   2
BRANCH   1  19
ATOM     19  C   UNL     1      -0.969  -1.759   9.239  1.00  0.00     0.118 C 
BRANCH  19  20
ATOM     20  N   UNL     1      -2.159  -2.598   9.270  1.00  0.00    -0.352 N 
ATOM     21  C   UNL     1      -2.811  -3.230  10.293  1.00  0.00     0.251 C 
ATOM     22  H   UNL     1      -2.573  -2.736   8.388  1.00  0.00     0.163 HD
ATOM     23  O   UNL     1      -3.625  -4.105  10.000  1.00  0.00    -0.269 OA
BRANCH  21  24
ATOM     24  C   UNL     1      -2.565  -2.931  11.721  1.00  0.00     0.039 A 
ATOM     25  C   UNL     1      -2.729  -3.990  12.628  1.00  0.00     0.014 A 
ATOM     26  C   UNL     1      -2.270  -1.651  12.200  1.00  0.00     0.014 A 
ATOM     27  C   UNL     1      -2.537  -3.788  13.990  1.00  0.00     0.010 A 
ATOM     28  C   UNL     1      -2.050  -1.446  13.562  1.00  0.00     0.010 A 
ATOM     29  C   UNL     1      -2.159  -2.522  14.451  1.00  0.00    -0.014 A 
BRANCH  29  30
ATOM     30  C   UNL     1      -1.645  -2.406  15.836  1.00  0.00     0.031 A 
ATOM     31  C   UNL     1      -0.184  -2.910  15.932  1.00  0.00     0.074 A 
ATOM     32  C   UNL     1      -2.497  -1.904  16.781  1.00  0.00     0.049 A 
ATOM     33  N   UNL     1       0.497  -3.329  16.955  1.00  0.00    -0.248 NA
ATOM     34  C   UNL     1       0.634  -3.001  14.686  1.00  0.00     0.031 C 
ATOM     35  C   UNL     1      -3.864  -1.413  16.501  1.00  0.00     0.029 A 
ATOM     36  N   UNL     1      -2.413  -1.700  18.148  1.00  0.00    -0.354 N 
ATOM     37  C   UNL     1       1.834  -3.524  16.532  1.00  0.00     0.074 A 
ATOM     38  C   UNL     1       1.829  -3.420  15.108  1.00  0.00     0.031 C 
ATOM     39  C   UNL     1      -4.494  -1.052  17.641  1.00  0.00     0.029 A 
ATOM     40  C   UNL     1      -3.610  -1.248  18.774  1.00  0.00     0.049 A 
ATOM     41  H   UNL     1      -1.582  -1.857  18.653  1.00  0.00     0.167 HD
ATOM     42  C   UNL     1       2.887  -3.613  17.400  1.00  0.00     0.037 A 
ATOM     43  C   UNL     1      -3.881  -1.080  20.109  1.00  0.00     0.037 A 
ATOM     44  C   UNL     1       2.409  -3.582  18.737  1.00  0.00     0.049 A 
ATOM     45  C   UNL     1      -2.587  -1.251  20.779  1.00  0.00     0.074 A 
ATOM     46  C   UNL     1       1.721  -4.496  19.488  1.00  0.00     0.029 A 
ATOM     47  N   UNL     1       2.332  -2.350  19.336  1.00  0.00    -0.354 N 
ATOM     48  N   UNL     1      -1.637  -0.365  20.773  1.00  0.00    -0.248 NA
ATOM     49  C   UNL     1      -2.303  -2.521  21.456  1.00  0.00     0.031 C 
ATOM     50  C   UNL     1       0.852  -3.694  20.252  1.00  0.00     0.029 A 
ATOM     51  C   UNL     1       1.196  -2.345  20.101  1.00  0.00     0.049 A 
ATOM     52  H   UNL     1       2.972  -1.609  19.234  1.00  0.00     0.167 HD
ATOM     53  C   UNL     1      -0.550  -1.116  21.144  1.00  0.00     0.074 A 
ATOM     54  C   UNL     1      -1.061  -2.266  21.858  1.00  0.00     0.031 C 
ATOM     55  C   UNL     1       0.567  -1.077  20.376  1.00  0.00     0.037 A 
BRANCH  42  56
ATOM     56  C   UNL     1       4.377  -3.475  17.219  1.00  0.00     0.064 A 
ATOM     57  C   UNL     1       5.218  -3.901  18.282  1.00  0.00     0.173 A 
ATOM     58  C   UNL     1       4.962  -2.622  16.277  1.00  0.00     0.173 A 
ATOM     59  F   UNL     1       4.770  -4.764  19.209  1.00  0.00    -0.203 F 
ATOM     60  C   UNL     1       6.494  -3.377  18.474  1.00  0.00     0.198 A 
ATOM     61  C   UNL     1       6.265  -2.139  16.445  1.00  0.00     0.198 A 
ATOM     62  F   UNL     1       4.262  -2.151  15.238  1.00  0.00    -0.203 F 
ATOM     63  F   UNL     1       7.185  -3.686  19.580  1.00  0.00    -0.200 F 
ATOM     64  C   UNL     1       7.009  -2.477  17.564  1.00  0.00     0.200 A 
ATOM     65  F   UNL     1       6.769  -1.273  15.554  1.00  0.00    -0.200 F 
ATOM     66  F   UNL     1       8.202  -1.907  17.782  1.00  0.00    -0.200 F 
ENDBRANCH  42  56
BRANCH  43  67
ATOM     67  C   UNL     1      -5.061  -0.824  21.031  1.00  0.00     0.064 A 
ATOM     68  C   UNL     1      -6.363  -0.490  20.642  1.00  0.00     0.173 A 
ATOM     69  C   UNL     1      -4.914  -1.001  22.443  1.00  0.00     0.173 A 
ATOM     70  F   UNL     1      -6.643  -0.168  19.375  1.00  0.00    -0.203 F 
ATOM     71  C   UNL     1      -7.434  -0.458  21.560  1.00  0.00     0.198 A 
ATOM     72  C   UNL     1      -5.980  -1.023  23.342  1.00  0.00     0.198 A 
ATOM     73  F   UNL     1      -3.715  -1.164  23.017  1.00  0.00    -0.203 F 
ATOM     74  F   UNL     1      -8.664  -0.137  21.133  1.00  0.00    -0.200 F 
ATOM     75  C   UNL     1      -7.250  -0.767  22.897  1.00  0.00     0.200 A 
ATOM     76  F   UNL     1      -5.754  -1.313  24.632  1.00  0.00    -0.200 F 
ATOM     77  F   UNL     1      -8.283  -0.804  23.750  1.00  0.00    -0.200 F 
ENDBRANCH  43  67
BRANCH  55  78
ATOM     78  C   UNL     1       0.728   0.209  19.585  1.00  0.00     0.064 A 
ATOM     79  C   UNL     1       0.845   1.434  20.261  1.00  0.00     0.173 A 
ATOM     80  C   UNL     1       0.643   0.288  18.185  1.00  0.00     0.173 A 
ATOM     81  F   UNL     1       0.952   1.450  21.598  1.00  0.00    -0.203 F 
ATOM     82  C   UNL     1       0.854   2.655  19.579  1.00  0.00     0.198 A 
ATOM     83  C   UNL     1       0.656   1.505  17.498  1.00  0.00     0.198 A 
ATOM     84  F   UNL     1       0.550  -0.815  17.447  1.00  0.00    -0.203 F 
ATOM     85  F   UNL     1       0.964   3.801  20.265  1.00  0.00    -0.200 F 
ATOM     86  C   UNL     1       0.756   2.691  18.198  1.00  0.00     0.200 A 
ATOM     87  F   UNL     1       0.578   1.521  16.158  1.00  0.00    -0.200 F 
ATOM     88  F   UNL     1       0.775   3.861  17.544  1.00  0.00    -0.200 F 
ENDBRANCH  55  78
ENDBRANCH  29  30
ENDBRANCH  21  24
ENDBRANCH  19  20
ENDBRANCH   1  19
TORSDOF 12
