REMARK SMILES Cc1nc(C[N@@H+]2CCC[C@H]2C(=O)NCCCNC(=O)c2ccc(-c3c4nc(c(-c5c(F)c(F)c(F)c(F)c5F)c5ccc([nH]5)c(-c5c(F)c(F)c(F)c(F)c5F)c5nc(c(-c6c(F)c(F)c(F)c(F)c6F)c6ccc3[nH]6)C=C5)C=C4)cc2)cs1
REMARK SMILES IDX 15 1 14 2 13 3 11 4 12 5 10 7 6 8 7 9 8 11 9 12 5 13 4 14
REMARK SMILES IDX 1 15 2 16 3 17 84 18 83 19 16 20 17 21 18 22 19 24 20 25
REMARK SMILES IDX 21 26 82 27 22 28 81 29 23 30 24 31 25 32 75 33 26 34 80 35
REMARK SMILES IDX 74 36 76 37 27 38 79 39 73 40 72 41 28 43 60 44 40 45 59 46
REMARK SMILES IDX 41 47 44 48 58 49 77 50 42 51 43 52 57 54 78 55 45 56 29 57
REMARK SMILES IDX 30 58 38 59 31 60 32 61 36 62 39 63 33 64 34 65 37 66 35 67
REMARK SMILES IDX 61 68 62 69 70 70 63 71 64 72 68 73 71 74 65 75 66 76 69 77
REMARK SMILES IDX 67 78 46 79 47 80 55 81 48 82 49 83 53 84 56 85 50 86 51 87
REMARK SMILES IDX 54 88 52 89
REMARK H PARENT 13 6 6 10 17 23 76 42 44 53
REMARK Flexibility Score: inf
ROOT
ATOM      1  C   UNL     1       3.951  -5.808  -1.375  1.00  0.00     0.042 C 
ENDROOT
BRANCH   1   2
ATOM      2  C   UNL     1       4.368  -4.477  -1.989  1.00  0.00     0.118 C 
BRANCH   2   3
ATOM      3  N   UNL     1       3.594  -4.159  -3.176  1.00  0.00    -0.351 N 
ATOM      4  C   UNL     1       2.603  -3.271  -3.446  1.00  0.00     0.278 C 
ATOM      5  O   UNL     1       2.138  -3.349  -4.594  1.00  0.00    -0.268 OA
ATOM      6  H   UNL     1       3.842  -4.708  -3.955  1.00  0.00     0.163 HD
BRANCH   4   7
ATOM      7  C   UNL     1       2.017  -2.234  -2.458  1.00  0.00     0.274 C 
ATOM      8  N   UNL     1       2.796  -2.068  -1.223  1.00  0.00    -0.320 N 
ATOM      9  C   UNL     1       3.648  -0.897  -1.378  1.00  0.00     0.263 C 
ATOM     10  H   UNL     1       3.407  -2.874  -1.091  1.00  0.00     0.349 HD
ATOM     11  C   UNL     1       2.898   0.045  -2.294  1.00  0.00     0.068 C 
ATOM     12  C   UNL     1       2.004  -0.854  -3.133  1.00  0.00     0.081 C 
BRANCH   8  13
ATOM     13  C   UNL     1       2.015  -2.157   0.014  1.00  0.00     0.321 C 
BRANCH  13  14
ATOM     14  C   UNL     1       1.034  -1.046   0.240  1.00  0.00     0.106 A 
ATOM     15  C   UNL     1      -2.460  -0.015  -0.079  1.00  0.00     0.079 C 
ATOM     16  C   UNL     1      -1.001  -0.159   0.173  1.00  0.00     0.090 A 
ATOM     17  N   UNL     1      -0.286  -1.211  -0.165  1.00  0.00    -0.241 NA
ATOM     18  S   UNL     1      -0.136   1.101   0.956  1.00  0.00    -0.127 S 
ATOM     19  C   UNL     1       1.284   0.151   0.888  1.00  0.00     0.096 A 
ENDBRANCH  13  14
ENDBRANCH   8  13
ENDBRANCH   4   7
ENDBRANCH   2   3
ENDBRANCH   1   2
BRANCH   1  20
ATOM     20  C   UNL     1       4.264  -7.015  -2.256  1.00  0.00     0.118 C 
BRANCH  20  21
ATOM     21  N   UNL     1       5.693  -7.179  -2.499  1.00  0.00    -0.352 N 
ATOM     22  C   UNL     1       6.559  -8.177  -2.128  1.00  0.00     0.251 C 
ATOM     23  H   UNL     1       6.106  -6.450  -3.016  1.00  0.00     0.163 HD
ATOM     24  O   UNL     1       7.768  -8.014  -2.265  1.00  0.00    -0.269 OA
BRANCH  22  25
ATOM     25  C   UNL     1       6.054  -9.439  -1.546  1.00  0.00     0.039 A 
ATOM     26  C   UNL     1       6.742 -10.004  -0.468  1.00  0.00     0.014 A 
ATOM     27  C   UNL     1       4.931 -10.082  -2.071  1.00  0.00     0.014 A 
ATOM     28  C   UNL     1       6.254 -11.164   0.137  1.00  0.00     0.010 A 
ATOM     29  C   UNL     1       4.404 -11.196  -1.423  1.00  0.00     0.010 A 
ATOM     30  C   UNL     1       5.053 -11.741  -0.305  1.00  0.00    -0.014 A 
BRANCH  30  31
ATOM     31  C   UNL     1       4.438 -12.884   0.415  1.00  0.00     0.031 A 
ATOM     32  C   UNL     1       4.273 -14.215  -0.262  1.00  0.00     0.074 A 
ATOM     33  C   UNL     1       3.952 -12.692   1.657  1.00  0.00     0.049 A 
ATOM     34  N   UNL     1       3.681 -15.297   0.177  1.00  0.00    -0.248 NA
ATOM     35  C   UNL     1       4.823 -14.339  -1.620  1.00  0.00     0.031 C 
ATOM     36  C   UNL     1       4.007 -11.432   2.399  1.00  0.00     0.029 A 
ATOM     37  N   UNL     1       3.300 -13.550   2.507  1.00  0.00    -0.354 N 
ATOM     38  C   UNL     1       3.776 -16.224  -0.852  1.00  0.00     0.074 A 
ATOM     39  C   UNL     1       4.441 -15.563  -1.955  1.00  0.00     0.031 C 
ATOM     40  C   UNL     1       3.431 -11.602   3.599  1.00  0.00     0.029 A 
ATOM     41  C   UNL     1       2.928 -12.968   3.695  1.00  0.00     0.049 A 
ATOM     42  H   UNL     1       3.118 -14.492   2.288  1.00  0.00     0.167 HD
ATOM     43  C   UNL     1       3.363 -17.514  -0.867  1.00  0.00     0.037 A 
ATOM     44  C   UNL     1       2.243 -13.475   4.738  1.00  0.00     0.037 A 
ATOM     45  C   UNL     1       2.722 -18.173   0.241  1.00  0.00     0.049 A 
ATOM     46  C   UNL     1       1.779 -14.903   4.687  1.00  0.00     0.074 A 
ATOM     47  C   UNL     1       2.339 -19.498   0.353  1.00  0.00     0.029 A 
ATOM     48  N   UNL     1       2.361 -17.552   1.429  1.00  0.00    -0.354 N 
ATOM     49  N   UNL     1       1.943 -15.793   3.738  1.00  0.00    -0.248 NA
ATOM     50  C   UNL     1       1.032 -15.398   5.852  1.00  0.00     0.031 C 
ATOM     51  C   UNL     1       1.703 -19.668   1.587  1.00  0.00     0.029 A 
ATOM     52  C   UNL     1       1.730 -18.460   2.265  1.00  0.00     0.049 A 
ATOM     53  H   UNL     1       2.529 -16.606   1.645  1.00  0.00     0.167 HD
ATOM     54  C   UNL     1       1.335 -16.953   4.195  1.00  0.00     0.074 A 
ATOM     55  C   UNL     1       0.818 -16.663   5.516  1.00  0.00     0.031 C 
ATOM     56  C   UNL     1       1.212 -18.151   3.573  1.00  0.00     0.037 A 
BRANCH  43  57
ATOM     57  C   UNL     1       3.594 -18.305  -2.121  1.00  0.00     0.064 A 
ATOM     58  C   UNL     1       4.881 -18.704  -2.511  1.00  0.00     0.173 A 
ATOM     59  C   UNL     1       2.512 -18.708  -2.919  1.00  0.00     0.173 A 
ATOM     60  F   UNL     1       5.950 -18.337  -1.788  1.00  0.00    -0.203 F 
ATOM     61  C   UNL     1       5.079 -19.456  -3.667  1.00  0.00     0.198 A 
ATOM     62  C   UNL     1       2.711 -19.483  -4.058  1.00  0.00     0.198 A 
ATOM     63  F   UNL     1       1.260 -18.359  -2.587  1.00  0.00    -0.203 F 
ATOM     64  F   UNL     1       6.322 -19.789  -4.043  1.00  0.00    -0.200 F 
ATOM     65  C   UNL     1       3.994 -19.851  -4.435  1.00  0.00     0.200 A 
ATOM     66  F   UNL     1       1.661 -19.875  -4.793  1.00  0.00    -0.200 F 
ATOM     67  F   UNL     1       4.186 -20.581  -5.542  1.00  0.00    -0.200 F 
ENDBRANCH  43  57
BRANCH  44  68
ATOM     68  C   UNL     1       1.963 -12.623   5.922  1.00  0.00     0.064 A 
ATOM     69  C   UNL     1       2.600 -12.865   7.147  1.00  0.00     0.173 A 
ATOM     70  C   UNL     1       1.060 -11.553   5.856  1.00  0.00     0.173 A 
ATOM     71  F   UNL     1       3.456 -13.891   7.264  1.00  0.00    -0.203 F 
ATOM     72  C   UNL     1       2.332 -12.079   8.265  1.00  0.00     0.198 A 
ATOM     73  C   UNL     1       0.813 -10.750   6.968  1.00  0.00     0.198 A 
ATOM     74  F   UNL     1       0.427 -11.277   4.706  1.00  0.00    -0.203 F 
ATOM     75  F   UNL     1       2.924 -12.357   9.435  1.00  0.00    -0.200 F 
ATOM     76  C   UNL     1       1.444 -11.018   8.173  1.00  0.00     0.200 A 
ATOM     77  F   UNL     1      -0.035  -9.717   6.871  1.00  0.00    -0.200 F 
ATOM     78  F   UNL     1       1.191 -10.258   9.247  1.00  0.00    -0.200 F 
ENDBRANCH  44  68
BRANCH  56  79
ATOM     79  C   UNL     1       0.494 -19.238   4.318  1.00  0.00     0.064 A 
ATOM     80  C   UNL     1      -0.897 -19.206   4.496  1.00  0.00     0.173 A 
ATOM     81  C   UNL     1       1.198 -20.340   4.827  1.00  0.00     0.173 A 
ATOM     82  F   UNL     1      -1.611 -18.164   4.044  1.00  0.00    -0.203 F 
ATOM     83  C   UNL     1      -1.554 -20.227   5.176  1.00  0.00     0.198 A 
ATOM     84  C   UNL     1       0.533 -21.373   5.481  1.00  0.00     0.198 A 
ATOM     85  F   UNL     1       2.528 -20.420   4.679  1.00  0.00    -0.203 F 
ATOM     86  F   UNL     1      -2.878 -20.154   5.374  1.00  0.00    -0.200 F 
ATOM     87  C   UNL     1      -0.841 -21.313   5.661  1.00  0.00     0.200 A 
ATOM     88  F   UNL     1       1.222 -22.427   5.939  1.00  0.00    -0.200 F 
ATOM     89  F   UNL     1      -1.477 -22.299   6.309  1.00  0.00    -0.200 F 
ENDBRANCH  56  79
ENDBRANCH  30  31
ENDBRANCH  22  25
ENDBRANCH  20  21
ENDBRANCH   1  20
TORSDOF 12
