REMARK SMILES O=C(NCCCNC(=O)c1cccc2c1cc(Br)c1ccccc12)c1ccc(-c2c3nc(c(-c4c(F)c(F)c(F)c(F)c4F)c4ccc([nH]4)c(-c4c(F)c(F)c(F)c(F)c4F)c4nc(c(-c5c(F)c(F)c(F)c(F)c5F)c5ccc2[nH]5)C=C4)C=C3)cc1
REMARK SMILES IDX 4 1 3 2 1 3 2 4 25 6 26 7 87 8 27 9 86 10 28 11 29 12 30 13
REMARK SMILES IDX 80 14 31 15 85 16 79 17 81 18 32 19 84 20 78 21 77 22 33 24
REMARK SMILES IDX 65 25 45 26 64 27 46 28 49 29 63 30 82 31 47 32 48 33 62 35
REMARK SMILES IDX 83 36 50 37 34 38 35 39 43 40 36 41 37 42 41 43 44 44 38 45
REMARK SMILES IDX 39 46 42 47 40 48 66 49 67 50 75 51 68 52 69 53 73 54 76 55
REMARK SMILES IDX 70 56 71 57 74 58 72 59 51 60 52 61 60 62 53 63 54 64 58 65
REMARK SMILES IDX 61 66 55 67 56 68 59 69 57 70 5 71 6 72 7 73 8 74 9 76 10 77
REMARK SMILES IDX 11 78 15 79 12 80 14 81 16 82 13 83 24 84 17 85 19 86 23 87
REMARK SMILES IDX 18 88 20 89 22 90 21 91
REMARK H PARENT 3 5 81 23 49 34 7 75
REMARK Flexibility Score: inf
ROOT
ATOM      1  C   UNL     1       4.690  -0.488  -1.421  1.00  0.00     0.118 C 
ENDROOT
BRANCH   1   2
ATOM      2  N   UNL     1       3.260  -0.278  -1.252  1.00  0.00    -0.352 N 
ATOM      3  O   UNL     1       1.283  -0.033  -0.232  1.00  0.00    -0.269 OA
ATOM      4  C   UNL     1       2.508   0.020  -0.145  1.00  0.00     0.251 C 
ATOM      5  H   UNL     1       2.738  -0.365  -2.082  1.00  0.00     0.163 HD
BRANCH   4   6
ATOM      6  C   UNL     1       3.126   0.401   1.147  1.00  0.00     0.039 A 
ATOM      7  C   UNL     1       2.463   0.049   2.329  1.00  0.00     0.014 A 
ATOM      8  C   UNL     1       4.284   1.179   1.218  1.00  0.00     0.014 A 
ATOM      9  C   UNL     1       2.964   0.459   3.567  1.00  0.00     0.010 A 
ATOM     10  C   UNL     1       4.838   1.506   2.455  1.00  0.00     0.010 A 
ATOM     11  C   UNL     1       4.161   1.187   3.640  1.00  0.00    -0.014 A 
BRANCH  11  12
ATOM     12  C   UNL     1       4.661   1.713   4.936  1.00  0.00     0.031 A 
ATOM     13  C   UNL     1       4.724   3.200   5.161  1.00  0.00     0.074 A 
ATOM     14  C   UNL     1       5.079   0.869   5.898  1.00  0.00     0.049 A 
ATOM     15  N   UNL     1       5.167   3.865   6.199  1.00  0.00    -0.248 NA
ATOM     16  C   UNL     1       4.256   4.059   4.060  1.00  0.00     0.031 C 
ATOM     17  C   UNL     1       5.103  -0.589   5.790  1.00  0.00     0.029 A 
ATOM     18  N   UNL     1       5.562   1.120   7.158  1.00  0.00    -0.354 N 
ATOM     19  C   UNL     1       5.055   5.207   5.863  1.00  0.00     0.074 A 
ATOM     20  C   UNL     1       4.559   5.267   4.507  1.00  0.00     0.031 C 
ATOM     21  C   UNL     1       5.540  -1.106   6.950  1.00  0.00     0.029 A 
ATOM     22  C   UNL     1       5.856  -0.016   7.870  1.00  0.00     0.049 A 
ATOM     23  H   UNL     1       5.685   2.028   7.517  1.00  0.00     0.167 HD
ATOM     24  C   UNL     1       5.309   6.295   6.627  1.00  0.00     0.037 A 
ATOM     25  C   UNL     1       6.323  -0.161   9.125  1.00  0.00     0.037 A 
ATOM     26  C   UNL     1       5.737   6.236   7.997  1.00  0.00     0.049 A 
ATOM     27  C   UNL     1       6.591   1.060   9.961  1.00  0.00     0.074 A 
ATOM     28  C   UNL     1       5.923   7.278   8.887  1.00  0.00     0.029 A 
ATOM     29  N   UNL     1       6.036   5.066   8.677  1.00  0.00    -0.354 N 
ATOM     30  N   UNL     1       6.422   2.323   9.654  1.00  0.00    -0.248 NA
ATOM     31  C   UNL     1       7.120   0.838  11.315  1.00  0.00     0.031 C 
ATOM     32  C   UNL     1       6.371   6.741  10.097  1.00  0.00     0.029 A 
ATOM     33  C   UNL     1       6.432   5.362   9.970  1.00  0.00     0.049 A 
ATOM     34  H   UNL     1       5.975   4.159   8.298  1.00  0.00     0.167 HD
ATOM     35  C   UNL     1       6.810   3.045  10.774  1.00  0.00     0.074 A 
ATOM     36  C   UNL     1       7.212   2.079  11.775  1.00  0.00     0.031 C 
ATOM     37  C   UNL     1       6.834   4.388  10.952  1.00  0.00     0.037 A 
BRANCH  24  38
ATOM     38  C   UNL     1       5.110   7.644   6.002  1.00  0.00     0.064 A 
ATOM     39  C   UNL     1       3.829   8.140   5.718  1.00  0.00     0.173 A 
ATOM     40  C   UNL     1       6.211   8.463   5.711  1.00  0.00     0.173 A 
ATOM     41  F   UNL     1       2.745   7.389   5.967  1.00  0.00    -0.203 F 
ATOM     42  C   UNL     1       3.658   9.393   5.138  1.00  0.00     0.198 A 
ATOM     43  C   UNL     1       6.035   9.728   5.156  1.00  0.00     0.198 A 
ATOM     44  F   UNL     1       7.457   8.039   5.969  1.00  0.00    -0.203 F 
ATOM     45  F   UNL     1       2.427   9.825   4.830  1.00  0.00    -0.200 F 
ATOM     46  C   UNL     1       4.760  10.188   4.863  1.00  0.00     0.200 A 
ATOM     47  F   UNL     1       7.100  10.501   4.901  1.00  0.00    -0.200 F 
ATOM     48  F   UNL     1       4.594  11.397   4.308  1.00  0.00    -0.200 F 
ENDBRANCH  24  38
BRANCH  25  49
ATOM     49  C   UNL     1       6.518  -1.526   9.676  1.00  0.00     0.064 A 
ATOM     50  C   UNL     1       5.623  -2.048  10.619  1.00  0.00     0.173 A 
ATOM     51  C   UNL     1       7.565  -2.349   9.239  1.00  0.00     0.173 A 
ATOM     52  F   UNL     1       4.617  -1.290  11.079  1.00  0.00    -0.203 F 
ATOM     53  C   UNL     1       5.768  -3.346  11.105  1.00  0.00     0.198 A 
ATOM     54  C   UNL     1       7.698  -3.653   9.711  1.00  0.00     0.198 A 
ATOM     55  F   UNL     1       8.444  -1.894   8.335  1.00  0.00    -0.203 F 
ATOM     56  F   UNL     1       4.909  -3.817  12.019  1.00  0.00    -0.200 F 
ATOM     57  C   UNL     1       6.800  -4.150  10.644  1.00  0.00     0.200 A 
ATOM     58  F   UNL     1       8.688  -4.432   9.255  1.00  0.00    -0.200 F 
ATOM     59  F   UNL     1       6.928  -5.404  11.099  1.00  0.00    -0.200 F 
ENDBRANCH  25  49
BRANCH  37  60
ATOM     60  C   UNL     1       7.316   4.908  12.272  1.00  0.00     0.064 A 
ATOM     61  C   UNL     1       8.683   4.944  12.578  1.00  0.00     0.173 A 
ATOM     62  C   UNL     1       6.417   5.474  13.187  1.00  0.00     0.173 A 
ATOM     63  F   UNL     1       9.577   4.404  11.737  1.00  0.00    -0.203 F 
ATOM     64  C   UNL     1       9.134   5.532  13.757  1.00  0.00     0.198 A 
ATOM     65  C   UNL     1       6.873   6.080  14.354  1.00  0.00     0.198 A 
ATOM     66  F   UNL     1       5.100   5.471  12.932  1.00  0.00    -0.203 F 
ATOM     67  F   UNL     1      10.444   5.544  14.038  1.00  0.00    -0.200 F 
ATOM     68  C   UNL     1       8.231   6.109  14.637  1.00  0.00     0.200 A 
ATOM     69  F   UNL     1       6.001   6.650  15.197  1.00  0.00    -0.200 F 
ATOM     70  F   UNL     1       8.669   6.696  15.759  1.00  0.00    -0.200 F 
ENDBRANCH  37  60
ENDBRANCH  11  12
ENDBRANCH   4   6
ENDBRANCH   1   2
BRANCH   1  71
ATOM     71  C   UNL     1       5.037  -1.920  -1.807  1.00  0.00     0.042 C 
BRANCH  71  72
ATOM     72  C   UNL     1       4.419  -2.392  -3.115  1.00  0.00     0.118 C 
BRANCH  72  73
ATOM     73  N   UNL     1       4.839  -1.594  -4.258  1.00  0.00    -0.352 N 
ATOM     74  C   UNL     1       5.634  -1.924  -5.327  1.00  0.00     0.251 C 
ATOM     75  H   UNL     1       4.498  -0.670  -4.265  1.00  0.00     0.163 HD
ATOM     76  O   UNL     1       5.918  -1.061  -6.155  1.00  0.00    -0.269 OA
BRANCH  74  77
ATOM     77  C   UNL     1       6.125  -3.315  -5.492  1.00  0.00     0.047 A 
ATOM     78  C   UNL     1       5.154  -4.321  -5.537  1.00  0.00     0.014 A 
ATOM     79  C   UNL     1       7.509  -3.612  -5.660  1.00  0.00    -0.004 A 
ATOM     80  C   UNL     1       5.541  -5.643  -5.639  1.00  0.00     0.002 A 
ATOM     81  C   UNL     1       7.917  -4.967  -5.797  1.00  0.00    -0.010 A 
ATOM     82  C   UNL     1       8.501  -2.616  -5.705  1.00  0.00     0.026 A 
ATOM     83  C   UNL     1       6.896  -5.953  -5.752  1.00  0.00     0.009 A 
ATOM     84  C   UNL     1       9.314  -5.290  -5.988  1.00  0.00    -0.009 A 
ATOM     85  C   UNL     1       9.848  -2.921  -5.917  1.00  0.00     0.026 A 
ATOM     86  C   UNL     1      10.283  -4.253  -6.069  1.00  0.00    -0.004 A 
ATOM     87  C   UNL     1       9.788  -6.623  -6.120  1.00  0.00     0.009 A 
ATOM     88  Br  UNL     1      11.037  -1.428  -5.993  1.00  0.00    -0.050 Br
ATOM     89  C   UNL     1      11.640  -4.596  -6.303  1.00  0.00     0.010 A 
ATOM     90  C   UNL     1      11.131  -6.935  -6.342  1.00  0.00     0.001 A 
ATOM     91  C   UNL     1      12.059  -5.917  -6.442  1.00  0.00     0.001 A 
ENDBRANCH  74  77
ENDBRANCH  72  73
ENDBRANCH  71  72
ENDBRANCH   1  71
TORSDOF 10
