REMARK SMILES C[C@@H](Nc1cccc(Cl)c1)[C@@H](C)C(=O)NCCCNC(=O)c1ccc(-c2c3nc(c(-c4c(F)c(F)c(F)c(F)c4F)c4ccc([nH]4)c(-c4c(F)c(F)c(F)c(F)c4F)c4nc(c(-c5c(F)c(F)c(F)c(F)c5F)c5ccc2[nH]5)C=C4)C=C3)cc1
REMARK SMILES IDX 16 1 15 2 13 3 14 4 11 6 12 7 2 8 1 9 3 10 4 12 5 13 10 14
REMARK SMILES IDX 6 15 8 16 7 17 9 18 17 19 18 20 19 21 20 22 21 24 22 25
REMARK SMILES IDX 23 26 84 27 24 28 83 29 25 30 26 31 27 32 77 33 28 34 82 35
REMARK SMILES IDX 76 36 78 37 29 38 81 39 75 40 74 41 30 43 62 44 42 45 61 46
REMARK SMILES IDX 43 47 46 48 60 49 79 50 44 51 45 52 59 54 80 55 47 56 31 57
REMARK SMILES IDX 32 58 40 59 33 60 34 61 38 62 41 63 35 64 36 65 39 66 37 67
REMARK SMILES IDX 63 68 64 69 72 70 65 71 66 72 70 73 73 74 67 75 68 76 71 77
REMARK SMILES IDX 69 78 48 79 49 80 57 81 50 82 51 83 55 84 58 85 52 86 53 87
REMARK SMILES IDX 56 88 54 89
REMARK H PARENT 15 5 3 11 19 23 78 42 46 53
REMARK Flexibility Score: inf
ROOT
ATOM      1  C   UNL     1      -0.444   4.099   0.416  1.00  0.00     0.117 C 
ENDROOT
BRANCH   1   2
ATOM      2  N   UNL     1      -1.476   3.713  -0.526  1.00  0.00    -0.356 N 
ATOM      3  C   UNL     1      -1.863   2.513  -1.029  1.00  0.00     0.224 C 
ATOM      4  O   UNL     1      -2.902   2.526  -1.700  1.00  0.00    -0.275 OA
ATOM      5  H   UNL     1      -2.001   4.472  -0.868  1.00  0.00     0.163 HD
BRANCH   3   6
ATOM      6  C   UNL     1      -1.160   1.191  -0.731  1.00  0.00     0.097 C 
ATOM      7  C   UNL     1      -1.601   0.781   0.684  1.00  0.00     0.020 C 
BRANCH   6   8
ATOM      8  C   UNL     1       0.371   1.159  -0.975  1.00  0.00     0.088 C 
ATOM      9  C   UNL     1       1.043  -0.012  -0.230  1.00  0.00     0.031 C 
BRANCH   8  10
ATOM     10  N   UNL     1       0.831   1.058  -2.374  1.00  0.00    -0.382 N 
ATOM     11  H   UNL     1       1.804   0.987  -2.501  1.00  0.00     0.160 HD
BRANCH  10  12
ATOM     12  C   UNL     1       0.076   1.050  -3.527  1.00  0.00     0.036 A 
ATOM     13  C   UNL     1      -0.751   2.109  -3.898  1.00  0.00     0.026 A 
ATOM     14  C   UNL     1       0.117  -0.072  -4.364  1.00  0.00     0.046 A 
ATOM     15  C   UNL     1      -1.566   2.037  -5.033  1.00  0.00     0.004 A 
ATOM     16  C   UNL     1      -0.679  -0.141  -5.510  1.00  0.00     0.043 A 
ATOM     17  C   UNL     1      -1.534   0.904  -5.840  1.00  0.00     0.020 A 
ATOM     18  Cl  UNL     1      -0.606  -1.536  -6.516  1.00  0.00    -0.084 Cl
ENDBRANCH  10  12
ENDBRANCH   8  10
ENDBRANCH   6   8
ENDBRANCH   3   6
ENDBRANCH   1   2
BRANCH   1  19
ATOM     19  C   UNL     1       0.743   4.793  -0.249  1.00  0.00     0.042 C 
BRANCH  19  20
ATOM     20  C   UNL     1       0.392   6.057  -1.027  1.00  0.00     0.118 C 
BRANCH  20  21
ATOM     21  N   UNL     1      -0.192   7.094  -0.192  1.00  0.00    -0.352 N 
ATOM     22  C   UNL     1       0.306   8.303   0.227  1.00  0.00     0.251 C 
ATOM     23  H   UNL     1      -1.101   6.895   0.129  1.00  0.00     0.163 HD
ATOM     24  O   UNL     1      -0.297   8.932   1.093  1.00  0.00    -0.269 OA
BRANCH  22  25
ATOM     25  C   UNL     1       1.563   8.852  -0.328  1.00  0.00     0.039 A 
ATOM     26  C   UNL     1       2.444   9.513   0.535  1.00  0.00     0.014 A 
ATOM     27  C   UNL     1       1.860   8.775  -1.691  1.00  0.00     0.014 A 
ATOM     28  C   UNL     1       3.646  10.033   0.046  1.00  0.00     0.010 A 
ATOM     29  C   UNL     1       3.094   9.221  -2.163  1.00  0.00     0.010 A 
ATOM     30  C   UNL     1       3.999   9.857  -1.301  1.00  0.00    -0.014 A 
BRANCH  30  31
ATOM     31  C   UNL     1       5.301  10.340  -1.831  1.00  0.00     0.031 A 
ATOM     32  C   UNL     1       5.335  11.403  -2.895  1.00  0.00     0.074 A 
ATOM     33  C   UNL     1       6.449   9.779  -1.402  1.00  0.00     0.049 A 
ATOM     34  N   UNL     1       6.358  11.877  -3.563  1.00  0.00    -0.248 NA
ATOM     35  C   UNL     1       4.045  12.000  -3.275  1.00  0.00     0.031 C 
ATOM     36  C   UNL     1       6.551   8.722  -0.395  1.00  0.00     0.029 A 
ATOM     37  N   UNL     1       7.752  10.011  -1.769  1.00  0.00    -0.354 N 
ATOM     38  C   UNL     1       5.833  12.814  -4.444  1.00  0.00     0.074 A 
ATOM     39  C   UNL     1       4.398  12.805  -4.266  1.00  0.00     0.031 C 
ATOM     40  C   UNL     1       7.844   8.411  -0.211  1.00  0.00     0.029 A 
ATOM     41  C   UNL     1       8.660   9.212  -1.117  1.00  0.00     0.049 A 
ATOM     42  H   UNL     1       8.011  10.687  -2.437  1.00  0.00     0.167 HD
ATOM     43  C   UNL     1       6.491  13.627  -5.304  1.00  0.00     0.037 A 
ATOM     44  C   UNL     1       9.998   9.127  -1.247  1.00  0.00     0.037 A 
ATOM     45  C   UNL     1       7.921  13.651  -5.467  1.00  0.00     0.049 A 
ATOM     46  C   UNL     1      10.698  10.019  -2.237  1.00  0.00     0.074 A 
ATOM     47  C   UNL     1       8.683  14.453  -6.299  1.00  0.00     0.029 A 
ATOM     48  N   UNL     1       8.806  12.837  -4.776  1.00  0.00    -0.354 N 
ATOM     49  N   UNL     1      10.194  10.928  -3.035  1.00  0.00    -0.248 NA
ATOM     50  C   UNL     1      12.157   9.875  -2.342  1.00  0.00     0.031 C 
ATOM     51  C   UNL     1      10.027  14.102  -6.135  1.00  0.00     0.029 A 
ATOM     52  C   UNL     1      10.106  13.113  -5.169  1.00  0.00     0.049 A 
ATOM     53  H   UNL     1       8.549  12.163  -4.106  1.00  0.00     0.167 HD
ATOM     54  C   UNL     1      11.273  11.489  -3.704  1.00  0.00     0.074 A 
ATOM     55  C   UNL     1      12.462  10.826  -3.212  1.00  0.00     0.031 C 
ATOM     56  C   UNL     1      11.280  12.465  -4.645  1.00  0.00     0.037 A 
BRANCH  43  57
ATOM     57  C   UNL     1       5.672  14.578  -6.128  1.00  0.00     0.064 A 
ATOM     58  C   UNL     1       5.043  15.690  -5.547  1.00  0.00     0.173 A 
ATOM     59  C   UNL     1       5.559  14.411  -7.516  1.00  0.00     0.173 A 
ATOM     60  F   UNL     1       5.111  15.888  -4.222  1.00  0.00    -0.203 F 
ATOM     61  C   UNL     1       4.313  16.587  -6.322  1.00  0.00     0.198 A 
ATOM     62  C   UNL     1       4.853  15.326  -8.292  1.00  0.00     0.198 A 
ATOM     63  F   UNL     1       6.147  13.369  -8.122  1.00  0.00    -0.203 F 
ATOM     64  F   UNL     1       3.687  17.618  -5.739  1.00  0.00    -0.200 F 
ATOM     65  C   UNL     1       4.226  16.410  -7.694  1.00  0.00     0.200 A 
ATOM     66  F   UNL     1       4.780  15.162  -9.620  1.00  0.00    -0.200 F 
ATOM     67  F   UNL     1       3.534  17.281  -8.441  1.00  0.00    -0.200 F 
ENDBRANCH  43  57
BRANCH  44  68
ATOM     68  C   UNL     1      10.776   8.172  -0.414  1.00  0.00     0.064 A 
ATOM     69  C   UNL     1      11.669   8.636   0.563  1.00  0.00     0.173 A 
ATOM     70  C   UNL     1      10.677   6.786  -0.600  1.00  0.00     0.173 A 
ATOM     71  F   UNL     1      11.815   9.954   0.764  1.00  0.00    -0.203 F 
ATOM     72  C   UNL     1      12.457   7.752   1.297  1.00  0.00     0.198 A 
ATOM     73  C   UNL     1      11.442   5.901   0.157  1.00  0.00     0.198 A 
ATOM     74  F   UNL     1       9.834   6.289  -1.518  1.00  0.00    -0.203 F 
ATOM     75  F   UNL     1      13.346   8.226   2.180  1.00  0.00    -0.200 F 
ATOM     76  C   UNL     1      12.341   6.385   1.095  1.00  0.00     0.200 A 
ATOM     77  F   UNL     1      11.317   4.580  -0.031  1.00  0.00    -0.200 F 
ATOM     78  F   UNL     1      13.103   5.535   1.797  1.00  0.00    -0.200 F 
ENDBRANCH  44  68
BRANCH  56  79
ATOM     79  C   UNL     1      12.615  12.918  -5.159  1.00  0.00     0.064 A 
ATOM     80  C   UNL     1      13.385  12.120  -6.016  1.00  0.00     0.173 A 
ATOM     81  C   UNL     1      13.109  14.187  -4.819  1.00  0.00     0.173 A 
ATOM     82  F   UNL     1      12.964  10.893  -6.357  1.00  0.00    -0.203 F 
ATOM     83  C   UNL     1      14.614  12.566  -6.495  1.00  0.00     0.198 A 
ATOM     84  C   UNL     1      14.323  14.641  -5.323  1.00  0.00     0.198 A 
ATOM     85  F   UNL     1      12.406  14.991  -4.007  1.00  0.00    -0.203 F 
ATOM     86  F   UNL     1      15.357  11.768  -7.275  1.00  0.00    -0.200 F 
ATOM     87  C   UNL     1      15.079  13.828  -6.154  1.00  0.00     0.200 A 
ATOM     88  F   UNL     1      14.764  15.866  -5.004  1.00  0.00    -0.200 F 
ATOM     89  F   UNL     1      16.258  14.258  -6.622  1.00  0.00    -0.200 F 
ENDBRANCH  56  79
ENDBRANCH  30  31
ENDBRANCH  22  25
ENDBRANCH  20  21
ENDBRANCH  19  20
ENDBRANCH   1  19
TORSDOF 13
