REMARK SMILES COc1ccc([C@H]2[C@H](C(=O)NCCCNC(=O)c3ccc(-c4c5nc(c(-c6c(F)c(F)c(F)c(F)c6F)c6ccc([nH]6)c(-c6c(F)c(F)c(F)c(F)c6F)c6nc(c(-c7c(F)c(F)c(F)c(F)c7F)c7ccc4[nH]7)C=C6)C=C5)cc3)CCN2c2ccc(F)cc2)cc1
REMARK SMILES IDX 13 1 12 2 11 3 9 4 10 5 8 7 7 8 83 9 81 10 82 11 6 12 3 13
REMARK SMILES IDX 4 14 92 15 5 16 91 17 2 18 1 19 84 20 85 21 90 22 86 23
REMARK SMILES IDX 89 24 87 25 88 26 14 27 15 28 16 29 17 31 18 32 19 33 80 34
REMARK SMILES IDX 20 35 79 36 21 37 22 38 23 39 73 40 24 41 78 42 72 43 74 44
REMARK SMILES IDX 25 45 77 46 71 47 70 48 26 50 58 51 38 52 57 53 39 54 42 55
REMARK SMILES IDX 56 56 75 57 40 58 41 59 55 61 76 62 43 63 27 64 28 65 36 66
REMARK SMILES IDX 29 67 30 68 34 69 37 70 31 71 32 72 35 73 33 74 59 75 60 76
REMARK SMILES IDX 68 77 61 78 62 79 66 80 69 81 63 82 64 83 67 84 65 85 44 86
REMARK SMILES IDX 45 87 53 88 46 89 47 90 51 91 54 92 48 93 49 94 52 95 50 96
REMARK H PARENT 11 6 15 30 74 49 42 60
REMARK Flexibility Score: inf
ROOT
ATOM      1  C   UNL     1       5.157   5.621   1.810  1.00  0.00     0.042 C 
ENDROOT
BRANCH   1   2
ATOM      2  C   UNL     1       5.654   6.590   0.747  1.00  0.00     0.117 C 
BRANCH   2   3
ATOM      3  N   UNL     1       5.275   6.157  -0.586  1.00  0.00    -0.356 N 
ATOM      4  C   UNL     1       4.183   6.372  -1.359  1.00  0.00     0.225 C 
ATOM      5  O   UNL     1       4.128   5.690  -2.392  1.00  0.00    -0.275 OA
ATOM      6  H   UNL     1       5.953   5.589  -1.019  1.00  0.00     0.163 HD
BRANCH   4   7
ATOM      7  C   UNL     1       3.028   7.323  -1.062  1.00  0.00     0.107 C 
ATOM      8  C   UNL     1       1.901   6.630  -0.268  1.00  0.00     0.125 C 
ATOM      9  N   UNL     1       2.182   7.083   1.108  1.00  0.00    -0.364 N 
ATOM     10  C   UNL     1       3.285   8.633  -0.330  1.00  0.00     0.037 C 
ATOM     11  C   UNL     1       2.760   8.429   1.093  1.00  0.00     0.118 C 
BRANCH   8  12
ATOM     12  C   UNL     1       0.516   7.108  -0.738  1.00  0.00    -0.024 A 
ATOM     13  C   UNL     1      -1.898   8.223  -1.706  1.00  0.00     0.118 A 
ATOM     14  C   UNL     1      -1.059   7.509  -2.560  1.00  0.00     0.047 A 
ATOM     15  C   UNL     1      -1.587   8.299  -0.353  1.00  0.00     0.047 A 
ATOM     16  C   UNL     1       0.134   6.953  -2.082  1.00  0.00     0.010 A 
ATOM     17  C   UNL     1      -0.398   7.741   0.123  1.00  0.00     0.010 A 
BRANCH  13  18
ATOM     18  O   UNL     1      -3.010   8.781  -2.277  1.00  0.00    -0.497 OA
ATOM     19  C   UNL     1      -3.413  10.019  -1.694  1.00  0.00     0.278 C 
ENDBRANCH  13  18
ENDBRANCH   8  12
BRANCH   9  20
ATOM     20  C   UNL     1       1.945   6.379   2.268  1.00  0.00     0.037 A 
ATOM     21  C   UNL     1       1.971   7.011   3.525  1.00  0.00     0.029 A 
ATOM     22  C   UNL     1       1.736   4.988   2.275  1.00  0.00     0.029 A 
ATOM     23  C   UNL     1       1.864   6.294   4.722  1.00  0.00     0.041 A 
ATOM     24  C   UNL     1       1.652   4.257   3.468  1.00  0.00     0.041 A 
ATOM     25  C   UNL     1       1.726   4.918   4.682  1.00  0.00     0.123 A 
ATOM     26  F   UNL     1       1.671   4.221   5.825  1.00  0.00    -0.207 F 
ENDBRANCH   9  20
ENDBRANCH   4   7
ENDBRANCH   2   3
ENDBRANCH   1   2
BRANCH   1  27
ATOM     27  C   UNL     1       6.168   4.558   2.214  1.00  0.00     0.118 C 
BRANCH  27  28
ATOM     28  N   UNL     1       7.188   5.087   3.106  1.00  0.00    -0.352 N 
ATOM     29  C   UNL     1       7.495   4.779   4.404  1.00  0.00     0.251 C 
ATOM     30  H   UNL     1       7.755   5.786   2.707  1.00  0.00     0.163 HD
ATOM     31  O   UNL     1       8.266   5.534   5.014  1.00  0.00    -0.269 OA
BRANCH  29  32
ATOM     32  C   UNL     1       6.957   3.586   5.104  1.00  0.00     0.039 A 
ATOM     33  C   UNL     1       6.832   3.636   6.499  1.00  0.00     0.014 A 
ATOM     34  C   UNL     1       6.680   2.385   4.446  1.00  0.00     0.014 A 
ATOM     35  C   UNL     1       6.436   2.503   7.220  1.00  0.00     0.010 A 
ATOM     36  C   UNL     1       6.195   1.282   5.153  1.00  0.00     0.010 A 
ATOM     37  C   UNL     1       6.111   1.314   6.552  1.00  0.00    -0.014 A 
BRANCH  37  38
ATOM     38  C   UNL     1       5.782   0.074   7.308  1.00  0.00     0.031 A 
ATOM     39  C   UNL     1       6.689  -1.128   7.212  1.00  0.00     0.074 A 
ATOM     40  C   UNL     1       4.670   0.011   8.064  1.00  0.00     0.049 A 
ATOM     41  N   UNL     1       6.560  -2.315   7.753  1.00  0.00    -0.248 NA
ATOM     42  C   UNL     1       7.888  -0.986   6.370  1.00  0.00     0.031 C 
ATOM     43  C   UNL     1       3.685   1.082   8.214  1.00  0.00     0.029 A 
ATOM     44  N   UNL     1       4.181  -1.003   8.851  1.00  0.00    -0.354 N 
ATOM     45  C   UNL     1       7.639  -3.061   7.293  1.00  0.00     0.074 A 
ATOM     46  C   UNL     1       8.385  -2.213   6.390  1.00  0.00     0.031 C 
ATOM     47  C   UNL     1       2.728   0.682   9.067  1.00  0.00     0.029 A 
ATOM     48  C   UNL     1       3.015  -0.682   9.502  1.00  0.00     0.049 A 
ATOM     49  H   UNL     1       4.626  -1.877   8.941  1.00  0.00     0.167 HD
ATOM     50  C   UNL     1       7.996  -4.328   7.615  1.00  0.00     0.037 A 
ATOM     51  C   UNL     1       2.267  -1.407  10.356  1.00  0.00     0.037 A 
ATOM     52  C   UNL     1       7.289  -5.157   8.554  1.00  0.00     0.049 A 
ATOM     53  C   UNL     1       2.707  -2.798  10.728  1.00  0.00     0.074 A 
ATOM     54  C   UNL     1       7.600  -6.434   8.986  1.00  0.00     0.029 A 
ATOM     55  N   UNL     1       6.131  -4.781   9.217  1.00  0.00    -0.354 N 
ATOM     56  N   UNL     1       3.753  -3.474  10.322  1.00  0.00    -0.248 NA
ATOM     57  C   UNL     1       1.861  -3.522  11.688  1.00  0.00     0.031 C 
ATOM     58  C   UNL     1       6.615  -6.842   9.893  1.00  0.00     0.029 A 
ATOM     59  C   UNL     1       5.712  -5.804  10.053  1.00  0.00     0.049 A 
ATOM     60  H   UNL     1       5.674  -3.915   9.111  1.00  0.00     0.167 HD
ATOM     61  C   UNL     1       3.707  -4.688  10.992  1.00  0.00     0.074 A 
ATOM     62  C   UNL     1       2.539  -4.650  11.848  1.00  0.00     0.031 C 
ATOM     63  C   UNL     1       4.554  -5.744  10.905  1.00  0.00     0.037 A 
BRANCH  50  64
ATOM     64  C   UNL     1       9.220  -4.891   6.951  1.00  0.00     0.064 A 
ATOM     65  C   UNL     1      10.507  -4.434   7.275  1.00  0.00     0.173 A 
ATOM     66  C   UNL     1       9.108  -5.915   5.998  1.00  0.00     0.173 A 
ATOM     67  F   UNL     1      10.668  -3.447   8.169  1.00  0.00    -0.203 F 
ATOM     68  C   UNL     1      11.633  -4.958   6.646  1.00  0.00     0.198 A 
ATOM     69  C   UNL     1      10.239  -6.457   5.393  1.00  0.00     0.198 A 
ATOM     70  F   UNL     1       7.902  -6.393   5.657  1.00  0.00    -0.203 F 
ATOM     71  F   UNL     1      12.847  -4.469   6.933  1.00  0.00    -0.200 F 
ATOM     72  C   UNL     1      11.499  -5.973   5.710  1.00  0.00     0.200 A 
ATOM     73  F   UNL     1      10.109  -7.446   4.497  1.00  0.00    -0.200 F 
ATOM     74  F   UNL     1      12.584  -6.479   5.108  1.00  0.00    -0.200 F 
ENDBRANCH  50  64
BRANCH  51  75
ATOM     75  C   UNL     1       1.044  -0.816  10.956  1.00  0.00     0.064 A 
ATOM     76  C   UNL     1       1.009  -0.468  12.314  1.00  0.00     0.173 A 
ATOM     77  C   UNL     1      -0.114  -0.601  10.196  1.00  0.00     0.173 A 
ATOM     78  F   UNL     1       2.084  -0.679  13.087  1.00  0.00    -0.203 F 
ATOM     79  C   UNL     1      -0.146   0.052  12.894  1.00  0.00     0.198 A 
ATOM     80  C   UNL     1      -1.260  -0.056  10.772  1.00  0.00     0.198 A 
ATOM     81  F   UNL     1      -0.130  -0.917   8.893  1.00  0.00    -0.203 F 
ATOM     82  F   UNL     1      -0.168   0.330  14.205  1.00  0.00    -0.200 F 
ATOM     83  C   UNL     1      -1.278   0.262  12.122  1.00  0.00     0.200 A 
ATOM     84  F   UNL     1      -2.350   0.153  10.021  1.00  0.00    -0.200 F 
ATOM     85  F   UNL     1      -2.389   0.761  12.680  1.00  0.00    -0.200 F 
ENDBRANCH  51  75
BRANCH  63  86
ATOM     86  C   UNL     1       4.265  -6.926  11.782  1.00  0.00     0.064 A 
ATOM     87  C   UNL     1       3.193  -7.792  11.517  1.00  0.00     0.173 A 
ATOM     88  C   UNL     1       5.084  -7.210  12.885  1.00  0.00     0.173 A 
ATOM     89  F   UNL     1       2.374  -7.554  10.482  1.00  0.00    -0.203 F 
ATOM     90  C   UNL     1       2.934  -8.881  12.344  1.00  0.00     0.198 A 
ATOM     91  C   UNL     1       4.837  -8.315  13.694  1.00  0.00     0.198 A 
ATOM     92  F   UNL     1       6.125  -6.416  13.176  1.00  0.00    -0.203 F 
ATOM     93  F   UNL     1       1.875  -9.666  12.102  1.00  0.00    -0.200 F 
ATOM     94  C   UNL     1       3.758  -9.145  13.428  1.00  0.00     0.200 A 
ATOM     95  F   UNL     1       5.641  -8.575  14.735  1.00  0.00    -0.200 F 
ATOM     96  F   UNL     1       3.507 -10.194  14.223  1.00  0.00    -0.200 F 
ENDBRANCH  63  86
ENDBRANCH  37  38
ENDBRANCH  29  32
ENDBRANCH  27  28
ENDBRANCH   1  27
TORSDOF 13
