REMARK SMILES O=C(NCCCNC(=O)c1ccc(-c2c3nc(c(-c4c(F)c(F)c(F)c(F)c4F)c4ccc([nH]4)c(-c4c(F)c(F)c(F)c(F)c4F)c4nc(c(-c5c(F)c(F)c(F)c(F)c5F)c5ccc2[nH]5)C=C4)C=C3)cc1)c1ccc(-c2ccc(=O)[nH]c2)cc1
REMARK SMILES IDX 5 1 4 2 3 3 1 4 2 5 73 7 74 8 85 9 75 10 84 11 76 12 77 13
REMARK SMILES IDX 78 14 83 15 79 16 82 17 80 18 81 20 6 21 7 22 8 23 9 25
REMARK SMILES IDX 10 26 11 27 72 28 12 29 71 30 13 31 14 32 15 33 65 34 16 35
REMARK SMILES IDX 70 36 64 37 66 38 17 39 69 40 63 41 62 42 18 44 50 45 30 46
REMARK SMILES IDX 49 47 31 48 34 49 48 50 67 51 32 52 33 53 47 55 68 56 35 57
REMARK SMILES IDX 19 58 20 59 28 60 21 61 22 62 26 63 29 64 23 65 24 66 27 67
REMARK SMILES IDX 25 68 51 69 52 70 60 71 53 72 54 73 58 74 61 75 55 76 56 77
REMARK SMILES IDX 59 78 57 79 36 80 37 81 45 82 38 83 39 84 43 85 46 86 40 87
REMARK SMILES IDX 41 88 44 89 42 90
REMARK H PARENT 3 6 82 19 7 24 66 43 34 54
REMARK Flexibility Score: inf
ROOT
ATOM      1  C   UNL     1       5.003  -1.514   1.820  1.00  0.00     0.042 C 
ENDROOT
BRANCH   1   2
ATOM      2  C   UNL     1       4.597  -1.261   0.375  1.00  0.00     0.118 C 
BRANCH   2   3
ATOM      3  N   UNL     1       3.157  -1.124   0.216  1.00  0.00    -0.352 N 
ATOM      4  O   UNL     1       1.181  -0.060   0.023  1.00  0.00    -0.269 OA
ATOM      5  C   UNL     1       2.404  -0.013  -0.071  1.00  0.00     0.251 C 
ATOM      6  H   UNL     1       2.644  -1.957   0.332  1.00  0.00     0.163 HD
BRANCH   5   7
ATOM      7  C   UNL     1       3.062   1.248  -0.469  1.00  0.00     0.039 A 
ATOM      8  C   UNL     1       4.054   1.265  -1.453  1.00  0.00     0.014 A 
ATOM      9  C   UNL     1       2.658   2.438   0.140  1.00  0.00     0.014 A 
ATOM     10  C   UNL     1       4.721   2.453  -1.747  1.00  0.00     0.009 A 
ATOM     11  C   UNL     1       3.305   3.635  -0.181  1.00  0.00     0.009 A 
ATOM     12  C   UNL     1       4.356   3.649  -1.111  1.00  0.00    -0.017 A 
BRANCH  12  13
ATOM     13  C   UNL     1       5.070   4.906  -1.408  1.00  0.00    -0.002 A 
ATOM     14  C   UNL     1       5.669   5.742  -0.375  1.00  0.00     0.016 A 
ATOM     15  C   UNL     1       5.178   5.307  -2.688  1.00  0.00     0.094 A 
ATOM     16  C   UNL     1       6.305   6.883  -0.679  1.00  0.00     0.072 A 
ATOM     17  N   UNL     1       5.833   6.469  -3.014  1.00  0.00    -0.328 N 
ATOM     18  C   UNL     1       6.412   7.308  -2.096  1.00  0.00     0.247 A 
ATOM     19  H   UNL     1       5.891   6.715  -3.966  1.00  0.00     0.169 HD
ATOM     20  O   UNL     1       6.986   8.345  -2.409  1.00  0.00    -0.270 OA
ENDBRANCH  12  13
ENDBRANCH   5   7
ENDBRANCH   2   3
ENDBRANCH   1   2
BRANCH   1  21
ATOM     21  C   UNL     1       4.472  -2.818   2.398  1.00  0.00     0.118 C 
BRANCH  21  22
ATOM     22  N   UNL     1       4.952  -3.993   1.682  1.00  0.00    -0.352 N 
ATOM     23  C   UNL     1       5.738  -5.037   2.102  1.00  0.00     0.251 C 
ATOM     24  H   UNL     1       4.665  -4.047   0.742  1.00  0.00     0.163 HD
ATOM     25  O   UNL     1       6.172  -5.838   1.278  1.00  0.00    -0.269 OA
BRANCH  23  26
ATOM     26  C   UNL     1       6.089  -5.193   3.530  1.00  0.00     0.039 A 
ATOM     27  C   UNL     1       7.384  -5.598   3.865  1.00  0.00     0.014 A 
ATOM     28  C   UNL     1       5.151  -4.964   4.539  1.00  0.00     0.014 A 
ATOM     29  C   UNL     1       7.756  -5.697   5.208  1.00  0.00     0.010 A 
ATOM     30  C   UNL     1       5.548  -4.969   5.872  1.00  0.00     0.010 A 
ATOM     31  C   UNL     1       6.854  -5.339   6.223  1.00  0.00    -0.014 A 
BRANCH  31  32
ATOM     32  C   UNL     1       7.259  -5.342   7.653  1.00  0.00     0.031 A 
ATOM     33  C   UNL     1       6.564  -6.244   8.636  1.00  0.00     0.074 A 
ATOM     34  C   UNL     1       8.205  -4.482   8.078  1.00  0.00     0.049 A 
ATOM     35  N   UNL     1       6.724  -6.336   9.932  1.00  0.00    -0.248 NA
ATOM     36  C   UNL     1       5.532  -7.142   8.096  1.00  0.00     0.031 C 
ATOM     37  C   UNL     1       8.918  -3.523   7.233  1.00  0.00     0.029 A 
ATOM     38  N   UNL     1       8.722  -4.267   9.332  1.00  0.00    -0.354 N 
ATOM     39  C   UNL     1       5.807  -7.286  10.361  1.00  0.00     0.074 A 
ATOM     40  C   UNL     1       5.053  -7.700   9.198  1.00  0.00     0.031 C 
ATOM     41  C   UNL     1       9.795  -2.841   7.985  1.00  0.00     0.029 A 
ATOM     42  C   UNL     1       9.675  -3.279   9.372  1.00  0.00     0.049 A 
ATOM     43  H   UNL     1       8.437  -4.773  10.127  1.00  0.00     0.167 HD
ATOM     44  C   UNL     1       5.626  -7.786  11.607  1.00  0.00     0.037 A 
ATOM     45  C   UNL     1      10.366  -2.773  10.412  1.00  0.00     0.037 A 
ATOM     46  C   UNL     1       6.393  -7.385  12.758  1.00  0.00     0.049 A 
ATOM     47  C   UNL     1      10.134  -3.334  11.789  1.00  0.00     0.074 A 
ATOM     48  C   UNL     1       6.328  -7.876  14.050  1.00  0.00     0.029 A 
ATOM     49  N   UNL     1       7.359  -6.389  12.757  1.00  0.00    -0.354 N 
ATOM     50  N   UNL     1       9.316  -4.286  12.169  1.00  0.00    -0.248 NA
ATOM     51  C   UNL     1      10.927  -2.755  12.882  1.00  0.00     0.031 C 
ATOM     52  C   UNL     1       7.211  -7.137  14.843  1.00  0.00     0.029 A 
ATOM     53  C   UNL     1       7.876  -6.231  14.033  1.00  0.00     0.049 A 
ATOM     54  H   UNL     1       7.636  -5.872  11.966  1.00  0.00     0.167 HD
ATOM     55  C   UNL     1       9.518  -4.441  13.534  1.00  0.00     0.074 A 
ATOM     56  C   UNL     1      10.547  -3.496  13.913  1.00  0.00     0.031 C 
ATOM     57  C   UNL     1       8.906  -5.290  14.396  1.00  0.00     0.037 A 
BRANCH  44  58
ATOM     58  C   UNL     1       4.554  -8.823  11.793  1.00  0.00     0.064 A 
ATOM     59  C   UNL     1       4.666 -10.109  11.243  1.00  0.00     0.173 A 
ATOM     60  C   UNL     1       3.417  -8.539  12.564  1.00  0.00     0.173 A 
ATOM     61  F   UNL     1       5.728 -10.431  10.488  1.00  0.00    -0.203 F 
ATOM     62  C   UNL     1       3.666 -11.060  11.430  1.00  0.00     0.198 A 
ATOM     63  C   UNL     1       2.436  -9.504  12.779  1.00  0.00     0.198 A 
ATOM     64  F   UNL     1       3.260  -7.328  13.120  1.00  0.00    -0.203 F 
ATOM     65  F   UNL     1       3.771 -12.263  10.849  1.00  0.00    -0.200 F 
ATOM     66  C   UNL     1       2.556 -10.760  12.204  1.00  0.00     0.200 A 
ATOM     67  F   UNL     1       1.371  -9.217  13.541  1.00  0.00    -0.200 F 
ATOM     68  F   UNL     1       1.599 -11.679  12.392  1.00  0.00    -0.200 F 
ENDBRANCH  44  58
BRANCH  45  69
ATOM     69  C   UNL     1      11.354  -1.684  10.189  1.00  0.00     0.064 A 
ATOM     70  C   UNL     1      12.727  -1.909  10.361  1.00  0.00     0.173 A 
ATOM     71  C   UNL     1      10.948  -0.396   9.809  1.00  0.00     0.173 A 
ATOM     72  F   UNL     1      13.164  -3.118  10.743  1.00  0.00    -0.203 F 
ATOM     73  C   UNL     1      13.653  -0.883  10.186  1.00  0.00     0.198 A 
ATOM     74  C   UNL     1      11.878   0.621   9.602  1.00  0.00     0.198 A 
ATOM     75  F   UNL     1       9.647  -0.128   9.625  1.00  0.00    -0.203 F 
ATOM     76  F   UNL     1      14.954  -1.114  10.408  1.00  0.00    -0.200 F 
ATOM     77  C   UNL     1      13.229   0.380   9.801  1.00  0.00     0.200 A 
ATOM     78  F   UNL     1      11.465   1.835   9.213  1.00  0.00    -0.200 F 
ATOM     79  F   UNL     1      14.120   1.365   9.629  1.00  0.00    -0.200 F 
ENDBRANCH  45  69
BRANCH  57  80
ATOM     80  C   UNL     1       9.360  -5.268  15.828  1.00  0.00     0.064 A 
ATOM     81  C   UNL     1       9.083  -4.185  16.676  1.00  0.00     0.173 A 
ATOM     82  C   UNL     1      10.049  -6.364  16.369  1.00  0.00     0.173 A 
ATOM     83  F   UNL     1       8.440  -3.106  16.205  1.00  0.00    -0.203 F 
ATOM     84  C   UNL     1       9.505  -4.189  18.003  1.00  0.00     0.198 A 
ATOM     85  C   UNL     1      10.437  -6.380  17.706  1.00  0.00     0.198 A 
ATOM     86  F   UNL     1      10.333  -7.429  15.605  1.00  0.00    -0.203 F 
ATOM     87  F   UNL     1       9.276  -3.120  18.779  1.00  0.00    -0.200 F 
ATOM     88  C   UNL     1      10.173  -5.289  18.519  1.00  0.00     0.200 A 
ATOM     89  F   UNL     1      11.068  -7.452  18.206  1.00  0.00    -0.200 F 
ATOM     90  F   UNL     1      10.569  -5.295  19.799  1.00  0.00    -0.200 F 
ENDBRANCH  57  80
ENDBRANCH  31  32
ENDBRANCH  23  26
ENDBRANCH  21  22
ENDBRANCH   1  21
TORSDOF 11
