REMARK SMILES COc1ccc(C(=O)N2CCC(C(=O)NCCCNC(=O)c3ccc(-c4c5nc(c(-c6c(F)c(F)c(F)c(F)c6F)c6ccc([nH]6)c(-c6c(F)c(F)c(F)c(F)c6F)c6nc(c(-c7c(F)c(F)c(F)c(F)c7F)c7ccc4[nH]7)C=C6)C=C5)cc3)CC2)c(OC)c1
REMARK SMILES IDX 17 1 16 2 15 3 13 4 14 5 12 7 7 8 8 9 9 10 10 11 86 12 11 13
REMARK SMILES IDX 85 14 6 15 3 16 4 17 90 18 5 19 87 20 2 21 1 22 88 23 89 24
REMARK SMILES IDX 18 25 19 26 20 27 21 29 22 30 23 31 84 32 24 33 83 34 25 35
REMARK SMILES IDX 26 36 27 37 77 38 28 39 82 40 76 41 78 42 29 43 81 44 75 45
REMARK SMILES IDX 74 46 30 48 62 49 42 50 61 51 43 52 46 53 60 54 79 55 44 56
REMARK SMILES IDX 45 57 59 59 80 60 47 61 31 62 32 63 40 64 33 65 34 66 38 67
REMARK SMILES IDX 41 68 35 69 36 70 39 71 37 72 63 73 64 74 72 75 65 76 66 77
REMARK SMILES IDX 70 78 73 79 67 80 68 81 71 82 69 83 48 84 49 85 57 86 50 87
REMARK SMILES IDX 51 88 55 89 58 90 52 91 53 92 56 93 54 94
REMARK H PARENT 15 6 19 28 78 47 46 58
REMARK Flexibility Score: inf
ROOT
ATOM      1  C   UNL     1       2.909  11.349  -1.657  1.00  0.00     0.042 C 
ENDROOT
BRANCH   1   2
ATOM      2  C   UNL     1       3.914  10.342  -2.201  1.00  0.00     0.117 C 
BRANCH   2   3
ATOM      3  N   UNL     1       5.264  10.572  -1.710  1.00  0.00    -0.356 N 
ATOM      4  C   UNL     1       6.067   9.823  -0.908  1.00  0.00     0.223 C 
ATOM      5  O   UNL     1       7.192  10.262  -0.653  1.00  0.00    -0.275 OA
ATOM      6  H   UNL     1       5.668  11.418  -2.013  1.00  0.00     0.163 HD
BRANCH   4   7
ATOM      7  C   UNL     1       5.612   8.493  -0.329  1.00  0.00     0.082 C 
ATOM      8  C   UNL     1       2.240   6.119  -0.231  1.00  0.00     0.257 C 
ATOM      9  O   UNL     1       1.300   6.879   0.018  1.00  0.00    -0.269 OA
ATOM     10  N   UNL     1       3.552   6.531  -0.048  1.00  0.00    -0.338 N 
ATOM     11  C   UNL     1       3.847   7.381   1.089  1.00  0.00     0.120 C 
ATOM     12  C   UNL     1       4.681   6.185  -0.900  1.00  0.00     0.120 C 
ATOM     13  C   UNL     1       4.449   8.697   0.648  1.00  0.00     0.035 C 
ATOM     14  C   UNL     1       5.379   7.437  -1.424  1.00  0.00     0.035 C 
BRANCH   8  15
ATOM     15  C   UNL     1       1.913   4.713  -0.626  1.00  0.00     0.082 A 
ATOM     16  C   UNL     1       0.888   2.113  -0.996  1.00  0.00     0.122 A 
ATOM     17  C   UNL     1       0.151   3.218  -1.411  1.00  0.00     0.047 A 
ATOM     18  C   UNL     1       2.159   2.300  -0.454  1.00  0.00     0.093 A 
ATOM     19  C   UNL     1       0.653   4.508  -1.218  1.00  0.00     0.021 A 
ATOM     20  C   UNL     1       2.681   3.591  -0.264  1.00  0.00     0.135 A 
BRANCH  16  21
ATOM     21  O   UNL     1       0.278   0.898  -1.154  1.00  0.00    -0.497 OA
ATOM     22  C   UNL     1       0.715  -0.130  -0.268  1.00  0.00     0.278 C 
ENDBRANCH  16  21
BRANCH  20  23
ATOM     23  O   UNL     1       3.875   3.766   0.388  1.00  0.00    -0.496 OA
ATOM     24  C   UNL     1       4.889   2.811   0.077  1.00  0.00     0.278 C 
ENDBRANCH  20  23
ENDBRANCH   8  15
ENDBRANCH   4   7
ENDBRANCH   2   3
ENDBRANCH   1   2
BRANCH   1  25
ATOM     25  C   UNL     1       3.192  12.791  -2.050  1.00  0.00     0.118 C 
BRANCH  25  26
ATOM     26  N   UNL     1       3.156  13.001  -3.490  1.00  0.00    -0.352 N 
ATOM     27  C   UNL     1       2.327  13.777  -4.257  1.00  0.00     0.251 C 
ATOM     28  H   UNL     1       3.840  12.505  -3.996  1.00  0.00     0.163 HD
ATOM     29  O   UNL     1       2.358  13.663  -5.484  1.00  0.00    -0.269 OA
BRANCH  27  30
ATOM     30  C   UNL     1       1.385  14.733  -3.638  1.00  0.00     0.039 A 
ATOM     31  C   UNL     1       0.112  14.875  -4.198  1.00  0.00     0.014 A 
ATOM     32  C   UNL     1       1.751  15.516  -2.540  1.00  0.00     0.014 A 
ATOM     33  C   UNL     1      -0.809  15.752  -3.621  1.00  0.00     0.010 A 
ATOM     34  C   UNL     1       0.807  16.325  -1.914  1.00  0.00     0.010 A 
ATOM     35  C   UNL     1      -0.481  16.458  -2.452  1.00  0.00    -0.014 A 
BRANCH  35  36
ATOM     36  C   UNL     1      -1.476  17.335  -1.787  1.00  0.00     0.031 A 
ATOM     37  C   UNL     1      -1.242  18.817  -1.689  1.00  0.00     0.074 A 
ATOM     38  C   UNL     1      -2.568  16.786  -1.221  1.00  0.00     0.049 A 
ATOM     39  N   UNL     1      -1.984  19.736  -1.123  1.00  0.00    -0.248 NA
ATOM     40  C   UNL     1       0.002  19.333  -2.280  1.00  0.00     0.031 C 
ATOM     41  C   UNL     1      -2.873  15.354  -1.189  1.00  0.00     0.029 A 
ATOM     42  N   UNL     1      -3.621  17.365  -0.559  1.00  0.00    -0.354 N 
ATOM     43  C   UNL     1      -1.290  20.929  -1.274  1.00  0.00     0.074 A 
ATOM     44  C   UNL     1      -0.045  20.613  -1.940  1.00  0.00     0.031 C 
ATOM     45  C   UNL     1      -4.047  15.169  -0.566  1.00  0.00     0.029 A 
ATOM     46  C   UNL     1      -4.564  16.463  -0.131  1.00  0.00     0.049 A 
ATOM     47  H   UNL     1      -3.693  18.335  -0.405  1.00  0.00     0.167 HD
ATOM     48  C   UNL     1      -1.667  22.178  -0.910  1.00  0.00     0.037 A 
ATOM     49  C   UNL     1      -5.716  16.659   0.536  1.00  0.00     0.037 A 
ATOM     50  C   UNL     1      -2.922  22.496  -0.282  1.00  0.00     0.049 A 
ATOM     51  C   UNL     1      -6.128  18.059   0.895  1.00  0.00     0.074 A 
ATOM     52  C   UNL     1      -3.432  23.739   0.049  1.00  0.00     0.029 A 
ATOM     53  N   UNL     1      -3.866  21.558   0.110  1.00  0.00    -0.354 N 
ATOM     54  N   UNL     1      -5.502  19.189   0.673  1.00  0.00    -0.248 NA
ATOM     55  C   UNL     1      -7.414  18.212   1.590  1.00  0.00     0.031 C 
ATOM     56  C   UNL     1      -4.669  23.551   0.676  1.00  0.00     0.029 A 
ATOM     57  C   UNL     1      -4.948  22.194   0.698  1.00  0.00     0.049 A 
ATOM     58  H   UNL     1      -3.781  20.585  -0.012  1.00  0.00     0.167 HD
ATOM     59  C   UNL     1      -6.321  20.186   1.183  1.00  0.00     0.074 A 
ATOM     60  C   UNL     1      -7.501  19.530   1.706  1.00  0.00     0.031 C 
ATOM     61  C   UNL     1      -6.112  21.525   1.217  1.00  0.00     0.037 A 
BRANCH  48  62
ATOM     62  C   UNL     1      -0.713  23.301  -1.194  1.00  0.00     0.064 A 
ATOM     63  C   UNL     1      -0.476  23.751  -2.502  1.00  0.00     0.173 A 
ATOM     64  C   UNL     1      -0.058  23.962  -0.145  1.00  0.00     0.173 A 
ATOM     65  F   UNL     1      -1.069  23.145  -3.542  1.00  0.00    -0.203 F 
ATOM     66  C   UNL     1       0.401  24.803  -2.751  1.00  0.00     0.198 A 
ATOM     67  C   UNL     1       0.798  25.032  -0.395  1.00  0.00     0.198 A 
ATOM     68  F   UNL     1      -0.253  23.575   1.125  1.00  0.00    -0.203 F 
ATOM     69  F   UNL     1       0.646  25.186  -4.012  1.00  0.00    -0.200 F 
ATOM     70  C   UNL     1       1.032  25.447  -1.697  1.00  0.00     0.200 A 
ATOM     71  F   UNL     1       1.398  25.661   0.625  1.00  0.00    -0.200 F 
ATOM     72  F   UNL     1       1.870  26.465  -1.937  1.00  0.00    -0.200 F 
ENDBRANCH  48  62
BRANCH  49  73
ATOM     73  C   UNL     1      -6.581  15.500   0.873  1.00  0.00     0.064 A 
ATOM     74  C   UNL     1      -7.797  15.294   0.209  1.00  0.00     0.173 A 
ATOM     75  C   UNL     1      -6.209  14.575   1.859  1.00  0.00     0.173 A 
ATOM     76  F   UNL     1      -8.204  16.165  -0.727  1.00  0.00    -0.203 F 
ATOM     77  C   UNL     1      -8.619  14.216   0.529  1.00  0.00     0.198 A 
ATOM     78  C   UNL     1      -7.020  13.483   2.162  1.00  0.00     0.198 A 
ATOM     79  F   UNL     1      -5.052  14.726   2.520  1.00  0.00    -0.203 F 
ATOM     80  F   UNL     1      -9.796  14.066  -0.092  1.00  0.00    -0.200 F 
ATOM     81  C   UNL     1      -8.227  13.308   1.502  1.00  0.00     0.200 A 
ATOM     82  F   UNL     1      -6.633  12.601   3.094  1.00  0.00    -0.200 F 
ATOM     83  F   UNL     1      -9.016  12.270   1.808  1.00  0.00    -0.200 F 
ENDBRANCH  49  73
BRANCH  61  84
ATOM     84  C   UNL     1      -7.192  22.367   1.829  1.00  0.00     0.064 A 
ATOM     85  C   UNL     1      -7.409  22.385   3.215  1.00  0.00     0.173 A 
ATOM     86  C   UNL     1      -8.001  23.183   1.024  1.00  0.00     0.173 A 
ATOM     87  F   UNL     1      -6.672  21.609   4.023  1.00  0.00    -0.203 F 
ATOM     88  C   UNL     1      -8.415  23.170   3.770  1.00  0.00     0.198 A 
ATOM     89  C   UNL     1      -8.988  23.988   1.586  1.00  0.00     0.198 A 
ATOM     90  F   UNL     1      -7.829  23.206  -0.306  1.00  0.00    -0.203 F 
ATOM     91  F   UNL     1      -8.637  23.135   5.091  1.00  0.00    -0.200 F 
ATOM     92  C   UNL     1      -9.200  23.975   2.957  1.00  0.00     0.200 A 
ATOM     93  F   UNL     1      -9.738  24.773   0.801  1.00  0.00    -0.200 F 
ATOM     94  F   UNL     1     -10.166  24.731   3.494  1.00  0.00    -0.200 F 
ENDBRANCH  61  84
ENDBRANCH  35  36
ENDBRANCH  27  30
ENDBRANCH  25  26
ENDBRANCH   1  25
TORSDOF 13
