REMARK SMILES O=C(NCCCNC(=O)C1CCN(C(=O)CSCc2ccccc2)CC1)c1ccc(-c2c3nc(c(-c4c(F)c(F)c(F)c(F)c4F)c4ccc([nH]4)c(-c4c(F)c(F)c(F)c(F)c4F)c4nc(c(-c5c(F)c(F)c(F)c(F)c5F)c5ccc2[nH]5)C=C4)C=C3)cc1
REMARK SMILES IDX 6 1 5 2 4 3 3 4 1 5 2 6 27 8 28 9 89 10 29 11 88 12 30 13
REMARK SMILES IDX 31 14 32 15 82 16 33 17 87 18 81 19 83 20 34 21 86 22 80 23
REMARK SMILES IDX 79 24 35 26 67 27 47 28 66 29 48 30 51 31 65 32 84 33 49 34
REMARK SMILES IDX 50 35 64 37 85 38 52 39 36 40 37 41 45 42 38 43 39 44 43 45
REMARK SMILES IDX 46 46 40 47 41 48 44 49 42 50 68 51 69 52 77 53 70 54 71 55
REMARK SMILES IDX 75 56 78 57 72 58 73 59 76 60 74 61 53 62 54 63 62 64 55 65
REMARK SMILES IDX 56 66 60 67 63 68 57 69 58 70 61 71 59 72 7 73 8 74 9 76
REMARK SMILES IDX 10 77 11 78 26 79 12 80 25 81 13 82 14 83 15 84 16 85 17 86
REMARK SMILES IDX 18 87 19 88 20 89 24 90 21 91 23 92 22 93
REMARK H PARENT 3 7 83 25 51 36 7 75
REMARK Flexibility Score: inf
ROOT
ATOM      1  C   UNL     1       4.014  -3.337  -2.220  1.00  0.00     0.117 C 
ENDROOT
BRANCH   1   2
ATOM      2  C   UNL     1       4.707  -2.577  -1.091  1.00  0.00     0.042 C 
BRANCH   2   3
ATOM      3  C   UNL     1       4.441  -1.073  -1.071  1.00  0.00     0.118 C 
BRANCH   3   4
ATOM      4  N   UNL     1       3.031  -0.732  -0.934  1.00  0.00    -0.352 N 
ATOM      5  O   UNL     1       1.134   0.032  -0.007  1.00  0.00    -0.269 OA
ATOM      6  C   UNL     1       2.361  -0.027   0.035  1.00  0.00     0.251 C 
ATOM      7  H   UNL     1       2.460  -1.066  -1.663  1.00  0.00     0.163 HD
BRANCH   6   8
ATOM      8  C   UNL     1       3.083   0.631   1.146  1.00  0.00     0.039 A 
ATOM      9  C   UNL     1       4.273   1.329   0.937  1.00  0.00     0.014 A 
ATOM     10  C   UNL     1       2.531   0.575   2.432  1.00  0.00     0.014 A 
ATOM     11  C   UNL     1       4.991   1.818   2.025  1.00  0.00     0.010 A 
ATOM     12  C   UNL     1       3.211   1.143   3.514  1.00  0.00     0.010 A 
ATOM     13  C   UNL     1       4.472   1.727   3.328  1.00  0.00    -0.014 A 
BRANCH  13  14
ATOM     14  C   UNL     1       5.261   2.263   4.468  1.00  0.00     0.031 A 
ATOM     15  C   UNL     1       5.799   1.349   5.536  1.00  0.00     0.074 A 
ATOM     16  C   UNL     1       5.534   3.582   4.515  1.00  0.00     0.049 A 
ATOM     17  N   UNL     1       6.566   1.635   6.559  1.00  0.00    -0.248 NA
ATOM     18  C   UNL     1       5.421  -0.070   5.453  1.00  0.00     0.031 C 
ATOM     19  C   UNL     1       5.053   4.574   3.553  1.00  0.00     0.029 A 
ATOM     20  N   UNL     1       6.300   4.310   5.389  1.00  0.00    -0.354 N 
ATOM     21  C   UNL     1       6.742   0.444   7.250  1.00  0.00     0.074 A 
ATOM     22  C   UNL     1       5.982  -0.567   6.546  1.00  0.00     0.031 C 
ATOM     23  C   UNL     1       5.580   5.770   3.854  1.00  0.00     0.029 A 
ATOM     24  C   UNL     1       6.397   5.639   5.056  1.00  0.00     0.049 A 
ATOM     25  H   UNL     1       6.738   3.918   6.179  1.00  0.00     0.167 HD
ATOM     26  C   UNL     1       7.480   0.211   8.363  1.00  0.00     0.037 A 
ATOM     27  C   UNL     1       7.071   6.641   5.650  1.00  0.00     0.037 A 
ATOM     28  C   UNL     1       8.262   1.210   9.046  1.00  0.00     0.049 A 
ATOM     29  C   UNL     1       7.883   6.353   6.880  1.00  0.00     0.074 A 
ATOM     30  C   UNL     1       9.087   1.057  10.147  1.00  0.00     0.029 A 
ATOM     31  N   UNL     1       8.313   2.550   8.694  1.00  0.00    -0.354 N 
ATOM     32  N   UNL     1       8.084   5.211   7.490  1.00  0.00    -0.248 NA
ATOM     33  C   UNL     1       8.563   7.496   7.504  1.00  0.00     0.031 C 
ATOM     34  C   UNL     1       9.604   2.312  10.487  1.00  0.00     0.029 A 
ATOM     35  C   UNL     1       9.137   3.240   9.570  1.00  0.00     0.049 A 
ATOM     36  H   UNL     1       7.834   2.953   7.933  1.00  0.00     0.167 HD
ATOM     37  C   UNL     1       8.928   5.492   8.556  1.00  0.00     0.074 A 
ATOM     38  C   UNL     1       9.216   6.910   8.497  1.00  0.00     0.031 C 
ATOM     39  C   UNL     1       9.418   4.650   9.498  1.00  0.00     0.037 A 
BRANCH  26  40
ATOM     40  C   UNL     1       7.471  -1.180   8.927  1.00  0.00     0.064 A 
ATOM     41  C   UNL     1       8.138  -2.239   8.295  1.00  0.00     0.173 A 
ATOM     42  C   UNL     1       6.822  -1.447  10.143  1.00  0.00     0.173 A 
ATOM     43  F   UNL     1       8.764  -2.040   7.125  1.00  0.00    -0.203 F 
ATOM     44  C   UNL     1       8.136  -3.519   8.846  1.00  0.00     0.198 A 
ATOM     45  C   UNL     1       6.844  -2.721  10.704  1.00  0.00     0.198 A 
ATOM     46  F   UNL     1       6.174  -0.468  10.793  1.00  0.00    -0.203 F 
ATOM     47  F   UNL     1       8.745  -4.525   8.202  1.00  0.00    -0.200 F 
ATOM     48  C   UNL     1       7.495  -3.757  10.052  1.00  0.00     0.200 A 
ATOM     49  F   UNL     1       6.234  -2.947  11.876  1.00  0.00    -0.200 F 
ATOM     50  F   UNL     1       7.500  -4.988  10.584  1.00  0.00    -0.200 F 
ENDBRANCH  26  40
BRANCH  27  51
ATOM     51  C   UNL     1       7.023   8.007   5.069  1.00  0.00     0.064 A 
ATOM     52  C   UNL     1       8.153   8.567   4.457  1.00  0.00     0.173 A 
ATOM     53  C   UNL     1       5.849   8.773   5.103  1.00  0.00     0.173 A 
ATOM     54  F   UNL     1       9.304   7.879   4.419  1.00  0.00    -0.203 F 
ATOM     55  C   UNL     1       8.114   9.848   3.912  1.00  0.00     0.198 A 
ATOM     56  C   UNL     1       5.804  10.043   4.533  1.00  0.00     0.198 A 
ATOM     57  F   UNL     1       4.742   8.279   5.675  1.00  0.00    -0.203 F 
ATOM     58  F   UNL     1       9.218  10.375   3.365  1.00  0.00    -0.200 F 
ATOM     59  C   UNL     1       6.937  10.582   3.943  1.00  0.00     0.200 A 
ATOM     60  F   UNL     1       4.661  10.743   4.553  1.00  0.00    -0.200 F 
ATOM     61  F   UNL     1       6.898  11.811   3.411  1.00  0.00    -0.200 F 
ENDBRANCH  27  51
BRANCH  39  62
ATOM     62  C   UNL     1      10.340   5.239  10.525  1.00  0.00     0.064 A 
ATOM     63  C   UNL     1       9.865   6.075  11.546  1.00  0.00     0.173 A 
ATOM     64  C   UNL     1      11.712   4.947  10.497  1.00  0.00     0.173 A 
ATOM     65  F   UNL     1       8.564   6.396  11.604  1.00  0.00    -0.203 F 
ATOM     66  C   UNL     1      10.735   6.622  12.485  1.00  0.00     0.198 A 
ATOM     67  C   UNL     1      12.575   5.474  11.453  1.00  0.00     0.198 A 
ATOM     68  F   UNL     1      12.214   4.149   9.543  1.00  0.00    -0.203 F 
ATOM     69  F   UNL     1      10.268   7.459  13.421  1.00  0.00    -0.200 F 
ATOM     70  C   UNL     1      12.088   6.317  12.441  1.00  0.00     0.200 A 
ATOM     71  F   UNL     1      13.880   5.170  11.416  1.00  0.00    -0.200 F 
ATOM     72  F   UNL     1      12.924   6.844  13.346  1.00  0.00    -0.200 F 
ENDBRANCH  39  62
ENDBRANCH  13  14
ENDBRANCH   6   8
ENDBRANCH   3   4
ENDBRANCH   2   3
ENDBRANCH   1   2
BRANCH   1  73
ATOM     73  N   UNL     1       4.281  -2.755  -3.521  1.00  0.00    -0.356 N 
ATOM     74  C   UNL     1       5.305  -2.983  -4.388  1.00  0.00     0.223 C 
ATOM     75  H   UNL     1       3.618  -2.093  -3.825  1.00  0.00     0.163 HD
ATOM     76  O   UNL     1       5.390  -2.252  -5.373  1.00  0.00    -0.275 OA
BRANCH  74  77
ATOM     77  C   UNL     1       6.258  -4.147  -4.139  1.00  0.00     0.082 C 
ATOM     78  C   UNL     1       7.644  -3.880  -4.750  1.00  0.00     0.035 C 
ATOM     79  C   UNL     1       5.650  -5.451  -4.681  1.00  0.00     0.035 C 
ATOM     80  C   UNL     1       7.676  -4.041  -6.269  1.00  0.00     0.120 C 
ATOM     81  C   UNL     1       5.726  -5.535  -6.207  1.00  0.00     0.120 C 
ATOM     82  N   UNL     1       7.098  -5.322  -6.662  1.00  0.00    -0.342 N 
ATOM     83  C   UNL     1       7.852  -6.187  -7.443  1.00  0.00     0.232 C 
ATOM     84  O   UNL     1       8.979  -5.873  -7.840  1.00  0.00    -0.274 OA
BRANCH  83  85
ATOM     85  C   UNL     1       7.288  -7.549  -7.817  1.00  0.00     0.169 C 
BRANCH  85  86
ATOM     86  S   UNL     1       7.191  -8.698  -6.400  1.00  0.00    -0.147 SA
BRANCH  86  87
ATOM     87  C   UNL     1       8.885  -8.583  -5.743  1.00  0.00     0.105 C 
BRANCH  87  88
ATOM     88  C   UNL     1       9.941  -9.177  -6.637  1.00  0.00    -0.038 A 
ATOM     89  C   UNL     1       9.987 -10.558  -6.881  1.00  0.00     0.004 A 
ATOM     90  C   UNL     1      10.926  -8.361  -7.211  1.00  0.00     0.004 A 
ATOM     91  C   UNL     1      10.991 -11.105  -7.683  1.00  0.00     0.000 A 
ATOM     92  C   UNL     1      11.927  -8.907  -8.015  1.00  0.00     0.000 A 
ATOM     93  C   UNL     1      11.960 -10.279  -8.249  1.00  0.00     0.000 A 
ENDBRANCH  87  88
ENDBRANCH  86  87
ENDBRANCH  85  86
ENDBRANCH  83  85
ENDBRANCH  74  77
ENDBRANCH   1  73
TORSDOF 14
