REMARK SMILES CN(C(=O)C[C@@H]1SC(=O)N(c2ccccc2)C1=O)c1ccccc1C(=O)NCCCNC(=O)c1ccc(-c2c3nc(c(-c4c(F)c(F)c(F)c(F)c4F)c4ccc([nH]4)c(-c4c(F)c(F)c(F)c(F)c4F)c4nc(c(-c5c(F)c(F)c(F)c(F)c5F)c5ccc2[nH]5)C=C4)C=C3)cc1
REMARK SMILES IDX 25 1 26 2 27 3 24 5 19 6 20 7 21 8 23 9 22 10 2 11 1 12 3 13
REMARK SMILES IDX 4 14 5 15 6 16 7 17 17 18 8 19 10 20 18 21 9 22 11 23 12 24
REMARK SMILES IDX 16 25 13 26 15 27 14 28 28 29 29 30 30 31 31 32 32 33 33 35
REMARK SMILES IDX 34 36 35 37 96 38 36 39 95 40 37 41 38 42 39 43 89 44 40 45
REMARK SMILES IDX 94 46 88 47 90 48 41 49 93 50 87 51 86 52 42 54 74 55 54 56
REMARK SMILES IDX 73 57 55 58 58 59 72 60 91 61 56 62 57 63 71 65 92 66 59 67
REMARK SMILES IDX 43 68 44 69 52 70 45 71 46 72 50 73 53 74 47 75 48 76 51 77
REMARK SMILES IDX 49 78 75 79 76 80 84 81 77 82 78 83 82 84 85 85 79 86 80 87
REMARK SMILES IDX 83 88 81 89 60 90 61 91 69 92 62 93 63 94 67 95 70 96 64 97
REMARK SMILES IDX 65 98 68 99 66 100
REMARK H PARENT 27 4 31 34 90 53 58 64
REMARK Flexibility Score: inf
ROOT
ATOM      1  C   UNL     1       2.965   0.948  -1.475  1.00  0.00     0.253 C 
ATOM      2  O   UNL     1       3.776   1.856  -1.286  1.00  0.00    -0.269 OA
ATOM      3  N   UNL     1       3.153  -0.236  -0.794  1.00  0.00    -0.352 N 
ATOM      4  H   UNL     1       4.002  -0.322  -0.302  1.00  0.00     0.163 HD
ENDROOT
BRANCH   1   5
ATOM      5  C   UNL     1       1.897   1.142  -2.505  1.00  0.00     0.063 A 
ATOM      6  C   UNL     1       0.524   0.809  -2.404  1.00  0.00     0.056 A 
ATOM      7  C   UNL     1      -0.293   0.977  -3.539  1.00  0.00     0.027 A 
ATOM      8  C   UNL     1       0.207   1.523  -4.724  1.00  0.00     0.002 A 
ATOM      9  C   UNL     1       2.379   1.702  -3.708  1.00  0.00     0.016 A 
ATOM     10  C   UNL     1       1.541   1.900  -4.804  1.00  0.00     0.001 A 
BRANCH   6  11
ATOM     11  N   UNL     1      -0.130   0.410  -1.183  1.00  0.00    -0.315 N 
ATOM     12  C   UNL     1      -0.044   1.375  -0.093  1.00  0.00     0.153 C 
BRANCH  11  13
ATOM     13  C   UNL     1      -0.925  -0.744  -1.162  1.00  0.00     0.228 C 
ATOM     14  O   UNL     1      -0.940  -1.555  -2.095  1.00  0.00    -0.274 OA
BRANCH  13  15
ATOM     15  C   UNL     1      -1.745  -1.085   0.081  1.00  0.00     0.125 C 
BRANCH  15  16
ATOM     16  C   UNL     1      -1.011  -2.072   1.001  1.00  0.00     0.156 C 
ATOM     17  S   UNL     1      -1.853  -3.662   1.256  1.00  0.00    -0.050 SA
ATOM     18  C   UNL     1      -0.821  -1.526   2.408  1.00  0.00     0.248 C 
ATOM     19  C   UNL     1      -1.453  -3.707   2.969  1.00  0.00     0.293 C 
ATOM     20  N   UNL     1      -0.933  -2.508   3.374  1.00  0.00    -0.240 N 
ATOM     21  O   UNL     1      -0.540  -0.351   2.619  1.00  0.00    -0.273 OA
ATOM     22  O   UNL     1      -1.700  -4.703   3.644  1.00  0.00    -0.261 OA
BRANCH  20  23
ATOM     23  C   UNL     1      -0.672  -2.215   4.743  1.00  0.00     0.053 A 
ATOM     24  C   UNL     1      -1.316  -1.141   5.362  1.00  0.00     0.027 A 
ATOM     25  C   UNL     1       0.270  -2.933   5.488  1.00  0.00     0.027 A 
ATOM     26  C   UNL     1      -1.026  -0.804   6.688  1.00  0.00     0.002 A 
ATOM     27  C   UNL     1       0.591  -2.576   6.799  1.00  0.00     0.002 A 
ATOM     28  C   UNL     1      -0.064  -1.514   7.403  1.00  0.00     0.000 A 
ENDBRANCH  20  23
ENDBRANCH  15  16
ENDBRANCH  13  15
ENDBRANCH  11  13
ENDBRANCH   6  11
ENDBRANCH   1   5
BRANCH   3  29
ATOM     29  C   UNL     1       2.261  -1.361  -0.716  1.00  0.00     0.118 C 
BRANCH  29  30
ATOM     30  C   UNL     1       2.847  -2.751  -0.836  1.00  0.00     0.042 C 
BRANCH  30  31
ATOM     31  C   UNL     1       3.672  -3.295   0.314  1.00  0.00     0.118 C 
BRANCH  31  32
ATOM     32  N   UNL     1       3.212  -2.976   1.650  1.00  0.00    -0.352 N 
ATOM     33  C   UNL     1       2.951  -3.803   2.711  1.00  0.00     0.251 C 
ATOM     34  H   UNL     1       3.065  -2.018   1.823  1.00  0.00     0.163 HD
ATOM     35  O   UNL     1       2.922  -3.332   3.844  1.00  0.00    -0.269 OA
BRANCH  33  36
ATOM     36  C   UNL     1       2.582  -5.219   2.520  1.00  0.00     0.039 A 
ATOM     37  C   UNL     1       1.387  -5.639   3.109  1.00  0.00     0.014 A 
ATOM     38  C   UNL     1       3.381  -6.147   1.863  1.00  0.00     0.014 A 
ATOM     39  C   UNL     1       0.955  -6.949   3.037  1.00  0.00     0.010 A 
ATOM     40  C   UNL     1       2.929  -7.458   1.726  1.00  0.00     0.010 A 
ATOM     41  C   UNL     1       1.722  -7.859   2.327  1.00  0.00    -0.014 A 
BRANCH  41  42
ATOM     42  C   UNL     1       1.358  -9.280   2.352  1.00  0.00     0.031 A 
ATOM     43  C   UNL     1       2.208 -10.184   3.179  1.00  0.00     0.074 A 
ATOM     44  C   UNL     1       0.299  -9.719   1.654  1.00  0.00     0.049 A 
ATOM     45  N   UNL     1       2.335 -11.478   3.130  1.00  0.00    -0.248 NA
ATOM     46  C   UNL     1       3.053  -9.524   4.191  1.00  0.00     0.031 C 
ATOM     47  C   UNL     1      -0.666  -8.873   0.951  1.00  0.00     0.029 A 
ATOM     48  N   UNL     1      -0.125 -10.995   1.405  1.00  0.00    -0.354 N 
ATOM     49  C   UNL     1       3.319 -11.784   4.059  1.00  0.00     0.074 A 
ATOM     50  C   UNL     1       3.748 -10.545   4.665  1.00  0.00     0.031 C 
ATOM     51  C   UNL     1      -1.555  -9.657   0.320  1.00  0.00     0.029 A 
ATOM     52  C   UNL     1      -1.166 -11.049   0.511  1.00  0.00     0.049 A 
ATOM     53  H   UNL     1       0.274 -11.792   1.824  1.00  0.00     0.167 HD
ATOM     54  C   UNL     1       3.822 -13.005   4.347  1.00  0.00     0.037 A 
ATOM     55  C   UNL     1      -1.682 -12.114  -0.127  1.00  0.00     0.037 A 
ATOM     56  C   UNL     1       3.347 -14.203   3.711  1.00  0.00     0.049 A 
ATOM     57  C   UNL     1      -1.054 -13.457   0.145  1.00  0.00     0.074 A 
ATOM     58  C   UNL     1       3.792 -15.502   3.849  1.00  0.00     0.029 A 
ATOM     59  N   UNL     1       2.290 -14.229   2.805  1.00  0.00    -0.354 N 
ATOM     60  N   UNL     1      -0.054 -13.756   0.944  1.00  0.00    -0.248 NA
ATOM     61  C   UNL     1      -1.603 -14.603  -0.585  1.00  0.00     0.031 C 
ATOM     62  C   UNL     1       3.024 -16.309   2.999  1.00  0.00     0.029 A 
ATOM     63  C   UNL     1       2.071 -15.520   2.369  1.00  0.00     0.049 A 
ATOM     64  H   UNL     1       1.774 -13.441   2.518  1.00  0.00     0.167 HD
ATOM     65  C   UNL     1       0.131 -15.125   0.834  1.00  0.00     0.074 A 
ATOM     66  C   UNL     1      -0.870 -15.598  -0.105  1.00  0.00     0.031 C 
ATOM     67  C   UNL     1       1.042 -15.927   1.442  1.00  0.00     0.037 A 
BRANCH  54  68
ATOM     68  C   UNL     1       4.972 -13.057   5.307  1.00  0.00     0.064 A 
ATOM     69  C   UNL     1       4.814 -12.780   6.674  1.00  0.00     0.173 A 
ATOM     70  C   UNL     1       6.269 -13.315   4.838  1.00  0.00     0.173 A 
ATOM     71  F   UNL     1       3.600 -12.492   7.168  1.00  0.00    -0.203 F 
ATOM     72  C   UNL     1       5.915 -12.720   7.526  1.00  0.00     0.198 A 
ATOM     73  C   UNL     1       7.364 -13.282   5.698  1.00  0.00     0.198 A 
ATOM     74  F   UNL     1       6.480 -13.572   3.539  1.00  0.00    -0.203 F 
ATOM     75  F   UNL     1       5.748 -12.380   8.812  1.00  0.00    -0.200 F 
ATOM     76  C   UNL     1       7.188 -12.972   7.038  1.00  0.00     0.200 A 
ATOM     77  F   UNL     1       8.594 -13.525   5.224  1.00  0.00    -0.200 F 
ATOM     78  F   UNL     1       8.248 -12.897   7.855  1.00  0.00    -0.200 F 
ENDBRANCH  54  68
BRANCH  55  79
ATOM     79  C   UNL     1      -2.785 -11.944  -1.108  1.00  0.00     0.064 A 
ATOM     80  C   UNL     1      -4.059 -12.470  -0.859  1.00  0.00     0.173 A 
ATOM     81  C   UNL     1      -2.595 -11.250  -2.314  1.00  0.00     0.173 A 
ATOM     82  F   UNL     1      -4.290 -13.158   0.269  1.00  0.00    -0.203 F 
ATOM     83  C   UNL     1      -5.095 -12.322  -1.781  1.00  0.00     0.198 A 
ATOM     84  C   UNL     1      -3.638 -11.079  -3.223  1.00  0.00     0.198 A 
ATOM     85  F   UNL     1      -1.395 -10.726  -2.607  1.00  0.00    -0.203 F 
ATOM     86  F   UNL     1      -6.292 -12.873  -1.535  1.00  0.00    -0.200 F 
ATOM     87  C   UNL     1      -4.885 -11.622  -2.959  1.00  0.00     0.200 A 
ATOM     88  F   UNL     1      -3.433 -10.391  -4.355  1.00  0.00    -0.200 F 
ATOM     89  F   UNL     1      -5.881 -11.479  -3.844  1.00  0.00    -0.200 F 
ENDBRANCH  55  79
BRANCH  67  90
ATOM     90  C   UNL     1       0.951 -17.390   1.141  1.00  0.00     0.064 A 
ATOM     91  C   UNL     1       1.391 -17.916  -0.081  1.00  0.00     0.173 A 
ATOM     92  C   UNL     1       0.472 -18.277   2.115  1.00  0.00     0.173 A 
ATOM     93  F   UNL     1       1.841 -17.099  -1.046  1.00  0.00    -0.203 F 
ATOM     94  C   UNL     1       1.337 -19.284  -0.324  1.00  0.00     0.198 A 
ATOM     95  C   UNL     1       0.447 -19.646   1.879  1.00  0.00     0.198 A 
ATOM     96  F   UNL     1       0.048 -17.815   3.301  1.00  0.00    -0.203 F 
ATOM     97  F   UNL     1       1.724 -19.767  -1.512  1.00  0.00    -0.200 F 
ATOM     98  C   UNL     1       0.875 -20.148   0.659  1.00  0.00     0.200 A 
ATOM     99  F   UNL     1       0.014 -20.481   2.834  1.00  0.00    -0.200 F 
ATOM    100  F   UNL     1       0.836 -21.467   0.427  1.00  0.00    -0.200 F 
ENDBRANCH  67  90
ENDBRANCH  41  42
ENDBRANCH  33  36
ENDBRANCH  31  32
ENDBRANCH  30  31
ENDBRANCH  29  30
ENDBRANCH   3  29
TORSDOF 15
