REMARK SMILES C[C@@H]1CN(C(=O)N[C@@H]2CCCCC[C@@H]2C(=O)NCCCNC(=O)c2ccc(-c3c4nc(c(-c5c(F)c(F)c(F)c(F)c5F)c5ccc([nH]5)c(-c5c(F)c(F)c(F)c(F)c5F)c5nc(c(-c6c(F)c(F)c(F)c(F)c6F)c6ccc3[nH]6)C=C5)C=C4)cc2)C[C@H]1C
REMARK SMILES IDX 18 1 17 2 15 3 16 4 14 6 8 7 7 8 1 9 2 10 3 11 88 12 4 13
REMARK SMILES IDX 87 14 89 15 5 16 6 17 9 19 10 20 11 21 13 23 12 24 19 26
REMARK SMILES IDX 20 27 21 28 22 29 23 31 24 32 25 33 86 34 26 35 85 36 27 37
REMARK SMILES IDX 28 38 29 39 79 40 30 41 84 42 78 43 80 44 31 45 83 46 77 47
REMARK SMILES IDX 76 48 32 50 64 51 44 52 63 53 45 54 48 55 62 56 81 57 46 58
REMARK SMILES IDX 47 59 61 61 82 62 49 63 33 64 34 65 42 66 35 67 36 68 40 69
REMARK SMILES IDX 43 70 37 71 38 72 41 73 39 74 65 75 66 76 74 77 67 78 68 79
REMARK SMILES IDX 72 80 75 81 69 82 70 83 73 84 71 85 50 86 51 87 59 88 52 89
REMARK SMILES IDX 53 90 57 91 60 92 54 93 55 94 58 95 56 96
REMARK H PARENT 17 5 7 18 21 30 80 49 48 60
REMARK Flexibility Score: 90.00
ROOT
ATOM      1  C   UNL     1       2.678   6.022   0.362  1.00  0.00     0.117 C 
ENDROOT
BRANCH   1   2
ATOM      2  N   UNL     1       3.084   5.302  -0.823  1.00  0.00    -0.356 N 
ATOM      3  C   UNL     1       2.391   4.691  -1.806  1.00  0.00     0.225 C 
ATOM      4  O   UNL     1       3.023   4.591  -2.872  1.00  0.00    -0.275 OA
ATOM      5  H   UNL     1       4.060   5.247  -0.936  1.00  0.00     0.163 HD
BRANCH   3   6
ATOM      6  C   UNL     1       1.023   3.980  -1.716  1.00  0.00     0.101 C 
BRANCH   6   7
ATOM      7  C   UNL     1      -0.217   4.538  -0.963  1.00  0.00     0.096 C 
BRANCH   7   8
ATOM      8  N   UNL     1      -0.214   4.878   0.471  1.00  0.00    -0.334 N 
ATOM      9  C   UNL     1       0.920  -0.246   0.852  1.00  0.00     0.010 C 
ATOM     10  C   UNL     1       0.288   0.679   1.886  1.00  0.00     0.010 C 
ATOM     11  C   UNL     1      -0.419   1.900   1.274  1.00  0.00     0.125 C 
ATOM     12  C   UNL     1       1.339   1.288   2.838  1.00  0.00     0.010 C 
ATOM     13  N   UNL     1       0.142   3.051   1.936  1.00  0.00    -0.324 N 
ATOM     14  C   UNL     1       0.725   2.633   3.197  1.00  0.00     0.125 C 
ATOM     15  C   UNL     1       1.652   0.418   4.041  1.00  0.00     0.010 C 
ATOM     16  C   UNL     1      -0.087   4.354   1.696  1.00  0.00     0.317 C 
ATOM     17  O   UNL     1      -0.112   5.175   2.620  1.00  0.00    -0.249 OA
ATOM     18  H   UNL     1      -0.358   5.848   0.561  1.00  0.00     0.165 HD
ENDBRANCH   7   8
BRANCH   7  19
ATOM     19  C   UNL     1      -1.603   3.948  -1.306  1.00  0.00     0.026 C 
BRANCH  19  20
ATOM     20  C   UNL     1      -1.732   3.067  -2.540  1.00  0.00     0.002 C 
BRANCH  20  21
ATOM     21  C   UNL     1      -1.129   1.681  -2.356  1.00  0.00     0.000 CG0
ATOM     22  G   UNL     1       0.381   1.603  -2.554  1.00  0.00     0.000 G0
ENDBRANCH  20  21
ENDBRANCH  19  20
ENDBRANCH   7  19
ENDBRANCH   6   7
BRANCH   6  23
ATOM     23  C   UNL     1       1.297   2.469  -1.676  1.00  0.00     0.015 C 
BRANCH  23  24
ATOM     24  C   UNL     1       0.381   1.603  -2.554  1.00  0.00     0.001 CG0
ATOM     25  G   UNL     1      -1.129   1.681  -2.356  1.00  0.00     0.000 G0
ENDBRANCH  23  24
ENDBRANCH   6  23
ENDBRANCH   3   6
ENDBRANCH   1   2
BRANCH   1  26
ATOM     26  C   UNL     1       2.994   5.286   1.657  1.00  0.00     0.042 C 
BRANCH  26  27
ATOM     27  C   UNL     1       4.381   5.574   2.227  1.00  0.00     0.118 C 
BRANCH  27  28
ATOM     28  N   UNL     1       4.511   6.951   2.696  1.00  0.00    -0.352 N 
ATOM     29  C   UNL     1       4.648   7.484   3.951  1.00  0.00     0.251 C 
ATOM     30  H   UNL     1       4.498   7.622   1.976  1.00  0.00     0.163 HD
ATOM     31  O   UNL     1       4.518   8.705   4.089  1.00  0.00    -0.269 OA
BRANCH  29  32
ATOM     32  C   UNL     1       4.951   6.657   5.143  1.00  0.00     0.039 A 
ATOM     33  C   UNL     1       4.453   7.065   6.387  1.00  0.00     0.014 A 
ATOM     34  C   UNL     1       5.784   5.540   5.077  1.00  0.00     0.014 A 
ATOM     35  C   UNL     1       4.743   6.330   7.542  1.00  0.00     0.010 A 
ATOM     36  C   UNL     1       6.000   4.756   6.211  1.00  0.00     0.010 A 
ATOM     37  C   UNL     1       5.492   5.146   7.459  1.00  0.00    -0.014 A 
BRANCH  37  38
ATOM     38  C   UNL     1       5.767   4.312   8.659  1.00  0.00     0.031 A 
ATOM     39  C   UNL     1       7.184   4.075   9.111  1.00  0.00     0.074 A 
ATOM     40  C   UNL     1       4.749   3.706   9.301  1.00  0.00     0.049 A 
ATOM     41  N   UNL     1       7.634   3.285  10.055  1.00  0.00    -0.248 NA
ATOM     42  C   UNL     1       8.239   4.798   8.383  1.00  0.00     0.031 C 
ATOM     43  C   UNL     1       3.335   3.818   8.941  1.00  0.00     0.029 A 
ATOM     44  N   UNL     1       4.748   2.861  10.384  1.00  0.00    -0.354 N 
ATOM     45  C   UNL     1       9.018   3.398  10.016  1.00  0.00     0.074 A 
ATOM     46  C   UNL     1       9.338   4.293   8.925  1.00  0.00     0.031 C 
ATOM     47  C   UNL     1       2.603   3.086   9.795  1.00  0.00     0.029 A 
ATOM     48  C   UNL     1       3.496   2.419  10.737  1.00  0.00     0.049 A 
ATOM     49  H   UNL     1       5.567   2.597  10.862  1.00  0.00     0.167 HD
ATOM     50  C   UNL     1       9.938   2.826  10.830  1.00  0.00     0.037 A 
ATOM     51  C   UNL     1       3.112   1.562  11.703  1.00  0.00     0.037 A 
ATOM     52  C   UNL     1       9.617   1.968  11.940  1.00  0.00     0.049 A 
ATOM     53  C   UNL     1       4.153   0.950  12.601  1.00  0.00     0.074 A 
ATOM     54  C   UNL     1      10.475   1.387  12.859  1.00  0.00     0.029 A 
ATOM     55  N   UNL     1       8.334   1.573  12.286  1.00  0.00    -0.354 N 
ATOM     56  N   UNL     1       5.454   1.105  12.585  1.00  0.00    -0.248 NA
ATOM     57  C   UNL     1       3.670   0.047  13.655  1.00  0.00     0.031 C 
ATOM     58  C   UNL     1       9.713   0.610  13.738  1.00  0.00     0.029 A 
ATOM     59  C   UNL     1       8.377   0.743  13.395  1.00  0.00     0.049 A 
ATOM     60  H   UNL     1       7.513   1.841  11.813  1.00  0.00     0.167 HD
ATOM     61  C   UNL     1       5.942   0.343  13.637  1.00  0.00     0.074 A 
ATOM     62  C   UNL     1       4.796  -0.261  14.283  1.00  0.00     0.031 C 
ATOM     63  C   UNL     1       7.226   0.158  14.031  1.00  0.00     0.037 A 
BRANCH  50  64
ATOM     64  C   UNL     1      11.386   3.118  10.558  1.00  0.00     0.064 A 
ATOM     65  C   UNL     1      11.938   4.386  10.800  1.00  0.00     0.173 A 
ATOM     66  C   UNL     1      12.243   2.109  10.092  1.00  0.00     0.173 A 
ATOM     67  F   UNL     1      11.161   5.388  11.236  1.00  0.00    -0.203 F 
ATOM     68  C   UNL     1      13.286   4.639  10.558  1.00  0.00     0.198 A 
ATOM     69  C   UNL     1      13.597   2.358   9.880  1.00  0.00     0.198 A 
ATOM     70  F   UNL     1      11.769   0.877   9.851  1.00  0.00    -0.203 F 
ATOM     71  F   UNL     1      13.780   5.870  10.751  1.00  0.00    -0.200 F 
ATOM     72  C   UNL     1      14.116   3.624  10.106  1.00  0.00     0.200 A 
ATOM     73  F   UNL     1      14.400   1.372   9.456  1.00  0.00    -0.200 F 
ATOM     74  F   UNL     1      15.414   3.867   9.882  1.00  0.00    -0.200 F 
ENDBRANCH  50  64
BRANCH  51  75
ATOM     75  C   UNL     1       1.671   1.245  11.883  1.00  0.00     0.064 A 
ATOM     76  C   UNL     1       0.971   1.695  13.011  1.00  0.00     0.173 A 
ATOM     77  C   UNL     1       0.968   0.480  10.941  1.00  0.00     0.173 A 
ATOM     78  F   UNL     1       1.606   2.411  13.951  1.00  0.00    -0.203 F 
ATOM     79  C   UNL     1      -0.371   1.375  13.201  1.00  0.00     0.198 A 
ATOM     80  C   UNL     1      -0.382   0.184  11.117  1.00  0.00     0.198 A 
ATOM     81  F   UNL     1       1.591   0.028   9.842  1.00  0.00    -0.203 F 
ATOM     82  F   UNL     1      -1.003   1.777  14.312  1.00  0.00    -0.200 F 
ATOM     83  C   UNL     1      -1.048   0.624  12.251  1.00  0.00     0.200 A 
ATOM     84  F   UNL     1      -1.036  -0.530  10.191  1.00  0.00    -0.200 F 
ATOM     85  F   UNL     1      -2.340   0.317  12.434  1.00  0.00    -0.200 F 
ENDBRANCH  51  75
BRANCH  63  86
ATOM     86  C   UNL     1       7.457  -0.707  15.236  1.00  0.00     0.064 A 
ATOM     87  C   UNL     1       7.295  -2.099  15.183  1.00  0.00     0.173 A 
ATOM     88  C   UNL     1       7.882  -0.138  16.446  1.00  0.00     0.173 A 
ATOM     89  F   UNL     1       6.876  -2.687  14.053  1.00  0.00    -0.203 F 
ATOM     90  C   UNL     1       7.528  -2.888  16.306  1.00  0.00     0.198 A 
ATOM     91  C   UNL     1       8.141  -0.934  17.559  1.00  0.00     0.198 A 
ATOM     92  F   UNL     1       8.056   1.188  16.547  1.00  0.00    -0.203 F 
ATOM     93  F   UNL     1       7.324  -4.211  16.246  1.00  0.00    -0.200 F 
ATOM     94  C   UNL     1       7.958  -2.306  17.490  1.00  0.00     0.200 A 
ATOM     95  F   UNL     1       8.568  -0.372  18.698  1.00  0.00    -0.200 F 
ATOM     96  F   UNL     1       8.188  -3.069  18.567  1.00  0.00    -0.200 F 
ENDBRANCH  63  86
ENDBRANCH  37  38
ENDBRANCH  29  32
ENDBRANCH  27  28
ENDBRANCH  26  27
ENDBRANCH   1  26
TORSDOF 11
