REMARK SMILES COc1ccc(C(=O)NCCCNC(=O)c2ccc(-c3c4nc(c(-c5c(F)c(F)c(F)c(F)c5F)c5ccc([nH]5)c(-c5c(F)c(F)c(F)c(F)c5F)c5nc(c(-c6c(F)c(F)c(F)c(F)c6F)c6ccc3[nH]6)C=C5)C=C4)cc2)cc1S(=O)(=O)N(C)Cc1cccc(F)c1
REMARK SMILES IDX 10 1 9 2 7 3 8 4 6 6 3 7 4 8 80 9 5 10 79 11 2 12 1 13 81 14
REMARK SMILES IDX 82 15 83 16 84 17 85 18 86 19 87 20 88 21 93 22 89 23 91 24
REMARK SMILES IDX 90 25 92 26 11 27 12 28 13 29 14 30 15 32 16 33 17 34 78 35
REMARK SMILES IDX 18 36 77 37 19 38 20 39 21 40 71 41 22 42 76 43 70 44 72 45
REMARK SMILES IDX 23 46 75 47 69 48 68 49 24 51 56 52 36 53 55 54 37 55 40 56
REMARK SMILES IDX 54 57 73 58 38 59 39 60 53 62 74 63 41 64 25 65 26 66 34 67
REMARK SMILES IDX 27 68 28 69 32 70 35 71 29 72 30 73 33 74 31 75 57 76 58 77
REMARK SMILES IDX 66 78 59 79 60 80 64 81 67 82 61 83 62 84 65 85 63 86 42 87
REMARK SMILES IDX 43 88 51 89 44 90 45 91 49 92 52 93 46 94 47 95 50 96 48 97
REMARK H PARENT 9 5 13 31 72 50 40 61
REMARK Flexibility Score: inf
ROOT
ATOM      1  C   UNL     1       4.046   3.085   5.258  1.00  0.00     0.118 C 
ENDROOT
BRANCH   1   2
ATOM      2  N   UNL     1       3.047   4.146   5.252  1.00  0.00    -0.352 N 
ATOM      3  C   UNL     1       1.883   4.324   4.543  1.00  0.00     0.251 C 
ATOM      4  O   UNL     1       1.178   5.292   4.825  1.00  0.00    -0.269 OA
ATOM      5  H   UNL     1       3.244   4.878   5.880  1.00  0.00     0.163 HD
BRANCH   3   6
ATOM      6  C   UNL     1       1.421   3.383   3.486  1.00  0.00     0.041 A 
ATOM      7  C   UNL     1       0.452   1.552   1.560  1.00  0.00     0.138 A 
ATOM      8  C   UNL     1      -0.431   2.368   2.278  1.00  0.00     0.049 A 
ATOM      9  C   UNL     1       1.819   1.700   1.759  1.00  0.00     0.125 A 
ATOM     10  C   UNL     1       0.048   3.262   3.246  1.00  0.00     0.018 A 
ATOM     11  C   UNL     1       2.291   2.646   2.690  1.00  0.00     0.039 A 
BRANCH   7  12
ATOM     12  O   UNL     1      -0.086   0.738   0.611  1.00  0.00    -0.495 OA
ATOM     13  C   UNL     1      -0.334  -0.571   1.123  1.00  0.00     0.278 C 
ENDBRANCH   7  12
BRANCH   9  14
ATOM     14  S   UNL     1       3.096   0.752   0.981  1.00  0.00     0.246 S 
ATOM     15  O   UNL     1       4.177   1.688   0.760  1.00  0.00    -0.207 OA
ATOM     16  O   UNL     1       3.302  -0.398   1.843  1.00  0.00    -0.207 OA
BRANCH  14  17
ATOM     17  N   UNL     1       2.607   0.172  -0.525  1.00  0.00    -0.196 NA
ATOM     18  C   UNL     1       1.914   1.044  -1.486  1.00  0.00     0.125 C 
BRANCH  17  19
ATOM     19  C   UNL     1       3.563  -0.782  -1.154  1.00  0.00     0.137 C 
BRANCH  19  20
ATOM     20  C   UNL     1       4.894  -0.257  -1.675  1.00  0.00    -0.030 A 
ATOM     21  C   UNL     1       5.923  -1.178  -1.949  1.00  0.00     0.005 A 
ATOM     22  C   UNL     1       5.153   1.096  -1.939  1.00  0.00     0.044 A 
ATOM     23  C   UNL     1       7.163  -0.756  -2.445  1.00  0.00     0.003 A 
ATOM     24  C   UNL     1       6.390   1.510  -2.423  1.00  0.00     0.123 A 
ATOM     25  C   UNL     1       7.398   0.595  -2.680  1.00  0.00     0.039 A 
ATOM     26  F   UNL     1       6.607   2.814  -2.642  1.00  0.00    -0.207 F 
ENDBRANCH  19  20
ENDBRANCH  17  19
ENDBRANCH  14  17
ENDBRANCH   9  14
ENDBRANCH   3   6
ENDBRANCH   1   2
BRANCH   1  27
ATOM     27  C   UNL     1       5.318   3.510   4.520  1.00  0.00     0.042 C 
BRANCH  27  28
ATOM     28  C   UNL     1       6.215   4.432   5.342  1.00  0.00     0.118 C 
BRANCH  28  29
ATOM     29  N   UNL     1       6.889   3.721   6.421  1.00  0.00    -0.352 N 
ATOM     30  C   UNL     1       8.217   3.704   6.765  1.00  0.00     0.251 C 
ATOM     31  H   UNL     1       6.303   3.170   6.988  1.00  0.00     0.163 HD
ATOM     32  O   UNL     1       8.621   2.896   7.596  1.00  0.00    -0.269 OA
BRANCH  30  33
ATOM     33  C   UNL     1       9.171   4.647   6.141  1.00  0.00     0.039 A 
ATOM     34  C   UNL     1      10.434   4.177   5.765  1.00  0.00     0.014 A 
ATOM     35  C   UNL     1       8.849   5.996   5.975  1.00  0.00     0.014 A 
ATOM     36  C   UNL     1      11.358   5.048   5.182  1.00  0.00     0.010 A 
ATOM     37  C   UNL     1       9.749   6.851   5.342  1.00  0.00     0.010 A 
ATOM     38  C   UNL     1      11.014   6.388   4.948  1.00  0.00    -0.014 A 
BRANCH  38  39
ATOM     39  C   UNL     1      11.965   7.336   4.316  1.00  0.00     0.031 A 
ATOM     40  C   UNL     1      12.495   8.499   5.106  1.00  0.00     0.074 A 
ATOM     41  C   UNL     1      12.283   7.201   3.015  1.00  0.00     0.049 A 
ATOM     42  N   UNL     1      13.210   9.520   4.705  1.00  0.00    -0.248 NA
ATOM     43  C   UNL     1      12.147   8.532   6.535  1.00  0.00     0.031 C 
ATOM     44  C   UNL     1      11.810   6.132   2.136  1.00  0.00     0.029 A 
ATOM     45  N   UNL     1      13.060   7.986   2.199  1.00  0.00    -0.354 N 
ATOM     46  C   UNL     1      13.376  10.326   5.823  1.00  0.00     0.074 A 
ATOM     47  C   UNL     1      12.653   9.698   6.909  1.00  0.00     0.031 C 
ATOM     48  C   UNL     1      12.304   6.328   0.903  1.00  0.00     0.029 A 
ATOM     49  C   UNL     1      13.096   7.555   0.896  1.00  0.00     0.049 A 
ATOM     50  H   UNL     1      13.544   8.782   2.518  1.00  0.00     0.167 HD
ATOM     51  C   UNL     1      14.080  11.478   5.937  1.00  0.00     0.037 A 
ATOM     52  C   UNL     1      13.684   8.100  -0.186  1.00  0.00     0.037 A 
ATOM     53  C   UNL     1      14.817  12.085   4.860  1.00  0.00     0.049 A 
ATOM     54  C   UNL     1      14.465   9.377  -0.035  1.00  0.00     0.074 A 
ATOM     55  C   UNL     1      15.596  13.229   4.882  1.00  0.00     0.029 A 
ATOM     56  N   UNL     1      14.868  11.591   3.564  1.00  0.00    -0.354 N 
ATOM     57  N   UNL     1      14.649  10.111   1.035  1.00  0.00    -0.248 NA
ATOM     58  C   UNL     1      15.125   9.897  -1.240  1.00  0.00     0.031 C 
ATOM     59  C   UNL     1      16.091  13.446   3.592  1.00  0.00     0.029 A 
ATOM     60  C   UNL     1      15.658  12.413   2.776  1.00  0.00     0.049 A 
ATOM     61  H   UNL     1      14.411  10.777   3.251  1.00  0.00     0.167 HD
ATOM     62  C   UNL     1      15.468  11.161   0.642  1.00  0.00     0.074 A 
ATOM     63  C   UNL     1      15.750  10.966  -0.765  1.00  0.00     0.031 C 
ATOM     64  C   UNL     1      15.943  12.192   1.381  1.00  0.00     0.037 A 
BRANCH  51  65
ATOM     65  C   UNL     1      14.081  12.156   7.276  1.00  0.00     0.064 A 
ATOM     66  C   UNL     1      14.755  11.608   8.377  1.00  0.00     0.173 A 
ATOM     67  C   UNL     1      13.415  13.378   7.457  1.00  0.00     0.173 A 
ATOM     68  F   UNL     1      15.398  10.436   8.260  1.00  0.00    -0.203 F 
ATOM     69  C   UNL     1      14.733  12.238   9.619  1.00  0.00     0.198 A 
ATOM     70  C   UNL     1      13.420  14.021   8.692  1.00  0.00     0.198 A 
ATOM     71  F   UNL     1      12.760  13.950   6.436  1.00  0.00    -0.203 F 
ATOM     72  F   UNL     1      15.338  11.667  10.669  1.00  0.00    -0.200 F 
ATOM     73  C   UNL     1      14.070  13.446   9.774  1.00  0.00     0.200 A 
ATOM     74  F   UNL     1      12.790  15.195   8.838  1.00  0.00    -0.200 F 
ATOM     75  F   UNL     1      14.051  14.053  10.969  1.00  0.00    -0.200 F 
ENDBRANCH  51  65
BRANCH  52  76
ATOM     76  C   UNL     1      13.569   7.424  -1.503  1.00  0.00     0.064 A 
ATOM     77  C   UNL     1      14.670   6.775  -2.076  1.00  0.00     0.173 A 
ATOM     78  C   UNL     1      12.356   7.399  -2.207  1.00  0.00     0.173 A 
ATOM     79  F   UNL     1      15.856   6.790  -1.450  1.00  0.00    -0.203 F 
ATOM     80  C   UNL     1      14.567   6.136  -3.310  1.00  0.00     0.198 A 
ATOM     81  C   UNL     1      12.247   6.739  -3.429  1.00  0.00     0.198 A 
ATOM     82  F   UNL     1      11.272   8.004  -1.698  1.00  0.00    -0.203 F 
ATOM     83  F   UNL     1      15.645   5.553  -3.852  1.00  0.00    -0.200 F 
ATOM     84  C   UNL     1      13.354   6.112  -3.982  1.00  0.00     0.200 A 
ATOM     85  F   UNL     1      11.071   6.708  -4.070  1.00  0.00    -0.200 F 
ATOM     86  F   UNL     1      13.254   5.491  -5.165  1.00  0.00    -0.200 F 
ENDBRANCH  52  76
BRANCH  64  87
ATOM     87  C   UNL     1      16.858  13.166   0.701  1.00  0.00     0.064 A 
ATOM     88  C   UNL     1      16.377  14.118  -0.208  1.00  0.00     0.173 A 
ATOM     89  C   UNL     1      18.227  13.182   1.009  1.00  0.00     0.173 A 
ATOM     90  F   UNL     1      15.078  14.133  -0.546  1.00  0.00    -0.203 F 
ATOM     91  C   UNL     1      17.236  15.043  -0.795  1.00  0.00     0.198 A 
ATOM     92  C   UNL     1      19.079  14.123   0.440  1.00  0.00     0.198 A 
ATOM     93  F   UNL     1      18.735  12.293   1.877  1.00  0.00    -0.203 F 
ATOM     94  F   UNL     1      16.761  15.923  -1.688  1.00  0.00    -0.200 F 
ATOM     95  C   UNL     1      18.583  15.050  -0.465  1.00  0.00     0.200 A 
ATOM     96  F   UNL     1      20.378  14.137   0.769  1.00  0.00    -0.200 F 
ATOM     97  F   UNL     1      19.406  15.949  -1.023  1.00  0.00    -0.200 F 
ENDBRANCH  64  87
ENDBRANCH  38  39
ENDBRANCH  30  33
ENDBRANCH  28  29
ENDBRANCH  27  28
ENDBRANCH   1  27
TORSDOF 15
