REMARK SMILES CCOc1ccccc1[C@@H](C(=O)NCCCNC(=O)c1ccc(-c2c3nc(c(-c4c(F)c(F)c(F)c(F)c4F)c4ccc([nH]4)c(-c4c(F)c(F)c(F)c(F)c4F)c4nc(c(-c5c(F)c(F)c(F)c(F)c5F)c5ccc2[nH]5)C=C4)C=C3)cc1)[NH+]1CCC(C(=O)N2CCCC2)CC1
REMARK SMILES IDX 14 1 13 2 11 3 12 4 10 6 9 7 4 8 5 9 6 10 8 11 7 12 3 13
REMARK SMILES IDX 2 14 1 15 83 16 84 17 95 18 85 20 94 21 86 22 87 23 88 24
REMARK SMILES IDX 89 25 90 26 93 27 91 28 92 29 15 30 16 31 17 32 18 33 19 35
REMARK SMILES IDX 20 36 21 37 82 38 22 39 81 40 23 41 24 42 25 43 75 44 26 45
REMARK SMILES IDX 80 46 74 47 76 48 27 49 79 50 73 51 72 52 28 54 60 55 40 56
REMARK SMILES IDX 59 57 41 58 44 59 58 60 77 61 42 62 43 63 57 65 78 66 45 67
REMARK SMILES IDX 29 68 30 69 38 70 31 71 32 72 36 73 39 74 33 75 34 76 37 77
REMARK SMILES IDX 35 78 61 79 62 80 70 81 63 82 64 83 68 84 71 85 65 86 66 87
REMARK SMILES IDX 69 88 67 89 46 90 47 91 55 92 48 93 49 94 53 95 56 96 50 97
REMARK SMILES IDX 51 98 54 99 52 100
REMARK H PARENT 13 5 83 19 17 34 76 53 44 64
REMARK Flexibility Score: inf
ROOT
ATOM      1  C   UNL     1       1.127   0.466  -3.264  1.00  0.00     0.118 C 
ENDROOT
BRANCH   1   2
ATOM      2  N   UNL     1       2.207  -0.495  -3.200  1.00  0.00    -0.351 N 
ATOM      3  C   UNL     1       3.144  -0.699  -2.222  1.00  0.00     0.283 C 
ATOM      4  O   UNL     1       4.001  -1.547  -2.492  1.00  0.00    -0.268 OA
ATOM      5  H   UNL     1       2.280  -1.093  -3.979  1.00  0.00     0.163 HD
BRANCH   3   6
ATOM      6  C   UNL     1       3.039   0.047  -0.851  1.00  0.00     0.309 C 
BRANCH   6   7
ATOM      7  C   UNL     1       3.277   1.551  -0.913  1.00  0.00     0.061 A 
ATOM      8  C   UNL     1       2.281   2.475  -0.535  1.00  0.00     0.128 A 
ATOM      9  C   UNL     1       2.550   3.845  -0.500  1.00  0.00     0.047 A 
ATOM     10  C   UNL     1       3.816   4.317  -0.848  1.00  0.00     0.004 A 
ATOM     11  C   UNL     1       4.525   2.057  -1.319  1.00  0.00     0.014 A 
ATOM     12  C   UNL     1       4.795   3.425  -1.277  1.00  0.00     0.001 A 
BRANCH   8  13
ATOM     13  O   UNL     1       0.966   2.096  -0.488  1.00  0.00    -0.493 OA
BRANCH  13  14
ATOM     14  C   UNL     1       0.429   1.804   0.801  1.00  0.00     0.226 C 
ATOM     15  C   UNL     1      -0.317   0.475   0.701  1.00  0.00     0.049 C 
ENDBRANCH  13  14
ENDBRANCH   8  13
ENDBRANCH   6   7
BRANCH   6  16
ATOM     16  N   UNL     1       3.801  -0.656   0.233  1.00  0.00    -0.321 N 
ATOM     17  C   UNL     1       5.260  -0.728   0.073  1.00  0.00     0.263 C 
ATOM     18  C   UNL     1       3.481  -0.155   1.573  1.00  0.00     0.263 C 
ATOM     19  H   UNL     1       3.466  -1.614   0.128  1.00  0.00     0.349 HD
ATOM     20  C   UNL     1       5.788  -1.812   1.016  1.00  0.00     0.075 C 
ATOM     21  C   UNL     1       3.992  -1.112   2.643  1.00  0.00     0.075 C 
ATOM     22  C   UNL     1       5.477  -1.456   2.464  1.00  0.00     0.090 C 
BRANCH  22  23
ATOM     23  C   UNL     1       5.860  -2.417   3.591  1.00  0.00     0.226 C 
ATOM     24  O   UNL     1       6.386  -1.943   4.606  1.00  0.00    -0.275 OA
ATOM     25  N   UNL     1       5.367  -3.698   3.607  1.00  0.00    -0.342 N 
ATOM     26  C   UNL     1       5.269  -4.692   2.558  1.00  0.00     0.119 C 
ATOM     27  C   UNL     1       4.889  -4.261   4.858  1.00  0.00     0.119 C 
ATOM     28  C   UNL     1       4.037  -5.478   2.953  1.00  0.00     0.023 C 
ATOM     29  C   UNL     1       4.165  -5.550   4.471  1.00  0.00     0.023 C 
ENDBRANCH  22  23
ENDBRANCH   6  16
ENDBRANCH   3   6
ENDBRANCH   1   2
BRANCH   1  30
ATOM     30  C   UNL     1       1.550   1.740  -3.985  1.00  0.00     0.042 C 
BRANCH  30  31
ATOM     31  C   UNL     1       1.746   1.528  -5.479  1.00  0.00     0.118 C 
BRANCH  31  32
ATOM     32  N   UNL     1       0.490   1.264  -6.170  1.00  0.00    -0.352 N 
ATOM     33  C   UNL     1      -0.010   1.846  -7.306  1.00  0.00     0.251 C 
ATOM     34  H   UNL     1      -0.078   0.570  -5.765  1.00  0.00     0.163 HD
ATOM     35  O   UNL     1      -1.167   1.628  -7.657  1.00  0.00    -0.269 OA
BRANCH  33  36
ATOM     36  C   UNL     1       0.842   2.757  -8.095  1.00  0.00     0.039 A 
ATOM     37  C   UNL     1       0.307   3.966  -8.546  1.00  0.00     0.014 A 
ATOM     38  C   UNL     1       2.168   2.420  -8.380  1.00  0.00     0.014 A 
ATOM     39  C   UNL     1       1.122   4.867  -9.233  1.00  0.00     0.010 A 
ATOM     40  C   UNL     1       2.997   3.350  -8.993  1.00  0.00     0.010 A 
ATOM     41  C   UNL     1       2.482   4.579  -9.433  1.00  0.00    -0.014 A 
BRANCH  41  42
ATOM     42  C   UNL     1       3.388   5.527 -10.126  1.00  0.00     0.031 A 
ATOM     43  C   UNL     1       4.039   5.116 -11.417  1.00  0.00     0.074 A 
ATOM     44  C   UNL     1       3.691   6.709  -9.556  1.00  0.00     0.049 A 
ATOM     45  N   UNL     1       4.979   5.716 -12.100  1.00  0.00    -0.248 NA
ATOM     46  C   UNL     1       3.593   3.840 -12.000  1.00  0.00     0.031 C 
ATOM     47  C   UNL     1       3.151   7.202  -8.288  1.00  0.00     0.029 A 
ATOM     48  N   UNL     1       4.551   7.700  -9.958  1.00  0.00    -0.354 N 
ATOM     49  C   UNL     1       5.248   4.884 -13.179  1.00  0.00     0.074 A 
ATOM     50  C   UNL     1       4.416   3.711 -13.030  1.00  0.00     0.031 C 
ATOM     51  C   UNL     1       3.689   8.403  -8.019  1.00  0.00     0.029 A 
ATOM     52  C   UNL     1       4.644   8.743  -9.069  1.00  0.00     0.049 A 
ATOM     53  H   UNL     1       5.054   7.668 -10.804  1.00  0.00     0.167 HD
ATOM     54  C   UNL     1       6.095   5.093 -14.215  1.00  0.00     0.037 A 
ATOM     55  C   UNL     1       5.429   9.837  -9.089  1.00  0.00     0.037 A 
ATOM     56  C   UNL     1       6.902   6.273 -14.369  1.00  0.00     0.049 A 
ATOM     57  C   UNL     1       6.372  10.040 -10.246  1.00  0.00     0.074 A 
ATOM     58  C   UNL     1       7.772   6.596 -15.395  1.00  0.00     0.029 A 
ATOM     59  N   UNL     1       6.933   7.329 -13.470  1.00  0.00    -0.354 N 
ATOM     60  N   UNL     1       6.588   9.267 -11.283  1.00  0.00    -0.248 NA
ATOM     61  C   UNL     1       7.175  11.271 -10.241  1.00  0.00     0.031 C 
ATOM     62  C   UNL     1       8.357   7.831 -15.099  1.00  0.00     0.029 A 
ATOM     63  C   UNL     1       7.812   8.302 -13.916  1.00  0.00     0.049 A 
ATOM     64  H   UNL     1       6.407   7.380 -12.639  1.00  0.00     0.167 HD
ATOM     65  C   UNL     1       7.520   9.932 -12.068  1.00  0.00     0.074 A 
ATOM     66  C   UNL     1       7.822  11.177 -11.394  1.00  0.00     0.031 C 
ATOM     67  C   UNL     1       8.075   9.548 -13.243  1.00  0.00     0.037 A 
BRANCH  54  68
ATOM     68  C   UNL     1       6.178   4.029 -15.270  1.00  0.00     0.064 A 
ATOM     69  C   UNL     1       5.111   3.784 -16.148  1.00  0.00     0.173 A 
ATOM     70  C   UNL     1       7.348   3.273 -15.433  1.00  0.00     0.173 A 
ATOM     71  F   UNL     1       3.965   4.470 -16.026  1.00  0.00    -0.203 F 
ATOM     72  C   UNL     1       5.203   2.804 -17.133  1.00  0.00     0.198 A 
ATOM     73  C   UNL     1       7.449   2.316 -16.440  1.00  0.00     0.198 A 
ATOM     74  F   UNL     1       8.400   3.470 -14.624  1.00  0.00    -0.203 F 
ATOM     75  F   UNL     1       4.154   2.556 -17.928  1.00  0.00    -0.200 F 
ATOM     76  C   UNL     1       6.374   2.078 -17.284  1.00  0.00     0.200 A 
ATOM     77  F   UNL     1       8.586   1.624 -16.594  1.00  0.00    -0.200 F 
ATOM     78  F   UNL     1       6.465   1.142 -18.239  1.00  0.00    -0.200 F 
ENDBRANCH  54  68
BRANCH  55  79
ATOM     79  C   UNL     1       5.361  10.827  -7.981  1.00  0.00     0.064 A 
ATOM     80  C   UNL     1       4.855  12.117  -8.197  1.00  0.00     0.173 A 
ATOM     81  C   UNL     1       5.819  10.514  -6.693  1.00  0.00     0.173 A 
ATOM     82  F   UNL     1       4.422  12.471  -9.415  1.00  0.00    -0.203 F 
ATOM     83  C   UNL     1       4.841  13.065  -7.175  1.00  0.00     0.198 A 
ATOM     84  C   UNL     1       5.774  11.453  -5.664  1.00  0.00     0.198 A 
ATOM     85  F   UNL     1       6.305   9.292  -6.431  1.00  0.00    -0.203 F 
ATOM     86  F   UNL     1       4.406  14.308  -7.425  1.00  0.00    -0.200 F 
ATOM     87  C   UNL     1       5.296  12.732  -5.909  1.00  0.00     0.200 A 
ATOM     88  F   UNL     1       6.200  11.121  -4.438  1.00  0.00    -0.200 F 
ATOM     89  F   UNL     1       5.284  13.644  -4.928  1.00  0.00    -0.200 F 
ENDBRANCH  55  79
BRANCH  67  90
ATOM     90  C   UNL     1       9.018  10.505 -13.911  1.00  0.00     0.064 A 
ATOM     91  C   UNL     1      10.310  10.736 -13.417  1.00  0.00     0.173 A 
ATOM     92  C   UNL     1       8.642  11.150 -15.099  1.00  0.00     0.173 A 
ATOM     93  F   UNL     1      10.711  10.154 -12.277  1.00  0.00    -0.203 F 
ATOM     94  C   UNL     1      11.184  11.593 -14.080  1.00  0.00     0.198 A 
ATOM     95  C   UNL     1       9.529  11.982 -15.775  1.00  0.00     0.198 A 
ATOM     96  F   UNL     1       7.419  10.956 -15.616  1.00  0.00    -0.203 F 
ATOM     97  F   UNL     1      12.401  11.831 -13.570  1.00  0.00    -0.200 F 
ATOM     98  C   UNL     1      10.797  12.207 -15.262  1.00  0.00     0.200 A 
ATOM     99  F   UNL     1       9.158  12.562 -16.925  1.00  0.00    -0.200 F 
ATOM    100  F   UNL     1      11.646  13.020 -15.906  1.00  0.00    -0.200 F 
ENDBRANCH  67  90
ENDBRANCH  41  42
ENDBRANCH  33  36
ENDBRANCH  31  32
ENDBRANCH  30  31
ENDBRANCH   1  30
TORSDOF 15
