REMARK SMILES Cc1ccccc1CNC(=O)N1CCC(CC(=O)NCCCNC(=O)c2ccc(-c3c4nc(c(-c5c(F)c(F)c(F)c(F)c5F)c5ccc([nH]5)c(-c5c(F)c(F)c(F)c(F)c5F)c5nc(c(-c6c(F)c(F)c(F)c(F)c6F)c6ccc3[nH]6)C=C5)C=C4)cc2)CC1
REMARK SMILES IDX 20 1 19 2 17 3 18 4 16 6 15 7 9 8 10 9 11 11 12 12 13 13
REMARK SMILES IDX 90 14 14 15 89 16 8 17 7 18 1 19 2 20 3 21 4 22 6 23 5 24
REMARK SMILES IDX 21 25 22 26 23 27 24 28 25 30 26 31 27 32 88 33 28 34 87 35
REMARK SMILES IDX 29 36 30 37 31 38 81 39 32 40 86 41 80 42 82 43 33 44 85 45
REMARK SMILES IDX 79 46 78 47 34 49 66 50 46 51 65 52 47 53 50 54 64 55 83 56
REMARK SMILES IDX 48 57 49 58 63 60 84 61 51 62 35 63 36 64 44 65 37 66 38 67
REMARK SMILES IDX 42 68 45 69 39 70 40 71 43 72 41 73 67 74 68 75 76 76 69 77
REMARK SMILES IDX 70 78 74 79 77 80 71 81 72 82 75 83 73 84 52 85 53 86 61 87
REMARK SMILES IDX 54 88 55 89 59 90 62 91 56 92 57 93 60 94 58 95
REMARK H PARENT 19 5 9 10 23 29 82 48 50 59
REMARK Flexibility Score: inf
ROOT
ATOM      1  C   UNL     1      -1.591  10.013   0.302  1.00  0.00     0.117 C 
ENDROOT
BRANCH   1   2
ATOM      2  N   UNL     1      -1.670   9.940   1.754  1.00  0.00    -0.356 N 
ATOM      3  C   UNL     1      -0.749   9.497   2.666  1.00  0.00     0.220 C 
ATOM      4  O   UNL     1      -0.994   9.657   3.863  1.00  0.00    -0.275 OA
ATOM      5  H   UNL     1      -2.517  10.258   2.140  1.00  0.00     0.163 HD
BRANCH   3   6
ATOM      6  C   UNL     1       0.509   8.764   2.223  1.00  0.00     0.103 C 
BRANCH   6   7
ATOM      7  C   UNL     1       0.348   7.231   2.283  1.00  0.00     0.002 C 
ATOM      8  N   UNL     1       0.880   3.273  -0.863  1.00  0.00    -0.334 N 
ATOM      9  C   UNL     1       0.171   4.366  -0.492  1.00  0.00     0.317 C 
ATOM     10  H   UNL     1       1.093   3.198  -1.821  1.00  0.00     0.165 HD
ATOM     11  O   UNL     1      -0.520   4.944  -1.330  1.00  0.00    -0.249 OA
ATOM     12  N   UNL     1       0.182   4.712   0.835  1.00  0.00    -0.325 N 
ATOM     13  C   UNL     1      -1.019   5.283   1.403  1.00  0.00     0.121 C 
ATOM     14  C   UNL     1       1.413   5.008   1.564  1.00  0.00     0.121 C 
ATOM     15  C   UNL     1      -0.881   6.787   1.487  1.00  0.00     0.026 C 
ATOM     16  C   UNL     1       1.606   6.524   1.733  1.00  0.00     0.026 C 
BRANCH   8  17
ATOM     17  C   UNL     1       1.363   2.202  -0.015  1.00  0.00     0.153 C 
BRANCH  17  18
ATOM     18  C   UNL     1       0.538   0.934  -0.128  1.00  0.00    -0.026 A 
ATOM     19  C   UNL     1       2.599  -0.614  -0.037  1.00  0.00     0.044 C 
ATOM     20  C   UNL     1       1.118  -0.352  -0.099  1.00  0.00    -0.046 A 
ATOM     21  C   UNL     1       0.281  -1.486  -0.130  1.00  0.00     0.004 A 
ATOM     22  C   UNL     1      -1.106  -1.362  -0.166  1.00  0.00     0.000 A 
ATOM     23  C   UNL     1      -0.871   1.033  -0.149  1.00  0.00     0.006 A 
ATOM     24  C   UNL     1      -1.683  -0.101  -0.173  1.00  0.00     0.000 A 
ENDBRANCH  17  18
ENDBRANCH   8  17
ENDBRANCH   6   7
ENDBRANCH   3   6
ENDBRANCH   1   2
BRANCH   1  25
ATOM     25  C   UNL     1      -2.517   9.055  -0.454  1.00  0.00     0.042 C 
BRANCH  25  26
ATOM     26  C   UNL     1      -3.960   9.518  -0.602  1.00  0.00     0.118 C 
BRANCH  26  27
ATOM     27  N   UNL     1      -4.526   9.017  -1.863  1.00  0.00    -0.352 N 
ATOM     28  C   UNL     1      -5.834   8.762  -2.222  1.00  0.00     0.251 C 
ATOM     29  H   UNL     1      -3.862   8.834  -2.567  1.00  0.00     0.163 HD
ATOM     30  O   UNL     1      -6.149   8.502  -3.368  1.00  0.00    -0.269 OA
BRANCH  28  31
ATOM     31  C   UNL     1      -6.857   8.925  -1.181  1.00  0.00     0.039 A 
ATOM     32  C   UNL     1      -7.704  10.032  -1.285  1.00  0.00     0.014 A 
ATOM     33  C   UNL     1      -6.740   8.189  -0.004  1.00  0.00     0.014 A 
ATOM     34  C   UNL     1      -8.247  10.559  -0.122  1.00  0.00     0.010 A 
ATOM     35  C   UNL     1      -7.241   8.744   1.157  1.00  0.00     0.010 A 
ATOM     36  C   UNL     1      -7.906   9.977   1.100  1.00  0.00    -0.014 A 
BRANCH  36  37
ATOM     37  C   UNL     1      -8.072  10.686   2.361  1.00  0.00     0.031 A 
ATOM     38  C   UNL     1      -9.209  10.377   3.247  1.00  0.00     0.074 A 
ATOM     39  C   UNL     1      -7.182  11.641   2.718  1.00  0.00     0.049 A 
ATOM     40  N   UNL     1      -9.630  11.181   4.165  1.00  0.00    -0.248 NA
ATOM     41  C   UNL     1     -10.030   9.178   3.111  1.00  0.00     0.031 C 
ATOM     42  C   UNL     1      -7.056  12.293   4.020  1.00  0.00     0.029 A 
ATOM     43  N   UNL     1      -6.355  12.402   1.870  1.00  0.00    -0.354 N 
ATOM     44  C   UNL     1     -10.550  10.502   4.918  1.00  0.00     0.074 A 
ATOM     45  C   UNL     1     -10.875   9.334   4.137  1.00  0.00     0.031 C 
ATOM     46  C   UNL     1      -6.503  13.502   3.844  1.00  0.00     0.029 A 
ATOM     47  C   UNL     1      -6.370  13.712   2.415  1.00  0.00     0.049 A 
ATOM     48  H   UNL     1      -5.870  12.092   1.071  1.00  0.00     0.167 HD
ATOM     49  C   UNL     1     -10.822  10.953   6.173  1.00  0.00     0.037 A 
ATOM     50  C   UNL     1      -6.875  14.769   1.717  1.00  0.00     0.037 A 
ATOM     51  C   UNL     1     -10.352  12.328   6.361  1.00  0.00     0.049 A 
ATOM     52  C   UNL     1      -8.033  15.482   2.385  1.00  0.00     0.074 A 
ATOM     53  C   UNL     1      -9.358  12.948   7.096  1.00  0.00     0.029 A 
ATOM     54  N   UNL     1     -10.859  13.300   5.514  1.00  0.00    -0.354 N 
ATOM     55  N   UNL     1      -8.572  15.115   3.513  1.00  0.00    -0.248 NA
ATOM     56  C   UNL     1      -8.749  16.600   1.765  1.00  0.00     0.031 C 
ATOM     57  C   UNL     1      -9.252  14.300   6.642  1.00  0.00     0.029 A 
ATOM     58  C   UNL     1     -10.199  14.502   5.654  1.00  0.00     0.049 A 
ATOM     59  H   UNL     1     -11.603  13.150   4.887  1.00  0.00     0.167 HD
ATOM     60  C   UNL     1      -9.711  15.844   3.727  1.00  0.00     0.074 A 
ATOM     61  C   UNL     1      -9.776  16.771   2.614  1.00  0.00     0.031 C 
ATOM     62  C   UNL     1     -10.556  15.597   4.768  1.00  0.00     0.037 A 
BRANCH  49  63
ATOM     63  C   UNL     1     -11.411  10.120   7.291  1.00  0.00     0.064 A 
ATOM     64  C   UNL     1     -11.722  10.719   8.531  1.00  0.00     0.173 A 
ATOM     65  C   UNL     1     -11.572   8.717   7.261  1.00  0.00     0.173 A 
ATOM     66  F   UNL     1     -11.605  12.043   8.713  1.00  0.00    -0.203 F 
ATOM     67  C   UNL     1     -12.143   9.977   9.640  1.00  0.00     0.198 A 
ATOM     68  C   UNL     1     -12.050   7.986   8.351  1.00  0.00     0.198 A 
ATOM     69  F   UNL     1     -11.215   7.976   6.208  1.00  0.00    -0.203 F 
ATOM     70  F   UNL     1     -12.360  10.594  10.810  1.00  0.00    -0.200 F 
ATOM     71  C   UNL     1     -12.320   8.612   9.546  1.00  0.00     0.200 A 
ATOM     72  F   UNL     1     -12.212   6.659   8.236  1.00  0.00    -0.200 F 
ATOM     73  F   UNL     1     -12.725   7.899  10.606  1.00  0.00    -0.200 F 
ENDBRANCH  49  63
BRANCH  50  74
ATOM     74  C   UNL     1      -6.692  14.634   0.249  1.00  0.00     0.064 A 
ATOM     75  C   UNL     1      -5.380  14.561  -0.259  1.00  0.00     0.173 A 
ATOM     76  C   UNL     1      -7.735  14.224  -0.587  1.00  0.00     0.173 A 
ATOM     77  F   UNL     1      -4.342  14.938   0.505  1.00  0.00    -0.203 F 
ATOM     78  C   UNL     1      -5.117  13.988  -1.500  1.00  0.00     0.198 A 
ATOM     79  C   UNL     1      -7.469  13.671  -1.839  1.00  0.00     0.198 A 
ATOM     80  F   UNL     1      -9.004  14.248  -0.153  1.00  0.00    -0.203 F 
ATOM     81  F   UNL     1      -3.849  13.817  -1.901  1.00  0.00    -0.200 F 
ATOM     82  C   UNL     1      -6.161  13.520  -2.279  1.00  0.00     0.200 A 
ATOM     83  F   UNL     1      -8.478  13.196  -2.583  1.00  0.00    -0.200 F 
ATOM     84  F   UNL     1      -5.906  12.886  -3.431  1.00  0.00    -0.200 F 
ENDBRANCH  50  74
BRANCH  62  85
ATOM     85  C   UNL     1     -11.821  16.370   4.998  1.00  0.00     0.064 A 
ATOM     86  C   UNL     1     -11.852  17.773   4.998  1.00  0.00     0.173 A 
ATOM     87  C   UNL     1     -13.025  15.719   5.339  1.00  0.00     0.173 A 
ATOM     88  F   UNL     1     -10.747  18.481   4.719  1.00  0.00    -0.203 F 
ATOM     89  C   UNL     1     -13.019  18.479   5.299  1.00  0.00     0.198 A 
ATOM     90  C   UNL     1     -14.174  16.425   5.687  1.00  0.00     0.198 A 
ATOM     91  F   UNL     1     -13.124  14.381   5.314  1.00  0.00    -0.203 F 
ATOM     92  F   UNL     1     -13.019  19.818   5.244  1.00  0.00    -0.200 F 
ATOM     93  C   UNL     1     -14.174  17.806   5.659  1.00  0.00     0.200 A 
ATOM     94  F   UNL     1     -15.283  15.760   6.043  1.00  0.00    -0.200 F 
ATOM     95  F   UNL     1     -15.286  18.486   5.971  1.00  0.00    -0.200 F 
ENDBRANCH  62  85
ENDBRANCH  36  37
ENDBRANCH  28  31
ENDBRANCH  26  27
ENDBRANCH  25  26
ENDBRANCH   1  25
TORSDOF 13
