REMARK SMILES C[NH2+]C[C@H](C)C(=O)N[C@H]1C=C[C@@H](C(=O)NCCCNC(=O)c2ccc(-c3c4nc(c(-c5c(F)c(F)c(F)c(F)c5F)c5ccc([nH]5)c(-c5c(F)c(F)c(F)c(F)c5F)c5nc(c(-c6c(F)c(F)c(F)c(F)c6F)c6ccc3[nH]6)C=C5)C=C4)cc2)C1
REMARK SMILES IDX 16 1 15 2 13 3 14 4 12 6 9 7 10 8 85 9 11 10 8 11 6 12 7 13
REMARK SMILES IDX 4 15 5 16 3 17 2 18 1 19 17 22 18 23 19 24 20 25 21 27 22 28
REMARK SMILES IDX 23 29 84 30 24 31 83 32 25 33 26 34 27 35 77 36 28 37 82 38
REMARK SMILES IDX 76 39 78 40 29 41 81 42 75 43 74 44 30 46 62 47 42 48 61 49
REMARK SMILES IDX 43 50 46 51 60 52 79 53 44 54 45 55 59 57 80 58 47 59 31 60
REMARK SMILES IDX 32 61 40 62 33 63 34 64 38 65 41 66 35 67 36 68 39 69 37 70
REMARK SMILES IDX 63 71 64 72 72 73 65 74 66 75 70 76 73 77 67 78 68 79 71 80
REMARK SMILES IDX 69 81 48 82 49 83 57 84 50 85 51 86 55 87 58 88 52 89 53 90
REMARK SMILES IDX 56 91 54 92
REMARK H PARENT 15 5 8 14 2 20 2 21 19 26 78 45 46 56
REMARK Flexibility Score: inf
ROOT
ATOM      1  C   UNL     1       1.076   2.566  -0.732  1.00  0.00     0.117 C 
ENDROOT
BRANCH   1   2
ATOM      2  N   UNL     1       1.552   1.906  -1.940  1.00  0.00    -0.356 N 
ATOM      3  C   UNL     1       1.123   1.816  -3.222  1.00  0.00     0.227 C 
ATOM      4  O   UNL     1       1.901   1.219  -3.982  1.00  0.00    -0.274 OA
ATOM      5  H   UNL     1       2.385   1.405  -1.788  1.00  0.00     0.163 HD
BRANCH   3   6
ATOM      6  C   UNL     1      -0.217   2.305  -3.804  1.00  0.00     0.103 C 
ATOM      7  C   UNL     1      -2.650   2.153  -3.662  1.00  0.00     0.106 C 
ATOM      8  C   UNL     1      -2.168   3.526  -3.359  1.00  0.00    -0.006 C 
ATOM      9  C   UNL     1      -1.378   1.300  -3.673  1.00  0.00     0.047 C 
ATOM     10  C   UNL     1      -0.829   3.606  -3.395  1.00  0.00    -0.016 C 
BRANCH   7  11
ATOM     11  N   UNL     1      -3.781   1.753  -2.839  1.00  0.00    -0.349 N 
ATOM     12  C   UNL     1      -4.101   1.581  -1.538  1.00  0.00     0.228 C 
ATOM     13  O   UNL     1      -5.289   1.308  -1.317  1.00  0.00    -0.275 OA
ATOM     14  H   UNL     1      -4.556   1.543  -3.408  1.00  0.00     0.164 HD
BRANCH  12  15
ATOM     15  C   UNL     1      -3.155   1.656  -0.354  1.00  0.00     0.130 C 
ATOM     16  C   UNL     1      -2.198   0.467  -0.373  1.00  0.00     0.024 C 
BRANCH  15  17
ATOM     17  C   UNL     1      -2.455   3.000  -0.165  1.00  0.00     0.273 C 
BRANCH  17  18
ATOM     18  N   UNL     1      -3.304   4.189  -0.097  1.00  0.00    -0.348 N 
ATOM     19  C   UNL     1      -3.600   4.572   1.273  1.00  0.00     0.330 C 
ATOM     20  H   UNL     1      -2.825   4.962  -0.559  1.00  0.00     0.346 HD
ATOM     21  H   UNL     1      -4.186   3.972  -0.560  1.00  0.00     0.346 HD
ENDBRANCH  17  18
ENDBRANCH  15  17
ENDBRANCH  12  15
ENDBRANCH   7  11
ENDBRANCH   3   6
ENDBRANCH   1   2
BRANCH   1  22
ATOM     22  C   UNL     1       0.907   1.569   0.425  1.00  0.00     0.042 C 
BRANCH  22  23
ATOM     23  C   UNL     1       1.836   1.776   1.619  1.00  0.00     0.118 C 
BRANCH  23  24
ATOM     24  N   UNL     1       1.382   2.827   2.523  1.00  0.00    -0.352 N 
ATOM     25  C   UNL     1       0.824   2.853   3.780  1.00  0.00     0.251 C 
ATOM     26  H   UNL     1       1.503   3.728   2.146  1.00  0.00     0.163 HD
ATOM     27  O   UNL     1       0.470   3.958   4.204  1.00  0.00    -0.269 OA
BRANCH  25  28
ATOM     28  C   UNL     1       0.596   1.661   4.652  1.00  0.00     0.039 A 
ATOM     29  C   UNL     1      -0.354   1.775   5.684  1.00  0.00     0.014 A 
ATOM     30  C   UNL     1       1.314   0.471   4.568  1.00  0.00     0.014 A 
ATOM     31  C   UNL     1      -0.593   0.719   6.579  1.00  0.00     0.010 A 
ATOM     32  C   UNL     1       0.994  -0.624   5.381  1.00  0.00     0.010 A 
ATOM     33  C   UNL     1       0.060  -0.511   6.421  1.00  0.00    -0.014 A 
BRANCH  33  34
ATOM     34  C   UNL     1      -0.164  -1.657   7.354  1.00  0.00     0.031 A 
ATOM     35  C   UNL     1       0.997  -2.267   8.107  1.00  0.00     0.074 A 
ATOM     36  C   UNL     1      -1.391  -2.203   7.488  1.00  0.00     0.049 A 
ATOM     37  N   UNL     1       1.031  -3.333   8.871  1.00  0.00    -0.248 NA
ATOM     38  C   UNL     1       2.306  -1.615   7.945  1.00  0.00     0.031 C 
ATOM     39  C   UNL     1      -2.596  -1.762   6.787  1.00  0.00     0.029 A 
ATOM     40  N   UNL     1      -1.824  -3.258   8.257  1.00  0.00    -0.354 N 
ATOM     41  C   UNL     1       2.363  -3.498   9.237  1.00  0.00     0.074 A 
ATOM     42  C   UNL     1       3.114  -2.462   8.564  1.00  0.00     0.031 C 
ATOM     43  C   UNL     1      -3.636  -2.515   7.180  1.00  0.00     0.029 A 
ATOM     44  C   UNL     1      -3.168  -3.519   8.131  1.00  0.00     0.049 A 
ATOM     45  H   UNL     1      -1.228  -3.778   8.843  1.00  0.00     0.167 HD
ATOM     46  C   UNL     1       2.912  -4.407  10.081  1.00  0.00     0.037 A 
ATOM     47  C   UNL     1      -3.937  -4.460   8.713  1.00  0.00     0.037 A 
ATOM     48  C   UNL     1       2.160  -5.397  10.808  1.00  0.00     0.049 A 
ATOM     49  C   UNL     1      -3.314  -5.429   9.682  1.00  0.00     0.074 A 
ATOM     50  C   UNL     1       2.612  -6.308  11.747  1.00  0.00     0.029 A 
ATOM     51  N   UNL     1       0.793  -5.596  10.684  1.00  0.00    -0.354 N 
ATOM     52  N   UNL     1      -2.064  -5.535  10.062  1.00  0.00    -0.248 NA
ATOM     53  C   UNL     1      -4.215  -6.406  10.312  1.00  0.00     0.031 C 
ATOM     54  C   UNL     1       1.524  -7.083  12.165  1.00  0.00     0.029 A 
ATOM     55  C   UNL     1       0.387  -6.624  11.521  1.00  0.00     0.049 A 
ATOM     56  H   UNL     1       0.199  -5.083  10.090  1.00  0.00     0.167 HD
ATOM     57  C   UNL     1      -2.032  -6.568  10.989  1.00  0.00     0.074 A 
ATOM     58  C   UNL     1      -3.393  -7.042  11.134  1.00  0.00     0.031 C 
ATOM     59  C   UNL     1      -0.971  -7.082  11.658  1.00  0.00     0.037 A 
BRANCH  46  60
ATOM     60  C   UNL     1       4.402  -4.362  10.280  1.00  0.00     0.064 A 
ATOM     61  C   UNL     1       5.027  -3.295  10.946  1.00  0.00     0.173 A 
ATOM     62  C   UNL     1       5.215  -5.411   9.824  1.00  0.00     0.173 A 
ATOM     63  F   UNL     1       4.299  -2.262  11.396  1.00  0.00    -0.203 F 
ATOM     64  C   UNL     1       6.410  -3.260  11.109  1.00  0.00     0.198 A 
ATOM     65  C   UNL     1       6.595  -5.390  10.020  1.00  0.00     0.198 A 
ATOM     66  F   UNL     1       4.673  -6.462   9.190  1.00  0.00    -0.203 F 
ATOM     67  F   UNL     1       6.987  -2.200  11.691  1.00  0.00    -0.200 F 
ATOM     68  C   UNL     1       7.191  -4.309  10.652  1.00  0.00     0.200 A 
ATOM     69  F   UNL     1       7.348  -6.412   9.591  1.00  0.00    -0.200 F 
ATOM     70  F   UNL     1       8.522  -4.276  10.813  1.00  0.00    -0.200 F 
ENDBRANCH  46  60
BRANCH  47  71
ATOM     71  C   UNL     1      -5.396  -4.511   8.426  1.00  0.00     0.064 A 
ATOM     72  C   UNL     1      -6.332  -4.160   9.410  1.00  0.00     0.173 A 
ATOM     73  C   UNL     1      -5.886  -4.919   7.177  1.00  0.00     0.173 A 
ATOM     74  F   UNL     1      -5.914  -3.788  10.628  1.00  0.00    -0.203 F 
ATOM     75  C   UNL     1      -7.701  -4.235   9.162  1.00  0.00     0.198 A 
ATOM     76  C   UNL     1      -7.255  -4.965   6.921  1.00  0.00     0.198 A 
ATOM     77  F   UNL     1      -5.033  -5.263   6.201  1.00  0.00    -0.203 F 
ATOM     78  F   UNL     1      -8.573  -3.941  10.137  1.00  0.00    -0.200 F 
ATOM     79  C   UNL     1      -8.162  -4.631   7.916  1.00  0.00     0.200 A 
ATOM     80  F   UNL     1      -7.697  -5.337   5.712  1.00  0.00    -0.200 F 
ATOM     81  F   UNL     1      -9.479  -4.700   7.677  1.00  0.00    -0.200 F 
ENDBRANCH  47  71
BRANCH  59  82
ATOM     82  C   UNL     1      -1.244  -8.196  12.628  1.00  0.00     0.064 A 
ATOM     83  C   UNL     1      -1.602  -9.480  12.192  1.00  0.00     0.173 A 
ATOM     84  C   UNL     1      -1.127  -7.981  14.009  1.00  0.00     0.173 A 
ATOM     85  F   UNL     1      -1.741  -9.734  10.882  1.00  0.00    -0.203 F 
ATOM     86  C   UNL     1      -1.865 -10.499  13.104  1.00  0.00     0.198 A 
ATOM     87  C   UNL     1      -1.360  -9.010  14.918  1.00  0.00     0.198 A 
ATOM     88  F   UNL     1      -0.780  -6.773  14.479  1.00  0.00    -0.203 F 
ATOM     89  F   UNL     1      -2.260 -11.703  12.666  1.00  0.00    -0.200 F 
ATOM     90  C   UNL     1      -1.738 -10.265  14.465  1.00  0.00     0.200 A 
ATOM     91  F   UNL     1      -1.224  -8.786  16.232  1.00  0.00    -0.200 F 
ATOM     92  F   UNL     1      -1.991 -11.247  15.341  1.00  0.00    -0.200 F 
ENDBRANCH  59  82
ENDBRANCH  33  34
ENDBRANCH  25  28
ENDBRANCH  23  24
ENDBRANCH  22  23
ENDBRANCH   1  22
TORSDOF 14
