REMARK SMILES Cc1ccc(C(=O)N2CCC3(CCC(=O)N(CC(=O)NCCCNC(=O)c4ccc(-c5c6nc(c(-c7c(F)c(F)c(F)c(F)c7F)c7ccc([nH]7)c(-c7c(F)c(F)c(F)c(F)c7F)c7nc(c(-c8c(F)c(F)c(F)c(F)c8F)c8ccc5[nH]8)C=C7)C=C6)cc4)C3)CC2)cc1O
REMARK SMILES IDX 21 1 20 2 18 3 19 4 17 6 16 7 6 8 7 9 8 10 9 11 92 12 10 13
REMARK SMILES IDX 91 14 11 15 12 16 90 17 13 18 14 19 15 20 5 21 1 22 2 23
REMARK SMILES IDX 3 24 94 25 4 26 93 27 95 28 22 30 23 31 24 32 25 33 26 35
REMARK SMILES IDX 27 36 28 37 89 38 29 39 88 40 30 41 31 42 32 43 82 44 33 45
REMARK SMILES IDX 87 46 81 47 83 48 34 49 86 50 80 51 79 52 35 54 67 55 47 56
REMARK SMILES IDX 66 57 48 58 51 59 65 60 84 61 49 62 50 63 64 65 85 66 52 67
REMARK SMILES IDX 36 68 37 69 45 70 38 71 39 72 43 73 46 74 40 75 41 76 44 77
REMARK SMILES IDX 42 78 68 79 69 80 77 81 70 82 71 83 75 84 78 85 72 86 73 87
REMARK SMILES IDX 76 88 74 89 53 90 54 91 62 92 55 93 56 94 60 95 63 96 57 97
REMARK SMILES IDX 58 98 61 99 59 100
REMARK H PARENT 20 5 95 29 24 34 83 53 51 64
REMARK Flexibility Score: inf
ROOT
ATOM      1  C   UNL     1       7.915  -5.149   2.911  1.00  0.00     0.117 C 
ENDROOT
BRANCH   1   2
ATOM      2  N   UNL     1       8.802  -4.589   3.902  1.00  0.00    -0.354 N 
ATOM      3  C   UNL     1       8.848  -3.319   4.396  1.00  0.00     0.239 C 
ATOM      4  O   UNL     1       9.551  -3.126   5.391  1.00  0.00    -0.273 OA
ATOM      5  H   UNL     1       9.467  -5.212   4.274  1.00  0.00     0.163 HD
BRANCH   3   6
ATOM      6  C   UNL     1       7.913  -2.233   3.850  1.00  0.00     0.219 C 
BRANCH   6   7
ATOM      7  N   UNL     1       8.033  -1.859   2.436  1.00  0.00    -0.333 N 
ATOM      8  C   UNL     1       3.026   1.500   0.178  1.00  0.00     0.253 C 
ATOM      9  O   UNL     1       2.890   2.665   0.550  1.00  0.00    -0.269 OA
ATOM     10  N   UNL     1       4.280   0.901   0.111  1.00  0.00    -0.339 N 
ATOM     11  C   UNL     1       5.316   1.394   1.003  1.00  0.00     0.120 C 
ATOM     12  C   UNL     1       4.736  -0.011  -0.933  1.00  0.00     0.120 C 
ATOM     13  C   UNL     1       5.952   0.205   1.711  1.00  0.00     0.030 C 
ATOM     14  C   UNL     1       5.459  -1.221  -0.332  1.00  0.00     0.030 C 
ATOM     15  C   UNL     1       6.534  -0.841   0.725  1.00  0.00    -0.008 C 
ATOM     16  C   UNL     1       7.811  -0.356   0.009  1.00  0.00     0.019 C 
ATOM     17  C   UNL     1       6.931  -2.099   1.515  1.00  0.00     0.127 C 
ATOM     18  C   UNL     1       8.968  -0.109   0.965  1.00  0.00     0.101 C 
ATOM     19  C   UNL     1       9.153  -1.136   2.066  1.00  0.00     0.223 C 
ATOM     20  O   UNL     1      10.209  -1.188   2.692  1.00  0.00    -0.275 OA
BRANCH   8  21
ATOM     21  C   UNL     1       1.794   0.683  -0.041  1.00  0.00     0.043 A 
ATOM     22  C   UNL     1      -1.908  -1.563  -0.062  1.00  0.00     0.048 C 
ATOM     23  C   UNL     1      -0.639  -0.764  -0.088  1.00  0.00    -0.009 A 
ATOM     24  C   UNL     1       0.587  -1.427   0.036  1.00  0.00     0.008 A 
ATOM     25  C   UNL     1      -0.627   0.632  -0.184  1.00  0.00     0.119 A 
ATOM     26  C   UNL     1       1.785  -0.710   0.083  1.00  0.00     0.014 A 
ATOM     27  C   UNL     1       0.570   1.349  -0.176  1.00  0.00     0.060 A 
BRANCH  25  28
ATOM     28  O   UNL     1      -1.772   1.374  -0.256  1.00  0.00    -0.508 OA
ATOM     29  H   UNL     1      -2.606   0.949  -0.265  1.00  0.00     0.293 HD
ENDBRANCH  25  28
ENDBRANCH   8  21
ENDBRANCH   6   7
ENDBRANCH   3   6
ENDBRANCH   1   2
BRANCH   1  30
ATOM     30  C   UNL     1       8.606  -5.343   1.569  1.00  0.00     0.042 C 
BRANCH  30  31
ATOM     31  C   UNL     1       9.740  -6.361   1.604  1.00  0.00     0.118 C 
BRANCH  31  32
ATOM     32  N   UNL     1       9.282  -7.698   1.959  1.00  0.00    -0.352 N 
ATOM     33  C   UNL     1       9.355  -8.876   1.263  1.00  0.00     0.251 C 
ATOM     34  H   UNL     1       8.851  -7.766   2.842  1.00  0.00     0.163 HD
ATOM     35  O   UNL     1       8.724  -9.856   1.662  1.00  0.00    -0.269 OA
BRANCH  33  36
ATOM     36  C   UNL     1      10.163  -8.977   0.031  1.00  0.00     0.039 A 
ATOM     37  C   UNL     1       9.662  -9.717  -1.044  1.00  0.00     0.014 A 
ATOM     38  C   UNL     1      11.421  -8.376  -0.061  1.00  0.00     0.014 A 
ATOM     39  C   UNL     1      10.392  -9.797  -2.231  1.00  0.00     0.010 A 
ATOM     40  C   UNL     1      12.107  -8.384  -1.272  1.00  0.00     0.010 A 
ATOM     41  C   UNL     1      11.602  -9.099  -2.368  1.00  0.00    -0.014 A 
BRANCH  41  42
ATOM     42  C   UNL     1      12.353  -9.104  -3.649  1.00  0.00     0.031 A 
ATOM     43  C   UNL     1      13.731  -9.700  -3.717  1.00  0.00     0.074 A 
ATOM     44  C   UNL     1      11.817  -8.515  -4.734  1.00  0.00     0.049 A 
ATOM     45  N   UNL     1      14.567  -9.742  -4.725  1.00  0.00    -0.248 NA
ATOM     46  C   UNL     1      14.250 -10.308  -2.482  1.00  0.00     0.031 C 
ATOM     47  C   UNL     1      10.506  -7.866  -4.783  1.00  0.00     0.029 A 
ATOM     48  N   UNL     1      12.312  -8.358  -6.005  1.00  0.00    -0.354 N 
ATOM     49  C   UNL     1      15.709 -10.368  -4.242  1.00  0.00     0.074 A 
ATOM     50  C   UNL     1      15.483 -10.634  -2.838  1.00  0.00     0.031 C 
ATOM     51  C   UNL     1      10.288  -7.407  -6.025  1.00  0.00     0.029 A 
ATOM     52  C   UNL     1      11.460  -7.688  -6.848  1.00  0.00     0.049 A 
ATOM     53  H   UNL     1      13.194  -8.694  -6.285  1.00  0.00     0.167 HD
ATOM     54  C   UNL     1      16.833 -10.713  -4.916  1.00  0.00     0.037 A 
ATOM     55  C   UNL     1      11.611  -7.333  -8.138  1.00  0.00     0.037 A 
ATOM     56  C   UNL     1      17.047 -10.456  -6.316  1.00  0.00     0.049 A 
ATOM     57  C   UNL     1      12.882  -7.699  -8.855  1.00  0.00     0.074 A 
ATOM     58  C   UNL     1      18.130 -10.806  -7.103  1.00  0.00     0.029 A 
ATOM     59  N   UNL     1      16.161  -9.773  -7.138  1.00  0.00    -0.354 N 
ATOM     60  N   UNL     1      13.927  -8.351  -8.408  1.00  0.00    -0.248 NA
ATOM     61  C   UNL     1      12.991  -7.284 -10.260  1.00  0.00     0.031 C 
ATOM     62  C   UNL     1      17.924 -10.290  -8.386  1.00  0.00     0.029 A 
ATOM     63  C   UNL     1      16.685  -9.670  -8.417  1.00  0.00     0.049 A 
ATOM     64  H   UNL     1      15.289  -9.415  -6.854  1.00  0.00     0.167 HD
ATOM     65  C   UNL     1      14.802  -8.453  -9.480  1.00  0.00     0.074 A 
ATOM     66  C   UNL     1      14.158  -7.807 -10.605  1.00  0.00     0.031 C 
ATOM     67  C   UNL     1      16.028  -9.030  -9.530  1.00  0.00     0.037 A 
BRANCH  54  68
ATOM     68  C   UNL     1      17.918 -11.407  -4.141  1.00  0.00     0.064 A 
ATOM     69  C   UNL     1      17.750 -12.708  -3.641  1.00  0.00     0.173 A 
ATOM     70  C   UNL     1      19.150 -10.775  -3.914  1.00  0.00     0.173 A 
ATOM     71  F   UNL     1      16.588 -13.356  -3.820  1.00  0.00    -0.203 F 
ATOM     72  C   UNL     1      18.758 -13.333  -2.911  1.00  0.00     0.198 A 
ATOM     73  C   UNL     1      20.169 -11.417  -3.215  1.00  0.00     0.198 A 
ATOM     74  F   UNL     1      19.369  -9.534  -4.376  1.00  0.00    -0.203 F 
ATOM     75  F   UNL     1      18.550 -14.552  -2.393  1.00  0.00    -0.200 F 
ATOM     76  C   UNL     1      19.968 -12.690  -2.705  1.00  0.00     0.200 A 
ATOM     77  F   UNL     1      21.344 -10.800  -3.030  1.00  0.00    -0.200 F 
ATOM     78  F   UNL     1      20.939 -13.295  -2.007  1.00  0.00    -0.200 F 
ENDBRANCH  54  68
BRANCH  55  79
ATOM     79  C   UNL     1      10.517  -6.614  -8.844  1.00  0.00     0.064 A 
ATOM     80  C   UNL     1       9.791  -7.239  -9.868  1.00  0.00     0.173 A 
ATOM     81  C   UNL     1      10.174  -5.295  -8.513  1.00  0.00     0.173 A 
ATOM     82  F   UNL     1      10.094  -8.493 -10.232  1.00  0.00    -0.203 F 
ATOM     83  C   UNL     1       8.779  -6.565 -10.548  1.00  0.00     0.198 A 
ATOM     84  C   UNL     1       9.141  -4.633  -9.173  1.00  0.00     0.198 A 
ATOM     85  F   UNL     1      10.831  -4.654  -7.535  1.00  0.00    -0.203 F 
ATOM     86  F   UNL     1       8.133  -7.171 -11.553  1.00  0.00    -0.200 F 
ATOM     87  C   UNL     1       8.450  -5.265 -10.196  1.00  0.00     0.200 A 
ATOM     88  F   UNL     1       8.813  -3.384  -8.816  1.00  0.00    -0.200 F 
ATOM     89  F   UNL     1       7.472  -4.620 -10.845  1.00  0.00    -0.200 F 
ENDBRANCH  55  79
BRANCH  67  90
ATOM     90  C   UNL     1      16.738  -9.028 -10.854  1.00  0.00     0.064 A 
ATOM     91  C   UNL     1      17.261  -7.851 -11.411  1.00  0.00     0.173 A 
ATOM     92  C   UNL     1      16.929 -10.228 -11.556  1.00  0.00     0.173 A 
ATOM     93  F   UNL     1      17.091  -6.676 -10.787  1.00  0.00    -0.203 F 
ATOM     94  C   UNL     1      17.923  -7.872 -12.636  1.00  0.00     0.198 A 
ATOM     95  C   UNL     1      17.622 -10.250 -12.764  1.00  0.00     0.198 A 
ATOM     96  F   UNL     1      16.455 -11.383 -11.065  1.00  0.00    -0.203 F 
ATOM     97  F   UNL     1      18.366  -6.728 -13.175  1.00  0.00    -0.200 F 
ATOM     98  C   UNL     1      18.110  -9.072 -13.307  1.00  0.00     0.200 A 
ATOM     99  F   UNL     1      17.815 -11.412 -13.402  1.00  0.00    -0.200 F 
ATOM    100  F   UNL     1      18.755  -9.091 -14.481  1.00  0.00    -0.200 F 
ENDBRANCH  67  90
ENDBRANCH  41  42
ENDBRANCH  33  36
ENDBRANCH  31  32
ENDBRANCH  30  31
ENDBRANCH   1  30
TORSDOF 13
