REMARK SMILES CCOc1ccc(Cl)cc1NS(=O)(=O)c1cc(C(=O)NCCCNC(=O)c2ccc(-c3c4nc(c(-c5c(F)c(F)c(F)c(F)c5F)c5ccc([nH]5)c(-c5c(F)c(F)c(F)c(F)c5F)c5nc(c(-c6c(F)c(F)c(F)c(F)c6F)c6ccc3[nH]6)C=C5)C=C4)cc2)cs1
REMARK SMILES IDX 18 1 19 2 20 3 17 5 15 6 16 7 91 8 90 9 12 10 13 11 14 12
REMARK SMILES IDX 11 13 10 15 4 16 5 17 6 18 9 19 7 20 8 21 3 22 2 23 1 24
REMARK SMILES IDX 21 25 22 26 23 27 24 28 25 29 26 31 27 32 28 33 89 34 29 35
REMARK SMILES IDX 88 36 30 37 31 38 32 39 82 40 33 41 87 42 81 43 83 44 34 45
REMARK SMILES IDX 86 46 80 47 79 48 35 50 67 51 47 52 66 53 48 54 51 55 65 56
REMARK SMILES IDX 84 57 49 58 50 59 64 61 85 62 52 63 36 64 37 65 45 66 38 67
REMARK SMILES IDX 39 68 43 69 46 70 40 71 41 72 44 73 42 74 68 75 69 76 77 77
REMARK SMILES IDX 70 78 71 79 75 80 78 81 72 82 73 83 76 84 74 85 53 86 54 87
REMARK SMILES IDX 62 88 55 89 56 90 60 91 63 92 57 93 58 94 61 95 59 96
REMARK H PARENT 20 4 11 14 24 30 83 49 51 60
REMARK Flexibility Score: inf
ROOT
ATOM      1  C   UNL     1       7.349   4.527   6.338  1.00  0.00     0.252 C 
ATOM      2  O   UNL     1       8.540   4.278   6.531  1.00  0.00    -0.269 OA
ATOM      3  N   UNL     1       7.051   5.792   5.895  1.00  0.00    -0.352 N 
ATOM      4  H   UNL     1       7.839   6.375   5.807  1.00  0.00     0.163 HD
ENDROOT
BRANCH   1   5
ATOM      5  C   UNL     1       6.319   3.498   6.523  1.00  0.00     0.051 A 
ATOM      6  C   UNL     1       4.257   2.382   6.438  1.00  0.00     0.141 A 
ATOM      7  C   UNL     1       4.893   3.602   6.550  1.00  0.00     0.048 A 
ATOM      8  S   UNL     1       5.326   1.100   6.780  1.00  0.00    -0.130 S 
ATOM      9  C   UNL     1       6.673   2.164   6.701  1.00  0.00     0.080 A 
BRANCH   6  10
ATOM     10  S   UNL     1       2.594   2.001   5.953  1.00  0.00     0.271 S 
ATOM     11  O   UNL     1       2.012   3.301   5.660  1.00  0.00    -0.200 OA
ATOM     12  O   UNL     1       2.054   1.175   7.004  1.00  0.00    -0.200 OA
BRANCH  10  13
ATOM     13  N   UNL     1       2.546   1.097   4.522  1.00  0.00    -0.275 N 
ATOM     14  H   UNL     1       2.056   0.244   4.516  1.00  0.00     0.180 HD
BRANCH  13  15
ATOM     15  C   UNL     1       3.200   1.534   3.309  1.00  0.00     0.092 A 
ATOM     16  C   UNL     1       2.500   1.435   2.092  1.00  0.00     0.143 A 
ATOM     17  C   UNL     1       3.145   1.659   0.870  1.00  0.00     0.050 A 
ATOM     18  C   UNL     1       4.512   1.924   0.839  1.00  0.00     0.024 A 
ATOM     19  C   UNL     1       4.566   1.809   3.254  1.00  0.00     0.051 A 
ATOM     20  C   UNL     1       5.213   2.008   2.033  1.00  0.00     0.043 A 
ATOM     21  Cl  UNL     1       6.904   2.335   2.015  1.00  0.00    -0.084 Cl
BRANCH  16  22
ATOM     22  O   UNL     1       1.142   1.234   2.117  1.00  0.00    -0.492 OA
BRANCH  22  23
ATOM     23  C   UNL     1       0.743  -0.074   1.687  1.00  0.00     0.226 C 
ATOM     24  C   UNL     1       0.555  -0.171   0.180  1.00  0.00     0.049 C 
ENDBRANCH  22  23
ENDBRANCH  16  22
ENDBRANCH  13  15
ENDBRANCH  10  13
ENDBRANCH   6  10
ENDBRANCH   1   5
BRANCH   3  25
ATOM     25  C   UNL     1       5.805   6.440   5.529  1.00  0.00     0.118 C 
BRANCH  25  26
ATOM     26  C   UNL     1       5.149   7.121   6.731  1.00  0.00     0.042 C 
BRANCH  26  27
ATOM     27  C   UNL     1       5.812   8.444   7.110  1.00  0.00     0.118 C 
BRANCH  27  28
ATOM     28  N   UNL     1       5.551   9.485   6.127  1.00  0.00    -0.352 N 
ATOM     29  C   UNL     1       5.061  10.756   6.282  1.00  0.00     0.251 C 
ATOM     30  H   UNL     1       5.761   9.236   5.198  1.00  0.00     0.163 HD
ATOM     31  O   UNL     1       4.739  11.397   5.285  1.00  0.00    -0.269 OA
BRANCH  29  32
ATOM     32  C   UNL     1       4.906  11.368   7.622  1.00  0.00     0.039 A 
ATOM     33  C   UNL     1       3.802  12.199   7.847  1.00  0.00     0.014 A 
ATOM     34  C   UNL     1       5.863  11.201   8.626  1.00  0.00     0.014 A 
ATOM     35  C   UNL     1       3.641  12.832   9.082  1.00  0.00     0.010 A 
ATOM     36  C   UNL     1       5.670  11.783   9.880  1.00  0.00     0.010 A 
ATOM     37  C   UNL     1       4.564  12.614  10.117  1.00  0.00    -0.014 A 
BRANCH  37  38
ATOM     38  C   UNL     1       4.390  13.261  11.442  1.00  0.00     0.031 A 
ATOM     39  C   UNL     1       5.375  14.293  11.920  1.00  0.00     0.074 A 
ATOM     40  C   UNL     1       3.369  12.887  12.236  1.00  0.00     0.049 A 
ATOM     41  N   UNL     1       5.417  14.932  13.062  1.00  0.00    -0.248 NA
ATOM     42  C   UNL     1       6.472  14.634  11.001  1.00  0.00     0.031 C 
ATOM     43  C   UNL     1       2.374  11.867  11.907  1.00  0.00     0.029 A 
ATOM     44  N   UNL     1       3.005  13.315  13.488  1.00  0.00    -0.354 N 
ATOM     45  C   UNL     1       6.550  15.733  13.007  1.00  0.00     0.074 A 
ATOM     46  C   UNL     1       7.192  15.469  11.736  1.00  0.00     0.031 C 
ATOM     47  C   UNL     1       1.501  11.761  12.921  1.00  0.00     0.029 A 
ATOM     48  C   UNL     1       1.891  12.683  13.983  1.00  0.00     0.049 A 
ATOM     49  H   UNL     1       3.496  14.010  13.984  1.00  0.00     0.167 HD
ATOM     50  C   UNL     1       7.004  16.623  13.923  1.00  0.00     0.037 A 
ATOM     51  C   UNL     1       1.257  12.831  15.162  1.00  0.00     0.037 A 
ATOM     52  C   UNL     1       6.348  16.907  15.172  1.00  0.00     0.049 A 
ATOM     53  C   UNL     1       1.766  13.844  16.150  1.00  0.00     0.074 A 
ATOM     54  C   UNL     1       6.700  17.829  16.144  1.00  0.00     0.029 A 
ATOM     55  N   UNL     1       5.199  16.273  15.622  1.00  0.00    -0.354 N 
ATOM     56  N   UNL     1       2.804  14.638  16.061  1.00  0.00    -0.248 NA
ATOM     57  C   UNL     1       1.004  13.990  17.398  1.00  0.00     0.031 C 
ATOM     58  C   UNL     1       5.783  17.728  17.197  1.00  0.00     0.029 A 
ATOM     59  C   UNL     1       4.835  16.776  16.861  1.00  0.00     0.049 A 
ATOM     60  H   UNL     1       4.713  15.570  15.133  1.00  0.00     0.167 HD
ATOM     61  C   UNL     1       2.805  15.398  17.222  1.00  0.00     0.074 A 
ATOM     62  C   UNL     1       1.655  14.978  17.996  1.00  0.00     0.031 C 
ATOM     63  C   UNL     1       3.679  16.357  17.612  1.00  0.00     0.037 A 
BRANCH  50  64
ATOM     64  C   UNL     1       8.274  17.359  13.605  1.00  0.00     0.064 A 
ATOM     65  C   UNL     1       8.321  18.348  12.611  1.00  0.00     0.173 A 
ATOM     66  C   UNL     1       9.448  17.099  14.328  1.00  0.00     0.173 A 
ATOM     67  F   UNL     1       7.228  18.627  11.884  1.00  0.00    -0.203 F 
ATOM     68  C   UNL     1       9.503  19.029  12.332  1.00  0.00     0.198 A 
ATOM     69  C   UNL     1      10.621  17.802  14.066  1.00  0.00     0.198 A 
ATOM     70  F   UNL     1       9.456  16.168  15.294  1.00  0.00    -0.203 F 
ATOM     71  F   UNL     1       9.536  19.936  11.346  1.00  0.00    -0.200 F 
ATOM     72  C   UNL     1      10.650  18.760  13.064  1.00  0.00     0.200 A 
ATOM     73  F   UNL     1      11.726  17.550  14.782  1.00  0.00    -0.200 F 
ATOM     74  F   UNL     1      11.786  19.420  12.798  1.00  0.00    -0.200 F 
ENDBRANCH  50  64
BRANCH  51  75
ATOM     75  C   UNL     1       0.046  12.023  15.455  1.00  0.00     0.064 A 
ATOM     76  C   UNL     1      -1.223  12.618  15.486  1.00  0.00     0.173 A 
ATOM     77  C   UNL     1       0.129  10.646  15.706  1.00  0.00     0.173 A 
ATOM     78  F   UNL     1      -1.350  13.936  15.272  1.00  0.00    -0.203 F 
ATOM     79  C   UNL     1      -2.361  11.870  15.777  1.00  0.00     0.198 A 
ATOM     80  C   UNL     1      -1.013   9.894  15.972  1.00  0.00     0.198 A 
ATOM     81  F   UNL     1       1.320  10.030  15.682  1.00  0.00    -0.203 F 
ATOM     82  F   UNL     1      -3.557  12.471  15.844  1.00  0.00    -0.200 F 
ATOM     83  C   UNL     1      -2.256  10.507  16.014  1.00  0.00     0.200 A 
ATOM     84  F   UNL     1      -0.910   8.576  16.188  1.00  0.00    -0.200 F 
ATOM     85  F   UNL     1      -3.352   9.787  16.291  1.00  0.00    -0.200 F 
ENDBRANCH  51  75
BRANCH  63  86
ATOM     86  C   UNL     1       3.401  17.049  18.914  1.00  0.00     0.064 A 
ATOM     87  C   UNL     1       3.590  16.406  20.146  1.00  0.00     0.173 A 
ATOM     88  C   UNL     1       2.964  18.382  18.927  1.00  0.00     0.173 A 
ATOM     89  F   UNL     1       3.992  15.127  20.185  1.00  0.00    -0.203 F 
ATOM     90  C   UNL     1       3.324  17.064  21.344  1.00  0.00     0.198 A 
ATOM     91  C   UNL     1       2.725  19.046  20.127  1.00  0.00     0.198 A 
ATOM     92  F   UNL     1       2.774  19.044  17.776  1.00  0.00    -0.203 F 
ATOM     93  F   UNL     1       3.464  16.415  22.508  1.00  0.00    -0.200 F 
ATOM     94  C   UNL     1       2.898  18.384  21.334  1.00  0.00     0.200 A 
ATOM     95  F   UNL     1       2.325  20.325  20.116  1.00  0.00    -0.200 F 
ATOM     96  F   UNL     1       2.644  19.016  22.488  1.00  0.00    -0.200 F 
ENDBRANCH  63  86
ENDBRANCH  37  38
ENDBRANCH  29  32
ENDBRANCH  27  28
ENDBRANCH  26  27
ENDBRANCH  25  26
ENDBRANCH   3  25
TORSDOF 15
