REMARK SMILES Cc1cc(C)cc(Oc2nc3ccccn3c(=O)c2/C=C2\SC(=S)N(CCC(=O)NCCCNC(=O)c3ccc(-c4c5nc(c(-c6c(F)c(F)c(F)c(F)c6F)c6ccc([nH]6)c(-c6c(F)c(F)c(F)c(F)c6F)c6nc(c(-c7c(F)c(F)c(F)c(F)c7F)c7ccc4[nH]7)C=C6)C=C5)cc3)C2=O)c1
REMARK SMILES IDX 28 1 29 2 30 3 27 5 26 6 25 7 20 8 21 9 22 10 100 11 23 12
REMARK SMILES IDX 101 13 24 14 19 15 9 16 10 17 11 18 17 19 12 20 16 21 18 22
REMARK SMILES IDX 13 23 15 24 14 25 8 26 7 27 1 28 2 29 3 30 102 31 4 32 5 33
REMARK SMILES IDX 6 34 31 35 32 36 33 37 34 38 35 39 36 41 37 42 38 43 99 44
REMARK SMILES IDX 39 45 98 46 40 47 41 48 42 49 92 50 43 51 97 52 91 53 93 54
REMARK SMILES IDX 44 55 96 56 90 57 89 58 45 60 77 61 57 62 76 63 58 64 61 65
REMARK SMILES IDX 75 66 94 67 59 68 60 69 74 71 95 72 62 73 46 74 47 75 55 76
REMARK SMILES IDX 48 77 49 78 53 79 56 80 50 81 51 82 54 83 52 84 78 85 79 86
REMARK SMILES IDX 87 87 80 88 81 89 85 90 88 91 82 92 83 93 86 94 84 95 63 96
REMARK SMILES IDX 64 97 72 98 65 99 66 100 70 101 73 102 67 103 68 104 71 105
REMARK SMILES IDX 69 106
REMARK H PARENT 30 4 34 40 93 59 61 70
REMARK Flexibility Score: inf
ROOT
ATOM      1  C   UNL     1       1.146   1.338   5.036  1.00  0.00     0.221 C 
ATOM      2  O   UNL     1       1.016   1.579   6.239  1.00  0.00    -0.275 OA
ATOM      3  N   UNL     1       0.167   0.615   4.422  1.00  0.00    -0.356 N 
ATOM      4  H   UNL     1      -0.623   0.441   4.983  1.00  0.00     0.163 HD
ENDROOT
BRANCH   1   5
ATOM      5  C   UNL     1       2.349   1.869   4.280  1.00  0.00     0.122 C 
BRANCH   5   6
ATOM      6  C   UNL     1       3.645   1.129   4.642  1.00  0.00     0.137 C 
BRANCH   6   7
ATOM      7  N   UNL     1       4.104   0.278   3.535  1.00  0.00    -0.292 N 
ATOM      8  C   UNL     1       3.258  -2.680   1.749  1.00  0.00     0.041 C 
ATOM      9  C   UNL     1       3.959  -1.620   2.174  1.00  0.00     0.081 C 
ATOM     10  S   UNL     1       5.001  -0.595   1.278  1.00  0.00    -0.054 SA
ATOM     11  C   UNL     1       3.789  -1.065   3.540  1.00  0.00     0.266 C 
ATOM     12  C   UNL     1       4.843   0.712   2.453  1.00  0.00     0.148 C 
ATOM     13  O   UNL     1       3.400  -1.718   4.500  1.00  0.00    -0.268 OA
ATOM     14  S   UNL     1       5.491   2.225   2.188  1.00  0.00    -0.052 S 
BRANCH   8  15
ATOM     15  C   UNL     1       3.301  -3.302   0.435  1.00  0.00     0.104 A 
ATOM     16  C   UNL     1       2.309  -3.314  -0.486  1.00  0.00     0.234 A 
ATOM     17  N   UNL     1       2.313  -4.141  -1.582  1.00  0.00    -0.194 NA
ATOM     18  C   UNL     1       3.299  -4.961  -1.739  1.00  0.00     0.143 A 
ATOM     19  C   UNL     1       4.506  -4.133   0.148  1.00  0.00     0.269 A 
ATOM     20  C   UNL     1       3.224  -5.987  -2.818  1.00  0.00     0.048 A 
ATOM     21  N   UNL     1       4.427  -4.977  -0.942  1.00  0.00    -0.267 N 
ATOM     22  O   UNL     1       5.468  -4.103   0.920  1.00  0.00    -0.268 OA
ATOM     23  C   UNL     1       4.223  -6.865  -2.973  1.00  0.00     0.005 A 
ATOM     24  C   UNL     1       5.473  -5.852  -1.195  1.00  0.00     0.096 A 
ATOM     25  C   UNL     1       5.400  -6.782  -2.152  1.00  0.00     0.019 A 
BRANCH  16  26
ATOM     26  O   UNL     1       1.070  -2.719  -0.256  1.00  0.00    -0.438 OA
BRANCH  26  27
ATOM     27  C   UNL     1       0.837  -1.383  -0.494  1.00  0.00     0.130 A 
ATOM     28  C   UNL     1       2.571   1.991  -0.556  1.00  0.00     0.044 C 
ATOM     29  C   UNL     1       1.497   0.944  -0.578  1.00  0.00    -0.047 A 
ATOM     30  C   UNL     1       0.154   1.329  -0.467  1.00  0.00     0.007 A 
ATOM     31  C   UNL     1       1.827  -0.417  -0.631  1.00  0.00     0.050 A 
ATOM     32  C   UNL     1      -0.862   0.369  -0.408  1.00  0.00    -0.047 A 
ATOM     33  C   UNL     1      -2.290   0.809  -0.261  1.00  0.00     0.044 C 
ATOM     34  C   UNL     1      -0.509  -0.987  -0.426  1.00  0.00     0.050 A 
ENDBRANCH  26  27
ENDBRANCH  16  26
ENDBRANCH   8  15
ENDBRANCH   6   7
ENDBRANCH   5   6
ENDBRANCH   1   5
BRANCH   3  35
ATOM     35  C   UNL     1       0.089   0.057   3.081  1.00  0.00     0.117 C 
BRANCH  35  36
ATOM     36  C   UNL     1       0.484  -1.417   3.069  1.00  0.00     0.042 C 
BRANCH  36  37
ATOM     37  C   UNL     1      -0.560  -2.457   3.456  1.00  0.00     0.118 C 
BRANCH  37  38
ATOM     38  N   UNL     1      -1.201  -3.091   2.313  1.00  0.00    -0.352 N 
ATOM     39  C   UNL     1      -0.978  -4.226   1.567  1.00  0.00     0.251 C 
ATOM     40  H   UNL     1      -1.984  -2.585   1.996  1.00  0.00     0.163 HD
ATOM     41  O   UNL     1      -1.726  -4.396   0.600  1.00  0.00    -0.269 OA
BRANCH  39  42
ATOM     42  C   UNL     1       0.082  -5.253   1.815  1.00  0.00     0.039 A 
ATOM     43  C   UNL     1       0.538  -5.989   0.701  1.00  0.00     0.014 A 
ATOM     44  C   UNL     1       0.547  -5.634   3.073  1.00  0.00     0.014 A 
ATOM     45  C   UNL     1       1.435  -7.063   0.836  1.00  0.00     0.010 A 
ATOM     46  C   UNL     1       1.462  -6.699   3.212  1.00  0.00     0.010 A 
ATOM     47  C   UNL     1       1.894  -7.441   2.101  1.00  0.00    -0.014 A 
BRANCH  47  48
ATOM     48  C   UNL     1       2.692  -8.689   2.287  1.00  0.00     0.031 A 
ATOM     49  C   UNL     1       1.997  -9.940   2.749  1.00  0.00     0.074 A 
ATOM     50  C   UNL     1       4.023  -8.718   2.082  1.00  0.00     0.049 A 
ATOM     51  N   UNL     1       2.505 -11.106   3.059  1.00  0.00    -0.248 NA
ATOM     52  C   UNL     1       0.538  -9.856   2.911  1.00  0.00     0.031 C 
ATOM     53  C   UNL     1       4.819  -7.570   1.679  1.00  0.00     0.029 A 
ATOM     54  N   UNL     1       4.944  -9.735   2.196  1.00  0.00    -0.354 N 
ATOM     55  C   UNL     1       1.439 -11.877   3.500  1.00  0.00     0.074 A 
ATOM     56  C   UNL     1       0.253 -11.051   3.409  1.00  0.00     0.031 C 
ATOM     57  C   UNL     1       6.102  -7.944   1.544  1.00  0.00     0.029 A 
ATOM     58  C   UNL     1       6.234  -9.352   1.902  1.00  0.00     0.049 A 
ATOM     59  H   UNL     1       4.704 -10.651   2.463  1.00  0.00     0.167 HD
ATOM     60  C   UNL     1       1.453 -13.152   3.957  1.00  0.00     0.037 A 
ATOM     61  C   UNL     1       7.393 -10.044   1.945  1.00  0.00     0.037 A 
ATOM     62  C   UNL     1       2.631 -13.977   4.035  1.00  0.00     0.049 A 
ATOM     63  C   UNL     1       7.369 -11.470   2.440  1.00  0.00     0.074 A 
ATOM     64  C   UNL     1       2.732 -15.295   4.447  1.00  0.00     0.029 A 
ATOM     65  N   UNL     1       3.912 -13.563   3.704  1.00  0.00    -0.354 N 
ATOM     66  N   UNL     1       6.347 -12.202   2.810  1.00  0.00    -0.248 NA
ATOM     67  C   UNL     1       8.665 -12.159   2.551  1.00  0.00     0.031 C 
ATOM     68  C   UNL     1       4.081 -15.659   4.424  1.00  0.00     0.029 A 
ATOM     69  C   UNL     1       4.814 -14.592   3.932  1.00  0.00     0.049 A 
ATOM     70  H   UNL     1       4.147 -12.672   3.359  1.00  0.00     0.167 HD
ATOM     71  C   UNL     1       6.872 -13.431   3.186  1.00  0.00     0.074 A 
ATOM     72  C   UNL     1       8.299 -13.364   2.962  1.00  0.00     0.031 C 
ATOM     73  C   UNL     1       6.231 -14.514   3.691  1.00  0.00     0.037 A 
BRANCH  60  74
ATOM     74  C   UNL     1       0.162 -13.726   4.461  1.00  0.00     0.064 A 
ATOM     75  C   UNL     1      -0.885 -14.076   3.598  1.00  0.00     0.173 A 
ATOM     76  C   UNL     1      -0.006 -13.975   5.833  1.00  0.00     0.173 A 
ATOM     77  F   UNL     1      -0.780 -13.845   2.280  1.00  0.00    -0.203 F 
ATOM     78  C   UNL     1      -2.061 -14.637   4.090  1.00  0.00     0.198 A 
ATOM     79  C   UNL     1      -1.170 -14.563   6.318  1.00  0.00     0.198 A 
ATOM     80  F   UNL     1       0.967 -13.661   6.702  1.00  0.00    -0.203 F 
ATOM     81  F   UNL     1      -3.066 -14.927   3.252  1.00  0.00    -0.200 F 
ATOM     82  C   UNL     1      -2.199 -14.889   5.448  1.00  0.00     0.200 A 
ATOM     83  F   UNL     1      -1.294 -14.818   7.628  1.00  0.00    -0.200 F 
ATOM     84  F   UNL     1      -3.325 -15.442   5.918  1.00  0.00    -0.200 F 
ENDBRANCH  60  74
BRANCH  61  85
ATOM     85  C   UNL     1       8.687  -9.415   1.545  1.00  0.00     0.064 A 
ATOM     86  C   UNL     1       9.433  -9.921   0.467  1.00  0.00     0.173 A 
ATOM     87  C   UNL     1       9.243  -8.345   2.263  1.00  0.00     0.173 A 
ATOM     88  F   UNL     1       8.967 -10.961  -0.240  1.00  0.00    -0.203 F 
ATOM     89  C   UNL     1      10.691  -9.408   0.150  1.00  0.00     0.198 A 
ATOM     90  C   UNL     1      10.481  -7.803   1.917  1.00  0.00     0.198 A 
ATOM     91  F   UNL     1       8.585  -7.824   3.308  1.00  0.00    -0.203 F 
ATOM     92  F   UNL     1      11.410  -9.964  -0.835  1.00  0.00    -0.200 F 
ATOM     93  C   UNL     1      11.211  -8.345   0.871  1.00  0.00     0.200 A 
ATOM     94  F   UNL     1      10.972  -6.766   2.607  1.00  0.00    -0.200 F 
ATOM     95  F   UNL     1      12.420  -7.854   0.568  1.00  0.00    -0.200 F 
ENDBRANCH  61  85
BRANCH  73  96
ATOM     96  C   UNL     1       7.063 -15.727   3.999  1.00  0.00     0.064 A 
ATOM     97  C   UNL     1       7.965 -15.752   5.073  1.00  0.00     0.173 A 
ATOM     98  C   UNL     1       6.924 -16.894   3.232  1.00  0.00     0.173 A 
ATOM     99  F   UNL     1       8.146 -14.657   5.828  1.00  0.00    -0.203 F 
ATOM    100  C   UNL     1       8.718 -16.890   5.350  1.00  0.00     0.198 A 
ATOM    101  C   UNL     1       7.653 -18.041   3.533  1.00  0.00     0.198 A 
ATOM    102  F   UNL     1       6.071 -16.927   2.198  1.00  0.00    -0.203 F 
ATOM    103  F   UNL     1       9.613 -16.873   6.348  1.00  0.00    -0.200 F 
ATOM    104  C   UNL     1       8.556 -18.035   4.585  1.00  0.00     0.200 A 
ATOM    105  F   UNL     1       7.483 -19.152   2.803  1.00  0.00    -0.200 F 
ATOM    106  F   UNL     1       9.275 -19.133   4.859  1.00  0.00    -0.200 F 
ENDBRANCH  73  96
ENDBRANCH  47  48
ENDBRANCH  39  42
ENDBRANCH  37  38
ENDBRANCH  36  37
ENDBRANCH  35  36
ENDBRANCH   3  35
TORSDOF 15
