REMARK SMILES CC(C)(C)OC(=O)N1CCN(c2nc3ccccc3s2)[C@H](C(=O)NCCCNC(=O)c2ccc(-c3c4nc(c(-c5c(F)c(F)c(F)c(F)c5F)c5ccc([nH]5)c(-c5c(F)c(F)c(F)c(F)c5F)c5nc(c(-c6c(F)c(F)c(F)c(F)c6F)c6ccc3[nH]6)C=C5)C=C4)cc2)C1
REMARK SMILES IDX 25 1 24 2 22 3 23 4 21 6 8 7 9 8 94 9 10 10 11 11 6 12 7 13
REMARK SMILES IDX 5 14 2 15 1 16 3 17 4 18 12 19 13 20 20 21 14 22 19 23 15 24
REMARK SMILES IDX 18 25 16 26 17 27 26 28 27 29 28 30 29 31 30 33 31 34 32 35
REMARK SMILES IDX 93 36 33 37 92 38 34 39 35 40 36 41 86 42 37 43 91 44 85 45
REMARK SMILES IDX 87 46 38 47 90 48 84 49 83 50 39 52 71 53 51 54 70 55 52 56
REMARK SMILES IDX 55 57 69 58 88 59 53 60 54 61 68 63 89 64 56 65 40 66 41 67
REMARK SMILES IDX 49 68 42 69 43 70 47 71 50 72 44 73 45 74 48 75 46 76 72 77
REMARK SMILES IDX 73 78 81 79 74 80 75 81 79 82 82 83 76 84 77 85 80 86 78 87
REMARK SMILES IDX 57 88 58 89 66 90 59 91 60 92 64 93 67 94 61 95 62 96 65 97
REMARK SMILES IDX 63 98
REMARK H PARENT 24 5 28 32 87 51 55 62
REMARK Flexibility Score: inf
ROOT
ATOM      1  C   UNL     1       5.045   4.695  -0.774  1.00  0.00     0.117 C 
ENDROOT
BRANCH   1   2
ATOM      2  N   UNL     1       4.849   5.649   0.302  1.00  0.00    -0.354 N 
ATOM      3  C   UNL     1       3.761   6.232   0.870  1.00  0.00     0.244 C 
ATOM      4  O   UNL     1       4.017   6.914   1.874  1.00  0.00    -0.273 OA
ATOM      5  H   UNL     1       5.695   5.939   0.713  1.00  0.00     0.163 HD
BRANCH   3   6
ATOM      6  C   UNL     1       2.300   6.142   0.359  1.00  0.00     0.193 C 
ATOM      7  N   UNL     1       0.551   4.829  -0.902  1.00  0.00    -0.304 N 
ATOM      8  C   UNL     1      -0.050   6.071  -1.392  1.00  0.00     0.144 C 
ATOM      9  C   UNL     1       1.954   4.906  -0.477  1.00  0.00     0.158 C 
ATOM     10  C   UNL     1       0.329   7.299  -0.548  1.00  0.00     0.141 C 
ATOM     11  N   UNL     1       1.793   7.351  -0.360  1.00  0.00    -0.332 N 
BRANCH   7  12
ATOM     12  C   UNL     1      -0.025   3.623  -1.262  1.00  0.00     0.410 C 
ATOM     13  O   UNL     1      -1.020   3.534  -1.966  1.00  0.00    -0.224 OA
BRANCH  12  14
ATOM     14  O   UNL     1       0.657   2.569  -0.747  1.00  0.00    -0.444 OA
BRANCH  14  15
ATOM     15  C   UNL     1       0.307   1.194  -1.048  1.00  0.00     0.106 C 
ATOM     16  C   UNL     1       1.073   0.366  -0.005  1.00  0.00     0.056 C 
ATOM     17  C   UNL     1       0.817   0.838  -2.446  1.00  0.00     0.056 C 
ATOM     18  C   UNL     1      -1.189   0.895  -0.896  1.00  0.00     0.056 C 
ENDBRANCH  14  15
ENDBRANCH  12  14
ENDBRANCH   7  12
BRANCH  11  19
ATOM     19  C   UNL     1       2.316   8.580  -0.102  1.00  0.00     0.187 A 
ATOM     20  N   UNL     1       1.710   9.500   0.611  1.00  0.00    -0.220 NA
ATOM     21  S   UNL     1       3.771   9.102  -0.872  1.00  0.00    -0.097 S 
ATOM     22  C   UNL     1       2.447  10.673   0.619  1.00  0.00     0.084 A 
ATOM     23  C   UNL     1       3.603  10.656  -0.161  1.00  0.00     0.056 A 
ATOM     24  C   UNL     1       2.119  11.855   1.315  1.00  0.00     0.030 A 
ATOM     25  C   UNL     1       4.432  11.783  -0.289  1.00  0.00     0.021 A 
ATOM     26  C   UNL     1       2.942  12.982   1.203  1.00  0.00     0.002 A 
ATOM     27  C   UNL     1       4.081  12.945   0.405  1.00  0.00     0.002 A 
ENDBRANCH  11  19
ENDBRANCH   3   6
ENDBRANCH   1   2
BRANCH   1  28
ATOM     28  C   UNL     1       5.273   5.362  -2.125  1.00  0.00     0.042 C 
BRANCH  28  29
ATOM     29  C   UNL     1       6.694   5.899  -2.289  1.00  0.00     0.118 C 
BRANCH  29  30
ATOM     30  N   UNL     1       7.679   4.822  -2.331  1.00  0.00    -0.352 N 
ATOM     31  C   UNL     1       8.585   4.481  -3.303  1.00  0.00     0.251 C 
ATOM     32  H   UNL     1       7.696   4.247  -1.532  1.00  0.00     0.163 HD
ATOM     33  O   UNL     1       9.160   3.398  -3.244  1.00  0.00    -0.269 OA
BRANCH  31  34
ATOM     34  C   UNL     1       8.878   5.407  -4.415  1.00  0.00     0.039 A 
ATOM     35  C   UNL     1       9.060   4.885  -5.700  1.00  0.00     0.014 A 
ATOM     36  C   UNL     1       9.036   6.775  -4.184  1.00  0.00     0.014 A 
ATOM     37  C   UNL     1       9.350   5.742  -6.764  1.00  0.00     0.010 A 
ATOM     38  C   UNL     1       9.261   7.635  -5.253  1.00  0.00     0.010 A 
ATOM     39  C   UNL     1       9.427   7.126  -6.551  1.00  0.00    -0.014 A 
BRANCH  39  40
ATOM     40  C   UNL     1       9.696   8.071  -7.661  1.00  0.00     0.031 A 
ATOM     41  C   UNL     1      10.962   8.877  -7.667  1.00  0.00     0.074 A 
ATOM     42  C   UNL     1       8.755   8.274  -8.602  1.00  0.00     0.049 A 
ATOM     43  N   UNL     1      11.318   9.858  -8.456  1.00  0.00    -0.248 NA
ATOM     44  C   UNL     1      11.945   8.560  -6.619  1.00  0.00     0.031 C 
ATOM     45  C   UNL     1       7.467   7.584  -8.671  1.00  0.00     0.029 A 
ATOM     46  N   UNL     1       8.729   9.141  -9.664  1.00  0.00    -0.354 N 
ATOM     47  C   UNL     1      12.546  10.298  -7.980  1.00  0.00     0.074 A 
ATOM     48  C   UNL     1      12.858   9.501  -6.813  1.00  0.00     0.031 C 
ATOM     49  C   UNL     1       6.777   8.051  -9.724  1.00  0.00     0.029 A 
ATOM     50  C   UNL     1       7.558   9.095 -10.379  1.00  0.00     0.049 A 
ATOM     51  H   UNL     1       9.477   9.739  -9.892  1.00  0.00     0.167 HD
ATOM     52  C   UNL     1      13.346  11.269  -8.481  1.00  0.00     0.037 A 
ATOM     53  C   UNL     1       7.156   9.825 -11.436  1.00  0.00     0.037 A 
ATOM     54  C   UNL     1      13.047  12.028  -9.667  1.00  0.00     0.049 A 
ATOM     55  C   UNL     1       8.076  10.872 -11.998  1.00  0.00     0.074 A 
ATOM     56  C   UNL     1      13.824  12.980 -10.303  1.00  0.00     0.029 A 
ATOM     57  N   UNL     1      11.873  11.916 -10.398  1.00  0.00    -0.354 N 
ATOM     58  N   UNL     1       9.260  11.243 -11.575  1.00  0.00    -0.248 NA
ATOM     59  C   UNL     1       7.607  11.597 -13.186  1.00  0.00     0.031 C 
ATOM     60  C   UNL     1      13.106  13.468 -11.401  1.00  0.00     0.029 A 
ATOM     61  C   UNL     1      11.898  12.791 -11.471  1.00  0.00     0.049 A 
ATOM     62  H   UNL     1      11.131  11.304 -10.185  1.00  0.00     0.167 HD
ATOM     63  C   UNL     1       9.688  12.227 -12.454  1.00  0.00     0.074 A 
ATOM     64  C   UNL     1       8.640  12.388 -13.442  1.00  0.00     0.031 C 
ATOM     65  C   UNL     1      10.845  12.933 -12.445  1.00  0.00     0.037 A 
BRANCH  52  66
ATOM     66  C   UNL     1      14.617  11.566  -7.741  1.00  0.00     0.064 A 
ATOM     67  C   UNL     1      15.692  10.664  -7.729  1.00  0.00     0.173 A 
ATOM     68  C   UNL     1      14.768  12.774  -7.043  1.00  0.00     0.173 A 
ATOM     69  F   UNL     1      15.594   9.489  -8.370  1.00  0.00    -0.203 F 
ATOM     70  C   UNL     1      16.854  10.943  -7.015  1.00  0.00     0.198 A 
ATOM     71  C   UNL     1      15.943  13.062  -6.355  1.00  0.00     0.198 A 
ATOM     72  F   UNL     1      13.774  13.674  -7.026  1.00  0.00    -0.203 F 
ATOM     73  F   UNL     1      17.844  10.040  -6.971  1.00  0.00    -0.200 F 
ATOM     74  C   UNL     1      16.981  12.143  -6.333  1.00  0.00     0.200 A 
ATOM     75  F   UNL     1      16.068  14.227  -5.704  1.00  0.00    -0.200 F 
ATOM     76  F   UNL     1      18.100  12.409  -5.645  1.00  0.00    -0.200 F 
ENDBRANCH  52  66
BRANCH  53  77
ATOM     77  C   UNL     1       5.827   9.562 -12.042  1.00  0.00     0.064 A 
ATOM     78  C   UNL     1       5.722   8.902 -13.274  1.00  0.00     0.173 A 
ATOM     79  C   UNL     1       4.641   9.930 -11.392  1.00  0.00     0.173 A 
ATOM     80  F   UNL     1       6.831   8.548 -13.940  1.00  0.00    -0.203 F 
ATOM     81  C   UNL     1       4.478   8.626 -13.837  1.00  0.00     0.198 A 
ATOM     82  C   UNL     1       3.397   9.633 -11.945  1.00  0.00     0.198 A 
ATOM     83  F   UNL     1       4.691  10.556 -10.207  1.00  0.00    -0.203 F 
ATOM     84  F   UNL     1       4.405   8.018 -15.028  1.00  0.00    -0.200 F 
ATOM     85  C   UNL     1       3.317   8.985 -13.169  1.00  0.00     0.200 A 
ATOM     86  F   UNL     1       2.277   9.969 -11.291  1.00  0.00    -0.200 F 
ATOM     87  F   UNL     1       2.121   8.708 -13.705  1.00  0.00    -0.200 F 
ENDBRANCH  53  77
BRANCH  65  88
ATOM     88  C   UNL     1      11.051  13.924 -13.551  1.00  0.00     0.064 A 
ATOM     89  C   UNL     1      10.368  15.148 -13.574  1.00  0.00     0.173 A 
ATOM     90  C   UNL     1      11.974  13.663 -14.574  1.00  0.00     0.173 A 
ATOM     91  F   UNL     1       9.464  15.435 -12.626  1.00  0.00    -0.203 F 
ATOM     92  C   UNL     1      10.590  16.069 -14.594  1.00  0.00     0.198 A 
ATOM     93  C   UNL     1      12.211  14.596 -15.579  1.00  0.00     0.198 A 
ATOM     94  F   UNL     1      12.655  12.507 -14.592  1.00  0.00    -0.203 F 
ATOM     95  F   UNL     1       9.899  17.218 -14.619  1.00  0.00    -0.200 F 
ATOM     96  C   UNL     1      11.515  15.796 -15.591  1.00  0.00     0.200 A 
ATOM     97  F   UNL     1      13.113  14.335 -16.535  1.00  0.00    -0.200 F 
ATOM     98  F   UNL     1      11.732  16.687 -16.568  1.00  0.00    -0.200 F 
ENDBRANCH  65  88
ENDBRANCH  39  40
ENDBRANCH  31  34
ENDBRANCH  29  30
ENDBRANCH  28  29
ENDBRANCH   1  28
TORSDOF 14
