REMARK SMILES O=C(NCCCNC(=O)c1ccccc1/N=C/c1coc2ccccc2c1=O)c1ccc(-c2c3nc(c(-c4c(F)c(F)c(F)c(F)c4F)c4ccc([nH]4)c(-c4c(F)c(F)c(F)c(F)c4F)c4nc(c(-c5c(F)c(F)c(F)c(F)c5F)c5ccc2[nH]5)C=C4)C=C3)cc1
REMARK SMILES IDX 5 1 4 2 3 3 1 4 2 5 29 7 30 8 91 9 31 10 90 11 32 12 33 13
REMARK SMILES IDX 34 14 84 15 35 16 89 17 83 18 85 19 36 20 88 21 82 22 81 23
REMARK SMILES IDX 37 25 69 26 49 27 68 28 50 29 53 30 67 31 86 32 51 33 52 34
REMARK SMILES IDX 66 36 87 37 54 38 38 39 39 40 47 41 40 42 41 43 45 44 48 45
REMARK SMILES IDX 42 46 43 47 46 48 44 49 70 50 71 51 79 52 72 53 73 54 77 55
REMARK SMILES IDX 80 56 74 57 75 58 78 59 76 60 55 61 56 62 64 63 57 64 58 65
REMARK SMILES IDX 62 66 65 67 59 68 60 69 63 70 61 71 6 72 7 73 8 74 9 76
REMARK SMILES IDX 10 77 11 78 15 79 12 80 14 81 13 82 16 83 17 84 18 85 19 86
REMARK SMILES IDX 27 87 20 88 26 89 28 90 21 91 25 92 22 93 24 94 23 95
REMARK H PARENT 3 6 85 24 53 35 7 75
REMARK Flexibility Score: inf
ROOT
ATOM      1  C   UNL     1       6.098  -0.229  -2.642  1.00  0.00     0.042 C 
ENDROOT
BRANCH   1   2
ATOM      2  C   UNL     1       5.359   0.074  -1.344  1.00  0.00     0.118 C 
BRANCH   2   3
ATOM      3  N   UNL     1       3.908  -0.008  -1.396  1.00  0.00    -0.352 N 
ATOM      4  O   UNL     1       1.822  -0.418  -0.602  1.00  0.00    -0.269 OA
ATOM      5  C   UNL     1       3.033  -0.397  -0.399  1.00  0.00     0.251 C 
ATOM      6  H   UNL     1       3.495   0.247  -2.253  1.00  0.00     0.163 HD
BRANCH   5   7
ATOM      7  C   UNL     1       3.545  -0.876   0.914  1.00  0.00     0.039 A 
ATOM      8  C   UNL     1       4.583  -0.233   1.590  1.00  0.00     0.014 A 
ATOM      9  C   UNL     1       2.985  -2.038   1.463  1.00  0.00     0.014 A 
ATOM     10  C   UNL     1       5.186  -0.850   2.686  1.00  0.00     0.010 A 
ATOM     11  C   UNL     1       3.546  -2.621   2.606  1.00  0.00     0.010 A 
ATOM     12  C   UNL     1       4.699  -2.071   3.182  1.00  0.00    -0.014 A 
BRANCH  12  13
ATOM     13  C   UNL     1       5.471  -2.789   4.231  1.00  0.00     0.031 A 
ATOM     14  C   UNL     1       6.201  -4.066   3.900  1.00  0.00     0.074 A 
ATOM     15  C   UNL     1       5.616  -2.244   5.454  1.00  0.00     0.049 A 
ATOM     16  N   UNL     1       6.991  -4.787   4.658  1.00  0.00    -0.248 NA
ATOM     17  C   UNL     1       6.017  -4.611   2.545  1.00  0.00     0.031 C 
ATOM     18  C   UNL     1       4.968  -1.017   5.915  1.00  0.00     0.029 A 
ATOM     19  N   UNL     1       6.404  -2.626   6.512  1.00  0.00    -0.354 N 
ATOM     20  C   UNL     1       7.349  -5.890   3.895  1.00  0.00     0.074 A 
ATOM     21  C   UNL     1       6.711  -5.739   2.605  1.00  0.00     0.031 C 
ATOM     22  C   UNL     1       5.452  -0.697   7.126  1.00  0.00     0.029 A 
ATOM     23  C   UNL     1       6.430  -1.705   7.529  1.00  0.00     0.049 A 
ATOM     24  H   UNL     1       6.901  -3.476   6.538  1.00  0.00     0.167 HD
ATOM     25  C   UNL     1       8.132  -6.940   4.238  1.00  0.00     0.037 A 
ATOM     26  C   UNL     1       7.188  -1.655   8.640  1.00  0.00     0.037 A 
ATOM     27  C   UNL     1       8.816  -7.079   5.495  1.00  0.00     0.049 A 
ATOM     28  C   UNL     1       8.178  -2.745   8.927  1.00  0.00     0.074 A 
ATOM     29  C   UNL     1       9.563  -8.145   5.966  1.00  0.00     0.029 A 
ATOM     30  N   UNL     1       8.867  -6.093   6.466  1.00  0.00    -0.354 N 
ATOM     31  N   UNL     1       8.441  -3.821   8.231  1.00  0.00    -0.248 NA
ATOM     32  C   UNL     1       8.975  -2.611  10.156  1.00  0.00     0.031 C 
ATOM     33  C   UNL     1      10.087  -7.793   7.217  1.00  0.00     0.029 A 
ATOM     34  C   UNL     1       9.666  -6.509   7.517  1.00  0.00     0.049 A 
ATOM     35  H   UNL     1       8.404  -5.226   6.416  1.00  0.00     0.167 HD
ATOM     36  C   UNL     1       9.415  -4.504   8.944  1.00  0.00     0.074 A 
ATOM     37  C   UNL     1       9.725  -3.705  10.110  1.00  0.00     0.031 C 
ATOM     38  C   UNL     1       9.979  -5.702   8.664  1.00  0.00     0.037 A 
BRANCH  25  39
ATOM     39  C   UNL     1       8.270  -8.044   3.240  1.00  0.00     0.064 A 
ATOM     40  C   UNL     1       9.214  -7.979   2.207  1.00  0.00     0.173 A 
ATOM     41  C   UNL     1       7.468  -9.190   3.337  1.00  0.00     0.173 A 
ATOM     42  F   UNL     1       9.989  -6.894   2.068  1.00  0.00    -0.203 F 
ATOM     43  C   UNL     1       9.345  -9.025   1.298  1.00  0.00     0.198 A 
ATOM     44  C   UNL     1       7.609 -10.238   2.432  1.00  0.00     0.198 A 
ATOM     45  F   UNL     1       6.550  -9.291   4.309  1.00  0.00    -0.203 F 
ATOM     46  F   UNL     1      10.239  -8.938   0.302  1.00  0.00    -0.200 F 
ATOM     47  C   UNL     1       8.546 -10.154   1.413  1.00  0.00     0.200 A 
ATOM     48  F   UNL     1       6.836 -11.327   2.543  1.00  0.00    -0.200 F 
ATOM     49  F   UNL     1       8.674 -11.159   0.535  1.00  0.00    -0.200 F 
ENDBRANCH  25  39
BRANCH  26  50
ATOM     50  C   UNL     1       7.088  -0.477   9.530  1.00  0.00     0.064 A 
ATOM     51  C   UNL     1       7.989   0.587   9.396  1.00  0.00     0.173 A 
ATOM     52  C   UNL     1       6.088  -0.382  10.503  1.00  0.00     0.173 A 
ATOM     53  F   UNL     1       8.970   0.523   8.484  1.00  0.00    -0.203 F 
ATOM     54  C   UNL     1       7.892   1.712  10.210  1.00  0.00     0.198 A 
ATOM     55  C   UNL     1       5.988   0.747  11.312  1.00  0.00     0.198 A 
ATOM     56  F   UNL     1       5.210  -1.382  10.664  1.00  0.00    -0.203 F 
ATOM     57  F   UNL     1       8.771   2.714  10.072  1.00  0.00    -0.200 F 
ATOM     58  C   UNL     1       6.889   1.793  11.165  1.00  0.00     0.200 A 
ATOM     59  F   UNL     1       5.020   0.824  12.236  1.00  0.00    -0.200 F 
ATOM     60  F   UNL     1       6.795   2.876  11.948  1.00  0.00    -0.200 F 
ENDBRANCH  26  50
BRANCH  38  61
ATOM     61  C   UNL     1      10.978  -6.231   9.640  1.00  0.00     0.064 A 
ATOM     62  C   UNL     1      10.563  -6.954  10.767  1.00  0.00     0.173 A 
ATOM     63  C   UNL     1      12.352  -6.052   9.433  1.00  0.00     0.173 A 
ATOM     64  F   UNL     1       9.257  -7.140  11.006  1.00  0.00    -0.203 F 
ATOM     65  C   UNL     1      11.494  -7.476  11.660  1.00  0.00     0.198 A 
ATOM     66  C   UNL     1      13.280  -6.579  10.326  1.00  0.00     0.198 A 
ATOM     67  F   UNL     1      12.790  -5.361   8.370  1.00  0.00    -0.203 F 
ATOM     68  F   UNL     1      11.079  -8.154  12.739  1.00  0.00    -0.200 F 
ATOM     69  C   UNL     1      12.851  -7.291  11.438  1.00  0.00     0.200 A 
ATOM     70  F   UNL     1      14.591  -6.395  10.115  1.00  0.00    -0.200 F 
ATOM     71  F   UNL     1      13.746  -7.792  12.300  1.00  0.00    -0.200 F 
ENDBRANCH  38  61
ENDBRANCH  12  13
ENDBRANCH   5   7
ENDBRANCH   2   3
ENDBRANCH   1   2
BRANCH   1  72
ATOM     72  C   UNL     1       5.846   0.710  -3.812  1.00  0.00     0.118 C 
BRANCH  72  73
ATOM     73  N   UNL     1       6.014   2.118  -3.504  1.00  0.00    -0.352 N 
ATOM     74  C   UNL     1       6.449   3.127  -4.326  1.00  0.00     0.253 C 
ATOM     75  H   UNL     1       5.786   2.385  -2.584  1.00  0.00     0.163 HD
ATOM     76  O   UNL     1       6.482   4.284  -3.913  1.00  0.00    -0.269 OA
BRANCH  74  77
ATOM     77  C   UNL     1       6.921   2.849  -5.696  1.00  0.00     0.065 A 
ATOM     78  C   UNL     1       8.247   3.208  -5.990  1.00  0.00     0.016 A 
ATOM     79  C   UNL     1       6.102   2.299  -6.692  1.00  0.00     0.076 A 
ATOM     80  C   UNL     1       8.777   2.970  -7.260  1.00  0.00     0.001 A 
ATOM     81  C   UNL     1       6.657   2.063  -7.958  1.00  0.00     0.029 A 
ATOM     82  C   UNL     1       7.982   2.393  -8.244  1.00  0.00     0.002 A 
BRANCH  79  83
ATOM     83  N   UNL     1       4.806   1.816  -6.503  1.00  0.00    -0.255 NA
ATOM     84  C   UNL     1       3.831   2.598  -6.166  1.00  0.00     0.127 C 
BRANCH  84  85
ATOM     85  C   UNL     1       2.497   1.975  -6.099  1.00  0.00     0.076 A 
ATOM     86  C   UNL     1       1.798   2.081  -7.240  1.00  0.00     0.209 A 
ATOM     87  C   UNL     1       2.287   0.741  -5.307  1.00  0.00     0.201 A 
ATOM     88  O   UNL     1       0.945   1.102  -7.718  1.00  0.00    -0.463 OA
ATOM     89  C   UNL     1       1.928  -0.426  -6.126  1.00  0.00     0.065 A 
ATOM     90  O   UNL     1       2.500   0.674  -4.104  1.00  0.00    -0.288 OA
ATOM     91  C   UNL     1       1.292  -0.180  -7.345  1.00  0.00     0.137 A 
ATOM     92  C   UNL     1       2.344  -1.709  -5.775  1.00  0.00     0.016 A 
ATOM     93  C   UNL     1       1.067  -1.225  -8.234  1.00  0.00     0.048 A 
ATOM     94  C   UNL     1       2.146  -2.752  -6.680  1.00  0.00     0.001 A 
ATOM     95  C   UNL     1       1.513  -2.509  -7.905  1.00  0.00     0.004 A 
ENDBRANCH  84  85
ENDBRANCH  79  83
ENDBRANCH  74  77
ENDBRANCH  72  73
ENDBRANCH   1  72
TORSDOF 12
