REMARK SMILES CC(C)(C)OCC[C@@H]1CCC[C@]1([NH2+]C1CC1)C(=O)NCCCNC(=O)c1ccc(-c2c3nc(c(-c4c(F)c(F)c(F)c(F)c4F)c4ccc([nH]4)c(-c4c(F)c(F)c(F)c(F)c4F)c4nc(c(-c5c(F)c(F)c(F)c(F)c5F)c5ccc2[nH]5)C=C4)C=C3)cc1
REMARK SMILES IDX 20 1 19 2 17 3 18 4 12 6 8 7 9 8 10 9 11 10 7 11 6 12 5 13
REMARK SMILES IDX 2 14 1 15 3 16 4 17 13 18 14 21 15 22 16 23 21 24 22 25
REMARK SMILES IDX 23 26 24 27 25 29 26 30 27 31 88 32 28 33 87 34 29 35 30 36
REMARK SMILES IDX 31 37 81 38 32 39 86 40 80 41 82 42 33 43 85 44 79 45 78 46
REMARK SMILES IDX 34 48 66 49 46 50 65 51 47 52 50 53 64 54 83 55 48 56 49 57
REMARK SMILES IDX 63 59 84 60 51 61 35 62 36 63 44 64 37 65 38 66 42 67 45 68
REMARK SMILES IDX 39 69 40 70 43 71 41 72 67 73 68 74 76 75 69 76 70 77 74 78
REMARK SMILES IDX 77 79 71 80 72 81 75 82 73 83 52 84 53 85 61 86 54 87 55 88
REMARK SMILES IDX 59 89 62 90 56 91 57 92 60 93 58 94
REMARK H PARENT 19 5 13 19 13 20 23 28 82 47 50 58
REMARK Flexibility Score: inf
ROOT
ATOM      1  C   UNL     1      -0.813   1.983  -5.928  1.00  0.00     0.118 C 
ENDROOT
BRANCH   1   2
ATOM      2  N   UNL     1      -0.361   0.778  -6.607  1.00  0.00    -0.351 N 
ATOM      3  C   UNL     1      -0.331  -0.538  -6.252  1.00  0.00     0.281 C 
ATOM      4  O   UNL     1       0.033  -1.308  -7.153  1.00  0.00    -0.268 OA
ATOM      5  H   UNL     1      -0.003   0.948  -7.509  1.00  0.00     0.163 HD
BRANCH   3   6
ATOM      6  C   UNL     1      -0.661  -1.079  -4.820  1.00  0.00     0.178 C 
ATOM      7  C   UNL     1       0.559  -0.995  -3.845  1.00  0.00     0.063 C 
ATOM      8  C   UNL     1       1.490  -2.097  -4.362  1.00  0.00     0.011 C 
ATOM      9  C   UNL     1       0.553  -3.251  -4.666  1.00  0.00     0.008 C 
ATOM     10  C   UNL     1      -0.835  -2.630  -4.851  1.00  0.00     0.079 C 
BRANCH   7  11
ATOM     11  C   UNL     1       1.339   0.306  -3.648  1.00  0.00     0.039 C 
BRANCH  11  12
ATOM     12  C   UNL     1       0.710   1.295  -2.666  1.00  0.00     0.161 C 
BRANCH  12  13
ATOM     13  O   UNL     1       1.244   1.222  -1.344  1.00  0.00    -0.376 OA
BRANCH  13  14
ATOM     14  C   UNL     1       0.787   0.229  -0.416  1.00  0.00     0.060 C 
ATOM     15  C   UNL     1       1.158   0.796   0.967  1.00  0.00     0.042 C 
ATOM     16  C   UNL     1       1.551  -1.093  -0.604  1.00  0.00     0.042 C 
ATOM     17  C   UNL     1      -0.734   0.029  -0.432  1.00  0.00     0.042 C 
ENDBRANCH  13  14
ENDBRANCH  12  13
ENDBRANCH  11  12
ENDBRANCH   7  11
BRANCH   6  18
ATOM     18  N   UNL     1      -1.869  -0.445  -4.250  1.00  0.00    -0.331 N 
ATOM     19  H   UNL     1      -1.612   0.515  -4.020  1.00  0.00     0.347 HD
ATOM     20  H   UNL     1      -2.115  -1.071  -3.484  1.00  0.00     0.347 HD
BRANCH  18  21
ATOM     21  C   UNL     1      -3.115  -0.372  -5.029  1.00  0.00     0.183 C 
ATOM     22  C   UNL     1      -3.463  -1.155  -6.261  1.00  0.00     0.071 C 
ATOM     23  C   UNL     1      -4.081  -1.529  -4.949  1.00  0.00     0.071 C 
ENDBRANCH  18  21
ENDBRANCH   6  18
ENDBRANCH   3   6
ENDBRANCH   1   2
BRANCH   1  24
ATOM     24  C   UNL     1       0.266   3.062  -5.839  1.00  0.00     0.042 C 
BRANCH  24  25
ATOM     25  C   UNL     1       0.850   3.509  -7.171  1.00  0.00     0.118 C 
BRANCH  25  26
ATOM     26  N   UNL     1       0.111   4.614  -7.758  1.00  0.00    -0.352 N 
ATOM     27  C   UNL     1       0.507   5.909  -7.966  1.00  0.00     0.251 C 
ATOM     28  H   UNL     1      -0.805   4.401  -8.046  1.00  0.00     0.163 HD
ATOM     29  O   UNL     1      -0.336   6.756  -8.282  1.00  0.00    -0.269 OA
BRANCH  27  30
ATOM     30  C   UNL     1       1.922   6.321  -7.808  1.00  0.00     0.039 A 
ATOM     31  C   UNL     1       2.202   7.560  -7.221  1.00  0.00     0.014 A 
ATOM     32  C   UNL     1       2.974   5.532  -8.284  1.00  0.00     0.014 A 
ATOM     33  C   UNL     1       3.526   7.988  -7.082  1.00  0.00     0.010 A 
ATOM     34  C   UNL     1       4.296   5.923  -8.074  1.00  0.00     0.010 A 
ATOM     35  C   UNL     1       4.587   7.166  -7.492  1.00  0.00    -0.014 A 
BRANCH  35  36
ATOM     36  C   UNL     1       6.000   7.614  -7.374  1.00  0.00     0.031 A 
ATOM     37  C   UNL     1       6.825   7.836  -8.614  1.00  0.00     0.074 A 
ATOM     38  C   UNL     1       6.561   7.778  -6.160  1.00  0.00     0.049 A 
ATOM     39  N   UNL     1       8.091   8.157  -8.725  1.00  0.00    -0.248 NA
ATOM     40  C   UNL     1       6.143   7.644  -9.904  1.00  0.00     0.031 C 
ATOM     41  C   UNL     1       5.888   7.558  -4.880  1.00  0.00     0.029 A 
ATOM     42  N   UNL     1       7.832   8.161  -5.806  1.00  0.00    -0.354 N 
ATOM     43  C   UNL     1       8.358   8.179 -10.087  1.00  0.00     0.074 A 
ATOM     44  C   UNL     1       7.139   7.796 -10.764  1.00  0.00     0.031 C 
ATOM     45  C   UNL     1       6.744   7.828  -3.881  1.00  0.00     0.029 A 
ATOM     46  C   UNL     1       8.035   8.210  -4.449  1.00  0.00     0.049 A 
ATOM     47  H   UNL     1       8.531   8.380  -6.464  1.00  0.00     0.167 HD
ATOM     48  C   UNL     1       9.509   8.511 -10.720  1.00  0.00     0.037 A 
ATOM     49  C   UNL     1       9.137   8.524  -3.743  1.00  0.00     0.037 A 
ATOM     50  C   UNL     1      10.710   8.938 -10.053  1.00  0.00     0.049 A 
ATOM     51  C   UNL     1      10.397   8.910  -4.469  1.00  0.00     0.074 A 
ATOM     52  C   UNL     1      11.904   9.361 -10.610  1.00  0.00     0.029 A 
ATOM     53  N   UNL     1      10.865   9.002  -8.676  1.00  0.00    -0.354 N 
ATOM     54  N   UNL     1      10.620   8.983  -5.758  1.00  0.00    -0.248 NA
ATOM     55  C   UNL     1      11.558   9.265  -3.639  1.00  0.00     0.031 C 
ATOM     56  C   UNL     1      12.794   9.649  -9.570  1.00  0.00     0.029 A 
ATOM     57  C   UNL     1      12.141   9.443  -8.365  1.00  0.00     0.049 A 
ATOM     58  H   UNL     1      10.172   8.768  -8.017  1.00  0.00     0.167 HD
ATOM     59  C   UNL     1      11.933   9.413  -5.895  1.00  0.00     0.074 A 
ATOM     60  C   UNL     1      12.454   9.598  -4.558  1.00  0.00     0.031 C 
ATOM     61  C   UNL     1      12.642   9.633  -7.029  1.00  0.00     0.037 A 
BRANCH  48  62
ATOM     62  C   UNL     1       9.522   8.434 -12.219  1.00  0.00     0.064 A 
ATOM     63  C   UNL     1       8.823   9.359 -13.009  1.00  0.00     0.173 A 
ATOM     64  C   UNL     1      10.270   7.444 -12.874  1.00  0.00     0.173 A 
ATOM     65  F   UNL     1       8.084  10.318 -12.430  1.00  0.00    -0.203 F 
ATOM     66  C   UNL     1       8.849   9.279 -14.398  1.00  0.00     0.198 A 
ATOM     67  C   UNL     1      10.316   7.384 -14.265  1.00  0.00     0.198 A 
ATOM     68  F   UNL     1      10.962   6.539 -12.166  1.00  0.00    -0.203 F 
ATOM     69  F   UNL     1       8.135  10.145 -15.131  1.00  0.00    -0.200 F 
ATOM     70  C   UNL     1       9.600   8.296 -15.025  1.00  0.00     0.200 A 
ATOM     71  F   UNL     1      11.051   6.440 -14.869  1.00  0.00    -0.200 F 
ATOM     72  F   UNL     1       9.627   8.223 -16.363  1.00  0.00    -0.200 F 
ENDBRANCH  48  62
BRANCH  49  73
ATOM     73  C   UNL     1       9.092   8.515  -2.258  1.00  0.00     0.064 A 
ATOM     74  C   UNL     1       9.122   9.714  -1.532  1.00  0.00     0.173 A 
ATOM     75  C   UNL     1       9.020   7.315  -1.536  1.00  0.00     0.173 A 
ATOM     76  F   UNL     1       9.215  10.885  -2.179  1.00  0.00    -0.203 F 
ATOM     77  C   UNL     1       9.097   9.713  -0.139  1.00  0.00     0.198 A 
ATOM     78  C   UNL     1       8.971   7.316  -0.144  1.00  0.00     0.198 A 
ATOM     79  F   UNL     1       8.988   6.142  -2.185  1.00  0.00    -0.203 F 
ATOM     80  F   UNL     1       9.168  10.871   0.531  1.00  0.00    -0.200 F 
ATOM     81  C   UNL     1       9.016   8.514   0.553  1.00  0.00     0.200 A 
ATOM     82  F   UNL     1       8.883   6.157   0.522  1.00  0.00    -0.200 F 
ATOM     83  F   UNL     1       8.990   8.513   1.893  1.00  0.00    -0.200 F 
ENDBRANCH  49  73
BRANCH  61  84
ATOM     84  C   UNL     1      14.049  10.128  -6.875  1.00  0.00     0.064 A 
ATOM     85  C   UNL     1      15.082   9.281  -6.449  1.00  0.00     0.173 A 
ATOM     86  C   UNL     1      14.374  11.454  -7.198  1.00  0.00     0.173 A 
ATOM     87  F   UNL     1      14.818   8.009  -6.114  1.00  0.00    -0.203 F 
ATOM     88  C   UNL     1      16.388   9.750  -6.332  1.00  0.00     0.198 A 
ATOM     89  C   UNL     1      15.685  11.912  -7.105  1.00  0.00     0.198 A 
ATOM     90  F   UNL     1      13.422  12.301  -7.616  1.00  0.00    -0.203 F 
ATOM     91  F   UNL     1      17.353   8.935  -5.885  1.00  0.00    -0.200 F 
ATOM     92  C   UNL     1      16.689  11.062  -6.667  1.00  0.00     0.200 A 
ATOM     93  F   UNL     1      15.976  13.177  -7.438  1.00  0.00    -0.200 F 
ATOM     94  F   UNL     1      17.948  11.510  -6.560  1.00  0.00    -0.200 F 
ENDBRANCH  61  84
ENDBRANCH  35  36
ENDBRANCH  27  30
ENDBRANCH  25  26
ENDBRANCH  24  25
ENDBRANCH   1  24
TORSDOF 16
