REMARK SMILES COC[C@H](C)[C@@](C)(O)C(=O)NCCCNC(=O)c1ccc(-c2c3nc(c(-c4c(F)c(F)c(F)c(F)c4F)c4ccc([nH]4)c(-c4c(F)c(F)c(F)c(F)c4F)c4nc(c(-c5c(F)c(F)c(F)c(F)c5F)c5ccc2[nH]5)C=C4)C=C3)cc1
REMARK SMILES IDX 12 1 11 2 9 3 10 4 6 6 7 7 4 8 5 9 3 10 2 11 1 12 8 13 13 15
REMARK SMILES IDX 14 16 15 17 16 18 17 20 18 21 19 22 80 23 20 24 79 25 21 26
REMARK SMILES IDX 22 27 23 28 73 29 24 30 78 31 72 32 74 33 25 34 77 35 71 36
REMARK SMILES IDX 70 37 26 39 58 40 38 41 57 42 39 43 42 44 56 45 75 46 40 47
REMARK SMILES IDX 41 48 55 50 76 51 43 52 27 53 28 54 36 55 29 56 30 57 34 58
REMARK SMILES IDX 37 59 31 60 32 61 35 62 33 63 59 64 60 65 68 66 61 67 62 68
REMARK SMILES IDX 66 69 69 70 63 71 64 72 67 73 65 74 44 75 45 76 53 77 46 78
REMARK SMILES IDX 47 79 51 80 54 81 48 82 49 83 52 84 50 85
REMARK H PARENT 11 5 8 14 15 19 74 38 42 49
REMARK Flexibility Score: inf
ROOT
ATOM      1  C   UNL     1       2.254  -0.739  -6.934  1.00  0.00     0.117 C 
ENDROOT
BRANCH   1   2
ATOM      2  N   UNL     1       2.918  -0.816  -5.650  1.00  0.00    -0.354 N 
ATOM      3  C   UNL     1       2.438  -0.738  -4.379  1.00  0.00     0.252 C 
ATOM      4  O   UNL     1       3.298  -0.748  -3.494  1.00  0.00    -0.272 OA
ATOM      5  H   UNL     1       3.892  -0.949  -5.706  1.00  0.00     0.163 HD
BRANCH   3   6
ATOM      6  C   UNL     1       0.905  -0.682  -4.075  1.00  0.00     0.145 C 
ATOM      7  C   UNL     1       0.237  -1.970  -4.591  1.00  0.00     0.053 C 
BRANCH   6   8
ATOM      8  C   UNL     1       0.617  -0.518  -2.542  1.00  0.00     0.053 C 
ATOM      9  C   UNL     1       1.058  -1.739  -1.713  1.00  0.00     0.014 C 
BRANCH   8  10
ATOM     10  C   UNL     1       1.127   0.835  -1.988  1.00  0.00     0.166 C 
BRANCH  10  11
ATOM     11  O   UNL     1       1.276   0.854  -0.567  1.00  0.00    -0.384 OA
ATOM     12  C   UNL     1       0.056   0.944   0.152  1.00  0.00     0.194 C 
ENDBRANCH  10  11
ENDBRANCH   8  10
ENDBRANCH   6   8
BRANCH   6  13
ATOM     13  O   UNL     1       0.314   0.432  -4.760  1.00  0.00    -0.380 OA
ATOM     14  H   UNL     1      -0.636   0.462  -4.568  1.00  0.00     0.212 HD
ENDBRANCH   6  13
ENDBRANCH   3   6
ENDBRANCH   1   2
BRANCH   1  15
ATOM     15  C   UNL     1       2.753   0.429  -7.773  1.00  0.00     0.042 C 
BRANCH  15  16
ATOM     16  C   UNL     1       4.260   0.458  -7.998  1.00  0.00     0.118 C 
BRANCH  16  17
ATOM     17  N   UNL     1       4.761  -0.701  -8.727  1.00  0.00    -0.352 N 
ATOM     18  C   UNL     1       5.413  -0.764  -9.936  1.00  0.00     0.251 C 
ATOM     19  H   UNL     1       4.611  -1.569  -8.287  1.00  0.00     0.163 HD
ATOM     20  O   UNL     1       5.642  -1.849 -10.461  1.00  0.00    -0.269 OA
BRANCH  18  21
ATOM     21  C   UNL     1       5.806   0.483 -10.622  1.00  0.00     0.039 A 
ATOM     22  C   UNL     1       5.512   0.634 -11.980  1.00  0.00     0.014 A 
ATOM     23  C   UNL     1       6.435   1.513  -9.920  1.00  0.00     0.014 A 
ATOM     24  C   UNL     1       5.763   1.856 -12.611  1.00  0.00     0.010 A 
ATOM     25  C   UNL     1       6.602   2.753 -10.523  1.00  0.00     0.010 A 
ATOM     26  C   UNL     1       6.264   2.940 -11.873  1.00  0.00    -0.014 A 
BRANCH  26  27
ATOM     27  C   UNL     1       6.452   4.285 -12.475  1.00  0.00     0.031 A 
ATOM     28  C   UNL     1       7.827   4.891 -12.519  1.00  0.00     0.074 A 
ATOM     29  C   UNL     1       5.383   5.001 -12.874  1.00  0.00     0.049 A 
ATOM     30  N   UNL     1       8.188   6.111 -12.824  1.00  0.00    -0.248 NA
ATOM     31  C   UNL     1       8.943   4.013 -12.131  1.00  0.00     0.031 C 
ATOM     32  C   UNL     1       3.995   4.540 -12.848  1.00  0.00     0.029 A 
ATOM     33  N   UNL     1       5.297   6.284 -13.356  1.00  0.00    -0.354 N 
ATOM     34  C   UNL     1       9.562   6.156 -12.631  1.00  0.00     0.074 A 
ATOM     35  C   UNL     1       9.965   4.855 -12.142  1.00  0.00     0.031 C 
ATOM     36  C   UNL     1       3.197   5.520 -13.303  1.00  0.00     0.029 A 
ATOM     37  C   UNL     1       4.010   6.693 -13.607  1.00  0.00     0.049 A 
ATOM     38  H   UNL     1       6.084   6.857 -13.508  1.00  0.00     0.167 HD
ATOM     39  C   UNL     1      10.413   7.184 -12.858  1.00  0.00     0.037 A 
ATOM     40  C   UNL     1       3.538   7.887 -14.016  1.00  0.00     0.037 A 
ATOM     41  C   UNL     1      10.012   8.462 -13.383  1.00  0.00     0.049 A 
ATOM     42  C   UNL     1       4.505   9.012 -14.268  1.00  0.00     0.074 A 
ATOM     43  C   UNL     1      10.804   9.550 -13.703  1.00  0.00     0.029 A 
ATOM     44  N   UNL     1       8.703   8.821 -13.670  1.00  0.00    -0.354 N 
ATOM     45  N   UNL     1       5.808   9.030 -14.127  1.00  0.00    -0.248 NA
ATOM     46  C   UNL     1       3.937  10.283 -14.741  1.00  0.00     0.031 C 
ATOM     47  C   UNL     1       9.971  10.581 -14.149  1.00  0.00     0.029 A 
ATOM     48  C   UNL     1       8.665  10.118 -14.153  1.00  0.00     0.049 A 
ATOM     49  H   UNL     1       7.918   8.239 -13.548  1.00  0.00     0.167 HD
ATOM     50  C   UNL     1       6.219  10.295 -14.527  1.00  0.00     0.074 A 
ATOM     51  C   UNL     1       5.027  11.016 -14.919  1.00  0.00     0.031 C 
ATOM     52  C   UNL     1       7.471  10.810 -14.567  1.00  0.00     0.037 A 
BRANCH  39  53
ATOM     53  C   UNL     1      11.864   6.967 -12.542  1.00  0.00     0.064 A 
ATOM     54  C   UNL     1      12.663   6.105 -13.309  1.00  0.00     0.173 A 
ATOM     55  C   UNL     1      12.470   7.651 -11.478  1.00  0.00     0.173 A 
ATOM     56  F   UNL     1      12.128   5.418 -14.329  1.00  0.00    -0.203 F 
ATOM     57  C   UNL     1      14.008   5.913 -13.003  1.00  0.00     0.198 A 
ATOM     58  C   UNL     1      13.823   7.481 -11.195  1.00  0.00     0.198 A 
ATOM     59  F   UNL     1      11.753   8.491 -10.717  1.00  0.00    -0.203 F 
ATOM     60  F   UNL     1      14.738   5.046 -13.718  1.00  0.00    -0.200 F 
ATOM     61  C   UNL     1      14.588   6.606 -11.952  1.00  0.00     0.200 A 
ATOM     62  F   UNL     1      14.386   8.161 -10.187  1.00  0.00    -0.200 F 
ATOM     63  F   UNL     1      15.884   6.425 -11.663  1.00  0.00    -0.200 F 
ENDBRANCH  39  53
BRANCH  40  64
ATOM     64  C   UNL     1       2.080   8.075 -14.232  1.00  0.00     0.064 A 
ATOM     65  C   UNL     1       1.562   8.227 -15.526  1.00  0.00     0.173 A 
ATOM     66  C   UNL     1       1.178   8.111 -13.159  1.00  0.00     0.173 A 
ATOM     67  F   UNL     1       2.388   8.221 -16.582  1.00  0.00    -0.203 F 
ATOM     68  C   UNL     1       0.199   8.427 -15.737  1.00  0.00     0.198 A 
ATOM     69  C   UNL     1      -0.188   8.284 -13.373  1.00  0.00     0.198 A 
ATOM     70  F   UNL     1       1.622   7.966 -11.902  1.00  0.00    -0.203 F 
ATOM     71  F   UNL     1      -0.263   8.614 -16.981  1.00  0.00    -0.200 F 
ATOM     72  C   UNL     1      -0.676   8.450 -14.661  1.00  0.00     0.200 A 
ATOM     73  F   UNL     1      -1.032   8.292 -12.333  1.00  0.00    -0.200 F 
ATOM     74  F   UNL     1      -1.986   8.639 -14.865  1.00  0.00    -0.200 F 
ENDBRANCH  40  64
BRANCH  52  75
ATOM     75  C   UNL     1       7.632  12.198 -15.112  1.00  0.00     0.064 A 
ATOM     76  C   UNL     1       7.250  13.329 -14.378  1.00  0.00     0.173 A 
ATOM     77  C   UNL     1       8.238  12.397 -16.363  1.00  0.00     0.173 A 
ATOM     78  F   UNL     1       6.654  13.189 -13.184  1.00  0.00    -0.203 F 
ATOM     79  C   UNL     1       7.454  14.610 -14.883  1.00  0.00     0.198 A 
ATOM     80  C   UNL     1       8.464  13.679 -16.852  1.00  0.00     0.198 A 
ATOM     81  F   UNL     1       8.626  11.346 -17.100  1.00  0.00    -0.203 F 
ATOM     82  F   UNL     1       7.048  15.678 -14.181  1.00  0.00    -0.200 F 
ATOM     83  C   UNL     1       8.069  14.784 -16.115  1.00  0.00     0.200 A 
ATOM     84  F   UNL     1       9.070  13.845 -18.036  1.00  0.00    -0.200 F 
ATOM     85  F   UNL     1       8.276  16.019 -16.593  1.00  0.00    -0.200 F 
ENDBRANCH  52  75
ENDBRANCH  26  27
ENDBRANCH  18  21
ENDBRANCH  16  17
ENDBRANCH  15  16
ENDBRANCH   1  15
TORSDOF 14
