REMARK SMILES CC[C@](C)(Nc1cccc(Cl)c1C(N)=O)C(=O)NCCCNC(=O)c1ccc(-c2c3nc(c(-c4c(F)c(F)c(F)c(F)c4F)c4ccc([nH]4)c(-c4c(F)c(F)c(F)c(F)c4F)c4nc(c(-c5c(F)c(F)c(F)c(F)c5F)c5ccc2[nH]5)C=C4)C=C3)cc1
REMARK SMILES IDX 19 1 18 2 16 3 17 4 3 6 4 7 2 8 1 9 5 10 6 12 7 13 12 14
REMARK SMILES IDX 8 15 10 16 9 17 11 18 13 19 14 20 15 21 20 24 21 25 22 26
REMARK SMILES IDX 23 27 24 29 25 30 26 31 87 32 27 33 86 34 28 35 29 36 30 37
REMARK SMILES IDX 80 38 31 39 85 40 79 41 81 42 32 43 84 44 78 45 77 46 33 48
REMARK SMILES IDX 65 49 45 50 64 51 46 52 49 53 63 54 82 55 47 56 48 57 62 59
REMARK SMILES IDX 83 60 50 61 34 62 35 63 43 64 36 65 37 66 41 67 44 68 38 69
REMARK SMILES IDX 39 70 42 71 40 72 66 73 67 74 75 75 68 76 69 77 73 78 76 79
REMARK SMILES IDX 70 80 71 81 74 82 72 83 51 84 52 85 60 86 53 87 54 88 58 89
REMARK SMILES IDX 61 90 55 91 56 92 59 93 57 94
REMARK H PARENT 18 5 5 11 14 22 14 23 22 28 81 47 49 58
REMARK Flexibility Score: inf
ROOT
ATOM      1  C   UNL     1       2.346  -4.017   3.281  1.00  0.00     0.117 C 
ENDROOT
BRANCH   1   2
ATOM      2  N   UNL     1       2.968  -3.034   2.409  1.00  0.00    -0.354 N 
ATOM      3  C   UNL     1       2.532  -2.349   1.311  1.00  0.00     0.245 C 
ATOM      4  O   UNL     1       3.368  -1.599   0.789  1.00  0.00    -0.272 OA
ATOM      5  H   UNL     1       3.894  -2.817   2.663  1.00  0.00     0.163 HD
BRANCH   3   6
ATOM      6  C   UNL     1       1.093  -2.486   0.730  1.00  0.00     0.113 C 
ATOM      7  C   UNL     1       0.917  -1.588  -0.522  1.00  0.00     0.045 C 
BRANCH   6   8
ATOM      8  C   UNL     1       0.076  -1.974   1.799  1.00  0.00     0.035 C 
ATOM      9  C   UNL     1       0.353  -0.557   2.307  1.00  0.00     0.007 C 
ENDBRANCH   6   8
BRANCH   6  10
ATOM     10  N   UNL     1       0.733  -3.877   0.312  1.00  0.00    -0.371 N 
ATOM     11  H   UNL     1      -0.164  -4.173   0.588  1.00  0.00     0.161 HD
BRANCH  10  12
ATOM     12  C   UNL     1       1.471  -4.825  -0.408  1.00  0.00     0.049 A 
ATOM     13  C   UNL     1       2.874  -4.871  -0.345  1.00  0.00     0.026 A 
ATOM     14  C   UNL     1       0.844  -5.832  -1.209  1.00  0.00     0.081 A 
ATOM     15  C   UNL     1       3.615  -5.965  -0.791  1.00  0.00     0.004 A 
ATOM     16  C   UNL     1       1.601  -6.944  -1.658  1.00  0.00     0.055 A 
ATOM     17  C   UNL     1       2.972  -7.024  -1.401  1.00  0.00     0.021 A 
ATOM     18  Cl  UNL     1       0.969  -8.284  -2.557  1.00  0.00    -0.083 Cl
BRANCH  14  19
ATOM     19  C   UNL     1      -0.582  -5.687  -1.669  1.00  0.00     0.252 C 
ATOM     20  N   UNL     1      -1.110  -4.425  -1.693  1.00  0.00    -0.365 N 
ATOM     21  O   UNL     1      -1.282  -6.610  -2.066  1.00  0.00    -0.269 OA
ATOM     22  H   UNL     1      -0.573  -3.661  -1.381  1.00  0.00     0.159 HD
ATOM     23  H   UNL     1      -2.026  -4.281  -2.023  1.00  0.00     0.159 HD
ENDBRANCH  14  19
ENDBRANCH  10  12
ENDBRANCH   6  10
ENDBRANCH   3   6
ENDBRANCH   1   2
BRANCH   1  24
ATOM     24  C   UNL     1       2.772  -5.463   3.040  1.00  0.00     0.042 C 
BRANCH  24  25
ATOM     25  C   UNL     1       4.270  -5.692   2.894  1.00  0.00     0.118 C 
BRANCH  25  26
ATOM     26  N   UNL     1       4.974  -5.581   4.160  1.00  0.00    -0.352 N 
ATOM     27  C   UNL     1       5.577  -6.553   4.920  1.00  0.00     0.251 C 
ATOM     28  H   UNL     1       5.027  -4.670   4.529  1.00  0.00     0.163 HD
ATOM     29  O   UNL     1       5.938  -6.290   6.064  1.00  0.00    -0.269 OA
BRANCH  27  30
ATOM     30  C   UNL     1       5.777  -7.922   4.388  1.00  0.00     0.039 A 
ATOM     31  C   UNL     1       5.501  -9.008   5.224  1.00  0.00     0.014 A 
ATOM     32  C   UNL     1       6.274  -8.146   3.100  1.00  0.00     0.014 A 
ATOM     33  C   UNL     1       5.664 -10.313   4.750  1.00  0.00     0.010 A 
ATOM     34  C   UNL     1       6.372  -9.447   2.605  1.00  0.00     0.010 A 
ATOM     35  C   UNL     1       6.067 -10.545   3.425  1.00  0.00    -0.014 A 
BRANCH  35  36
ATOM     36  C   UNL     1       6.153 -11.930   2.886  1.00  0.00     0.031 A 
ATOM     37  C   UNL     1       7.476 -12.512   2.470  1.00  0.00     0.074 A 
ATOM     38  C   UNL     1       5.027 -12.653   2.733  1.00  0.00     0.049 A 
ATOM     39  N   UNL     1       7.737 -13.682   1.941  1.00  0.00    -0.248 NA
ATOM     40  C   UNL     1       8.661 -11.662   2.659  1.00  0.00     0.031 C 
ATOM     41  C   UNL     1       3.679 -12.194   3.070  1.00  0.00     0.029 A 
ATOM     42  N   UNL     1       4.833 -13.923   2.247  1.00  0.00    -0.354 N 
ATOM     43  C   UNL     1       9.109 -13.707   1.730  1.00  0.00     0.074 A 
ATOM     44  C   UNL     1       9.621 -12.417   2.142  1.00  0.00     0.031 C 
ATOM     45  C   UNL     1       2.801 -13.173   2.800  1.00  0.00     0.029 A 
ATOM     46  C   UNL     1       3.515 -14.310   2.228  1.00  0.00     0.049 A 
ATOM     47  H   UNL     1       5.569 -14.501   1.942  1.00  0.00     0.167 HD
ATOM     48  C   UNL     1       9.874 -14.720   1.255  1.00  0.00     0.037 A 
ATOM     49  C   UNL     1       2.943 -15.446   1.783  1.00  0.00     0.037 A 
ATOM     50  C   UNL     1       9.364 -16.006   0.853  1.00  0.00     0.049 A 
ATOM     51  C   UNL     1       3.812 -16.536   1.215  1.00  0.00     0.074 A 
ATOM     52  C   UNL     1      10.068 -17.113   0.410  1.00  0.00     0.029 A 
ATOM     53  N   UNL     1       8.021 -16.355   0.832  1.00  0.00    -0.354 N 
ATOM     54  N   UNL     1       5.116 -16.575   1.088  1.00  0.00    -0.248 NA
ATOM     55  C   UNL     1       3.127 -17.743   0.731  1.00  0.00     0.031 C 
ATOM     56  C   UNL     1       9.148 -18.107   0.060  1.00  0.00     0.029 A 
ATOM     57  C   UNL     1       7.874 -17.646   0.347  1.00  0.00     0.049 A 
ATOM     58  H   UNL     1       7.281 -15.772   1.119  1.00  0.00     0.167 HD
ATOM     59  C   UNL     1       5.409 -17.813   0.533  1.00  0.00     0.074 A 
ATOM     60  C   UNL     1       4.148 -18.506   0.370  1.00  0.00     0.031 C 
ATOM     61  C   UNL     1       6.614 -18.328   0.186  1.00  0.00     0.037 A 
BRANCH  48  62
ATOM     62  C   UNL     1      11.353 -14.479   1.133  1.00  0.00     0.064 A 
ATOM     63  C   UNL     1      12.176 -14.349   2.262  1.00  0.00     0.173 A 
ATOM     64  C   UNL     1      11.963 -14.428  -0.130  1.00  0.00     0.173 A 
ATOM     65  F   UNL     1      11.644 -14.383   3.493  1.00  0.00    -0.203 F 
ATOM     66  C   UNL     1      13.548 -14.147   2.131  1.00  0.00     0.198 A 
ATOM     67  C   UNL     1      13.339 -14.259  -0.257  1.00  0.00     0.198 A 
ATOM     68  F   UNL     1      11.226 -14.555  -1.244  1.00  0.00    -0.203 F 
ATOM     69  F   UNL     1      14.305 -13.977   3.223  1.00  0.00    -0.200 F 
ATOM     70  C   UNL     1      14.129 -14.110   0.873  1.00  0.00     0.200 A 
ATOM     71  F   UNL     1      13.902 -14.240  -1.474  1.00  0.00    -0.200 F 
ATOM     72  F   UNL     1      15.451 -13.926   0.749  1.00  0.00    -0.200 F 
ENDBRANCH  48  62
BRANCH  49  73
ATOM     73  C   UNL     1       1.467 -15.612   1.856  1.00  0.00     0.064 A 
ATOM     74  C   UNL     1       0.888 -16.564   2.707  1.00  0.00     0.173 A 
ATOM     75  C   UNL     1       0.606 -14.834   1.067  1.00  0.00     0.173 A 
ATOM     76  F   UNL     1       1.669 -17.348   3.464  1.00  0.00    -0.203 F 
ATOM     77  C   UNL     1      -0.493 -16.746   2.750  1.00  0.00     0.198 A 
ATOM     78  C   UNL     1      -0.777 -14.995   1.136  1.00  0.00     0.198 A 
ATOM     79  F   UNL     1       1.108 -13.908   0.238  1.00  0.00    -0.203 F 
ATOM     80  F   UNL     1      -1.016 -17.699   3.534  1.00  0.00    -0.200 F 
ATOM     81  C   UNL     1      -1.324 -15.957   1.970  1.00  0.00     0.200 A 
ATOM     82  F   UNL     1      -1.577 -14.219   0.392  1.00  0.00    -0.200 F 
ATOM     83  F   UNL     1      -2.652 -16.131   2.015  1.00  0.00    -0.200 F 
ENDBRANCH  49  73
BRANCH  61  84
ATOM     84  C   UNL     1       6.633 -19.719  -0.383  1.00  0.00     0.064 A 
ATOM     85  C   UNL     1       6.122 -20.001  -1.659  1.00  0.00     0.173 A 
ATOM     86  C   UNL     1       7.199 -20.778   0.343  1.00  0.00     0.173 A 
ATOM     87  F   UNL     1       5.555 -19.029  -2.389  1.00  0.00    -0.203 F 
ATOM     88  C   UNL     1       6.150 -21.295  -2.173  1.00  0.00     0.198 A 
ATOM     89  C   UNL     1       7.258 -22.064  -0.188  1.00  0.00     0.198 A 
ATOM     90  F   UNL     1       7.709 -20.564   1.566  1.00  0.00    -0.203 F 
ATOM     91  F   UNL     1       5.607 -21.550  -3.372  1.00  0.00    -0.200 F 
ATOM     92  C   UNL     1       6.726 -22.323  -1.442  1.00  0.00     0.200 A 
ATOM     93  F   UNL     1       7.830 -23.052   0.514  1.00  0.00    -0.200 F 
ATOM     94  F   UNL     1       6.760 -23.566  -1.942  1.00  0.00    -0.200 F 
ENDBRANCH  61  84
ENDBRANCH  35  36
ENDBRANCH  27  30
ENDBRANCH  25  26
ENDBRANCH  24  25
ENDBRANCH   1  24
TORSDOF 14
