REMARK SMILES COC(=O)c1ccccc1-c1ccc(/C=C(\C#N)C(=O)NCCCNC(=O)c2ccc(-c3c4nc(c(-c5c(F)c(F)c(F)c(F)c5F)c5ccc([nH]5)c(-c5c(F)c(F)c(F)c(F)c5F)c5nc(c(-c6c(F)c(F)c(F)c(F)c6F)c6ccc3[nH]6)C=C5)C=C4)cc2)o1
REMARK SMILES IDX 22 1 21 2 19 3 20 4 16 6 15 7 14 8 11 9 12 10 91 11 13 12
REMARK SMILES IDX 10 13 5 14 6 15 7 16 9 17 8 18 3 19 4 20 2 21 1 22 17 23
REMARK SMILES IDX 18 24 23 25 24 26 25 27 26 28 27 30 28 31 29 32 90 33 30 34
REMARK SMILES IDX 89 35 31 36 32 37 33 38 83 39 34 40 88 41 82 42 84 43 35 44
REMARK SMILES IDX 87 45 81 46 80 47 36 49 68 50 48 51 67 52 49 53 52 54 66 55
REMARK SMILES IDX 85 56 50 57 51 58 65 60 86 61 53 62 37 63 38 64 46 65 39 66
REMARK SMILES IDX 40 67 44 68 47 69 41 70 42 71 45 72 43 73 69 74 70 75 78 76
REMARK SMILES IDX 71 77 72 78 76 79 79 80 73 81 74 82 77 83 75 84 54 85 55 86
REMARK SMILES IDX 63 87 56 88 57 89 61 90 64 91 58 92 59 93 62 94 60 95
REMARK H PARENT 21 5 25 29 84 48 52 59
REMARK Flexibility Score: inf
ROOT
ATOM      1  C   UNL     1      -4.351   4.414   5.956  1.00  0.00     0.118 C 
ENDROOT
BRANCH   1   2
ATOM      2  N   UNL     1      -4.424   4.809   4.559  1.00  0.00    -0.351 N 
ATOM      3  C   UNL     1      -4.052   4.192   3.406  1.00  0.00     0.262 C 
ATOM      4  O   UNL     1      -4.293   4.798   2.358  1.00  0.00    -0.268 OA
ATOM      5  H   UNL     1      -4.820   5.700   4.420  1.00  0.00     0.163 HD
BRANCH   3   6
ATOM      6  C   UNL     1      -3.412   2.844   3.367  1.00  0.00     0.120 C 
ATOM      7  C   UNL     1      -3.432   2.205   2.178  1.00  0.00     0.072 C 
BRANCH   7   8
ATOM      8  C   UNL     1      -2.890   0.906   1.951  1.00  0.00     0.129 A 
ATOM      9  C   UNL     1      -1.772  -0.985   2.333  1.00  0.00     0.135 A 
ATOM     10  C   UNL     1      -2.219  -1.066   1.035  1.00  0.00     0.051 A 
ATOM     11  O   UNL     1      -2.197   0.178   2.889  1.00  0.00    -0.457 OA
ATOM     12  C   UNL     1      -2.928   0.138   0.791  1.00  0.00     0.051 A 
BRANCH   9  13
ATOM     13  C   UNL     1      -0.939  -1.813   3.190  1.00  0.00     0.032 A 
ATOM     14  C   UNL     1       0.374  -2.187   2.849  1.00  0.00     0.071 A 
ATOM     15  C   UNL     1       1.111  -3.037   3.691  1.00  0.00     0.016 A 
ATOM     16  C   UNL     1       0.558  -3.497   4.885  1.00  0.00     0.001 A 
ATOM     17  C   UNL     1      -1.473  -2.277   4.404  1.00  0.00     0.013 A 
ATOM     18  C   UNL     1      -0.732  -3.114   5.244  1.00  0.00     0.001 A 
BRANCH  14  19
ATOM     19  C   UNL     1       1.044  -1.739   1.609  1.00  0.00     0.338 C 
ATOM     20  O   UNL     1       1.708  -2.482   0.898  1.00  0.00    -0.246 OA
BRANCH  19  21
ATOM     21  O   UNL     1       0.859  -0.411   1.427  1.00  0.00    -0.465 OA
ATOM     22  C   UNL     1       1.370   0.092   0.193  1.00  0.00     0.282 C 
ENDBRANCH  19  21
ENDBRANCH  14  19
ENDBRANCH   9  13
ENDBRANCH   7   8
BRANCH   6  23
ATOM     23  C   UNL     1      -2.807   2.198   4.603  1.00  0.00     0.105 C 
ATOM     24  N   UNL     1      -2.306   1.661   5.628  1.00  0.00    -0.192 NA
ENDBRANCH   6  23
ENDBRANCH   3   6
ENDBRANCH   1   2
BRANCH   1  25
ATOM     25  C   UNL     1      -3.085   4.944   6.626  1.00  0.00     0.042 C 
BRANCH  25  26
ATOM     26  C   UNL     1      -3.169   6.429   6.974  1.00  0.00     0.118 C 
BRANCH  26  27
ATOM     27  N   UNL     1      -4.155   6.690   8.015  1.00  0.00    -0.352 N 
ATOM     28  C   UNL     1      -4.028   7.343   9.212  1.00  0.00     0.251 C 
ATOM     29  H   UNL     1      -5.056   6.340   7.828  1.00  0.00     0.163 HD
ATOM     30  O   UNL     1      -4.932   7.268  10.039  1.00  0.00    -0.269 OA
BRANCH  28  31
ATOM     31  C   UNL     1      -2.821   8.138   9.520  1.00  0.00     0.039 A 
ATOM     32  C   UNL     1      -2.312   8.104  10.822  1.00  0.00     0.014 A 
ATOM     33  C   UNL     1      -2.232   8.965   8.560  1.00  0.00     0.014 A 
ATOM     34  C   UNL     1      -1.192   8.868  11.152  1.00  0.00     0.010 A 
ATOM     35  C   UNL     1      -1.077   9.678   8.872  1.00  0.00     0.010 A 
ATOM     36  C   UNL     1      -0.555   9.646  10.173  1.00  0.00    -0.014 A 
BRANCH  36  37
ATOM     37  C   UNL     1       0.648  10.450  10.497  1.00  0.00     0.031 A 
ATOM     38  C   UNL     1       0.584  11.950  10.454  1.00  0.00     0.074 A 
ATOM     39  C   UNL     1       1.808   9.828  10.773  1.00  0.00     0.049 A 
ATOM     40  N   UNL     1       1.540  12.827  10.634  1.00  0.00    -0.248 NA
ATOM     41  C   UNL     1      -0.724  12.544  10.140  1.00  0.00     0.031 C 
ATOM     42  C   UNL     1       2.000   8.378  10.812  1.00  0.00     0.029 A 
ATOM     43  N   UNL     1       3.047  10.337  11.067  1.00  0.00    -0.354 N 
ATOM     44  C   UNL     1       0.954  14.070  10.438  1.00  0.00     0.074 A 
ATOM     45  C   UNL     1      -0.428  13.833  10.076  1.00  0.00     0.031 C 
ATOM     46  C   UNL     1       3.274   8.113  11.140  1.00  0.00     0.029 A 
ATOM     47  C   UNL     1       3.995   9.372  11.299  1.00  0.00     0.049 A 
ATOM     48  H   UNL     1       3.238  11.302  11.108  1.00  0.00     0.167 HD
ATOM     49  C   UNL     1       1.511  15.297  10.568  1.00  0.00     0.037 A 
ATOM     50  C   UNL     1       5.301   9.493  11.604  1.00  0.00     0.037 A 
ATOM     51  C   UNL     1       2.879  15.527  10.952  1.00  0.00     0.049 A 
ATOM     52  C   UNL     1       5.899  10.866  11.736  1.00  0.00     0.074 A 
ATOM     53  C   UNL     1       3.529  16.730  11.164  1.00  0.00     0.029 A 
ATOM     54  N   UNL     1       3.810  14.524  11.183  1.00  0.00    -0.354 N 
ATOM     55  N   UNL     1       5.325  12.036  11.597  1.00  0.00    -0.248 NA
ATOM     56  C   UNL     1       7.329  10.933  12.068  1.00  0.00     0.031 C 
ATOM     57  C   UNL     1       4.863  16.456  11.488  1.00  0.00     0.029 A 
ATOM     58  C   UNL     1       5.034  15.081  11.519  1.00  0.00     0.049 A 
ATOM     59  H   UNL     1       3.628  13.559  11.119  1.00  0.00     0.167 HD
ATOM     60  C   UNL     1       6.312  12.978  11.850  1.00  0.00     0.074 A 
ATOM     61  C   UNL     1       7.521  12.242  12.161  1.00  0.00     0.031 C 
ATOM     62  C   UNL     1       6.224  14.331  11.830  1.00  0.00     0.037 A 
BRANCH  49  63
ATOM     63  C   UNL     1       0.634  16.483  10.287  1.00  0.00     0.064 A 
ATOM     64  C   UNL     1      -0.420  16.837  11.143  1.00  0.00     0.173 A 
ATOM     65  C   UNL     1       0.849  17.277   9.150  1.00  0.00     0.173 A 
ATOM     66  F   UNL     1      -0.677  16.103  12.237  1.00  0.00    -0.203 F 
ATOM     67  C   UNL     1      -1.251  17.916  10.851  1.00  0.00     0.198 A 
ATOM     68  C   UNL     1       0.035  18.373   8.877  1.00  0.00     0.198 A 
ATOM     69  F   UNL     1       1.846  16.987   8.301  1.00  0.00    -0.203 F 
ATOM     70  F   UNL     1      -2.288  18.197  11.651  1.00  0.00    -0.200 F 
ATOM     71  C   UNL     1      -1.020  18.685   9.721  1.00  0.00     0.200 A 
ATOM     72  F   UNL     1       0.265  19.123   7.790  1.00  0.00    -0.200 F 
ATOM     73  F   UNL     1      -1.822  19.721   9.439  1.00  0.00    -0.200 F 
ENDBRANCH  49  63
BRANCH  50  74
ATOM     74  C   UNL     1       6.112   8.277  11.854  1.00  0.00     0.064 A 
ATOM     75  C   UNL     1       6.518   7.946  13.155  1.00  0.00     0.173 A 
ATOM     76  C   UNL     1       6.478   7.411  10.814  1.00  0.00     0.173 A 
ATOM     77  F   UNL     1       6.207   8.756  14.178  1.00  0.00    -0.203 F 
ATOM     78  C   UNL     1       7.266   6.799  13.405  1.00  0.00     0.198 A 
ATOM     79  C   UNL     1       7.208   6.252  11.069  1.00  0.00     0.198 A 
ATOM     80  F   UNL     1       6.110   7.682   9.554  1.00  0.00    -0.203 F 
ATOM     81  F   UNL     1       7.667   6.522  14.653  1.00  0.00    -0.200 F 
ATOM     82  C   UNL     1       7.605   5.949  12.363  1.00  0.00     0.200 A 
ATOM     83  F   UNL     1       7.524   5.426  10.061  1.00  0.00    -0.200 F 
ATOM     84  F   UNL     1       8.318   4.841  12.605  1.00  0.00    -0.200 F 
ENDBRANCH  50  74
BRANCH  62  85
ATOM     85  C   UNL     1       7.462  15.100  12.184  1.00  0.00     0.064 A 
ATOM     86  C   UNL     1       8.545  15.196  11.299  1.00  0.00     0.173 A 
ATOM     87  C   UNL     1       7.549  15.777  13.409  1.00  0.00     0.173 A 
ATOM     88  F   UNL     1       8.515  14.551  10.123  1.00  0.00    -0.203 F 
ATOM     89  C   UNL     1       9.682  15.924  11.639  1.00  0.00     0.198 A 
ATOM     90  C   UNL     1       8.676  16.526  13.734  1.00  0.00     0.198 A 
ATOM     91  F   UNL     1       6.536  15.720  14.287  1.00  0.00    -0.203 F 
ATOM     92  F   UNL     1      10.724  15.967  10.797  1.00  0.00    -0.200 F 
ATOM     93  C   UNL     1       9.744  16.594  12.852  1.00  0.00     0.200 A 
ATOM     94  F   UNL     1       8.730  17.180  14.902  1.00  0.00    -0.200 F 
ATOM     95  F   UNL     1      10.837  17.298  13.175  1.00  0.00    -0.200 F 
ENDBRANCH  62  85
ENDBRANCH  36  37
ENDBRANCH  28  31
ENDBRANCH  26  27
ENDBRANCH  25  26
ENDBRANCH   1  25
TORSDOF 15
