REMARK SMILES CC(C)COc1cccc(N2C[C@@H](C(=O)NCCCNC(=O)c3ccc(-c4c5nc(c(-c6c(F)c(F)c(F)c(F)c6F)c6ccc([nH]6)c(-c6c(F)c(F)c(F)c(F)c6F)c6nc(c(-c7c(F)c(F)c(F)c(F)c7F)c7ccc4[nH]7)C=C6)C=C5)cc3)CC2=O)c1
REMARK SMILES IDX 17 1 16 2 14 3 15 4 13 6 11 7 12 8 87 9 86 10 88 11 10 12
REMARK SMILES IDX 6 13 7 14 89 15 8 16 9 17 5 18 4 19 2 20 1 21 3 22 18 23
REMARK SMILES IDX 19 24 20 25 21 26 22 28 23 29 24 30 85 31 25 32 84 33 26 34
REMARK SMILES IDX 27 35 28 36 78 37 29 38 83 39 77 40 79 41 30 42 82 43 76 44
REMARK SMILES IDX 75 45 31 47 63 48 43 49 62 50 44 51 47 52 61 53 80 54 45 55
REMARK SMILES IDX 46 56 60 58 81 59 48 60 32 61 33 62 41 63 34 64 35 65 39 66
REMARK SMILES IDX 42 67 36 68 37 69 40 70 38 71 64 72 65 73 73 74 66 75 67 76
REMARK SMILES IDX 71 77 74 78 68 79 69 80 72 81 70 82 49 83 50 84 58 85 51 86
REMARK SMILES IDX 52 87 56 88 59 89 53 90 54 91 57 92 55 93
REMARK H PARENT 16 5 20 27 79 46 47 57
REMARK Flexibility Score: inf
ROOT
ATOM      1  C   UNL     1       4.058   1.508   2.516  1.00  0.00     0.117 C 
ENDROOT
BRANCH   1   2
ATOM      2  N   UNL     1       4.667   2.807   2.746  1.00  0.00    -0.356 N 
ATOM      3  C   UNL     1       4.648   3.970   2.047  1.00  0.00     0.225 C 
ATOM      4  O   UNL     1       5.244   4.927   2.551  1.00  0.00    -0.275 OA
ATOM      5  H   UNL     1       5.200   2.853   3.573  1.00  0.00     0.163 HD
BRANCH   3   6
ATOM      6  C   UNL     1       3.945   4.151   0.718  1.00  0.00     0.107 C 
ATOM      7  N   UNL     1       2.043   3.378  -0.433  1.00  0.00    -0.311 N 
ATOM      8  C   UNL     1       2.435   4.029   0.797  1.00  0.00     0.139 C 
ATOM      9  C   UNL     1       3.142   2.864  -1.126  1.00  0.00     0.227 C 
ATOM     10  C   UNL     1       4.396   3.197  -0.371  1.00  0.00     0.116 C 
ATOM     11  O   UNL     1       3.160   2.219  -2.167  1.00  0.00    -0.274 OA
BRANCH   7  12
ATOM     12  C   UNL     1       0.684   3.068  -0.706  1.00  0.00     0.047 A 
ATOM     13  C   UNL     1      -0.929   1.378  -1.328  1.00  0.00     0.121 A 
ATOM     14  C   UNL     1      -1.979   2.167  -0.878  1.00  0.00     0.046 A 
ATOM     15  C   UNL     1       0.365   1.881  -1.365  1.00  0.00     0.072 A 
ATOM     16  C   UNL     1      -1.698   3.426  -0.349  1.00  0.00     0.006 A 
ATOM     17  C   UNL     1      -0.368   3.851  -0.214  1.00  0.00     0.026 A 
BRANCH  13  18
ATOM     18  O   UNL     1      -1.136   0.089  -1.732  1.00  0.00    -0.493 OA
BRANCH  18  19
ATOM     19  C   UNL     1      -0.867  -0.854  -0.668  1.00  0.00     0.232 C 
BRANCH  19  20
ATOM     20  C   UNL     1       0.619  -1.292  -0.572  1.00  0.00     0.020 C 
ATOM     21  C   UNL     1       1.384  -0.564   0.544  1.00  0.00     0.011 C 
ATOM     22  C   UNL     1       0.725  -2.794  -0.286  1.00  0.00     0.011 C 
ENDBRANCH  19  20
ENDBRANCH  18  19
ENDBRANCH  13  18
ENDBRANCH   7  12
ENDBRANCH   3   6
ENDBRANCH   1   2
BRANCH   1  23
ATOM     23  C   UNL     1       5.086   0.406   2.267  1.00  0.00     0.042 C 
BRANCH  23  24
ATOM     24  C   UNL     1       6.043   0.135   3.427  1.00  0.00     0.118 C 
BRANCH  24  25
ATOM     25  N   UNL     1       5.373  -0.373   4.616  1.00  0.00    -0.352 N 
ATOM     26  C   UNL     1       5.498  -1.574   5.273  1.00  0.00     0.251 C 
ATOM     27  H   UNL     1       4.723   0.247   5.017  1.00  0.00     0.163 HD
ATOM     28  O   UNL     1       4.704  -1.855   6.167  1.00  0.00    -0.269 OA
BRANCH  26  29
ATOM     29  C   UNL     1       6.552  -2.547   4.904  1.00  0.00     0.039 A 
ATOM     30  C   UNL     1       6.226  -3.907   4.868  1.00  0.00     0.014 A 
ATOM     31  C   UNL     1       7.860  -2.143   4.625  1.00  0.00     0.014 A 
ATOM     32  C   UNL     1       7.182  -4.845   4.471  1.00  0.00     0.010 A 
ATOM     33  C   UNL     1       8.790  -3.069   4.152  1.00  0.00     0.010 A 
ATOM     34  C   UNL     1       8.459  -4.429   4.060  1.00  0.00    -0.014 A 
BRANCH  34  35
ATOM     35  C   UNL     1       9.439  -5.396   3.497  1.00  0.00     0.031 A 
ATOM     36  C   UNL     1      10.755  -5.645   4.180  1.00  0.00     0.074 A 
ATOM     37  C   UNL     1       9.168  -6.003   2.325  1.00  0.00     0.049 A 
ATOM     38  N   UNL     1      11.755  -6.402   3.802  1.00  0.00    -0.248 NA
ATOM     39  C   UNL     1      10.990  -4.931   5.444  1.00  0.00     0.031 C 
ATOM     40  C   UNL     1       7.948  -5.811   1.538  1.00  0.00     0.029 A 
ATOM     41  N   UNL     1       9.903  -6.895   1.582  1.00  0.00    -0.354 N 
ATOM     42  C   UNL     1      12.737  -6.248   4.772  1.00  0.00     0.074 A 
ATOM     43  C   UNL     1      12.235  -5.284   5.728  1.00  0.00     0.031 C 
ATOM     44  C   UNL     1       8.007  -6.578   0.439  1.00  0.00     0.029 A 
ATOM     45  C   UNL     1       9.287  -7.279   0.415  1.00  0.00     0.049 A 
ATOM     46  H   UNL     1      10.787  -7.227   1.859  1.00  0.00     0.167 HD
ATOM     47  C   UNL     1      13.937  -6.869   4.867  1.00  0.00     0.037 A 
ATOM     48  C   UNL     1       9.710  -8.092  -0.572  1.00  0.00     0.037 A 
ATOM     49  C   UNL     1      14.428  -7.837   3.919  1.00  0.00     0.049 A 
ATOM     50  C   UNL     1      11.061  -8.745  -0.456  1.00  0.00     0.074 A 
ATOM     51  C   UNL     1      15.603  -8.568   3.962  1.00  0.00     0.029 A 
ATOM     52  N   UNL     1      13.777  -8.198   2.748  1.00  0.00    -0.354 N 
ATOM     53  N   UNL     1      11.946  -8.652   0.506  1.00  0.00    -0.248 NA
ATOM     54  C   UNL     1      11.470  -9.620  -1.565  1.00  0.00     0.031 C 
ATOM     55  C   UNL     1      15.693  -9.323   2.788  1.00  0.00     0.029 A 
ATOM     56  C   UNL     1      14.543  -9.114   2.043  1.00  0.00     0.049 A 
ATOM     57  H   UNL     1      12.899  -7.856   2.461  1.00  0.00     0.167 HD
ATOM     58  C   UNL     1      13.004  -9.471   0.132  1.00  0.00     0.074 A 
ATOM     59  C   UNL     1      12.639 -10.070  -1.134  1.00  0.00     0.031 C 
ATOM     60  C   UNL     1      14.172  -9.702   0.780  1.00  0.00     0.037 A 
BRANCH  47  61
ATOM     61  C   UNL     1      14.813  -6.519   6.038  1.00  0.00     0.064 A 
ATOM     62  C   UNL     1      14.471  -6.879   7.351  1.00  0.00     0.173 A 
ATOM     63  C   UNL     1      16.031  -5.849   5.842  1.00  0.00     0.173 A 
ATOM     64  F   UNL     1      13.315  -7.514   7.598  1.00  0.00    -0.203 F 
ATOM     65  C   UNL     1      15.297  -6.553   8.424  1.00  0.00     0.198 A 
ATOM     66  C   UNL     1      16.871  -5.555   6.913  1.00  0.00     0.198 A 
ATOM     67  F   UNL     1      16.413  -5.488   4.607  1.00  0.00    -0.203 F 
ATOM     68  F   UNL     1      14.922  -6.860   9.673  1.00  0.00    -0.200 F 
ATOM     69  C   UNL     1      16.499  -5.899   8.204  1.00  0.00     0.200 A 
ATOM     70  F   UNL     1      18.040  -4.938   6.696  1.00  0.00    -0.200 F 
ATOM     71  F   UNL     1      17.297  -5.593   9.236  1.00  0.00    -0.200 F 
ENDBRANCH  47  61
BRANCH  48  72
ATOM     72  C   UNL     1       8.841  -8.341  -1.752  1.00  0.00     0.064 A 
ATOM     73  C   UNL     1       8.278  -9.604  -1.980  1.00  0.00     0.173 A 
ATOM     74  C   UNL     1       8.557  -7.325  -2.678  1.00  0.00     0.173 A 
ATOM     75  F   UNL     1       8.536 -10.614  -1.135  1.00  0.00    -0.203 F 
ATOM     76  C   UNL     1       7.482  -9.848  -3.098  1.00  0.00     0.198 A 
ATOM     77  C   UNL     1       7.735  -7.561  -3.777  1.00  0.00     0.198 A 
ATOM     78  F   UNL     1       9.067  -6.097  -2.505  1.00  0.00    -0.203 F 
ATOM     79  F   UNL     1       6.997 -11.077  -3.316  1.00  0.00    -0.200 F 
ATOM     80  C   UNL     1       7.205  -8.824  -3.991  1.00  0.00     0.200 A 
ATOM     81  F   UNL     1       7.456  -6.565  -4.629  1.00  0.00    -0.200 F 
ATOM     82  F   UNL     1       6.434  -9.057  -5.062  1.00  0.00    -0.200 F 
ENDBRANCH  48  72
BRANCH  60  83
ATOM     83  C   UNL     1      15.136 -10.663   0.141  1.00  0.00     0.064 A 
ATOM     84  C   UNL     1      15.829 -10.340  -1.035  1.00  0.00     0.173 A 
ATOM     85  C   UNL     1      15.397 -11.908   0.734  1.00  0.00     0.173 A 
ATOM     86  F   UNL     1      15.605  -9.169  -1.651  1.00  0.00    -0.203 F 
ATOM     87  C   UNL     1      16.725 -11.238  -1.608  1.00  0.00     0.198 A 
ATOM     88  C   UNL     1      16.320 -12.789   0.178  1.00  0.00     0.198 A 
ATOM     89  F   UNL     1      14.766 -12.265   1.863  1.00  0.00    -0.203 F 
ATOM     90  F   UNL     1      17.336 -10.929  -2.761  1.00  0.00    -0.200 F 
ATOM     91  C   UNL     1      16.977 -12.457  -0.997  1.00  0.00     0.200 A 
ATOM     92  F   UNL     1      16.573 -13.960   0.779  1.00  0.00    -0.200 F 
ATOM     93  F   UNL     1      17.847 -13.317  -1.545  1.00  0.00    -0.200 F 
ENDBRANCH  60  83
ENDBRANCH  34  35
ENDBRANCH  26  29
ENDBRANCH  24  25
ENDBRANCH  23  24
ENDBRANCH   1  23
TORSDOF 14
