REMARK SMILES COc1ccc([C@@H]2[C@@H](C(=O)c3cccc4c3CCCC4)[C@H](C(=O)NCCCNC(=O)c3ccc(-c4c5nc(c(-c6c(F)c(F)c(F)c(F)c6F)c6ccc([nH]6)c(-c6c(F)c(F)c(F)c(F)c6F)c6nc(c(-c7c(F)c(F)c(F)c(F)c7F)c7ccc4[nH]7)C=C6)C=C5)cc3)SC3=NC(=O)S[C@H]32)cc1
REMARK SMILES IDX 26 1 25 2 24 3 22 4 23 5 21 7 7 8 8 9 100 10 95 11 99 12
REMARK SMILES IDX 94 13 96 14 97 15 98 16 6 17 3 18 4 19 102 20 5 21 101 22
REMARK SMILES IDX 2 23 1 24 9 25 10 26 11 27 12 28 16 29 13 30 15 31 17 32
REMARK SMILES IDX 14 33 20 34 18 35 19 36 27 37 28 38 29 39 30 41 31 42 32 43
REMARK SMILES IDX 93 44 33 45 92 46 34 47 35 48 36 49 86 50 37 51 91 52 85 53
REMARK SMILES IDX 87 54 38 55 90 56 84 57 83 58 39 60 71 61 51 62 70 63 52 64
REMARK SMILES IDX 55 65 69 66 88 67 53 68 54 69 68 71 89 72 56 73 40 74 41 75
REMARK SMILES IDX 49 76 42 77 43 78 47 79 50 80 44 81 45 82 48 83 46 84 72 85
REMARK SMILES IDX 73 86 81 87 74 88 75 89 79 90 82 91 76 92 77 93 80 94 78 95
REMARK SMILES IDX 57 96 58 97 66 98 59 99 60 100 64 101 67 102 61 103 62 104
REMARK SMILES IDX 65 105 63 106
REMARK H PARENT 24 6 28 40 87 59 55 70
REMARK Flexibility Score: inf
ROOT
ATOM      1  C   UNL     1       6.135  -6.339   0.548  1.00  0.00     0.042 C 
ENDROOT
BRANCH   1   2
ATOM      2  C   UNL     1       5.730  -7.574  -0.248  1.00  0.00     0.117 C 
BRANCH   2   3
ATOM      3  N   UNL     1       5.273  -8.662   0.604  1.00  0.00    -0.355 N 
ATOM      4  C   UNL     1       4.053  -9.258   0.750  1.00  0.00     0.234 C 
ATOM      5  O   UNL     1       3.981 -10.225   1.515  1.00  0.00    -0.274 OA
ATOM      6  H   UNL     1       5.974  -9.038   1.184  1.00  0.00     0.163 HD
BRANCH   4   7
ATOM      7  C   UNL     1       2.807  -8.781  -0.014  1.00  0.00     0.153 C 
ATOM      8  C   UNL     1       1.442  -6.621  -0.604  1.00  0.00     0.052 C 
ATOM      9  C   UNL     1       2.380  -7.357   0.407  1.00  0.00     0.093 C 
ATOM     10  C   UNL     1       1.979  -6.665  -2.055  1.00  0.00     0.121 C 
ATOM     11  C   UNL     1       2.089  -8.058  -2.594  1.00  0.00     0.093 C 
ATOM     12  S   UNL     1       0.868  -5.884  -3.288  1.00  0.00    -0.052 SA
ATOM     13  S   UNL     1       3.100  -9.188  -1.777  1.00  0.00    -0.095 SA
ATOM     14  N   UNL     1       1.540  -8.391  -3.710  1.00  0.00    -0.200 NA
ATOM     15  C   UNL     1       0.862  -7.341  -4.275  1.00  0.00     0.306 C 
ATOM     16  O   UNL     1       0.307  -7.367  -5.352  1.00  0.00    -0.259 OA
BRANCH   8  17
ATOM     17  C   UNL     1       1.238  -5.148  -0.224  1.00  0.00    -0.042 A 
ATOM     18  C   UNL     1       0.790  -2.423   0.348  1.00  0.00     0.118 A 
ATOM     19  C   UNL     1      -0.277  -3.313   0.300  1.00  0.00     0.047 A 
ATOM     20  C   UNL     1       2.083  -2.884   0.115  1.00  0.00     0.047 A 
ATOM     21  C   UNL     1      -0.059  -4.651  -0.029  1.00  0.00     0.008 A 
ATOM     22  C   UNL     1       2.307  -4.239  -0.159  1.00  0.00     0.008 A 
BRANCH  18  23
ATOM     23  O   UNL     1       0.482  -1.135   0.689  1.00  0.00    -0.497 OA
ATOM     24  C   UNL     1       1.121  -0.152  -0.119  1.00  0.00     0.278 C 
ENDBRANCH  18  23
ENDBRANCH   8  17
BRANCH   9  25
ATOM     25  C   UNL     1       1.894  -7.405   1.900  1.00  0.00     0.168 C 
ATOM     26  O   UNL     1       2.653  -7.079   2.812  1.00  0.00    -0.294 OA
BRANCH  25  27
ATOM     27  C   UNL     1       0.544  -7.938   2.268  1.00  0.00     0.021 A 
ATOM     28  C   UNL     1      -0.563  -7.180   1.937  1.00  0.00     0.012 A 
ATOM     29  C   UNL     1       0.364  -9.313   2.420  1.00  0.00    -0.034 A 
ATOM     30  C   UNL     1      -1.660  -7.815   1.353  1.00  0.00     0.001 A 
ATOM     31  C   UNL     1      -0.559  -9.952   1.582  1.00  0.00    -0.044 A 
ATOM     32  C   UNL     1       0.179  -9.832   3.869  1.00  0.00     0.036 C 
ATOM     33  C   UNL     1      -1.599  -9.183   1.060  1.00  0.00     0.004 A 
ATOM     34  C   UNL     1      -0.514 -11.455   1.489  1.00  0.00     0.036 C 
ATOM     35  C   UNL     1       0.029 -11.358   3.969  1.00  0.00     0.005 C 
ATOM     36  C   UNL     1       0.293 -12.070   2.644  1.00  0.00     0.005 C 
ENDBRANCH  25  27
ENDBRANCH   9  25
ENDBRANCH   4   7
ENDBRANCH   2   3
ENDBRANCH   1   2
BRANCH   1  37
ATOM     37  C   UNL     1       7.309  -6.557   1.494  1.00  0.00     0.118 C 
BRANCH  37  38
ATOM     38  N   UNL     1       8.552  -6.850   0.796  1.00  0.00    -0.352 N 
ATOM     39  C   UNL     1       9.770  -6.218   0.842  1.00  0.00     0.251 C 
ATOM     40  H   UNL     1       8.513  -7.628   0.193  1.00  0.00     0.163 HD
ATOM     41  O   UNL     1      10.645  -6.542   0.043  1.00  0.00    -0.269 OA
BRANCH  39  42
ATOM     42  C   UNL     1      10.036  -5.136   1.818  1.00  0.00     0.039 A 
ATOM     43  C   UNL     1      10.817  -4.049   1.412  1.00  0.00     0.014 A 
ATOM     44  C   UNL     1       9.561  -5.193   3.130  1.00  0.00     0.014 A 
ATOM     45  C   UNL     1      11.071  -3.002   2.301  1.00  0.00     0.010 A 
ATOM     46  C   UNL     1       9.731  -4.105   3.983  1.00  0.00     0.010 A 
ATOM     47  C   UNL     1      10.501  -3.004   3.585  1.00  0.00    -0.014 A 
BRANCH  47  48
ATOM     48  C   UNL     1      10.719  -1.866   4.516  1.00  0.00     0.031 A 
ATOM     49  C   UNL     1      11.448  -2.069   5.816  1.00  0.00     0.074 A 
ATOM     50  C   UNL     1      10.234  -0.649   4.204  1.00  0.00     0.049 A 
ATOM     51  N   UNL     1      11.751  -1.194   6.744  1.00  0.00    -0.248 NA
ATOM     52  C   UNL     1      11.869  -3.442   6.130  1.00  0.00     0.031 C 
ATOM     53  C   UNL     1       9.467  -0.330   2.999  1.00  0.00     0.029 A 
ATOM     54  N   UNL     1      10.320   0.547   4.870  1.00  0.00    -0.354 N 
ATOM     55  C   UNL     1      12.393  -1.911   7.745  1.00  0.00     0.074 A 
ATOM     56  C   UNL     1      12.365  -3.302   7.349  1.00  0.00     0.031 C 
ATOM     57  C   UNL     1       9.199   0.984   2.985  1.00  0.00     0.029 A 
ATOM     58  C   UNL     1       9.739   1.593   4.197  1.00  0.00     0.049 A 
ATOM     59  H   UNL     1      10.757   0.647   5.746  1.00  0.00     0.167 HD
ATOM     60  C   UNL     1      12.981  -1.452   8.877  1.00  0.00     0.037 A 
ATOM     61  C   UNL     1       9.661   2.899   4.515  1.00  0.00     0.037 A 
ATOM     62  C   UNL     1      13.003  -0.067   9.272  1.00  0.00     0.049 A 
ATOM     63  C   UNL     1      10.293   3.382   5.792  1.00  0.00     0.074 A 
ATOM     64  C   UNL     1      13.599   0.509  10.380  1.00  0.00     0.029 A 
ATOM     65  N   UNL     1      12.387   0.963   8.573  1.00  0.00    -0.354 N 
ATOM     66  N   UNL     1      10.961   2.708   6.696  1.00  0.00    -0.248 NA
ATOM     67  C   UNL     1      10.168   4.816   6.082  1.00  0.00     0.031 C 
ATOM     68  C   UNL     1      13.296   1.876  10.382  1.00  0.00     0.029 A 
ATOM     69  C   UNL     1      12.568   2.166   9.239  1.00  0.00     0.049 A 
ATOM     70  H   UNL     1      11.894   0.855   7.728  1.00  0.00     0.167 HD
ATOM     71  C   UNL     1      11.368   3.639   7.643  1.00  0.00     0.074 A 
ATOM     72  C   UNL     1      10.884   4.928   7.191  1.00  0.00     0.031 C 
ATOM     73  C   UNL     1      12.079   3.444   8.782  1.00  0.00     0.037 A 
BRANCH  60  74
ATOM     74  C   UNL     1      13.639  -2.471   9.768  1.00  0.00     0.064 A 
ATOM     75  C   UNL     1      14.773  -3.191   9.355  1.00  0.00     0.173 A 
ATOM     76  C   UNL     1      13.126  -2.744  11.046  1.00  0.00     0.173 A 
ATOM     77  F   UNL     1      15.301  -2.979   8.139  1.00  0.00    -0.203 F 
ATOM     78  C   UNL     1      15.331  -4.180  10.161  1.00  0.00     0.198 A 
ATOM     79  C   UNL     1      13.712  -3.706  11.866  1.00  0.00     0.198 A 
ATOM     80  F   UNL     1      12.052  -2.082  11.500  1.00  0.00    -0.203 F 
ATOM     81  F   UNL     1      16.362  -4.907   9.709  1.00  0.00    -0.200 F 
ATOM     82  C   UNL     1      14.803  -4.434  11.417  1.00  0.00     0.200 A 
ATOM     83  F   UNL     1      13.210  -3.938  13.086  1.00  0.00    -0.200 F 
ATOM     84  F   UNL     1      15.337  -5.390  12.189  1.00  0.00    -0.200 F 
ENDBRANCH  60  74
BRANCH  61  85
ATOM     85  C   UNL     1       9.010   3.852   3.578  1.00  0.00     0.064 A 
ATOM     86  C   UNL     1       9.772   4.803   2.883  1.00  0.00     0.173 A 
ATOM     87  C   UNL     1       7.627   3.829   3.348  1.00  0.00     0.173 A 
ATOM     88  F   UNL     1      11.096   4.875   3.083  1.00  0.00    -0.203 F 
ATOM     89  C   UNL     1       9.172   5.706   2.009  1.00  0.00     0.198 A 
ATOM     90  C   UNL     1       7.033   4.714   2.451  1.00  0.00     0.198 A 
ATOM     91  F   UNL     1       6.855   2.934   3.982  1.00  0.00    -0.203 F 
ATOM     92  F   UNL     1       9.918   6.631   1.390  1.00  0.00    -0.200 F 
ATOM     93  C   UNL     1       7.805   5.656   1.788  1.00  0.00     0.200 A 
ATOM     94  F   UNL     1       5.714   4.650   2.225  1.00  0.00    -0.200 F 
ATOM     95  F   UNL     1       7.229   6.519   0.939  1.00  0.00    -0.200 F 
ENDBRANCH  61  85
BRANCH  73  96
ATOM     96  C   UNL     1      12.416   4.665   9.594  1.00  0.00     0.064 A 
ATOM     97  C   UNL     1      11.432   5.406  10.268  1.00  0.00     0.173 A 
ATOM     98  C   UNL     1      13.746   5.104   9.695  1.00  0.00     0.173 A 
ATOM     99  F   UNL     1      10.143   5.040  10.194  1.00  0.00    -0.203 F 
ATOM    100  C   UNL     1      11.759   6.564  10.968  1.00  0.00     0.198 A 
ATOM    101  C   UNL     1      14.075   6.240  10.430  1.00  0.00     0.198 A 
ATOM    102  F   UNL     1      14.729   4.430   9.080  1.00  0.00    -0.203 F 
ATOM    103  F   UNL     1      10.792   7.296  11.538  1.00  0.00    -0.200 F 
ATOM    104  C   UNL     1      13.080   6.978  11.052  1.00  0.00     0.200 A 
ATOM    105  F   UNL     1      15.354   6.628  10.524  1.00  0.00    -0.200 F 
ATOM    106  F   UNL     1      13.393   8.095  11.723  1.00  0.00    -0.200 F 
ENDBRANCH  73  96
ENDBRANCH  47  48
ENDBRANCH  39  42
ENDBRANCH  37  38
ENDBRANCH   1  37
TORSDOF 14
