REMARK SMILES C[C@H]1[NH2+]CC[C@H]1C(=O)N[C@H]1C=C[C@@H](C(=O)NCCCNC(=O)c2ccc(-c3c4nc(c(-c5c(F)c(F)c(F)c(F)c5F)c5ccc([nH]5)c(-c5c(F)c(F)c(F)c(F)c5F)c5nc(c(-c6c(F)c(F)c(F)c(F)c6F)c6ccc3[nH]6)C=C5)C=C4)cc2)C1
REMARK SMILES IDX 18 1 17 2 16 3 14 4 15 5 13 7 10 8 11 9 86 10 12 11 9 12
REMARK SMILES IDX 7 13 8 14 6 16 1 17 2 18 3 19 4 20 5 23 19 24 20 25 21 26
REMARK SMILES IDX 22 28 23 29 24 30 85 31 25 32 84 33 26 34 27 35 28 36 78 37
REMARK SMILES IDX 29 38 83 39 77 40 79 41 30 42 82 43 76 44 75 45 31 47 63 48
REMARK SMILES IDX 43 49 62 50 44 51 47 52 61 53 80 54 45 55 46 56 60 58 81 59
REMARK SMILES IDX 48 60 32 61 33 62 41 63 34 64 35 65 39 66 42 67 36 68 37 69
REMARK SMILES IDX 40 70 38 71 64 72 65 73 73 74 66 75 67 76 71 77 74 78 68 79
REMARK SMILES IDX 69 80 72 81 70 82 49 83 50 84 58 85 51 86 52 87 56 88 59 89
REMARK SMILES IDX 53 90 54 91 57 92 55 93
REMARK H PARENT 16 6 9 15 3 21 3 22 20 27 79 46 47 57
REMARK Flexibility Score: inf
ROOT
ATOM      1  C   UNL     1       3.934  -0.404  -1.629  1.00  0.00     0.042 C 
ENDROOT
BRANCH   1   2
ATOM      2  C   UNL     1       3.526  -1.731  -1.001  1.00  0.00     0.117 C 
BRANCH   2   3
ATOM      3  N   UNL     1       3.742  -1.658   0.437  1.00  0.00    -0.356 N 
ATOM      4  C   UNL     1       2.718  -1.932   1.310  1.00  0.00     0.227 C 
ATOM      5  O   UNL     1       2.143  -3.018   1.266  1.00  0.00    -0.274 OA
ATOM      6  H   UNL     1       4.629  -1.411   0.786  1.00  0.00     0.163 HD
BRANCH   4   7
ATOM      7  C   UNL     1       2.456  -0.879   2.404  1.00  0.00     0.103 C 
ATOM      8  C   UNL     1       1.362   1.334   2.516  1.00  0.00     0.106 C 
ATOM      9  C   UNL     1       0.407   0.257   2.832  1.00  0.00    -0.006 C 
ATOM     10  C   UNL     1       2.613   0.601   1.993  1.00  0.00     0.047 C 
ATOM     11  C   UNL     1       1.006  -0.940   2.813  1.00  0.00    -0.016 C 
BRANCH   8  12
ATOM     12  N   UNL     1       0.884   2.441   1.698  1.00  0.00    -0.349 N 
ATOM     13  C   UNL     1       0.079   2.762   0.668  1.00  0.00     0.229 C 
ATOM     14  O   UNL     1       0.278   3.915   0.243  1.00  0.00    -0.275 OA
ATOM     15  H   UNL     1       1.311   3.267   2.021  1.00  0.00     0.164 HD
BRANCH  13  16
ATOM     16  C   UNL     1      -1.025   1.953  -0.007  1.00  0.00     0.142 C 
ATOM     17  C   UNL     1       0.623   0.141  -0.772  1.00  0.00     0.076 C 
ATOM     18  C   UNL     1      -0.658   0.885  -1.030  1.00  0.00     0.192 C 
ATOM     19  N   UNL     1      -1.800  -0.040  -1.020  1.00  0.00    -0.343 N 
ATOM     20  C   UNL     1      -2.282  -0.072   0.359  1.00  0.00     0.261 C 
ATOM     21  H   UNL     1      -1.504  -0.971  -1.313  1.00  0.00     0.346 HD
ATOM     22  H   UNL     1      -2.531   0.263  -1.664  1.00  0.00     0.346 HD
ATOM     23  C   UNL     1      -2.137   1.361   0.844  1.00  0.00     0.081 C 
ENDBRANCH  13  16
ENDBRANCH   8  12
ENDBRANCH   4   7
ENDBRANCH   2   3
ENDBRANCH   1   2
BRANCH   1  24
ATOM     24  C   UNL     1       4.024  -0.400  -3.142  1.00  0.00     0.118 C 
BRANCH  24  25
ATOM     25  N   UNL     1       2.782  -0.487  -3.893  1.00  0.00    -0.352 N 
ATOM     26  C   UNL     1       2.516   0.014  -5.157  1.00  0.00     0.251 C 
ATOM     27  H   UNL     1       2.040  -0.958  -3.449  1.00  0.00     0.163 HD
ATOM     28  O   UNL     1       1.409  -0.157  -5.664  1.00  0.00    -0.269 OA
BRANCH  26  29
ATOM     29  C   UNL     1       3.541   0.811  -5.886  1.00  0.00     0.039 A 
ATOM     30  C   UNL     1       3.149   1.950  -6.600  1.00  0.00     0.014 A 
ATOM     31  C   UNL     1       4.894   0.479  -5.833  1.00  0.00     0.014 A 
ATOM     32  C   UNL     1       4.117   2.803  -7.150  1.00  0.00     0.010 A 
ATOM     33  C   UNL     1       5.855   1.385  -6.268  1.00  0.00     0.010 A 
ATOM     34  C   UNL     1       5.482   2.561  -6.933  1.00  0.00    -0.014 A 
BRANCH  34  35
ATOM     35  C   UNL     1       6.554   3.487  -7.394  1.00  0.00     0.031 A 
ATOM     36  C   UNL     1       7.643   2.972  -8.301  1.00  0.00     0.074 A 
ATOM     37  C   UNL     1       6.621   4.747  -6.917  1.00  0.00     0.049 A 
ATOM     38  N   UNL     1       8.772   3.535  -8.652  1.00  0.00    -0.248 NA
ATOM     39  C   UNL     1       7.457   1.617  -8.847  1.00  0.00     0.031 C 
ATOM     40  C   UNL     1       5.665   5.362  -5.996  1.00  0.00     0.029 A 
ATOM     41  N   UNL     1       7.554   5.735  -7.128  1.00  0.00    -0.354 N 
ATOM     42  C   UNL     1       9.438   2.594  -9.428  1.00  0.00     0.074 A 
ATOM     43  C   UNL     1       8.620   1.401  -9.443  1.00  0.00     0.031 C 
ATOM     44  C   UNL     1       6.043   6.625  -5.742  1.00  0.00     0.029 A 
ATOM     45  C   UNL     1       7.294   6.898  -6.443  1.00  0.00     0.049 A 
ATOM     46  H   UNL     1       8.336   5.620  -7.715  1.00  0.00     0.167 HD
ATOM     47  C   UNL     1      10.609   2.720 -10.097  1.00  0.00     0.037 A 
ATOM     48  C   UNL     1       7.992   8.049  -6.380  1.00  0.00     0.037 A 
ATOM     49  C   UNL     1      11.396   3.923 -10.128  1.00  0.00     0.049 A 
ATOM     50  C   UNL     1       9.281   8.169  -7.149  1.00  0.00     0.074 A 
ATOM     51  C   UNL     1      12.581   4.165 -10.802  1.00  0.00     0.029 A 
ATOM     52  N   UNL     1      11.062   5.098  -9.471  1.00  0.00    -0.354 N 
ATOM     53  N   UNL     1       9.884   7.281  -7.902  1.00  0.00    -0.248 NA
ATOM     54  C   UNL     1       9.987   9.457  -7.064  1.00  0.00     0.031 C 
ATOM     55  C   UNL     1      12.973   5.481 -10.539  1.00  0.00     0.029 A 
ATOM     56  C   UNL     1      12.013   6.069  -9.730  1.00  0.00     0.049 A 
ATOM     57  H   UNL     1      10.266   5.222  -8.905  1.00  0.00     0.167 HD
ATOM     58  C   UNL     1      11.011   7.912  -8.409  1.00  0.00     0.074 A 
ATOM     59  C   UNL     1      11.007   9.262  -7.886  1.00  0.00     0.031 C 
ATOM     60  C   UNL     1      11.968   7.418  -9.231  1.00  0.00     0.037 A 
BRANCH  47  61
ATOM     61  C   UNL     1      11.092   1.533 -10.880  1.00  0.00     0.064 A 
ATOM     62  C   UNL     1      10.435   1.111 -12.046  1.00  0.00     0.173 A 
ATOM     63  C   UNL     1      12.241   0.831 -10.485  1.00  0.00     0.173 A 
ATOM     64  F   UNL     1       9.324   1.741 -12.459  1.00  0.00    -0.203 F 
ATOM     65  C   UNL     1      10.890   0.013 -12.769  1.00  0.00     0.198 A 
ATOM     66  C   UNL     1      12.712  -0.248 -11.229  1.00  0.00     0.198 A 
ATOM     67  F   UNL     1      12.912   1.195  -9.382  1.00  0.00    -0.203 F 
ATOM     68  F   UNL     1      10.214  -0.402 -13.849  1.00  0.00    -0.200 F 
ATOM     69  C   UNL     1      12.032  -0.661 -12.365  1.00  0.00     0.200 A 
ATOM     70  F   UNL     1      13.823  -0.891 -10.845  1.00  0.00    -0.200 F 
ATOM     71  F   UNL     1      12.474  -1.714 -13.067  1.00  0.00    -0.200 F 
ENDBRANCH  47  61
BRANCH  48  72
ATOM     72  C   UNL     1       7.481   9.198  -5.585  1.00  0.00     0.064 A 
ATOM     73  C   UNL     1       7.037  10.367  -6.223  1.00  0.00     0.173 A 
ATOM     74  C   UNL     1       7.462   9.175  -4.184  1.00  0.00     0.173 A 
ATOM     75  F   UNL     1       7.060  10.447  -7.562  1.00  0.00    -0.203 F 
ATOM     76  C   UNL     1       6.626  11.478  -5.490  1.00  0.00     0.198 A 
ATOM     77  C   UNL     1       7.021  10.277  -3.452  1.00  0.00     0.198 A 
ATOM     78  F   UNL     1       7.873   8.083  -3.524  1.00  0.00    -0.203 F 
ATOM     79  F   UNL     1       6.267  12.601  -6.126  1.00  0.00    -0.200 F 
ATOM     80  C   UNL     1       6.615  11.431  -4.105  1.00  0.00     0.200 A 
ATOM     81  F   UNL     1       7.004  10.225  -2.113  1.00  0.00    -0.200 F 
ATOM     82  F   UNL     1       6.228  12.503  -3.400  1.00  0.00    -0.200 F 
ENDBRANCH  48  72
BRANCH  60  83
ATOM     83  C   UNL     1      13.051   8.357  -9.672  1.00  0.00     0.064 A 
ATOM     84  C   UNL     1      14.074   8.763  -8.804  1.00  0.00     0.173 A 
ATOM     85  C   UNL     1      13.090   8.815 -10.998  1.00  0.00     0.173 A 
ATOM     86  F   UNL     1      14.071   8.363  -7.524  1.00  0.00    -0.203 F 
ATOM     87  C   UNL     1      15.086   9.613  -9.242  1.00  0.00     0.198 A 
ATOM     88  C   UNL     1      14.119   9.642 -11.439  1.00  0.00     0.198 A 
ATOM     89  F   UNL     1      12.138   8.448 -11.869  1.00  0.00    -0.203 F 
ATOM     90  F   UNL     1      16.032  10.021  -8.385  1.00  0.00    -0.200 F 
ATOM     91  C   UNL     1      15.112  10.044 -10.560  1.00  0.00     0.200 A 
ATOM     92  F   UNL     1      14.149  10.048 -12.716  1.00  0.00    -0.200 F 
ATOM     93  F   UNL     1      16.093  10.854 -10.981  1.00  0.00    -0.200 F 
ENDBRANCH  60  83
ENDBRANCH  34  35
ENDBRANCH  26  29
ENDBRANCH  24  25
ENDBRANCH   1  24
TORSDOF 12
