REMARK SMILES CCC[N@@H+](C)CC[C@@H]1CCC[C@]1([NH2+]C)C(=O)NCCCNC(=O)c1ccc(-c2c3nc(c(-c4c(F)c(F)c(F)c(F)c4F)c4ccc([nH]4)c(-c4c(F)c(F)c(F)c(F)c4F)c4nc(c(-c5c(F)c(F)c(F)c(F)c5F)c5ccc2[nH]5)C=C4)C=C3)cc1
REMARK SMILES IDX 15 1 16 2 17 3 12 5 8 6 9 7 10 8 11 9 7 10 6 11 4 12 5 13
REMARK SMILES IDX 3 15 2 16 1 17 13 18 14 19 18 22 19 23 20 24 21 25 22 26
REMARK SMILES IDX 23 28 24 29 25 30 86 31 26 32 85 33 27 34 28 35 29 36 79 37
REMARK SMILES IDX 30 38 84 39 78 40 80 41 31 42 83 43 77 44 76 45 32 47 64 48
REMARK SMILES IDX 44 49 63 50 45 51 48 52 62 53 81 54 46 55 47 56 61 58 82 59
REMARK SMILES IDX 49 60 33 61 34 62 42 63 35 64 36 65 40 66 43 67 37 68 38 69
REMARK SMILES IDX 41 70 39 71 65 72 66 73 74 74 67 75 68 76 72 77 75 78 69 79
REMARK SMILES IDX 70 80 73 81 71 82 50 83 51 84 59 85 52 86 53 87 57 88 60 89
REMARK SMILES IDX 54 90 55 91 58 92 56 93
REMARK H PARENT 17 4 4 14 13 20 13 21 21 27 80 46 48 57
REMARK Flexibility Score: inf
ROOT
ATOM      1  C   UNL     1       2.935  -0.227  -1.503  1.00  0.00     0.281 C 
ATOM      2  O   UNL     1       3.699  -0.984  -2.120  1.00  0.00    -0.268 OA
ATOM      3  N   UNL     1       2.188   0.571  -2.312  1.00  0.00    -0.351 N 
ATOM      4  H   UNL     1       2.451   0.558  -3.260  1.00  0.00     0.163 HD
ENDROOT
BRANCH   1   5
ATOM      5  C   UNL     1       2.845  -0.268   0.086  1.00  0.00     0.178 C 
ATOM      6  C   UNL     1       3.272   1.001   0.912  1.00  0.00     0.066 C 
ATOM      7  C   UNL     1       4.779   1.069   0.569  1.00  0.00     0.011 C 
ATOM      8  C   UNL     1       5.259  -0.378   0.539  1.00  0.00     0.008 C 
ATOM      9  C   UNL     1       3.989  -1.227   0.561  1.00  0.00     0.079 C 
BRANCH   6  10
ATOM     10  C   UNL     1       2.685   2.429   0.856  1.00  0.00     0.072 C 
BRANCH  10  11
ATOM     11  C   UNL     1       1.216   2.825   1.168  1.00  0.00     0.262 C 
BRANCH  11  12
ATOM     12  N   UNL     1       0.579   2.708   2.480  1.00  0.00    -0.337 N 
ATOM     13  C   UNL     1       1.243   3.517   3.495  1.00  0.00     0.332 C 
ATOM     14  H   UNL     1      -0.351   3.103   2.343  1.00  0.00     0.347 HD
BRANCH  12  15
ATOM     15  C   UNL     1       0.301   1.347   2.923  1.00  0.00     0.261 C 
BRANCH  15  16
ATOM     16  C   UNL     1      -1.016   0.706   2.433  1.00  0.00     0.058 C 
ATOM     17  C   UNL     1      -1.360   0.739   0.953  1.00  0.00     0.010 C 
ENDBRANCH  15  16
ENDBRANCH  12  15
ENDBRANCH  11  12
ENDBRANCH  10  11
ENDBRANCH   6  10
BRANCH   5  18
ATOM     18  N   UNL     1       1.544  -0.805   0.537  1.00  0.00    -0.336 N 
ATOM     19  C   UNL     1       1.204  -2.136   0.044  1.00  0.00     0.331 C 
ATOM     20  H   UNL     1       0.816  -0.161   0.229  1.00  0.00     0.346 HD
ATOM     21  H   UNL     1       1.617  -0.893   1.550  1.00  0.00     0.346 HD
ENDBRANCH   5  18
ENDBRANCH   1   5
BRANCH   3  22
ATOM     22  C   UNL     1       1.077   1.429  -2.006  1.00  0.00     0.118 C 
BRANCH  22  23
ATOM     23  C   UNL     1       1.405   2.897  -2.257  1.00  0.00     0.042 C 
BRANCH  23  24
ATOM     24  C   UNL     1       0.871   3.433  -3.573  1.00  0.00     0.118 C 
BRANCH  24  25
ATOM     25  N   UNL     1      -0.570   3.650  -3.553  1.00  0.00    -0.352 N 
ATOM     26  C   UNL     1      -1.329   4.790  -3.719  1.00  0.00     0.251 C 
ATOM     27  H   UNL     1      -1.098   2.835  -3.391  1.00  0.00     0.163 HD
ATOM     28  O   UNL     1      -2.536   4.732  -3.536  1.00  0.00    -0.269 OA
BRANCH  26  29
ATOM     29  C   UNL     1      -0.707   6.090  -4.082  1.00  0.00     0.039 A 
ATOM     30  C   UNL     1      -1.270   7.272  -3.585  1.00  0.00     0.014 A 
ATOM     31  C   UNL     1       0.405   6.169  -4.917  1.00  0.00     0.014 A 
ATOM     32  C   UNL     1      -0.671   8.508  -3.859  1.00  0.00     0.010 A 
ATOM     33  C   UNL     1       1.075   7.376  -5.077  1.00  0.00     0.010 A 
ATOM     34  C   UNL     1       0.538   8.567  -4.568  1.00  0.00    -0.014 A 
BRANCH  34  35
ATOM     35  C   UNL     1       1.249   9.848  -4.836  1.00  0.00     0.031 A 
ATOM     36  C   UNL     1       1.560  10.244  -6.258  1.00  0.00     0.074 A 
ATOM     37  C   UNL     1       1.702  10.604  -3.816  1.00  0.00     0.049 A 
ATOM     38  N   UNL     1       2.317  11.214  -6.707  1.00  0.00    -0.248 NA
ATOM     39  C   UNL     1       0.980   9.404  -7.320  1.00  0.00     0.031 C 
ATOM     40  C   UNL     1       1.514  10.315  -2.393  1.00  0.00     0.029 A 
ATOM     41  N   UNL     1       2.435  11.767  -3.820  1.00  0.00    -0.354 N 
ATOM     42  C   UNL     1       2.338  11.069  -8.089  1.00  0.00     0.074 A 
ATOM     43  C   UNL     1       1.569   9.886  -8.403  1.00  0.00     0.031 C 
ATOM     44  C   UNL     1       2.090  11.285  -1.665  1.00  0.00     0.029 A 
ATOM     45  C   UNL     1       2.733  12.238  -2.563  1.00  0.00     0.049 A 
ATOM     46  H   UNL     1       2.721  12.220  -4.646  1.00  0.00     0.167 HD
ATOM     47  C   UNL     1       2.920  11.865  -9.017  1.00  0.00     0.037 A 
ATOM     48  C   UNL     1       3.453  13.310  -2.181  1.00  0.00     0.037 A 
ATOM     49  C   UNL     1       3.627  13.079  -8.706  1.00  0.00     0.049 A 
ATOM     50  C   UNL     1       4.069  14.194  -3.234  1.00  0.00     0.074 A 
ATOM     51  C   UNL     1       4.184  13.999  -9.575  1.00  0.00     0.029 A 
ATOM     52  N   UNL     1       3.861  13.546  -7.421  1.00  0.00    -0.354 N 
ATOM     53  N   UNL     1       4.032  14.078  -4.539  1.00  0.00    -0.248 NA
ATOM     54  C   UNL     1       4.823  15.363  -2.759  1.00  0.00     0.031 C 
ATOM     55  C   UNL     1       4.793  15.003  -8.817  1.00  0.00     0.029 A 
ATOM     56  C   UNL     1       4.567  14.736  -7.476  1.00  0.00     0.049 A 
ATOM     57  H   UNL     1       3.569  13.099  -6.594  1.00  0.00     0.167 HD
ATOM     58  C   UNL     1       4.720  15.175  -5.040  1.00  0.00     0.074 A 
ATOM     59  C   UNL     1       5.156  15.951  -3.899  1.00  0.00     0.031 C 
ATOM     60  C   UNL     1       4.968  15.510  -6.329  1.00  0.00     0.037 A 
BRANCH  47  61
ATOM     61  C   UNL     1       2.805  11.462 -10.459  1.00  0.00     0.064 A 
ATOM     62  C   UNL     1       1.579  11.502 -11.142  1.00  0.00     0.173 A 
ATOM     63  C   UNL     1       3.943  11.072 -11.182  1.00  0.00     0.173 A 
ATOM     64  F   UNL     1       0.458  11.857 -10.496  1.00  0.00    -0.203 F 
ATOM     65  C   UNL     1       1.492  11.138 -12.483  1.00  0.00     0.198 A 
ATOM     66  C   UNL     1       3.858  10.742 -12.532  1.00  0.00     0.198 A 
ATOM     67  F   UNL     1       5.142  11.022 -10.582  1.00  0.00    -0.203 F 
ATOM     68  F   UNL     1       0.301  11.134 -13.098  1.00  0.00    -0.200 F 
ATOM     69  C   UNL     1       2.632  10.767 -13.179  1.00  0.00     0.200 A 
ATOM     70  F   UNL     1       4.964  10.398 -13.207  1.00  0.00    -0.200 F 
ATOM     71  F   UNL     1       2.548  10.428 -14.473  1.00  0.00    -0.200 F 
ENDBRANCH  47  61
BRANCH  48  72
ATOM     72  C   UNL     1       3.614  13.630  -0.736  1.00  0.00     0.064 A 
ATOM     73  C   UNL     1       3.016  14.772  -0.184  1.00  0.00     0.173 A 
ATOM     74  C   UNL     1       4.384  12.823   0.115  1.00  0.00     0.173 A 
ATOM     75  F   UNL     1       2.288  15.587  -0.961  1.00  0.00    -0.203 F 
ATOM     76  C   UNL     1       3.205  15.111   1.154  1.00  0.00     0.198 A 
ATOM     77  C   UNL     1       4.546  13.146   1.461  1.00  0.00     0.198 A 
ATOM     78  F   UNL     1       4.974  11.717  -0.360  1.00  0.00    -0.203 F 
ATOM     79  F   UNL     1       2.669  16.239   1.639  1.00  0.00    -0.200 F 
ATOM     80  C   UNL     1       3.966  14.296   1.977  1.00  0.00     0.200 A 
ATOM     81  F   UNL     1       5.271  12.348   2.256  1.00  0.00    -0.200 F 
ATOM     82  F   UNL     1       4.150  14.623   3.263  1.00  0.00    -0.200 F 
ENDBRANCH  48  72
BRANCH  60  83
ATOM     83  C   UNL     1       5.691  16.800  -6.584  1.00  0.00     0.064 A 
ATOM     84  C   UNL     1       7.057  16.950  -6.305  1.00  0.00     0.173 A 
ATOM     85  C   UNL     1       5.015  17.884  -7.167  1.00  0.00     0.173 A 
ATOM     86  F   UNL     1       7.744  15.948  -5.736  1.00  0.00    -0.203 F 
ATOM     87  C   UNL     1       7.715  18.146  -6.580  1.00  0.00     0.198 A 
ATOM     88  C   UNL     1       5.684  19.066  -7.470  1.00  0.00     0.198 A 
ATOM     89  F   UNL     1       3.710  17.788  -7.460  1.00  0.00    -0.203 F 
ATOM     90  F   UNL     1       9.010  18.283  -6.266  1.00  0.00    -0.200 F 
ATOM     91  C   UNL     1       7.031  19.198  -7.170  1.00  0.00     0.200 A 
ATOM     92  F   UNL     1       5.024  20.075  -8.055  1.00  0.00    -0.200 F 
ATOM     93  F   UNL     1       7.669  20.344  -7.446  1.00  0.00    -0.200 F 
ENDBRANCH  60  83
ENDBRANCH  34  35
ENDBRANCH  26  29
ENDBRANCH  24  25
ENDBRANCH  23  24
ENDBRANCH  22  23
ENDBRANCH   3  22
TORSDOF 16
