REMARK SMILES CC(C)(O)C#Cc1ccc(C(=O)N[C@@H](CCC(N)=O)C(=O)NCCCNC(=O)c2ccc(-c3c4nc(c(-c5c(F)c(F)c(F)c(F)c5F)c5ccc([nH]5)c(-c5c(F)c(F)c(F)c(F)c5F)c5nc(c(-c6c(F)c(F)c(F)c(F)c6F)c6ccc3[nH]6)C=C5)C=C4)cc2)s1
REMARK SMILES IDX 20 1 21 2 22 3 14 5 13 6 11 7 12 8 10 10 7 11 8 12 92 13
REMARK SMILES IDX 9 14 6 15 5 16 2 17 1 18 3 19 4 20 15 22 16 23 17 24 18 25
REMARK SMILES IDX 19 26 23 29 24 30 25 31 26 32 27 33 28 35 29 36 30 37 91 38
REMARK SMILES IDX 31 39 90 40 32 41 33 42 34 43 84 44 35 45 89 46 83 47 85 48
REMARK SMILES IDX 36 49 88 50 82 51 81 52 37 54 69 55 49 56 68 57 50 58 53 59
REMARK SMILES IDX 67 60 86 61 51 62 52 63 66 65 87 66 54 67 38 68 39 69 47 70
REMARK SMILES IDX 40 71 41 72 45 73 48 74 42 75 43 76 46 77 44 78 70 79 71 80
REMARK SMILES IDX 79 81 72 82 73 83 77 84 80 85 74 86 75 87 78 88 76 89 55 90
REMARK SMILES IDX 56 91 64 92 57 93 58 94 62 95 65 96 59 97 60 98 63 99 61 100
REMARK H PARENT 22 4 13 9 4 21 18 27 18 28 26 34 85 53 53 64
REMARK Flexibility Score: inf
ROOT
ATOM      1  C   UNL     1       5.434   1.763  -7.441  1.00  0.00     0.242 C 
ATOM      2  O   UNL     1       5.939   1.310  -6.411  1.00  0.00    -0.273 OA
ATOM      3  N   UNL     1       6.289   2.165  -8.431  1.00  0.00    -0.354 N 
ATOM      4  H   UNL     1       7.239   2.193  -8.176  1.00  0.00     0.163 HD
ENDROOT
BRANCH   1   5
ATOM      5  C   UNL     1       3.903   1.912  -7.587  1.00  0.00     0.172 C 
BRANCH   5   6
ATOM      6  N   UNL     1       3.612   3.335  -7.850  1.00  0.00    -0.340 N 
ATOM      7  C   UNL     1       3.379   4.394  -6.996  1.00  0.00     0.262 C 
ATOM      8  O   UNL     1       3.442   5.514  -7.510  1.00  0.00    -0.268 OA
ATOM      9  H   UNL     1       3.578   3.571  -8.805  1.00  0.00     0.164 HD
BRANCH   7  10
ATOM     10  C   UNL     1       2.898   4.192  -5.647  1.00  0.00     0.093 A 
ATOM     11  C   UNL     1       1.974   2.964  -3.802  1.00  0.00     0.078 A 
ATOM     12  C   UNL     1       1.355   4.189  -3.917  1.00  0.00     0.030 A 
ATOM     13  S   UNL     1       3.493   3.012  -4.563  1.00  0.00    -0.121 S 
ATOM     14  C   UNL     1       1.935   4.942  -4.986  1.00  0.00     0.027 A 
BRANCH  11  15
ATOM     15  C   UNL     1       1.488   1.831  -3.108  1.00  0.00    -0.053 C 
ATOM     16  C   UNL     1       1.053   0.862  -2.352  1.00  0.00    -0.063 C 
BRANCH  16  17
ATOM     17  C   UNL     1       0.546  -0.267  -1.470  1.00  0.00     0.120 C 
ATOM     18  C   UNL     1       1.024  -0.057  -0.035  1.00  0.00     0.056 C 
ATOM     19  C   UNL     1       1.022  -1.608  -2.023  1.00  0.00     0.056 C 
BRANCH  17  20
ATOM     20  O   UNL     1      -0.878  -0.237  -1.491  1.00  0.00    -0.378 OA
ATOM     21  H   UNL     1      -1.225  -0.951  -0.933  1.00  0.00     0.212 HD
ENDBRANCH  17  20
ENDBRANCH  16  17
ENDBRANCH  11  15
ENDBRANCH   7  10
ENDBRANCH   5   6
BRANCH   5  22
ATOM     22  C   UNL     1       3.097   0.916  -8.445  1.00  0.00     0.045 C 
BRANCH  22  23
ATOM     23  C   UNL     1       3.654   0.329  -9.738  1.00  0.00     0.102 C 
BRANCH  23  24
ATOM     24  C   UNL     1       4.813  -0.624  -9.540  1.00  0.00     0.217 C 
ATOM     25  N   UNL     1       5.428  -1.017 -10.691  1.00  0.00    -0.370 N 
ATOM     26  O   UNL     1       5.189  -1.039  -8.453  1.00  0.00    -0.275 OA
ATOM     27  H   UNL     1       5.114  -0.674 -11.558  1.00  0.00     0.159 HD
ATOM     28  H   UNL     1       6.187  -1.643 -10.654  1.00  0.00     0.159 HD
ENDBRANCH  23  24
ENDBRANCH  22  23
ENDBRANCH   5  22
ENDBRANCH   1   5
BRANCH   3  29
ATOM     29  C   UNL     1       6.009   2.555  -9.796  1.00  0.00     0.117 C 
BRANCH  29  30
ATOM     30  C   UNL     1       6.828   3.736 -10.296  1.00  0.00     0.042 C 
BRANCH  30  31
ATOM     31  C   UNL     1       8.229   3.316 -10.703  1.00  0.00     0.118 C 
BRANCH  31  32
ATOM     32  N   UNL     1       8.235   2.374 -11.826  1.00  0.00    -0.352 N 
ATOM     33  C   UNL     1       9.310   1.665 -12.329  1.00  0.00     0.251 C 
ATOM     34  H   UNL     1       7.371   2.229 -12.276  1.00  0.00     0.163 HD
ATOM     35  O   UNL     1       9.255   1.075 -13.390  1.00  0.00    -0.269 OA
BRANCH  33  36
ATOM     36  C   UNL     1      10.543   1.681 -11.528  1.00  0.00     0.039 A 
ATOM     37  C   UNL     1      11.701   2.270 -12.038  1.00  0.00     0.014 A 
ATOM     38  C   UNL     1      10.441   1.299 -10.195  1.00  0.00     0.014 A 
ATOM     39  C   UNL     1      12.732   2.587 -11.158  1.00  0.00     0.010 A 
ATOM     40  C   UNL     1      11.402   1.736  -9.313  1.00  0.00     0.010 A 
ATOM     41  C   UNL     1      12.562   2.363  -9.783  1.00  0.00    -0.014 A 
BRANCH  41  42
ATOM     42  C   UNL     1      13.525   2.912  -8.820  1.00  0.00     0.031 A 
ATOM     43  C   UNL     1      13.831   4.375  -8.933  1.00  0.00     0.074 A 
ATOM     44  C   UNL     1      13.919   2.226  -7.725  1.00  0.00     0.049 A 
ATOM     45  N   UNL     1      14.988   4.948  -9.037  1.00  0.00    -0.248 NA
ATOM     46  C   UNL     1      12.702   5.320  -8.981  1.00  0.00     0.031 C 
ATOM     47  C   UNL     1      13.475   0.897  -7.286  1.00  0.00     0.029 A 
ATOM     48  N   UNL     1      14.700   2.641  -6.688  1.00  0.00    -0.354 N 
ATOM     49  C   UNL     1      14.756   6.326  -9.008  1.00  0.00     0.074 A 
ATOM     50  C   UNL     1      13.329   6.494  -9.093  1.00  0.00     0.031 C 
ATOM     51  C   UNL     1      13.775   0.730  -5.982  1.00  0.00     0.029 A 
ATOM     52  C   UNL     1      14.594   1.847  -5.555  1.00  0.00     0.049 A 
ATOM     53  H   UNL     1      15.285   3.431  -6.737  1.00  0.00     0.167 HD
ATOM     54  C   UNL     1      15.748   7.215  -8.717  1.00  0.00     0.037 A 
ATOM     55  C   UNL     1      15.119   2.088  -4.333  1.00  0.00     0.037 A 
ATOM     56  C   UNL     1      17.047   6.614  -8.866  1.00  0.00     0.049 A 
ATOM     57  C   UNL     1      16.222   3.058  -4.505  1.00  0.00     0.074 A 
ATOM     58  C   UNL     1      17.770   6.072  -9.909  1.00  0.00     0.029 A 
ATOM     59  N   UNL     1      17.700   6.231  -7.723  1.00  0.00    -0.354 N 
ATOM     60  N   UNL     1      17.335   2.794  -5.130  1.00  0.00    -0.248 NA
ATOM     61  C   UNL     1      15.941   4.469  -4.299  1.00  0.00     0.031 C 
ATOM     62  C   UNL     1      18.532   5.017  -9.324  1.00  0.00     0.029 A 
ATOM     63  C   UNL     1      18.258   5.004  -7.956  1.00  0.00     0.049 A 
ATOM     64  H   UNL     1      17.756   6.745  -6.886  1.00  0.00     0.167 HD
ATOM     65  C   UNL     1      17.666   3.979  -5.768  1.00  0.00     0.074 A 
ATOM     66  C   UNL     1      16.864   5.000  -5.104  1.00  0.00     0.031 C 
ATOM     67  C   UNL     1      18.340   3.966  -6.955  1.00  0.00     0.037 A 
BRANCH  54  68
ATOM     68  C   UNL     1      15.571   8.509  -7.944  1.00  0.00     0.064 A 
ATOM     69  C   UNL     1      16.682   9.366  -7.775  1.00  0.00     0.173 A 
ATOM     70  C   UNL     1      14.475   8.772  -7.096  1.00  0.00     0.173 A 
ATOM     71  F   UNL     1      17.785   9.215  -8.525  1.00  0.00    -0.203 F 
ATOM     72  C   UNL     1      16.732  10.329  -6.762  1.00  0.00     0.198 A 
ATOM     73  C   UNL     1      14.508   9.771  -6.120  1.00  0.00     0.198 A 
ATOM     74  F   UNL     1      13.376   8.010  -7.095  1.00  0.00    -0.203 F 
ATOM     75  F   UNL     1      17.863  11.015  -6.550  1.00  0.00    -0.200 F 
ATOM     76  C   UNL     1      15.649  10.522  -5.927  1.00  0.00     0.200 A 
ATOM     77  F   UNL     1      13.452   9.937  -5.312  1.00  0.00    -0.200 F 
ATOM     78  F   UNL     1      15.718  11.390  -4.909  1.00  0.00    -0.200 F 
ENDBRANCH  54  68
BRANCH  55  79
ATOM     79  C   UNL     1      14.579   1.699  -3.014  1.00  0.00     0.064 A 
ATOM     80  C   UNL     1      15.399   1.642  -1.879  1.00  0.00     0.173 A 
ATOM     81  C   UNL     1      13.189   1.620  -2.794  1.00  0.00     0.173 A 
ATOM     82  F   UNL     1      16.729   1.752  -2.004  1.00  0.00    -0.203 F 
ATOM     83  C   UNL     1      14.860   1.536  -0.594  1.00  0.00     0.198 A 
ATOM     84  C   UNL     1      12.652   1.504  -1.512  1.00  0.00     0.198 A 
ATOM     85  F   UNL     1      12.324   1.746  -3.811  1.00  0.00    -0.203 F 
ATOM     86  F   UNL     1      15.671   1.545   0.473  1.00  0.00    -0.200 F 
ATOM     87  C   UNL     1      13.488   1.476  -0.411  1.00  0.00     0.200 A 
ATOM     88  F   UNL     1      11.322   1.483  -1.346  1.00  0.00    -0.200 F 
ATOM     89  F   UNL     1      12.970   1.434   0.825  1.00  0.00    -0.200 F 
ENDBRANCH  55  79
BRANCH  67  90
ATOM     90  C   UNL     1      19.005   2.683  -7.365  1.00  0.00     0.064 A 
ATOM     91  C   UNL     1      18.312   1.496  -7.661  1.00  0.00     0.173 A 
ATOM     92  C   UNL     1      20.387   2.695  -7.592  1.00  0.00     0.173 A 
ATOM     93  F   UNL     1      16.979   1.434  -7.571  1.00  0.00    -0.203 F 
ATOM     94  C   UNL     1      18.981   0.361  -8.114  1.00  0.00     0.198 A 
ATOM     95  C   UNL     1      21.048   1.573  -8.082  1.00  0.00     0.198 A 
ATOM     96  F   UNL     1      21.091   3.819  -7.385  1.00  0.00    -0.203 F 
ATOM     97  F   UNL     1      18.298  -0.763  -8.374  1.00  0.00    -0.200 F 
ATOM     98  C   UNL     1      20.348   0.403  -8.331  1.00  0.00     0.200 A 
ATOM     99  F   UNL     1      22.362   1.633  -8.338  1.00  0.00    -0.200 F 
ATOM    100  F   UNL     1      20.987  -0.675  -8.805  1.00  0.00    -0.200 F 
ENDBRANCH  67  90
ENDBRANCH  41  42
ENDBRANCH  33  36
ENDBRANCH  31  32
ENDBRANCH  30  31
ENDBRANCH  29  30
ENDBRANCH   3  29
TORSDOF 18
