REMARK SMILES C[C@H]1[C@H](C(=O)NCCCNC(=O)c2ccc(-c3c4nc(c(-c5c(F)c(F)c(F)c(F)c5F)c5ccc([nH]5)c(-c5c(F)c(F)c(F)c(F)c5F)c5nc(c(-c6c(F)c(F)c(F)c(F)c6F)c6ccc3[nH]6)C=C5)C=C4)cc2)CCN1C(=O)Cc1csc(N)n1
REMARK SMILES IDX 7 1 6 2 4 3 5 4 3 6 1 7 2 8 78 9 76 10 77 11 79 12 80 13
REMARK SMILES IDX 81 14 82 15 83 16 87 17 84 18 85 19 86 20 8 23 9 24 10 25
REMARK SMILES IDX 11 26 12 28 13 29 14 30 75 31 15 32 74 33 16 34 17 35 18 36
REMARK SMILES IDX 68 37 19 38 73 39 67 40 69 41 20 42 72 43 66 44 65 45 21 47
REMARK SMILES IDX 53 48 33 49 52 50 34 51 37 52 51 53 70 54 35 55 36 56 50 58
REMARK SMILES IDX 71 59 38 60 22 61 23 62 31 63 24 64 25 65 29 66 32 67 26 68
REMARK SMILES IDX 27 69 30 70 28 71 54 72 55 73 63 74 56 75 57 76 61 77 64 78
REMARK SMILES IDX 58 79 59 80 62 81 60 82 39 83 40 84 48 85 41 86 42 87 46 88
REMARK SMILES IDX 49 89 43 90 44 91 47 92 45 93
REMARK H PARENT 6 5 86 21 86 22 10 27 69 46 37 57
REMARK Flexibility Score: inf
ROOT
ATOM      1  C   UNL     1      -1.158   0.517   2.851  1.00  0.00     0.117 C 
ENDROOT
BRANCH   1   2
ATOM      2  N   UNL     1      -0.660   1.789   2.362  1.00  0.00    -0.356 N 
ATOM      3  C   UNL     1      -0.260   2.193   1.131  1.00  0.00     0.225 C 
ATOM      4  O   UNL     1       0.164   3.349   1.040  1.00  0.00    -0.275 OA
ATOM      5  H   UNL     1      -0.603   2.489   3.052  1.00  0.00     0.163 HD
BRANCH   3   6
ATOM      6  C   UNL     1      -0.271   1.295  -0.093  1.00  0.00     0.102 C 
ATOM      7  C   UNL     1       1.700   0.273  -1.246  1.00  0.00     0.032 C 
ATOM      8  C   UNL     1       0.784   0.180  -0.018  1.00  0.00     0.094 C 
ATOM      9  N   UNL     1       0.016  -1.061  -0.042  1.00  0.00    -0.339 N 
ATOM     10  C   UNL     1      -1.607   0.622  -0.419  1.00  0.00     0.037 C 
ATOM     11  C   UNL     1      -1.278  -0.847  -0.660  1.00  0.00     0.120 C 
BRANCH   9  12
ATOM     12  C   UNL     1       0.406  -2.333   0.345  1.00  0.00     0.228 C 
ATOM     13  O   UNL     1      -0.319  -3.305   0.107  1.00  0.00    -0.274 OA
BRANCH  12  14
ATOM     14  C   UNL     1       1.625  -2.506   1.239  1.00  0.00     0.157 C 
BRANCH  14  15
ATOM     15  C   UNL     1       2.952  -2.272   0.603  1.00  0.00     0.063 A 
ATOM     16  C   UNL     1       3.876  -1.310   0.974  1.00  0.00     0.093 A 
ATOM     17  N   UNL     1       3.384  -3.110  -0.412  1.00  0.00    -0.225 NA
ATOM     18  S   UNL     1       5.276  -1.427  -0.002  1.00  0.00    -0.106 S 
ATOM     19  C   UNL     1       4.584  -2.771  -0.814  1.00  0.00     0.180 A 
BRANCH  19  20
ATOM     20  N   UNL     1       5.244  -3.412  -1.782  1.00  0.00    -0.375 N 
ATOM     21  H   UNL     1       6.145  -3.114  -2.045  1.00  0.00     0.159 HD
ATOM     22  H   UNL     1       4.829  -4.182  -2.234  1.00  0.00     0.159 HD
ENDBRANCH  19  20
ENDBRANCH  14  15
ENDBRANCH  12  14
ENDBRANCH   9  12
ENDBRANCH   3   6
ENDBRANCH   1   2
BRANCH   1  23
ATOM     23  C   UNL     1      -0.241  -0.086   3.906  1.00  0.00     0.042 C 
BRANCH  23  24
ATOM     24  C   UNL     1      -0.129   0.730   5.188  1.00  0.00     0.118 C 
BRANCH  24  25
ATOM     25  N   UNL     1      -1.396   0.865   5.890  1.00  0.00    -0.352 N 
ATOM     26  C   UNL     1      -1.762   0.468   7.150  1.00  0.00     0.251 C 
ATOM     27  H   UNL     1      -2.106   1.315   5.376  1.00  0.00     0.163 HD
ATOM     28  O   UNL     1      -2.946   0.532   7.483  1.00  0.00    -0.269 OA
BRANCH  26  29
ATOM     29  C   UNL     1      -0.763  -0.054   8.106  1.00  0.00     0.039 A 
ATOM     30  C   UNL     1      -1.113  -1.140   8.915  1.00  0.00     0.014 A 
ATOM     31  C   UNL     1       0.497   0.533   8.240  1.00  0.00     0.014 A 
ATOM     32  C   UNL     1      -0.181  -1.674   9.807  1.00  0.00     0.010 A 
ATOM     33  C   UNL     1       1.453  -0.050   9.069  1.00  0.00     0.010 A 
ATOM     34  C   UNL     1       1.123  -1.155   9.865  1.00  0.00    -0.014 A 
BRANCH  34  35
ATOM     35  C   UNL     1       2.148  -1.760  10.753  1.00  0.00     0.031 A 
ATOM     36  C   UNL     1       2.740  -0.967  11.884  1.00  0.00     0.074 A 
ATOM     37  C   UNL     1       2.588  -3.009  10.502  1.00  0.00     0.049 A 
ATOM     38  N   UNL     1       3.680  -1.305  12.731  1.00  0.00    -0.248 NA
ATOM     39  C   UNL     1       2.229   0.400  12.071  1.00  0.00     0.031 C 
ATOM     40  C   UNL     1       2.136  -3.859   9.400  1.00  0.00     0.029 A 
ATOM     41  N   UNL     1       3.522  -3.776  11.152  1.00  0.00    -0.354 N 
ATOM     42  C   UNL     1       3.879  -0.194  13.540  1.00  0.00     0.074 A 
ATOM     43  C   UNL     1       3.005   0.849  13.047  1.00  0.00     0.031 C 
ATOM     44  C   UNL     1       2.776  -5.037   9.463  1.00  0.00     0.029 A 
ATOM     45  C   UNL     1       3.705  -5.015  10.588  1.00  0.00     0.049 A 
ATOM     46  H   UNL     1       4.014  -3.468  11.948  1.00  0.00     0.167 HD
ATOM     47  C   UNL     1       4.696  -0.064  14.612  1.00  0.00     0.037 A 
ATOM     48  C   UNL     1       4.531  -6.018  10.937  1.00  0.00     0.037 A 
ATOM     49  C   UNL     1       5.548  -1.110  15.115  1.00  0.00     0.049 A 
ATOM     50  C   UNL     1       5.418  -5.855  12.141  1.00  0.00     0.074 A 
ATOM     51  C   UNL     1       6.372  -1.095  16.226  1.00  0.00     0.029 A 
ATOM     52  N   UNL     1       5.684  -2.363  14.534  1.00  0.00    -0.354 N 
ATOM     53  N   UNL     1       5.548  -4.822  12.938  1.00  0.00    -0.248 NA
ATOM     54  C   UNL     1       6.263  -7.001  12.500  1.00  0.00     0.031 C 
ATOM     55  C   UNL     1       7.037  -2.324  16.296  1.00  0.00     0.029 A 
ATOM     56  C   UNL     1       6.591  -3.123  15.255  1.00  0.00     0.049 A 
ATOM     57  H   UNL     1       5.206  -2.667  13.729  1.00  0.00     0.167 HD
ATOM     58  C   UNL     1       6.471  -5.199  13.903  1.00  0.00     0.074 A 
ATOM     59  C   UNL     1       6.853  -6.564  13.604  1.00  0.00     0.031 C 
ATOM     60  C   UNL     1       6.962  -4.479  14.942  1.00  0.00     0.037 A 
BRANCH  47  61
ATOM     61  C   UNL     1       4.700   1.260  15.321  1.00  0.00     0.064 A 
ATOM     62  C   UNL     1       3.595   1.695  16.071  1.00  0.00     0.173 A 
ATOM     63  C   UNL     1       5.828   2.093  15.276  1.00  0.00     0.173 A 
ATOM     64  F   UNL     1       2.487   0.942  16.137  1.00  0.00    -0.203 F 
ATOM     65  C   UNL     1       3.609   2.926  16.721  1.00  0.00     0.198 A 
ATOM     66  C   UNL     1       5.849   3.310  15.953  1.00  0.00     0.198 A 
ATOM     67  F   UNL     1       6.913   1.724  14.578  1.00  0.00    -0.203 F 
ATOM     68  F   UNL     1       2.522   3.342  17.387  1.00  0.00    -0.200 F 
ATOM     69  C   UNL     1       4.737   3.729  16.667  1.00  0.00     0.200 A 
ATOM     70  F   UNL     1       6.946   4.080  15.909  1.00  0.00    -0.200 F 
ATOM     71  F   UNL     1       4.750   4.912  17.297  1.00  0.00    -0.200 F 
ENDBRANCH  47  61
BRANCH  48  72
ATOM     72  C   UNL     1       4.536  -7.279  10.150  1.00  0.00     0.064 A 
ATOM     73  C   UNL     1       4.013  -8.463  10.685  1.00  0.00     0.173 A 
ATOM     74  C   UNL     1       5.056  -7.323   8.849  1.00  0.00     0.173 A 
ATOM     75  F   UNL     1       3.522  -8.474  11.933  1.00  0.00    -0.203 F 
ATOM     76  C   UNL     1       4.027  -9.650   9.956  1.00  0.00     0.198 A 
ATOM     77  C   UNL     1       5.045  -8.504   8.110  1.00  0.00     0.198 A 
ATOM     78  F   UNL     1       5.563  -6.214   8.290  1.00  0.00    -0.203 F 
ATOM     79  F   UNL     1       3.559 -10.778  10.507  1.00  0.00    -0.200 F 
ATOM     80  C   UNL     1       4.537  -9.668   8.666  1.00  0.00     0.200 A 
ATOM     81  F   UNL     1       5.526  -8.514   6.859  1.00  0.00    -0.200 F 
ATOM     82  F   UNL     1       4.546 -10.809   7.963  1.00  0.00    -0.200 F 
ENDBRANCH  48  72
BRANCH  60  83
ATOM     83  C   UNL     1       7.949  -5.164  15.842  1.00  0.00     0.064 A 
ATOM     84  C   UNL     1       9.257  -5.444  15.420  1.00  0.00     0.173 A 
ATOM     85  C   UNL     1       7.588  -5.524  17.149  1.00  0.00     0.173 A 
ATOM     86  F   UNL     1       9.645  -5.134  14.174  1.00  0.00    -0.203 F 
ATOM     87  C   UNL     1      10.159  -6.086  16.265  1.00  0.00     0.198 A 
ATOM     88  C   UNL     1       8.502  -6.138  18.001  1.00  0.00     0.198 A 
ATOM     89  F   UNL     1       6.351  -5.272  17.603  1.00  0.00    -0.203 F 
ATOM     90  F   UNL     1      11.387  -6.390  15.823  1.00  0.00    -0.200 F 
ATOM     91  C   UNL     1       9.783  -6.427  17.555  1.00  0.00     0.200 A 
ATOM     92  F   UNL     1       8.141  -6.456  19.252  1.00  0.00    -0.200 F 
ATOM     93  F   UNL     1      10.653  -7.042  18.367  1.00  0.00    -0.200 F 
ENDBRANCH  60  83
ENDBRANCH  34  35
ENDBRANCH  26  29
ENDBRANCH  24  25
ENDBRANCH  23  24
ENDBRANCH   1  23
TORSDOF 14
