REMARK SMILES O=C(NCCCNC(=O)[C@H]1CCCCN1C(=O)CSCc1ccccc1)c1ccc(-c2c3nc(c(-c4c(F)c(F)c(F)c(F)c4F)c4ccc([nH]4)c(-c4c(F)c(F)c(F)c(F)c4F)c4nc(c(-c5c(F)c(F)c(F)c(F)c5F)c5ccc2[nH]5)C=C4)C=C3)cc1
REMARK SMILES IDX 7 1 8 2 9 3 6 5 5 6 4 7 3 8 1 9 2 10 27 12 28 13 89 14 29 15
REMARK SMILES IDX 88 16 30 17 31 18 32 19 82 20 33 21 87 22 81 23 83 24 34 25
REMARK SMILES IDX 86 26 80 27 79 28 35 30 67 31 47 32 66 33 48 34 51 35 65 36
REMARK SMILES IDX 84 37 49 38 50 39 64 41 85 42 52 43 36 44 37 45 45 46 38 47
REMARK SMILES IDX 39 48 43 49 46 50 40 51 41 52 44 53 42 54 68 55 69 56 77 57
REMARK SMILES IDX 70 58 71 59 75 60 78 61 72 62 73 63 76 64 74 65 53 66 54 67
REMARK SMILES IDX 62 68 55 69 56 70 60 71 63 72 57 73 58 74 61 75 59 76 10 77
REMARK SMILES IDX 11 78 15 79 12 80 14 81 13 82 16 83 17 84 18 85 19 86 20 87
REMARK SMILES IDX 21 88 22 89 26 90 23 91 25 92 24 93
REMARK H PARENT 7 4 3 11 83 29 51 40
REMARK Flexibility Score: inf
ROOT
ATOM      1  N   UNL     1       4.976   3.741  -4.665  1.00  0.00    -0.354 N 
ATOM      2  C   UNL     1       5.313   4.841  -3.954  1.00  0.00     0.242 C 
ATOM      3  O   UNL     1       4.399   5.674  -3.850  1.00  0.00    -0.273 OA
ATOM      4  H   UNL     1       4.024   3.721  -4.913  1.00  0.00     0.163 HD
ENDROOT
BRANCH   1   5
ATOM      5  C   UNL     1       5.709   2.586  -5.143  1.00  0.00     0.117 C 
BRANCH   5   6
ATOM      6  C   UNL     1       4.880   1.319  -5.103  1.00  0.00     0.042 C 
BRANCH   6   7
ATOM      7  C   UNL     1       3.749   1.345  -6.116  1.00  0.00     0.118 C 
BRANCH   7   8
ATOM      8  N   UNL     1       4.219   1.160  -7.485  1.00  0.00    -0.352 N 
ATOM      9  O   UNL     1       5.035   0.079  -9.284  1.00  0.00    -0.269 OA
ATOM     10  C   UNL     1       4.424   0.016  -8.225  1.00  0.00     0.251 C 
ATOM     11  H   UNL     1       4.425   1.996  -7.962  1.00  0.00     0.163 HD
BRANCH  10  12
ATOM     12  C   UNL     1       3.936  -1.290  -7.731  1.00  0.00     0.039 A 
ATOM     13  C   UNL     1       2.721  -1.375  -7.061  1.00  0.00     0.014 A 
ATOM     14  C   UNL     1       4.677  -2.454  -7.963  1.00  0.00     0.014 A 
ATOM     15  C   UNL     1       2.363  -2.547  -6.422  1.00  0.00     0.010 A 
ATOM     16  C   UNL     1       4.222  -3.682  -7.464  1.00  0.00     0.010 A 
ATOM     17  C   UNL     1       3.075  -3.732  -6.660  1.00  0.00    -0.014 A 
BRANCH  17  18
ATOM     18  C   UNL     1       2.504  -4.997  -6.130  1.00  0.00     0.031 A 
ATOM     19  C   UNL     1       3.252  -5.851  -5.150  1.00  0.00     0.074 A 
ATOM     20  C   UNL     1       1.242  -5.314  -6.491  1.00  0.00     0.049 A 
ATOM     21  N   UNL     1       2.858  -6.947  -4.551  1.00  0.00    -0.248 NA
ATOM     22  C   UNL     1       4.619  -5.437  -4.798  1.00  0.00     0.031 C 
ATOM     23  C   UNL     1       0.429  -4.558  -7.451  1.00  0.00     0.029 A 
ATOM     24  N   UNL     1       0.402  -6.308  -6.066  1.00  0.00    -0.354 N 
ATOM     25  C   UNL     1       3.931  -7.367  -3.776  1.00  0.00     0.074 A 
ATOM     26  C   UNL     1       5.002  -6.418  -3.991  1.00  0.00     0.031 C 
ATOM     27  C   UNL     1      -0.814  -5.054  -7.467  1.00  0.00     0.029 A 
ATOM     28  C   UNL     1      -0.861  -6.223  -6.602  1.00  0.00     0.049 A 
ATOM     29  H   UNL     1       0.675  -7.015  -5.437  1.00  0.00     0.167 HD
ATOM     30  C   UNL     1       4.005  -8.445  -2.959  1.00  0.00     0.037 A 
ATOM     31  C   UNL     1      -1.937  -7.014  -6.438  1.00  0.00     0.037 A 
ATOM     32  C   UNL     1       2.921  -9.369  -2.739  1.00  0.00     0.049 A 
ATOM     33  C   UNL     1      -1.815  -8.202  -5.532  1.00  0.00     0.074 A 
ATOM     34  C   UNL     1       2.890 -10.486  -1.921  1.00  0.00     0.029 A 
ATOM     35  N   UNL     1       1.672  -9.281  -3.338  1.00  0.00    -0.354 N 
ATOM     36  N   UNL     1      -0.794  -8.584  -4.804  1.00  0.00    -0.248 NA
ATOM     37  C   UNL     1      -2.988  -9.079  -5.436  1.00  0.00     0.031 C 
ATOM     38  C   UNL     1       1.638 -11.096  -2.057  1.00  0.00     0.029 A 
ATOM     39  C   UNL     1       0.870 -10.333  -2.922  1.00  0.00     0.049 A 
ATOM     40  H   UNL     1       1.395  -8.575  -3.967  1.00  0.00     0.167 HD
ATOM     41  C   UNL     1      -1.198  -9.743  -4.164  1.00  0.00     0.074 A 
ATOM     42  C   UNL     1      -2.573  -9.980  -4.559  1.00  0.00     0.031 C 
ATOM     43  C   UNL     1      -0.492 -10.550  -3.335  1.00  0.00     0.037 A 
BRANCH  30  44
ATOM     44  C   UNL     1       5.305  -8.704  -2.253  1.00  0.00     0.064 A 
ATOM     45  C   UNL     1       5.734  -7.910  -1.180  1.00  0.00     0.173 A 
ATOM     46  C   UNL     1       6.100  -9.803  -2.614  1.00  0.00     0.173 A 
ATOM     47  F   UNL     1       5.018  -6.840  -0.804  1.00  0.00    -0.203 F 
ATOM     48  C   UNL     1       6.917  -8.199  -0.502  1.00  0.00     0.198 A 
ATOM     49  C   UNL     1       7.269 -10.104  -1.918  1.00  0.00     0.198 A 
ATOM     50  F   UNL     1       5.734 -10.598  -3.630  1.00  0.00    -0.203 F 
ATOM     51  F   UNL     1       7.323  -7.407   0.500  1.00  0.00    -0.200 F 
ATOM     52  C   UNL     1       7.678  -9.300  -0.865  1.00  0.00     0.200 A 
ATOM     53  F   UNL     1       7.996 -11.176  -2.263  1.00  0.00    -0.200 F 
ATOM     54  F   UNL     1       8.807  -9.584  -0.203  1.00  0.00    -0.200 F 
ENDBRANCH  30  44
BRANCH  31  55
ATOM     55  C   UNL     1      -3.194  -6.721  -7.173  1.00  0.00     0.064 A 
ATOM     56  C   UNL     1      -4.363  -6.348  -6.497  1.00  0.00     0.173 A 
ATOM     57  C   UNL     1      -3.251  -6.803  -8.574  1.00  0.00     0.173 A 
ATOM     58  F   UNL     1      -4.366  -6.272  -5.157  1.00  0.00    -0.203 F 
ATOM     59  C   UNL     1      -5.543  -6.084  -7.190  1.00  0.00     0.198 A 
ATOM     60  C   UNL     1      -4.419  -6.503  -9.268  1.00  0.00     0.198 A 
ATOM     61  F   UNL     1      -2.159  -7.150  -9.271  1.00  0.00    -0.203 F 
ATOM     62  F   UNL     1      -6.658  -5.775  -6.516  1.00  0.00    -0.200 F 
ATOM     63  C   UNL     1      -5.568  -6.154  -8.575  1.00  0.00     0.200 A 
ATOM     64  F   UNL     1      -4.431  -6.550 -10.607  1.00  0.00    -0.200 F 
ATOM     65  F   UNL     1      -6.700  -5.891  -9.242  1.00  0.00    -0.200 F 
ENDBRANCH  31  55
BRANCH  43  66
ATOM     66  C   UNL     1      -1.211 -11.751  -2.797  1.00  0.00     0.064 A 
ATOM     67  C   UNL     1      -1.518 -12.847  -3.617  1.00  0.00     0.173 A 
ATOM     68  C   UNL     1      -1.595 -11.806  -1.450  1.00  0.00     0.173 A 
ATOM     69  F   UNL     1      -1.189 -12.831  -4.918  1.00  0.00    -0.203 F 
ATOM     70  C   UNL     1      -2.216 -13.941  -3.114  1.00  0.00     0.198 A 
ATOM     71  C   UNL     1      -2.265 -12.915  -0.943  1.00  0.00     0.198 A 
ATOM     72  F   UNL     1      -1.320 -10.784  -0.626  1.00  0.00    -0.203 F 
ATOM     73  F   UNL     1      -2.554 -14.950  -3.929  1.00  0.00    -0.200 F 
ATOM     74  C   UNL     1      -2.585 -13.976  -1.778  1.00  0.00     0.200 A 
ATOM     75  F   UNL     1      -2.612 -12.952   0.350  1.00  0.00    -0.200 F 
ATOM     76  F   UNL     1      -3.260 -15.028  -1.296  1.00  0.00    -0.200 F 
ENDBRANCH  43  66
ENDBRANCH  17  18
ENDBRANCH  10  12
ENDBRANCH   7   8
ENDBRANCH   6   7
ENDBRANCH   5   6
ENDBRANCH   1   5
BRANCH   2  77
ATOM     77  C   UNL     1       6.692   5.118  -3.300  1.00  0.00     0.174 C 
ATOM     78  C   UNL     1       7.916   4.231  -3.518  1.00  0.00     0.035 C 
ATOM     79  N   UNL     1       7.113   6.484  -3.670  1.00  0.00    -0.330 N 
ATOM     80  C   UNL     1       8.497   4.335  -4.936  1.00  0.00     0.004 C 
ATOM     81  C   UNL     1       7.439   6.643  -5.087  1.00  0.00     0.120 C 
ATOM     82  C   UNL     1       8.659   5.779  -5.415  1.00  0.00     0.022 C 
BRANCH  79  83
ATOM     83  C   UNL     1       7.444   7.371  -2.656  1.00  0.00     0.233 C 
ATOM     84  O   UNL     1       7.341   7.053  -1.467  1.00  0.00    -0.274 OA
BRANCH  83  85
ATOM     85  C   UNL     1       7.965   8.754  -3.016  1.00  0.00     0.170 C 
BRANCH  85  86
ATOM     86  S   UNL     1       9.664   8.735  -3.690  1.00  0.00    -0.147 SA
BRANCH  86  87
ATOM     87  C   UNL     1      10.532   7.777  -2.400  1.00  0.00     0.105 C 
BRANCH  87  88
ATOM     88  C   UNL     1      10.656   8.521  -1.099  1.00  0.00    -0.038 A 
ATOM     89  C   UNL     1      10.239   7.928   0.100  1.00  0.00     0.004 A 
ATOM     90  C   UNL     1      11.204   9.813  -1.060  1.00  0.00     0.004 A 
ATOM     91  C   UNL     1      10.334   8.627   1.304  1.00  0.00     0.000 A 
ATOM     92  C   UNL     1      11.282  10.516   0.141  1.00  0.00     0.000 A 
ATOM     93  C   UNL     1      10.845   9.923   1.322  1.00  0.00     0.000 A 
ENDBRANCH  87  88
ENDBRANCH  86  87
ENDBRANCH  85  86
ENDBRANCH  83  85
ENDBRANCH  79  83
ENDBRANCH   2  77
TORSDOF 15
