REMARK SMILES O=C(NCCCNC(=O)c1cnccc1-c1cccc(C(F)(F)F)c1)c1ccc(-c2c3nc(c(-c4c(F)c(F)c(F)c(F)c4F)c4ccc([nH]4)c(-c4c(F)c(F)c(F)c(F)c4F)c4nc(c(-c5c(F)c(F)c(F)c(F)c5F)c5ccc2[nH]5)C=C4)C=C3)cc1
REMARK SMILES IDX 5 1 4 2 3 3 1 4 2 5 26 7 27 8 88 9 28 10 87 11 29 12 30 13
REMARK SMILES IDX 31 14 81 15 32 16 86 17 80 18 82 19 33 20 85 21 79 22 78 23
REMARK SMILES IDX 34 25 66 26 46 27 65 28 47 29 50 30 64 31 83 32 48 33 49 34
REMARK SMILES IDX 63 36 84 37 51 38 35 39 36 40 44 41 37 42 38 43 42 44 45 45
REMARK SMILES IDX 39 46 40 47 43 48 41 49 67 50 68 51 76 52 69 53 70 54 74 55
REMARK SMILES IDX 77 56 71 57 72 58 75 59 73 60 52 61 53 62 61 63 54 64 55 65
REMARK SMILES IDX 59 66 62 67 56 68 57 69 60 70 58 71 6 72 7 73 8 74 9 76
REMARK SMILES IDX 10 77 11 78 15 79 12 80 14 81 13 82 16 83 17 84 25 85 18 86
REMARK SMILES IDX 20 87 19 88 21 89 22 90 23 91 24 92
REMARK H PARENT 3 6 82 24 50 35 7 75
REMARK Flexibility Score: inf
ROOT
ATOM      1  C   UNL     1       5.348   0.830   2.001  1.00  0.00     0.042 C 
ENDROOT
BRANCH   1   2
ATOM      2  C   UNL     1       4.764  -0.400   1.324  1.00  0.00     0.118 C 
BRANCH   2   3
ATOM      3  N   UNL     1       3.314  -0.344   1.167  1.00  0.00    -0.352 N 
ATOM      4  O   UNL     1       1.324   0.047   0.184  1.00  0.00    -0.269 OA
ATOM      5  C   UNL     1       2.535  -0.120   0.057  1.00  0.00     0.251 C 
ATOM      6  H   UNL     1       2.808  -0.493   1.998  1.00  0.00     0.163 HD
BRANCH   5   7
ATOM      7  C   UNL     1       3.147  -0.038  -1.287  1.00  0.00     0.039 A 
ATOM      8  C   UNL     1       4.179  -0.898  -1.656  1.00  0.00     0.014 A 
ATOM      9  C   UNL     1       2.677   0.911  -2.201  1.00  0.00     0.014 A 
ATOM     10  C   UNL     1       4.884  -0.668  -2.828  1.00  0.00     0.010 A 
ATOM     11  C   UNL     1       3.302   1.051  -3.445  1.00  0.00     0.010 A 
ATOM     12  C   UNL     1       4.442   0.293  -3.750  1.00  0.00    -0.014 A 
BRANCH  12  13
ATOM     13  C   UNL     1       5.162   0.429  -5.041  1.00  0.00     0.031 A 
ATOM     14  C   UNL     1       5.840   1.712  -5.429  1.00  0.00     0.074 A 
ATOM     15  C   UNL     1       5.240  -0.649  -5.847  1.00  0.00     0.049 A 
ATOM     16  N   UNL     1       6.529   1.986  -6.509  1.00  0.00    -0.248 NA
ATOM     17  C   UNL     1       5.725   2.841  -4.493  1.00  0.00     0.031 C 
ATOM     18  C   UNL     1       4.609  -1.944  -5.580  1.00  0.00     0.029 A 
ATOM     19  N   UNL     1       5.902  -0.842  -7.032  1.00  0.00    -0.354 N 
ATOM     20  C   UNL     1       6.901   3.319  -6.398  1.00  0.00     0.074 A 
ATOM     21  C   UNL     1       6.348   3.808  -5.153  1.00  0.00     0.031 C 
ATOM     22  C   UNL     1       4.964  -2.813  -6.535  1.00  0.00     0.029 A 
ATOM     23  C   UNL     1       5.782  -2.119  -7.522  1.00  0.00     0.049 A 
ATOM     24  H   UNL     1       6.412  -0.135  -7.487  1.00  0.00     0.167 HD
ATOM     25  C   UNL     1       7.641   4.062  -7.257  1.00  0.00     0.037 A 
ATOM     26  C   UNL     1       6.258  -2.670  -8.653  1.00  0.00     0.037 A 
ATOM     27  C   UNL     1       8.214   3.558  -8.479  1.00  0.00     0.049 A 
ATOM     28  C   UNL     1       7.074  -1.824  -9.583  1.00  0.00     0.074 A 
ATOM     29  C   UNL     1       9.015   4.219  -9.395  1.00  0.00     0.029 A 
ATOM     30  N   UNL     1       8.045   2.266  -8.958  1.00  0.00    -0.354 N 
ATOM     31  N   UNL     1       7.436  -0.571  -9.454  1.00  0.00    -0.248 NA
ATOM     32  C   UNL     1       7.539  -2.463 -10.820  1.00  0.00     0.031 C 
ATOM     33  C   UNL     1       9.295   3.340 -10.447  1.00  0.00     0.029 A 
ATOM     34  C   UNL     1       8.707   2.117 -10.166  1.00  0.00     0.049 A 
ATOM     35  H   UNL     1       7.530   1.559  -8.505  1.00  0.00     0.167 HD
ATOM     36  C   UNL     1       8.174  -0.271 -10.588  1.00  0.00     0.074 A 
ATOM     37  C   UNL     1       8.232  -1.482 -11.381  1.00  0.00     0.031 C 
ATOM     38  C   UNL     1       8.746   0.905 -10.944  1.00  0.00     0.037 A 
BRANCH  25  39
ATOM     39  C   UNL     1       7.860   5.509  -6.920  1.00  0.00     0.064 A 
ATOM     40  C   UNL     1       8.719   5.907  -5.885  1.00  0.00     0.173 A 
ATOM     41  C   UNL     1       7.237   6.513  -7.677  1.00  0.00     0.173 A 
ATOM     42  F   UNL     1       9.330   4.987  -5.124  1.00  0.00    -0.203 F 
ATOM     43  C   UNL     1       8.929   7.256  -5.607  1.00  0.00     0.198 A 
ATOM     44  C   UNL     1       7.469   7.861  -7.413  1.00  0.00     0.198 A 
ATOM     45  F   UNL     1       6.410   6.188  -8.682  1.00  0.00    -0.203 F 
ATOM     46  F   UNL     1       9.723   7.612  -4.588  1.00  0.00    -0.200 F 
ATOM     47  C   UNL     1       8.310   8.231  -6.375  1.00  0.00     0.200 A 
ATOM     48  F   UNL     1       6.879   8.801  -8.164  1.00  0.00    -0.200 F 
ATOM     49  F   UNL     1       8.519   9.528  -6.110  1.00  0.00    -0.200 F 
ENDBRANCH  25  39
BRANCH  26  50
ATOM     50  C   UNL     1       5.954  -4.091  -8.959  1.00  0.00     0.064 A 
ATOM     51  C   UNL     1       6.955  -5.070  -8.921  1.00  0.00     0.173 A 
ATOM     52  C   UNL     1       4.646  -4.503  -9.258  1.00  0.00     0.173 A 
ATOM     53  F   UNL     1       8.223  -4.721  -8.656  1.00  0.00    -0.203 F 
ATOM     54  C   UNL     1       6.661  -6.407  -9.178  1.00  0.00     0.198 A 
ATOM     55  C   UNL     1       4.348  -5.844  -9.484  1.00  0.00     0.198 A 
ATOM     56  F   UNL     1       3.652  -3.604  -9.297  1.00  0.00    -0.203 F 
ATOM     57  F   UNL     1       7.642  -7.320  -9.168  1.00  0.00    -0.200 F 
ATOM     58  C   UNL     1       5.357  -6.794  -9.450  1.00  0.00     0.200 A 
ATOM     59  F   UNL     1       3.084  -6.215  -9.726  1.00  0.00    -0.200 F 
ATOM     60  F   UNL     1       5.072  -8.083  -9.682  1.00  0.00    -0.200 F 
ENDBRANCH  26  50
BRANCH  38  61
ATOM     61  C   UNL     1       9.492   0.928 -12.244  1.00  0.00     0.064 A 
ATOM     62  C   UNL     1       8.818   0.911 -13.473  1.00  0.00     0.173 A 
ATOM     63  C   UNL     1      10.893   0.987 -12.259  1.00  0.00     0.173 A 
ATOM     64  F   UNL     1       7.479   0.836 -13.508  1.00  0.00    -0.203 F 
ATOM     65  C   UNL     1       9.523   0.928 -14.674  1.00  0.00     0.198 A 
ATOM     66  C   UNL     1      11.593   1.030 -13.461  1.00  0.00     0.198 A 
ATOM     67  F   UNL     1      11.582   1.008 -11.108  1.00  0.00    -0.203 F 
ATOM     68  F   UNL     1       8.861   0.863 -15.838  1.00  0.00    -0.200 F 
ATOM     69  C   UNL     1      10.908   0.994 -14.666  1.00  0.00     0.200 A 
ATOM     70  F   UNL     1      12.931   1.103 -13.453  1.00  0.00    -0.200 F 
ATOM     71  F   UNL     1      11.585   1.012 -15.823  1.00  0.00    -0.200 F 
ENDBRANCH  38  61
ENDBRANCH  12  13
ENDBRANCH   5   7
ENDBRANCH   2   3
ENDBRANCH   1   2
BRANCH   1  72
ATOM     72  C   UNL     1       4.920   0.984   3.447  1.00  0.00     0.118 C 
BRANCH  72  73
ATOM     73  N   UNL     1       5.339  -0.122   4.289  1.00  0.00    -0.352 N 
ATOM     74  C   UNL     1       5.831  -0.100   5.567  1.00  0.00     0.253 C 
ATOM     75  H   UNL     1       5.258  -1.016   3.884  1.00  0.00     0.163 HD
ATOM     76  O   UNL     1       6.141  -1.153   6.117  1.00  0.00    -0.269 OA
BRANCH  74  77
ATOM     77  C   UNL     1       6.037   1.171   6.281  1.00  0.00     0.065 A 
ATOM     78  C   UNL     1       7.339   1.409   6.713  1.00  0.00     0.125 A 
ATOM     79  C   UNL     1       5.033   2.115   6.568  1.00  0.00    -0.003 A 
ATOM     80  N   UNL     1       7.727   2.532   7.358  1.00  0.00    -0.264 NA
ATOM     81  C   UNL     1       5.434   3.278   7.248  1.00  0.00     0.029 A 
ATOM     82  C   UNL     1       6.764   3.440   7.611  1.00  0.00     0.111 A 
BRANCH  79  83
ATOM     83  C   UNL     1       3.619   1.954   6.167  1.00  0.00    -0.017 A 
ATOM     84  C   UNL     1       2.983   2.946   5.395  1.00  0.00     0.009 A 
ATOM     85  C   UNL     1       2.896   0.784   6.460  1.00  0.00     0.021 A 
ATOM     86  C   UNL     1       1.699   2.752   4.884  1.00  0.00     0.001 A 
ATOM     87  C   UNL     1       1.602   0.576   5.950  1.00  0.00     0.056 A 
ATOM     88  C   UNL     1       1.016   1.569   5.151  1.00  0.00     0.013 A 
BRANCH  87  89
ATOM     89  C   UNL     1       0.855  -0.709   6.213  1.00  0.00     0.416 C 
ATOM     90  F   UNL     1      -0.368  -0.496   6.773  1.00  0.00    -0.166 F 
ATOM     91  F   UNL     1       0.627  -1.413   5.069  1.00  0.00    -0.166 F 
ATOM     92  F   UNL     1       1.508  -1.561   7.050  1.00  0.00    -0.166 F 
ENDBRANCH  87  89
ENDBRANCH  79  83
ENDBRANCH  74  77
ENDBRANCH  72  73
ENDBRANCH   1  72
TORSDOF 12
