REMARK SMILES O=C(NCCCNC(=O)[C@H](CCOCC(F)(F)F)c1ccccc1Br)c1ccc(-c2c3nc(c(-c4c(F)c(F)c(F)c(F)c4F)c4ccc([nH]4)c(-c4c(F)c(F)c(F)c(F)c4F)c4nc(c(-c5c(F)c(F)c(F)c(F)c5F)c5ccc2[nH]5)C=C4)C=C3)cc1
REMARK SMILES IDX 7 1 8 2 9 3 6 5 5 6 4 7 3 8 1 9 2 10 26 12 27 13 88 14 28 15
REMARK SMILES IDX 87 16 29 17 30 18 31 19 81 20 32 21 86 22 80 23 82 24 33 25
REMARK SMILES IDX 85 26 79 27 78 28 34 30 66 31 46 32 65 33 47 34 50 35 64 36
REMARK SMILES IDX 83 37 48 38 49 39 63 41 84 42 51 43 35 44 36 45 44 46 37 47
REMARK SMILES IDX 38 48 42 49 45 50 39 51 40 52 43 53 41 54 67 55 68 56 76 57
REMARK SMILES IDX 69 58 70 59 74 60 77 61 71 62 72 63 75 64 73 65 52 66 53 67
REMARK SMILES IDX 61 68 54 69 55 70 59 71 62 72 56 73 57 74 60 75 58 76 10 77
REMARK SMILES IDX 19 78 20 79 24 80 21 81 23 82 25 83 22 84 11 85 12 86 13 87
REMARK SMILES IDX 14 88 15 89 16 90 17 91 18 92
REMARK H PARENT 7 4 3 11 82 29 50 40
REMARK Flexibility Score: inf
ROOT
ATOM      1  N   UNL     1       7.647   2.328  -5.051  1.00  0.00    -0.356 N 
ATOM      2  C   UNL     1       6.400   2.482  -4.529  1.00  0.00     0.227 C 
ATOM      3  O   UNL     1       5.996   1.577  -3.791  1.00  0.00    -0.274 OA
ATOM      4  H   UNL     1       8.050   1.447  -4.876  1.00  0.00     0.163 HD
ENDROOT
BRANCH   1   5
ATOM      5  C   UNL     1       8.497   3.224  -5.820  1.00  0.00     0.117 C 
BRANCH   5   6
ATOM      6  C   UNL     1       9.438   3.994  -4.891  1.00  0.00     0.042 C 
BRANCH   6   7
ATOM      7  C   UNL     1      10.885   3.977  -5.364  1.00  0.00     0.118 C 
BRANCH   7   8
ATOM      8  N   UNL     1      11.146   4.849  -6.498  1.00  0.00    -0.352 N 
ATOM      9  O   UNL     1      11.674   6.543  -7.830  1.00  0.00    -0.269 OA
ATOM     10  C   UNL     1      11.608   6.132  -6.667  1.00  0.00     0.251 C 
ATOM     11  H   UNL     1      10.942   4.413  -7.357  1.00  0.00     0.163 HD
BRANCH  10  12
ATOM     12  C   UNL     1      12.011   7.059  -5.569  1.00  0.00     0.039 A 
ATOM     13  C   UNL     1      12.371   6.649  -4.292  1.00  0.00     0.014 A 
ATOM     14  C   UNL     1      12.108   8.434  -5.860  1.00  0.00     0.014 A 
ATOM     15  C   UNL     1      12.678   7.576  -3.299  1.00  0.00     0.010 A 
ATOM     16  C   UNL     1      12.546   9.360  -4.896  1.00  0.00     0.010 A 
ATOM     17  C   UNL     1      12.821   8.939  -3.592  1.00  0.00    -0.014 A 
BRANCH  17  18
ATOM     18  C   UNL     1      13.349   9.831  -2.521  1.00  0.00     0.031 A 
ATOM     19  C   UNL     1      12.547  10.980  -1.976  1.00  0.00     0.074 A 
ATOM     20  C   UNL     1      14.538   9.520  -1.961  1.00  0.00     0.049 A 
ATOM     21  N   UNL     1      12.820  11.761  -0.958  1.00  0.00    -0.248 NA
ATOM     22  C   UNL     1      11.289  11.308  -2.660  1.00  0.00     0.031 C 
ATOM     23  C   UNL     1      15.430   8.454  -2.429  1.00  0.00     0.029 A 
ATOM     24  N   UNL     1      15.177  10.014  -0.851  1.00  0.00    -0.354 N 
ATOM     25  C   UNL     1      11.780  12.679  -0.891  1.00  0.00     0.074 A 
ATOM     26  C   UNL     1      10.883  12.377  -1.986  1.00  0.00     0.031 C 
ATOM     27  C   UNL     1      16.437   8.305  -1.559  1.00  0.00     0.029 A 
ATOM     28  C   UNL     1      16.313   9.315  -0.515  1.00  0.00     0.049 A 
ATOM     29  H   UNL     1      14.853  10.794  -0.345  1.00  0.00     0.167 HD
ATOM     30  C   UNL     1      11.590  13.675   0.009  1.00  0.00     0.037 A 
ATOM     31  C   UNL     1      17.166   9.466   0.515  1.00  0.00     0.037 A 
ATOM     32  C   UNL     1      12.476  13.961   1.110  1.00  0.00     0.049 A 
ATOM     33  C   UNL     1      16.909  10.558   1.512  1.00  0.00     0.074 A 
ATOM     34  C   UNL     1      12.367  14.950   2.073  1.00  0.00     0.029 A 
ATOM     35  N   UNL     1      13.633  13.251   1.399  1.00  0.00    -0.354 N 
ATOM     36  N   UNL     1      15.916  11.411   1.563  1.00  0.00    -0.248 NA
ATOM     37  C   UNL     1      17.896  10.716   2.588  1.00  0.00     0.031 C 
ATOM     38  C   UNL     1      13.472  14.859   2.926  1.00  0.00     0.029 A 
ATOM     39  C   UNL     1      14.249  13.786   2.521  1.00  0.00     0.049 A 
ATOM     40  H   UNL     1      13.966  12.481   0.885  1.00  0.00     0.167 HD
ATOM     41  C   UNL     1      16.161  12.214   2.667  1.00  0.00     0.074 A 
ATOM     42  C   UNL     1      17.371  11.713   3.286  1.00  0.00     0.031 C 
ATOM     43  C   UNL     1      15.460  13.283   3.115  1.00  0.00     0.037 A 
BRANCH  30  44
ATOM     44  C   UNL     1      10.376  14.543  -0.158  1.00  0.00     0.064 A 
ATOM     45  C   UNL     1       9.090  14.075   0.147  1.00  0.00     0.173 A 
ATOM     46  C   UNL     1      10.507  15.880  -0.566  1.00  0.00     0.173 A 
ATOM     47  F   UNL     1       8.909  12.803   0.532  1.00  0.00    -0.203 F 
ATOM     48  C   UNL     1       7.978  14.907   0.035  1.00  0.00     0.198 A 
ATOM     49  C   UNL     1       9.397  16.716  -0.653  1.00  0.00     0.198 A 
ATOM     50  F   UNL     1      11.716  16.381  -0.863  1.00  0.00    -0.203 F 
ATOM     51  F   UNL     1       6.755  14.429   0.302  1.00  0.00    -0.200 F 
ATOM     52  C   UNL     1       8.134  16.229  -0.356  1.00  0.00     0.200 A 
ATOM     53  F   UNL     1       9.551  17.997  -1.018  1.00  0.00    -0.200 F 
ATOM     54  F   UNL     1       7.065  17.032  -0.450  1.00  0.00    -0.200 F 
ENDBRANCH  30  44
BRANCH  31  55
ATOM     55  C   UNL     1      18.348   8.572   0.641  1.00  0.00     0.064 A 
ATOM     56  C   UNL     1      18.469   7.667   1.704  1.00  0.00     0.173 A 
ATOM     57  C   UNL     1      19.384   8.606  -0.305  1.00  0.00     0.173 A 
ATOM     58  F   UNL     1      17.516   7.609   2.647  1.00  0.00    -0.203 F 
ATOM     59  C   UNL     1      19.586   6.843   1.825  1.00  0.00     0.198 A 
ATOM     60  C   UNL     1      20.483   7.757  -0.204  1.00  0.00     0.198 A 
ATOM     61  F   UNL     1      19.318   9.452  -1.344  1.00  0.00    -0.203 F 
ATOM     62  F   UNL     1      19.699   6.019   2.876  1.00  0.00    -0.200 F 
ATOM     63  C   UNL     1      20.588   6.882   0.866  1.00  0.00     0.200 A 
ATOM     64  F   UNL     1      21.437   7.785  -1.144  1.00  0.00    -0.200 F 
ATOM     65  F   UNL     1      21.657   6.082   0.977  1.00  0.00    -0.200 F 
ENDBRANCH  31  55
BRANCH  43  66
ATOM     66  C   UNL     1      15.996  13.976   4.332  1.00  0.00     0.064 A 
ATOM     67  C   UNL     1      17.163  14.754   4.273  1.00  0.00     0.173 A 
ATOM     68  C   UNL     1      15.343  13.860   5.567  1.00  0.00     0.173 A 
ATOM     69  F   UNL     1      17.833  14.880   3.118  1.00  0.00    -0.203 F 
ATOM     70  C   UNL     1      17.675  15.361   5.416  1.00  0.00     0.198 A 
ATOM     71  C   UNL     1      15.843  14.492   6.702  1.00  0.00     0.198 A 
ATOM     72  F   UNL     1      14.223  13.130   5.674  1.00  0.00    -0.203 F 
ATOM     73  F   UNL     1      18.823  16.050   5.349  1.00  0.00    -0.200 F 
ATOM     74  C   UNL     1      17.013  15.233   6.628  1.00  0.00     0.200 A 
ATOM     75  F   UNL     1      15.199  14.373   7.871  1.00  0.00    -0.200 F 
ATOM     76  F   UNL     1      17.511  15.813   7.728  1.00  0.00    -0.200 F 
ENDBRANCH  43  66
ENDBRANCH  17  18
ENDBRANCH  10  12
ENDBRANCH   7   8
ENDBRANCH   6   7
ENDBRANCH   5   6
ENDBRANCH   1   5
BRANCH   2  77
ATOM     77  C   UNL     1       5.522   3.711  -4.866  1.00  0.00     0.112 C 
BRANCH  77  78
ATOM     78  C   UNL     1       4.240   3.307  -5.641  1.00  0.00    -0.021 A 
ATOM     79  C   UNL     1       4.288   2.093  -6.380  1.00  0.00     0.006 A 
ATOM     80  C   UNL     1       3.076   4.086  -5.832  1.00  0.00     0.021 A 
ATOM     81  C   UNL     1       3.270   1.684  -7.248  1.00  0.00     0.000 A 
ATOM     82  C   UNL     1       2.070   3.681  -6.733  1.00  0.00     0.016 A 
ATOM     83  Br  UNL     1       2.652   5.730  -4.977  1.00  0.00    -0.051 Br
ATOM     84  C   UNL     1       2.166   2.491  -7.441  1.00  0.00     0.001 A 
ENDBRANCH  77  78
BRANCH  77  85
ATOM     85  C   UNL     1       5.406   4.489  -3.530  1.00  0.00     0.047 C 
BRANCH  85  86
ATOM     86  C   UNL     1       6.270   5.761  -3.486  1.00  0.00     0.161 C 
BRANCH  86  87
ATOM     87  O   UNL     1       5.648   6.924  -4.016  1.00  0.00    -0.372 OA
BRANCH  87  88
ATOM     88  C   UNL     1       5.746   7.157  -5.427  1.00  0.00     0.275 C 
BRANCH  88  89
ATOM     89  C   UNL     1       7.128   7.438  -6.007  1.00  0.00     0.411 C 
ATOM     90  F   UNL     1       7.847   6.300  -6.117  1.00  0.00    -0.168 F 
ATOM     91  F   UNL     1       7.018   7.952  -7.254  1.00  0.00    -0.168 F 
ATOM     92  F   UNL     1       7.836   8.310  -5.263  1.00  0.00    -0.168 F 
ENDBRANCH  88  89
ENDBRANCH  87  88
ENDBRANCH  86  87
ENDBRANCH  85  86
ENDBRANCH  77  85
ENDBRANCH   2  77
TORSDOF 16
