REMARK SMILES O=C(NCCCNC(=O)[C@H]1[C@H]2CC[C@H](C2)[C@@H]1C(=O)N1CC[NH+](C2CCCCC2)CC1)c1ccc(-c2c3nc(c(-c4c(F)c(F)c(F)c(F)c4F)c4ccc([nH]4)c(-c4c(F)c(F)c(F)c(F)c4F)c4nc(c(-c5c(F)c(F)c(F)c(F)c5F)c5ccc2[nH]5)C=C4)C=C3)cc1
REMARK SMILES IDX 5 1 4 2 3 3 1 4 2 5 31 7 32 8 93 9 33 10 92 11 34 12 35 13
REMARK SMILES IDX 36 14 86 15 37 16 91 17 85 18 87 19 38 20 90 21 84 22 83 23
REMARK SMILES IDX 39 25 71 26 51 27 70 28 52 29 55 30 69 31 88 32 53 33 54 34
REMARK SMILES IDX 68 36 89 37 56 38 40 39 41 40 49 41 42 42 43 43 47 44 50 45
REMARK SMILES IDX 44 46 45 47 48 48 46 49 72 50 73 51 81 52 74 53 75 54 79 55
REMARK SMILES IDX 82 56 76 57 77 58 80 59 78 60 57 61 58 62 66 63 59 64 60 65
REMARK SMILES IDX 64 66 67 67 61 68 62 69 65 70 63 71 6 72 7 73 8 74 9 76
REMARK SMILES IDX 10 77 11 78 16 79 12 80 15 81 14 82 13 83 17 84 18 85 19 86
REMARK SMILES IDX 20 87 30 88 21 89 29 90 22 91 23 93 24 94 28 95 25 96 27 97
REMARK SMILES IDX 26 98
REMARK H PARENT 3 6 87 24 55 35 7 75 22 92
REMARK Flexibility Score: inf
ROOT
ATOM      1  C   UNL     1       2.304  -0.041   5.907  1.00  0.00     0.042 C 
ENDROOT
BRANCH   1   2
ATOM      2  C   UNL     1       1.193  -0.329   6.894  1.00  0.00     0.118 C 
BRANCH   2   3
ATOM      3  N   UNL     1       1.167   0.651   7.977  1.00  0.00    -0.352 N 
ATOM      4  O   UNL     1       0.818   2.673   8.910  1.00  0.00    -0.269 OA
ATOM      5  C   UNL     1       0.476   1.834   8.086  1.00  0.00     0.251 C 
ATOM      6  H   UNL     1       1.733   0.429   8.751  1.00  0.00     0.163 HD
BRANCH   5   7
ATOM      7  C   UNL     1      -0.675   2.090   7.200  1.00  0.00     0.039 A 
ATOM      8  C   UNL     1      -1.537   1.048   6.862  1.00  0.00     0.014 A 
ATOM      9  C   UNL     1      -0.921   3.384   6.733  1.00  0.00     0.014 A 
ATOM     10  C   UNL     1      -2.521   1.243   5.910  1.00  0.00     0.010 A 
ATOM     11  C   UNL     1      -2.006   3.611   5.886  1.00  0.00     0.010 A 
ATOM     12  C   UNL     1      -2.796   2.535   5.449  1.00  0.00    -0.014 A 
BRANCH  12  13
ATOM     13  C   UNL     1      -3.979   2.752   4.589  1.00  0.00     0.031 A 
ATOM     14  C   UNL     1      -3.830   3.308   3.208  1.00  0.00     0.074 A 
ATOM     15  C   UNL     1      -5.192   2.450   5.087  1.00  0.00     0.049 A 
ATOM     16  N   UNL     1      -4.760   3.656   2.356  1.00  0.00    -0.248 NA
ATOM     17  C   UNL     1      -2.458   3.516   2.723  1.00  0.00     0.031 C 
ATOM     18  C   UNL     1      -5.441   1.896   6.421  1.00  0.00     0.029 A 
ATOM     19  N   UNL     1      -6.443   2.569   4.541  1.00  0.00    -0.354 N 
ATOM     20  C   UNL     1      -4.089   4.155   1.249  1.00  0.00     0.074 A 
ATOM     21  C   UNL     1      -2.674   4.085   1.545  1.00  0.00     0.031 C 
ATOM     22  C   UNL     1      -6.755   1.706   6.583  1.00  0.00     0.029 A 
ATOM     23  C   UNL     1      -7.447   2.208   5.404  1.00  0.00     0.049 A 
ATOM     24  H   UNL     1      -6.605   2.881   3.622  1.00  0.00     0.167 HD
ATOM     25  C   UNL     1      -4.617   4.629   0.095  1.00  0.00     0.037 A 
ATOM     26  C   UNL     1      -8.781   2.321   5.286  1.00  0.00     0.037 A 
ATOM     27  C   UNL     1      -6.032   4.682  -0.173  1.00  0.00     0.049 A 
ATOM     28  C   UNL     1      -9.343   2.890   4.019  1.00  0.00     0.074 A 
ATOM     29  C   UNL     1      -6.677   5.103  -1.322  1.00  0.00     0.029 A 
ATOM     30  N   UNL     1      -7.022   4.315   0.730  1.00  0.00    -0.354 N 
ATOM     31  N   UNL     1      -8.705   3.336   2.964  1.00  0.00    -0.248 NA
ATOM     32  C   UNL     1     -10.804   2.976   3.923  1.00  0.00     0.031 C 
ATOM     33  C   UNL     1      -8.056   5.055  -1.089  1.00  0.00     0.029 A 
ATOM     34  C   UNL     1      -8.274   4.533   0.177  1.00  0.00     0.049 A 
ATOM     35  H   UNL     1      -6.858   3.952   1.631  1.00  0.00     0.167 HD
ATOM     36  C   UNL     1      -9.682   3.733   2.067  1.00  0.00     0.074 A 
ATOM     37  C   UNL     1     -10.959   3.473   2.702  1.00  0.00     0.031 C 
ATOM     38  C   UNL     1      -9.534   4.259   0.826  1.00  0.00     0.037 A 
BRANCH  25  39
ATOM     39  C   UNL     1      -3.664   5.172  -0.932  1.00  0.00     0.064 A 
ATOM     40  C   UNL     1      -2.760   4.350  -1.622  1.00  0.00     0.173 A 
ATOM     41  C   UNL     1      -3.656   6.544  -1.231  1.00  0.00     0.173 A 
ATOM     42  F   UNL     1      -2.716   3.033  -1.371  1.00  0.00    -0.203 F 
ATOM     43  C   UNL     1      -1.853   4.886  -2.534  1.00  0.00     0.198 A 
ATOM     44  C   UNL     1      -2.773   7.071  -2.170  1.00  0.00     0.198 A 
ATOM     45  F   UNL     1      -4.504   7.377  -0.609  1.00  0.00    -0.203 F 
ATOM     46  F   UNL     1      -0.951   4.091  -3.126  1.00  0.00    -0.200 F 
ATOM     47  C   UNL     1      -1.863   6.245  -2.810  1.00  0.00     0.200 A 
ATOM     48  F   UNL     1      -2.796   8.383  -2.446  1.00  0.00    -0.200 F 
ATOM     49  F   UNL     1      -0.987   6.760  -3.683  1.00  0.00    -0.200 F 
ENDBRANCH  25  39
BRANCH  26  50
ATOM     50  C   UNL     1      -9.642   1.906   6.421  1.00  0.00     0.064 A 
ATOM     51  C   UNL     1     -10.427   0.750   6.349  1.00  0.00     0.173 A 
ATOM     52  C   UNL     1      -9.630   2.615   7.633  1.00  0.00     0.173 A 
ATOM     53  F   UNL     1     -10.476   0.044   5.210  1.00  0.00    -0.203 F 
ATOM     54  C   UNL     1     -11.172   0.319   7.445  1.00  0.00     0.198 A 
ATOM     55  C   UNL     1     -10.350   2.167   8.737  1.00  0.00     0.198 A 
ATOM     56  F   UNL     1      -8.879   3.719   7.758  1.00  0.00    -0.203 F 
ATOM     57  F   UNL     1     -11.932  -0.779   7.345  1.00  0.00    -0.200 F 
ATOM     58  C   UNL     1     -11.124   1.021   8.641  1.00  0.00     0.200 A 
ATOM     59  F   UNL     1     -10.278   2.834   9.897  1.00  0.00    -0.200 F 
ATOM     60  F   UNL     1     -11.820   0.591   9.701  1.00  0.00    -0.200 F 
ENDBRANCH  26  50
BRANCH  38  61
ATOM     61  C   UNL     1     -10.782   4.547   0.047  1.00  0.00     0.064 A 
ATOM     62  C   UNL     1     -11.614   5.631   0.357  1.00  0.00     0.173 A 
ATOM     63  C   UNL     1     -11.102   3.770  -1.077  1.00  0.00     0.173 A 
ATOM     64  F   UNL     1     -11.361   6.392   1.432  1.00  0.00    -0.203 F 
ATOM     65  C   UNL     1     -12.726   5.923  -0.428  1.00  0.00     0.198 A 
ATOM     66  C   UNL     1     -12.196   4.083  -1.877  1.00  0.00     0.198 A 
ATOM     67  F   UNL     1     -10.334   2.723  -1.415  1.00  0.00    -0.203 F 
ATOM     68  F   UNL     1     -13.527   6.946  -0.098  1.00  0.00    -0.200 F 
ATOM     69  C   UNL     1     -13.008   5.158  -1.551  1.00  0.00     0.200 A 
ATOM     70  F   UNL     1     -12.456   3.352  -2.969  1.00  0.00    -0.200 F 
ATOM     71  F   UNL     1     -14.066   5.456  -2.318  1.00  0.00    -0.200 F 
ENDBRANCH  38  61
ENDBRANCH  12  13
ENDBRANCH   5   7
ENDBRANCH   2   3
ENDBRANCH   1   2
BRANCH   1  72
ATOM     72  C   UNL     1       3.666  -0.139   6.552  1.00  0.00     0.117 C 
BRANCH  72  73
ATOM     73  N   UNL     1       4.050  -1.499   6.851  1.00  0.00    -0.356 N 
ATOM     74  C   UNL     1       5.215  -2.164   6.659  1.00  0.00     0.224 C 
ATOM     75  H   UNL     1       3.340  -2.038   7.269  1.00  0.00     0.163 HD
ATOM     76  O   UNL     1       5.265  -3.300   7.138  1.00  0.00    -0.275 OA
BRANCH  74  77
ATOM     77  C   UNL     1       6.352  -1.617   5.798  1.00  0.00     0.094 C 
ATOM     78  C   UNL     1       6.648  -0.098   5.787  1.00  0.00     0.002 C 
ATOM     79  C   UNL     1       7.715  -2.197   6.287  1.00  0.00     0.094 C 
ATOM     80  C   UNL     1       6.874   0.439   7.205  1.00  0.00     0.005 C 
ATOM     81  C   UNL     1       8.055  -0.039   5.230  1.00  0.00     0.009 C 
ATOM     82  C   UNL     1       8.630  -0.951   6.308  1.00  0.00     0.002 C 
ATOM     83  C   UNL     1       8.264  -0.114   7.556  1.00  0.00     0.005 C 
BRANCH  79  84
ATOM     84  C   UNL     1       8.137  -3.447   5.500  1.00  0.00     0.227 C 
ATOM     85  O   UNL     1       8.217  -4.537   6.072  1.00  0.00    -0.275 OA
ATOM     86  N   UNL     1       8.258  -3.369   4.130  1.00  0.00    -0.331 N 
ATOM     87  C   UNL     1       7.843  -4.516   3.320  1.00  0.00     0.181 C 
ATOM     88  C   UNL     1       9.206  -2.495   3.462  1.00  0.00     0.181 C 
ATOM     89  C   UNL     1       7.408  -4.093   1.891  1.00  0.00     0.284 C 
ATOM     90  C   UNL     1       8.611  -2.015   2.135  1.00  0.00     0.284 C 
ATOM     91  N   UNL     1       8.269  -3.103   1.202  1.00  0.00    -0.330 N 
ATOM     92  H   UNL     1       7.730  -2.675   0.449  1.00  0.00     0.348 HD
BRANCH  91  93
ATOM     93  C   UNL     1       9.369  -3.672   0.389  1.00  0.00     0.184 C 
ATOM     94  C   UNL     1      10.192  -2.557  -0.301  1.00  0.00     0.065 C 
ATOM     95  C   UNL     1      10.257  -4.731   1.079  1.00  0.00     0.065 C 
ATOM     96  C   UNL     1      11.372  -3.083  -1.106  1.00  0.00     0.006 C 
ATOM     97  C   UNL     1      11.494  -5.141   0.286  1.00  0.00     0.006 C 
ATOM     98  C   UNL     1      12.267  -3.932  -0.216  1.00  0.00     0.000 C 
ENDBRANCH  91  93
ENDBRANCH  79  84
ENDBRANCH  74  77
ENDBRANCH  72  73
ENDBRANCH   1  72
TORSDOF 12
