REMARK SMILES C[C@@]([NH2+]CC(=O)NC1CCOCC1)(C(=O)NCCCNC(=O)c1ccc(-c2c3nc(c(-c4c(F)c(F)c(F)c(F)c4F)c4ccc([nH]4)c(-c4c(F)c(F)c(F)c(F)c4F)c4nc(c(-c5c(F)c(F)c(F)c(F)c5F)c5ccc2[nH]5)C=C4)C=C3)cc1)C(F)(F)F
REMARK SMILES IDX 17 1 16 2 14 3 15 4 2 6 1 7 3 8 4 11 5 12 6 13 7 14 8 16
REMARK SMILES IDX 9 17 13 18 10 19 12 20 11 21 86 22 87 23 88 24 89 25 18 26
REMARK SMILES IDX 19 27 20 28 21 29 22 31 23 32 24 33 85 34 25 35 84 36 26 37
REMARK SMILES IDX 27 38 28 39 78 40 29 41 83 42 77 43 79 44 30 45 82 46 76 47
REMARK SMILES IDX 75 48 31 50 63 51 43 52 62 53 44 54 47 55 61 56 80 57 45 58
REMARK SMILES IDX 46 59 60 61 81 62 48 63 32 64 33 65 41 66 34 67 35 68 39 69
REMARK SMILES IDX 42 70 36 71 37 72 40 73 38 74 64 75 65 76 73 77 66 78 67 79
REMARK SMILES IDX 71 80 74 81 68 82 69 83 72 84 70 85 49 86 50 87 58 88 51 89
REMARK SMILES IDX 52 90 56 91 59 92 53 93 54 94 57 95 55 96
REMARK H PARENT 16 5 3 9 3 10 7 15 20 30 79 49 47 60
REMARK Flexibility Score: inf
ROOT
ATOM      1  C   UNL     1      -0.575  -2.331  -0.497  1.00  0.00     0.118 C 
ENDROOT
BRANCH   1   2
ATOM      2  N   UNL     1      -0.820  -0.899  -0.453  1.00  0.00    -0.350 N 
ATOM      3  C   UNL     1       0.035   0.156  -0.325  1.00  0.00     0.290 C 
ATOM      4  O   UNL     1      -0.472   1.167   0.171  1.00  0.00    -0.267 OA
ATOM      5  H   UNL     1      -1.769  -0.646  -0.527  1.00  0.00     0.163 HD
BRANCH   3   6
ATOM      6  C   UNL     1       1.506   0.107  -0.779  1.00  0.00     0.268 C 
ATOM      7  C   UNL     1       2.287  -0.648   0.317  1.00  0.00     0.101 C 
BRANCH   6   8
ATOM      8  N   UNL     1       1.700  -0.643  -2.078  1.00  0.00    -0.318 N 
ATOM      9  H   UNL     1       1.695  -1.638  -1.853  1.00  0.00     0.347 HD
ATOM     10  H   UNL     1       2.572  -0.268  -2.452  1.00  0.00     0.347 HD
BRANCH   8  11
ATOM     11  C   UNL     1       0.723  -0.439  -3.172  1.00  0.00     0.362 C 
BRANCH  11  12
ATOM     12  C   UNL     1       0.856   0.862  -3.969  1.00  0.00     0.275 C 
ATOM     13  O   UNL     1       1.845   1.067  -4.676  1.00  0.00    -0.268 OA
ATOM     14  N   UNL     1      -0.146   1.798  -3.942  1.00  0.00    -0.348 N 
ATOM     15  H   UNL     1      -0.183   2.412  -4.711  1.00  0.00     0.163 HD
BRANCH  14  16
ATOM     16  C   UNL     1      -1.164   1.996  -2.917  1.00  0.00     0.086 C 
ATOM     17  C   UNL     1      -2.430   1.158  -3.091  1.00  0.00     0.053 C 
ATOM     18  C   UNL     1      -1.534   3.471  -2.739  1.00  0.00     0.053 C 
ATOM     19  C   UNL     1      -3.388   1.433  -1.935  1.00  0.00     0.162 C 
ATOM     20  C   UNL     1      -2.527   3.611  -1.590  1.00  0.00     0.162 C 
ATOM     21  O   UNL     1      -3.691   2.822  -1.844  1.00  0.00    -0.381 OA
ENDBRANCH  14  16
ENDBRANCH  11  12
ENDBRANCH   8  11
ENDBRANCH   6   8
BRANCH   6  22
ATOM     22  C   UNL     1       2.076   1.560  -0.770  1.00  0.00     0.453 C 
ATOM     23  F   UNL     1       1.940   2.181   0.421  1.00  0.00    -0.164 F 
ATOM     24  F   UNL     1       3.412   1.524  -1.033  1.00  0.00    -0.164 F 
ATOM     25  F   UNL     1       1.527   2.353  -1.712  1.00  0.00    -0.164 F 
ENDBRANCH   6  22
ENDBRANCH   3   6
ENDBRANCH   1   2
BRANCH   1  26
ATOM     26  C   UNL     1      -0.981  -2.933   0.847  1.00  0.00     0.042 C 
BRANCH  26  27
ATOM     27  C   UNL     1      -2.493  -2.913   1.076  1.00  0.00     0.118 C 
BRANCH  27  28
ATOM     28  N   UNL     1      -3.180  -3.932   0.299  1.00  0.00    -0.352 N 
ATOM     29  C   UNL     1      -3.899  -5.020   0.731  1.00  0.00     0.251 C 
ATOM     30  H   UNL     1      -3.120  -3.828  -0.678  1.00  0.00     0.163 HD
ATOM     31  O   UNL     1      -4.225  -5.892  -0.065  1.00  0.00    -0.269 OA
BRANCH  29  32
ATOM     32  C   UNL     1      -4.262  -5.152   2.159  1.00  0.00     0.039 A 
ATOM     33  C   UNL     1      -4.095  -6.391   2.782  1.00  0.00     0.014 A 
ATOM     34  C   UNL     1      -4.782  -4.072   2.878  1.00  0.00     0.014 A 
ATOM     35  C   UNL     1      -4.392  -6.532   4.139  1.00  0.00     0.010 A 
ATOM     36  C   UNL     1      -5.007  -4.193   4.248  1.00  0.00     0.010 A 
ATOM     37  C   UNL     1      -4.816  -5.425   4.894  1.00  0.00    -0.014 A 
BRANCH  37  38
ATOM     38  C   UNL     1      -5.052  -5.540   6.357  1.00  0.00     0.031 A 
ATOM     39  C   UNL     1      -6.426  -5.320   6.929  1.00  0.00     0.074 A 
ATOM     40  C   UNL     1      -4.015  -5.790   7.180  1.00  0.00     0.049 A 
ATOM     41  N   UNL     1      -6.813  -5.325   8.180  1.00  0.00    -0.248 NA
ATOM     42  C   UNL     1      -7.503  -5.034   5.970  1.00  0.00     0.031 C 
ATOM     43  C   UNL     1      -2.627  -5.980   6.756  1.00  0.00     0.029 A 
ATOM     44  N   UNL     1      -3.964  -5.917   8.547  1.00  0.00    -0.354 N 
ATOM     45  C   UNL     1      -8.171  -5.034   8.158  1.00  0.00     0.074 A 
ATOM     46  C   UNL     1      -8.530  -4.803   6.775  1.00  0.00     0.031 C 
ATOM     47  C   UNL     1      -1.866  -6.222   7.835  1.00  0.00     0.029 A 
ATOM     48  C   UNL     1      -2.702  -6.162   9.031  1.00  0.00     0.049 A 
ATOM     49  H   UNL     1      -4.757  -5.840   9.125  1.00  0.00     0.167 HD
ATOM     50  C   UNL     1      -9.043  -4.985   9.194  1.00  0.00     0.037 A 
ATOM     51  C   UNL     1      -2.264  -6.311  10.296  1.00  0.00     0.037 A 
ATOM     52  C   UNL     1      -8.687  -5.230  10.568  1.00  0.00     0.049 A 
ATOM     53  C   UNL     1      -3.251  -6.231  11.430  1.00  0.00     0.074 A 
ATOM     54  C   UNL     1      -9.509  -5.258  11.681  1.00  0.00     0.029 A 
ATOM     55  N   UNL     1      -7.399  -5.482  11.018  1.00  0.00    -0.354 N 
ATOM     56  N   UNL     1      -4.545  -6.025  11.389  1.00  0.00    -0.248 NA
ATOM     57  C   UNL     1      -2.716  -6.411  12.786  1.00  0.00     0.031 C 
ATOM     58  C   UNL     1      -8.712  -5.469  12.810  1.00  0.00     0.029 A 
ATOM     59  C   UNL     1      -7.401  -5.638  12.395  1.00  0.00     0.049 A 
ATOM     60  H   UNL     1      -6.601  -5.541  10.444  1.00  0.00     0.167 HD
ATOM     61  C   UNL     1      -4.982  -6.082  12.706  1.00  0.00     0.074 A 
ATOM     62  C   UNL     1      -3.818  -6.359  13.520  1.00  0.00     0.031 C 
ATOM     63  C   UNL     1      -6.236  -5.921  13.196  1.00  0.00     0.037 A 
BRANCH  50  64
ATOM     64  C   UNL     1     -10.476  -4.652   8.882  1.00  0.00     0.064 A 
ATOM     65  C   UNL     1     -11.303  -5.539   8.177  1.00  0.00     0.173 A 
ATOM     66  C   UNL     1     -11.041  -3.448   9.331  1.00  0.00     0.173 A 
ATOM     67  F   UNL     1     -10.812  -6.700   7.716  1.00  0.00    -0.203 F 
ATOM     68  C   UNL     1     -12.631  -5.221   7.905  1.00  0.00     0.198 A 
ATOM     69  C   UNL     1     -12.379  -3.148   9.088  1.00  0.00     0.198 A 
ATOM     70  F   UNL     1     -10.299  -2.566  10.018  1.00  0.00    -0.203 F 
ATOM     71  F   UNL     1     -13.386  -6.061   7.184  1.00  0.00    -0.200 F 
ATOM     72  C   UNL     1     -13.170  -4.030   8.368  1.00  0.00     0.200 A 
ATOM     73  F   UNL     1     -12.902  -2.004   9.550  1.00  0.00    -0.200 F 
ATOM     74  F   UNL     1     -14.451  -3.729   8.114  1.00  0.00    -0.200 F 
ENDBRANCH  50  64
BRANCH  51  75
ATOM     75  C   UNL     1      -0.824  -6.570  10.559  1.00  0.00     0.064 A 
ATOM     76  C   UNL     1      -0.393  -7.805  11.063  1.00  0.00     0.173 A 
ATOM     77  C   UNL     1       0.150  -5.587  10.325  1.00  0.00     0.173 A 
ATOM     78  F   UNL     1      -1.288  -8.770  11.324  1.00  0.00    -0.203 F 
ATOM     79  C   UNL     1       0.951  -8.039  11.346  1.00  0.00     0.198 A 
ATOM     80  C   UNL     1       1.497  -5.834  10.577  1.00  0.00     0.198 A 
ATOM     81  F   UNL     1      -0.208  -4.390   9.837  1.00  0.00    -0.203 F 
ATOM     82  F   UNL     1       1.327  -9.211  11.877  1.00  0.00    -0.200 F 
ATOM     83  C   UNL     1       1.896  -7.055  11.097  1.00  0.00     0.200 A 
ATOM     84  F   UNL     1       2.409  -4.886  10.319  1.00  0.00    -0.200 F 
ATOM     85  F   UNL     1       3.189  -7.282  11.366  1.00  0.00    -0.200 F 
ENDBRANCH  51  75
BRANCH  63  86
ATOM     86  C   UNL     1      -6.425  -6.081  14.678  1.00  0.00     0.064 A 
ATOM     87  C   UNL     1      -5.931  -5.139  15.593  1.00  0.00     0.173 A 
ATOM     88  C   UNL     1      -7.139  -7.177  15.187  1.00  0.00     0.173 A 
ATOM     89  F   UNL     1      -5.229  -4.081  15.161  1.00  0.00    -0.203 F 
ATOM     90  C   UNL     1      -6.120  -5.304  16.963  1.00  0.00     0.198 A 
ATOM     91  C   UNL     1      -7.356  -7.321  16.554  1.00  0.00     0.198 A 
ATOM     92  F   UNL     1      -7.639  -8.104  14.355  1.00  0.00    -0.203 F 
ATOM     93  F   UNL     1      -5.592  -4.421  17.821  1.00  0.00    -0.200 F 
ATOM     94  C   UNL     1      -6.838  -6.390  17.442  1.00  0.00     0.200 A 
ATOM     95  F   UNL     1      -8.064  -8.362  17.013  1.00  0.00    -0.200 F 
ATOM     96  F   UNL     1      -7.025  -6.543  18.760  1.00  0.00    -0.200 F 
ENDBRANCH  63  86
ENDBRANCH  37  38
ENDBRANCH  29  32
ENDBRANCH  27  28
ENDBRANCH  26  27
ENDBRANCH   1  26
TORSDOF 15
