REMARK SMILES CC[C@@]1(C(=O)NCCCNC(=O)c2ccc(-c3c4nc(c(-c5c(F)c(F)c(F)c(F)c5F)c5ccc([nH]5)c(-c5c(F)c(F)c(F)c(F)c5F)c5nc(c(-c6c(F)c(F)c(F)c(F)c6F)c6ccc3[nH]6)C=C5)C=C4)cc2)CCC[N@@H+](Cc2ccc(C3CC3)cc2)C1
REMARK SMILES IDX 7 1 6 2 4 3 5 4 3 6 76 7 90 8 77 9 79 10 78 11 2 13 1 14
REMARK SMILES IDX 80 15 81 16 82 17 89 18 83 19 88 20 84 21 85 22 86 23 87 24
REMARK SMILES IDX 8 25 9 26 10 27 11 28 12 30 13 31 14 32 75 33 15 34 74 35
REMARK SMILES IDX 16 36 17 37 18 38 68 39 19 40 73 41 67 42 69 43 20 44 72 45
REMARK SMILES IDX 66 46 65 47 21 49 53 50 33 51 52 52 34 53 37 54 51 55 70 56
REMARK SMILES IDX 35 57 36 58 50 60 71 61 38 62 22 63 23 64 31 65 24 66 25 67
REMARK SMILES IDX 29 68 32 69 26 70 27 71 30 72 28 73 54 74 55 75 63 76 56 77
REMARK SMILES IDX 57 78 61 79 64 80 58 81 59 82 62 83 60 84 39 85 40 86 48 87
REMARK SMILES IDX 41 88 42 89 46 90 49 91 43 92 44 93 47 94 45 95
REMARK H PARENT 6 5 79 12 10 29 69 48 37 59
REMARK Flexibility Score: inf
ROOT
ATOM      1  C   UNL     1      -1.560  -0.077   0.715  1.00  0.00     0.117 C 
ENDROOT
BRANCH   1   2
ATOM      2  N   UNL     1      -0.478  -0.584  -0.089  1.00  0.00    -0.355 N 
ATOM      3  C   UNL     1       0.456  -1.537   0.143  1.00  0.00     0.231 C 
ATOM      4  O   UNL     1       1.046  -1.908  -0.886  1.00  0.00    -0.274 OA
ATOM      5  H   UNL     1      -0.402  -0.156  -0.973  1.00  0.00     0.163 HD
BRANCH   3   6
ATOM      6  C   UNL     1       0.882  -2.139   1.522  1.00  0.00     0.098 C 
ATOM      7  C   UNL     1       0.689  -3.675   1.441  1.00  0.00     0.028 C 
ATOM      8  C   UNL     1       0.196  -1.650   2.814  1.00  0.00     0.279 C 
ATOM      9  C   UNL     1      -0.779  -4.074   1.632  1.00  0.00     0.063 C 
ATOM     10  N   UNL     1      -1.204  -2.075   2.958  1.00  0.00    -0.330 N 
ATOM     11  C   UNL     1      -1.363  -3.520   2.938  1.00  0.00     0.262 C 
ATOM     12  H   UNL     1      -1.662  -1.756   2.105  1.00  0.00     0.348 HD
BRANCH   6  13
ATOM     13  C   UNL     1       2.411  -1.769   1.601  1.00  0.00     0.019 C 
ATOM     14  C   UNL     1       3.218  -2.310   2.778  1.00  0.00     0.005 C 
ENDBRANCH   6  13
BRANCH  10  15
ATOM     15  C   UNL     1      -1.988  -1.356   3.975  1.00  0.00     0.299 C 
BRANCH  15  16
ATOM     16  C   UNL     1      -1.503  -1.434   5.396  1.00  0.00     0.006 A 
ATOM     17  C   UNL     1      -2.222  -2.150   6.351  1.00  0.00     0.010 A 
ATOM     18  C   UNL     1      -0.339  -0.769   5.794  1.00  0.00     0.010 A 
ATOM     19  C   UNL     1      -1.723  -2.283   7.649  1.00  0.00     0.004 A 
ATOM     20  C   UNL     1       0.169  -0.934   7.079  1.00  0.00     0.004 A 
ATOM     21  C   UNL     1      -0.489  -1.727   8.030  1.00  0.00    -0.045 A 
BRANCH  21  22
ATOM     22  C   UNL     1       0.082  -2.016   9.401  1.00  0.00     0.019 C 
ATOM     23  C   UNL     1       1.576  -2.058   9.623  1.00  0.00     0.009 C 
ATOM     24  C   UNL     1       0.762  -0.939  10.206  1.00  0.00     0.009 C 
ENDBRANCH  21  22
ENDBRANCH  15  16
ENDBRANCH  10  15
ENDBRANCH   3   6
ENDBRANCH   1   2
BRANCH   1  25
ATOM     25  C   UNL     1      -1.669   1.428   0.755  1.00  0.00     0.042 C 
BRANCH  25  26
ATOM     26  C   UNL     1      -2.329   1.997  -0.476  1.00  0.00     0.118 C 
BRANCH  26  27
ATOM     27  N   UNL     1      -3.734   1.611  -0.586  1.00  0.00    -0.352 N 
ATOM     28  C   UNL     1      -4.887   2.345  -0.429  1.00  0.00     0.251 C 
ATOM     29  H   UNL     1      -3.881   0.664  -0.811  1.00  0.00     0.163 HD
ATOM     30  O   UNL     1      -5.969   1.776  -0.372  1.00  0.00    -0.269 OA
BRANCH  28  31
ATOM     31  C   UNL     1      -4.820   3.816  -0.296  1.00  0.00     0.039 A 
ATOM     32  C   UNL     1      -5.699   4.468   0.572  1.00  0.00     0.014 A 
ATOM     33  C   UNL     1      -3.885   4.555  -1.019  1.00  0.00     0.014 A 
ATOM     34  C   UNL     1      -5.574   5.844   0.776  1.00  0.00     0.010 A 
ATOM     35  C   UNL     1      -3.663   5.886  -0.704  1.00  0.00     0.010 A 
ATOM     36  C   UNL     1      -4.520   6.554   0.179  1.00  0.00    -0.014 A 
BRANCH  36  37
ATOM     37  C   UNL     1      -4.305   8.002   0.427  1.00  0.00     0.031 A 
ATOM     38  C   UNL     1      -4.309   8.966  -0.731  1.00  0.00     0.074 A 
ATOM     39  C   UNL     1      -4.025   8.435   1.671  1.00  0.00     0.049 A 
ATOM     40  N   UNL     1      -4.041  10.247  -0.744  1.00  0.00    -0.248 NA
ATOM     41  C   UNL     1      -4.615   8.407  -2.059  1.00  0.00     0.031 C 
ATOM     42  C   UNL     1      -3.932   7.590   2.863  1.00  0.00     0.029 A 
ATOM     43  N   UNL     1      -3.756   9.696   2.139  1.00  0.00    -0.354 N 
ATOM     44  C   UNL     1      -4.122  10.634  -2.076  1.00  0.00     0.074 A 
ATOM     45  C   UNL     1      -4.389   9.444  -2.850  1.00  0.00     0.031 C 
ATOM     46  C   UNL     1      -3.663   8.359   3.929  1.00  0.00     0.029 A 
ATOM     47  C   UNL     1      -3.516   9.743   3.491  1.00  0.00     0.049 A 
ATOM     48  H   UNL     1      -3.736  10.493   1.561  1.00  0.00     0.167 HD
ATOM     49  C   UNL     1      -4.019  11.876  -2.603  1.00  0.00     0.037 A 
ATOM     50  C   UNL     1      -3.204  10.786   4.284  1.00  0.00     0.037 A 
ATOM     51  C   UNL     1      -3.788  13.061  -1.822  1.00  0.00     0.049 A 
ATOM     52  C   UNL     1      -3.092  12.157   3.673  1.00  0.00     0.074 A 
ATOM     53  C   UNL     1      -3.731  14.376  -2.245  1.00  0.00     0.029 A 
ATOM     54  N   UNL     1      -3.576  13.071  -0.450  1.00  0.00    -0.354 N 
ATOM     55  N   UNL     1      -3.245  12.523   2.424  1.00  0.00    -0.248 NA
ATOM     56  C   UNL     1      -2.771  13.262   4.586  1.00  0.00     0.031 C 
ATOM     57  C   UNL     1      -3.428  15.177  -1.140  1.00  0.00     0.029 A 
ATOM     58  C   UNL     1      -3.362  14.369  -0.016  1.00  0.00     0.049 A 
ATOM     59  H   UNL     1      -3.577  12.274   0.128  1.00  0.00     0.167 HD
ATOM     60  C   UNL     1      -3.074  13.901   2.405  1.00  0.00     0.074 A 
ATOM     61  C   UNL     1      -2.819  14.306   3.771  1.00  0.00     0.031 C 
ATOM     62  C   UNL     1      -3.123  14.754   1.352  1.00  0.00     0.037 A 
BRANCH  49  63
ATOM     63  C   UNL     1      -4.163  12.015  -4.092  1.00  0.00     0.064 A 
ATOM     64  C   UNL     1      -5.384  11.774  -4.742  1.00  0.00     0.173 A 
ATOM     65  C   UNL     1      -3.074  12.421  -4.878  1.00  0.00     0.173 A 
ATOM     66  F   UNL     1      -6.455  11.370  -4.042  1.00  0.00    -0.203 F 
ATOM     67  C   UNL     1      -5.499  11.900  -6.124  1.00  0.00     0.198 A 
ATOM     68  C   UNL     1      -3.202  12.582  -6.255  1.00  0.00     0.198 A 
ATOM     69  F   UNL     1      -1.884  12.669  -4.310  1.00  0.00    -0.203 F 
ATOM     70  F   UNL     1      -6.659  11.606  -6.728  1.00  0.00    -0.200 F 
ATOM     71  C   UNL     1      -4.411  12.313  -6.878  1.00  0.00     0.200 A 
ATOM     72  F   UNL     1      -2.154  12.995  -6.980  1.00  0.00    -0.200 F 
ATOM     73  F   UNL     1      -4.526  12.443  -8.207  1.00  0.00    -0.200 F 
ENDBRANCH  49  63
BRANCH  50  74
ATOM     74  C   UNL     1      -3.002  10.579   5.743  1.00  0.00     0.064 A 
ATOM     75  C   UNL     1      -3.908  11.105   6.676  1.00  0.00     0.173 A 
ATOM     76  C   UNL     1      -1.904   9.861   6.237  1.00  0.00     0.173 A 
ATOM     77  F   UNL     1      -4.965  11.815   6.255  1.00  0.00    -0.203 F 
ATOM     78  C   UNL     1      -3.707  10.945   8.045  1.00  0.00     0.198 A 
ATOM     79  C   UNL     1      -1.722   9.673   7.606  1.00  0.00     0.198 A 
ATOM     80  F   UNL     1      -1.012   9.329   5.388  1.00  0.00    -0.203 F 
ATOM     81  F   UNL     1      -4.560  11.504   8.915  1.00  0.00    -0.200 F 
ATOM     82  C   UNL     1      -2.618  10.223   8.509  1.00  0.00     0.200 A 
ATOM     83  F   UNL     1      -0.677   8.960   8.049  1.00  0.00    -0.200 F 
ATOM     84  F   UNL     1      -2.426  10.066   9.826  1.00  0.00    -0.200 F 
ENDBRANCH  50  74
BRANCH  62  85
ATOM     85  C   UNL     1      -2.945  16.216   1.640  1.00  0.00     0.064 A 
ATOM     86  C   UNL     1      -1.706  16.750   2.022  1.00  0.00     0.173 A 
ATOM     87  C   UNL     1      -4.022  17.103   1.484  1.00  0.00     0.173 A 
ATOM     88  F   UNL     1      -0.648  15.944   2.198  1.00  0.00    -0.203 F 
ATOM     89  C   UNL     1      -1.559  18.113   2.266  1.00  0.00     0.198 A 
ATOM     90  C   UNL     1      -3.863  18.469   1.694  1.00  0.00     0.198 A 
ATOM     91  F   UNL     1      -5.227  16.645   1.111  1.00  0.00    -0.203 F 
ATOM     92  F   UNL     1      -0.379  18.593   2.682  1.00  0.00    -0.200 F 
ATOM     93  C   UNL     1      -2.634  18.972   2.093  1.00  0.00     0.200 A 
ATOM     94  F   UNL     1      -4.899  19.299   1.508  1.00  0.00    -0.200 F 
ATOM     95  F   UNL     1      -2.488  20.285   2.318  1.00  0.00    -0.200 F 
ENDBRANCH  62  85
ENDBRANCH  36  37
ENDBRANCH  28  31
ENDBRANCH  26  27
ENDBRANCH  25  26
ENDBRANCH   1  25
TORSDOF 14
