REMARK SMILES CCC(CC)(NC(=O)Nc1cc(Cl)cc(Cl)c1)C(=O)NCCCNC(=O)c1ccc(-c2c3nc(c(-c4c(F)c(F)c(F)c(F)c4F)c4ccc([nH]4)c(-c4c(F)c(F)c(F)c(F)c4F)c4nc(c(-c5c(F)c(F)c(F)c(F)c5F)c5ccc2[nH]5)C=C4)C=C3)cc1
REMARK SMILES IDX 22 1 21 2 20 3 18 4 19 5 3 7 2 8 1 9 4 10 5 11 6 12 7 13
REMARK SMILES IDX 8 15 9 16 10 18 11 19 17 20 12 21 15 22 13 23 14 24 16 25
REMARK SMILES IDX 23 26 24 27 25 28 26 30 27 31 28 32 89 33 29 34 88 35 30 36
REMARK SMILES IDX 31 37 32 38 82 39 33 40 87 41 81 42 83 43 34 44 86 45 80 46
REMARK SMILES IDX 79 47 35 49 67 50 47 51 66 52 48 53 51 54 65 55 84 56 49 57
REMARK SMILES IDX 50 58 64 60 85 61 52 62 36 63 37 64 45 65 38 66 39 67 43 68
REMARK SMILES IDX 46 69 40 70 41 71 44 72 42 73 68 74 69 75 77 76 70 77 71 78
REMARK SMILES IDX 75 79 78 80 72 81 73 82 76 83 74 84 53 85 54 86 62 87 55 88
REMARK SMILES IDX 56 89 60 90 63 91 57 92 58 93 61 94 59 95
REMARK H PARENT 20 6 6 14 9 17 24 29 83 48 51 59
REMARK Flexibility Score: inf
ROOT
ATOM      1  C   UNL     1       2.277   2.204   6.105  1.00  0.00     0.042 C 
ENDROOT
BRANCH   1   2
ATOM      2  C   UNL     1       1.700   2.795   4.806  1.00  0.00     0.117 C 
BRANCH   2   3
ATOM      3  N   UNL     1       2.291   2.183   3.624  1.00  0.00    -0.354 N 
ATOM      4  C   UNL     1       1.711   1.871   2.397  1.00  0.00     0.245 C 
ATOM      5  O   UNL     1       1.966   2.506   1.379  1.00  0.00    -0.272 OA
ATOM      6  H   UNL     1       3.245   1.955   3.705  1.00  0.00     0.163 HD
BRANCH   4   7
ATOM      7  C   UNL     1       0.647   0.741   2.458  1.00  0.00     0.120 C 
BRANCH   7   8
ATOM      8  C   UNL     1       0.490  -0.328   1.357  1.00  0.00     0.035 C 
ATOM      9  C   UNL     1       0.581   0.102  -0.089  1.00  0.00     0.007 C 
ENDBRANCH   7   8
BRANCH   7  10
ATOM     10  C   UNL     1      -0.625   1.683   2.498  1.00  0.00     0.035 C 
ATOM     11  C   UNL     1      -2.042   1.158   2.401  1.00  0.00     0.007 C 
ENDBRANCH   7  10
BRANCH   7  12
ATOM     12  N   UNL     1       0.955  -0.014   3.706  1.00  0.00    -0.323 N 
ATOM     13  C   UNL     1       1.999  -0.763   4.121  1.00  0.00     0.320 C 
ATOM     14  H   UNL     1       0.237   0.047   4.377  1.00  0.00     0.166 HD
ATOM     15  O   UNL     1       1.809  -1.424   5.150  1.00  0.00    -0.248 OA
ATOM     16  N   UNL     1       3.239  -0.866   3.580  1.00  0.00    -0.308 N 
ATOM     17  H   UNL     1       3.804  -1.429   4.158  1.00  0.00     0.171 HD
BRANCH  16  18
ATOM     18  C   UNL     1       3.992  -0.432   2.458  1.00  0.00     0.045 A 
ATOM     19  C   UNL     1       4.458   0.867   2.225  1.00  0.00     0.046 A 
ATOM     20  C   UNL     1       4.541  -1.428   1.648  1.00  0.00     0.046 A 
ATOM     21  C   UNL     1       5.155   1.205   1.058  1.00  0.00     0.044 A 
ATOM     22  C   UNL     1       5.305  -1.102   0.517  1.00  0.00     0.044 A 
ATOM     23  Cl  UNL     1       5.546   2.853   0.738  1.00  0.00    -0.084 Cl
ATOM     24  C   UNL     1       5.557   0.221   0.177  1.00  0.00     0.041 A 
ATOM     25  Cl  UNL     1       5.960  -2.359  -0.456  1.00  0.00    -0.084 Cl
ENDBRANCH  16  18
ENDBRANCH   7  12
ENDBRANCH   4   7
ENDBRANCH   2   3
ENDBRANCH   1   2
BRANCH   1  26
ATOM     26  C   UNL     1       3.796   2.057   6.177  1.00  0.00     0.118 C 
BRANCH  26  27
ATOM     27  N   UNL     1       4.495   3.312   6.004  1.00  0.00    -0.352 N 
ATOM     28  C   UNL     1       5.338   3.973   6.862  1.00  0.00     0.251 C 
ATOM     29  H   UNL     1       4.342   3.759   5.141  1.00  0.00     0.163 HD
ATOM     30  O   UNL     1       5.702   5.112   6.600  1.00  0.00    -0.269 OA
BRANCH  28  31
ATOM     31  C   UNL     1       5.786   3.335   8.122  1.00  0.00     0.039 A 
ATOM     32  C   UNL     1       5.771   4.106   9.287  1.00  0.00     0.014 A 
ATOM     33  C   UNL     1       6.255   2.018   8.166  1.00  0.00     0.014 A 
ATOM     34  C   UNL     1       6.178   3.545  10.499  1.00  0.00     0.010 A 
ATOM     35  C   UNL     1       6.593   1.437   9.392  1.00  0.00     0.010 A 
ATOM     36  C   UNL     1       6.564   2.195  10.572  1.00  0.00    -0.014 A 
BRANCH  36  37
ATOM     37  C   UNL     1       6.915   1.590  11.888  1.00  0.00     0.031 A 
ATOM     38  C   UNL     1       8.307   1.091  12.169  1.00  0.00     0.074 A 
ATOM     39  C   UNL     1       5.967   1.488  12.841  1.00  0.00     0.049 A 
ATOM     40  N   UNL     1       8.798   0.590  13.277  1.00  0.00    -0.248 NA
ATOM     41  C   UNL     1       9.268   1.139  11.059  1.00  0.00     0.031 C 
ATOM     42  C   UNL     1       4.566   1.880  12.682  1.00  0.00     0.029 A 
ATOM     43  N   UNL     1       6.038   1.032  14.135  1.00  0.00    -0.354 N 
ATOM     44  C   UNL     1      10.120   0.267  12.997  1.00  0.00     0.074 A 
ATOM     45  C   UNL     1      10.337   0.569  11.598  1.00  0.00     0.031 C 
ATOM     46  C   UNL     1       3.921   1.690  13.843  1.00  0.00     0.029 A 
ATOM     47  C   UNL     1       4.850   1.128  14.819  1.00  0.00     0.049 A 
ATOM     48  H   UNL     1       6.862   0.671  14.535  1.00  0.00     0.167 HD
ATOM     49  C   UNL     1      11.073  -0.213  13.833  1.00  0.00     0.037 A 
ATOM     50  C   UNL     1       4.542   0.806  16.090  1.00  0.00     0.037 A 
ATOM     51  C   UNL     1      10.860  -0.507  15.229  1.00  0.00     0.049 A 
ATOM     52  C   UNL     1       5.617   0.269  16.995  1.00  0.00     0.074 A 
ATOM     53  C   UNL     1      11.777  -0.947  16.168  1.00  0.00     0.029 A 
ATOM     54  N   UNL     1       9.642  -0.400  15.884  1.00  0.00    -0.354 N 
ATOM     55  N   UNL     1       6.884   0.048  16.739  1.00  0.00    -0.248 NA
ATOM     56  C   UNL     1       5.221  -0.050  18.374  1.00  0.00     0.031 C 
ATOM     57  C   UNL     1      11.102  -1.163  17.375  1.00  0.00     0.029 A 
ATOM     58  C   UNL     1       9.779  -0.792  17.208  1.00  0.00     0.049 A 
ATOM     59  H   UNL     1       8.803  -0.091  15.470  1.00  0.00     0.167 HD
ATOM     60  C   UNL     1       7.440  -0.405  17.929  1.00  0.00     0.074 A 
ATOM     61  C   UNL     1       6.378  -0.403  18.912  1.00  0.00     0.031 C 
ATOM     62  C   UNL     1       8.716  -0.788  18.182  1.00  0.00     0.037 A 
BRANCH  49  63
ATOM     63  C   UNL     1      12.444  -0.453  13.263  1.00  0.00     0.064 A 
ATOM     64  C   UNL     1      13.270   0.608  12.856  1.00  0.00     0.173 A 
ATOM     65  C   UNL     1      12.959  -1.755  13.164  1.00  0.00     0.173 A 
ATOM     66  F   UNL     1      12.826   1.872  12.922  1.00  0.00    -0.203 F 
ATOM     67  C   UNL     1      14.542   0.371  12.342  1.00  0.00     0.198 A 
ATOM     68  C   UNL     1      14.245  -1.985  12.682  1.00  0.00     0.198 A 
ATOM     69  F   UNL     1      12.219  -2.806  13.546  1.00  0.00    -0.203 F 
ATOM     70  F   UNL     1      15.290   1.397  11.912  1.00  0.00    -0.200 F 
ATOM     71  C   UNL     1      15.032  -0.923  12.263  1.00  0.00     0.200 A 
ATOM     72  F   UNL     1      14.723  -3.236  12.623  1.00  0.00    -0.200 F 
ATOM     73  F   UNL     1      16.261  -1.148  11.778  1.00  0.00    -0.200 F 
ENDBRANCH  49  63
BRANCH  50  74
ATOM     74  C   UNL     1       3.157   1.009  16.595  1.00  0.00     0.064 A 
ATOM     75  C   UNL     1       2.879   1.971  17.577  1.00  0.00     0.173 A 
ATOM     76  C   UNL     1       2.087   0.236  16.119  1.00  0.00     0.173 A 
ATOM     77  F   UNL     1       3.870   2.721  18.079  1.00  0.00    -0.203 F 
ATOM     78  C   UNL     1       1.591   2.131  18.084  1.00  0.00     0.198 A 
ATOM     79  C   UNL     1       0.794   0.422  16.602  1.00  0.00     0.198 A 
ATOM     80  F   UNL     1       2.297  -0.694  15.176  1.00  0.00    -0.203 F 
ATOM     81  F   UNL     1       1.364   3.018  19.062  1.00  0.00    -0.200 F 
ATOM     82  C   UNL     1       0.548   1.361  17.591  1.00  0.00     0.200 A 
ATOM     83  F   UNL     1      -0.214  -0.313  16.111  1.00  0.00    -0.200 F 
ATOM     84  F   UNL     1      -0.691   1.518  18.076  1.00  0.00    -0.200 F 
ENDBRANCH  50  74
BRANCH  62  85
ATOM     85  C   UNL     1       9.042  -1.201  19.591  1.00  0.00     0.064 A 
ATOM     86  C   UNL     1       8.523  -2.375  20.160  1.00  0.00     0.173 A 
ATOM     87  C   UNL     1       9.892  -0.413  20.384  1.00  0.00     0.173 A 
ATOM     88  F   UNL     1       7.695  -3.159  19.452  1.00  0.00    -0.203 F 
ATOM     89  C   UNL     1       8.804  -2.718  21.480  1.00  0.00     0.198 A 
ATOM     90  C   UNL     1      10.202  -0.780  21.690  1.00  0.00     0.198 A 
ATOM     91  F   UNL     1      10.425   0.714  19.889  1.00  0.00    -0.203 F 
ATOM     92  F   UNL     1       8.239  -3.806  22.022  1.00  0.00    -0.200 F 
ATOM     93  C   UNL     1       9.648  -1.924  22.242  1.00  0.00     0.200 A 
ATOM     94  F   UNL     1      11.031  -0.020  22.419  1.00  0.00    -0.200 F 
ATOM     95  F   UNL     1       9.916  -2.255  23.513  1.00  0.00    -0.200 F 
ENDBRANCH  62  85
ENDBRANCH  36  37
ENDBRANCH  28  31
ENDBRANCH  26  27
ENDBRANCH   1  26
TORSDOF 14
