REMARK SMILES C[C@@H](C(=O)NCCCNC(=O)c1ccc(-c2c3nc(c(-c4c(F)c(F)c(F)c(F)c4F)c4ccc([nH]4)c(-c4c(F)c(F)c(F)c(F)c4F)c4nc(c(-c5c(F)c(F)c(F)c(F)c5F)c5ccc2[nH]5)C=C4)C=C3)cc1)c1ccc(C[C@H]2CCC[C@H]2O)cc1
REMARK SMILES IDX 6 1 5 2 3 3 4 4 2 6 1 7 75 8 76 9 87 10 77 11 86 12 78 13
REMARK SMILES IDX 79 14 80 15 81 16 84 17 82 18 83 19 85 20 7 22 8 23 9 24
REMARK SMILES IDX 10 25 11 27 12 28 13 29 74 30 14 31 73 32 15 33 16 34 17 35
REMARK SMILES IDX 67 36 18 37 72 38 66 39 68 40 19 41 71 42 65 43 64 44 20 46
REMARK SMILES IDX 52 47 32 48 51 49 33 50 36 51 50 52 69 53 34 54 35 55 49 57
REMARK SMILES IDX 70 58 37 59 21 60 22 61 30 62 23 63 24 64 28 65 31 66 25 67
REMARK SMILES IDX 26 68 29 69 27 70 53 71 54 72 62 73 55 74 56 75 60 76 63 77
REMARK SMILES IDX 57 78 58 79 61 80 59 81 38 82 39 83 47 84 40 85 41 86 45 87
REMARK SMILES IDX 48 88 42 89 43 90 46 91 44 92
REMARK H PARENT 5 5 85 21 9 26 68 45 36 56
REMARK Flexibility Score: inf
ROOT
ATOM      1  C   UNL     1       3.381  -2.136   0.179  1.00  0.00     0.117 C 
ENDROOT
BRANCH   1   2
ATOM      2  N   UNL     1       2.284  -2.385   1.095  1.00  0.00    -0.356 N 
ATOM      3  C   UNL     1       0.991  -1.947   1.063  1.00  0.00     0.227 C 
ATOM      4  O   UNL     1       0.328  -2.134   2.086  1.00  0.00    -0.274 OA
ATOM      5  H   UNL     1       2.507  -2.961   1.862  1.00  0.00     0.163 HD
BRANCH   3   6
ATOM      6  C   UNL     1       0.432  -1.269  -0.207  1.00  0.00     0.105 C 
ATOM      7  C   UNL     1       0.945   0.177  -0.239  1.00  0.00     0.023 C 
BRANCH   6   8
ATOM      8  C   UNL     1      -1.095  -1.361  -0.311  1.00  0.00    -0.036 A 
ATOM      9  C   UNL     1      -1.879  -0.282  -0.745  1.00  0.00     0.005 A 
ATOM     10  C   UNL     1      -1.764  -2.548   0.033  1.00  0.00     0.005 A 
ATOM     11  C   UNL     1      -3.272  -0.334  -0.691  1.00  0.00     0.004 A 
ATOM     12  C   UNL     1      -3.159  -2.589   0.119  1.00  0.00     0.004 A 
ATOM     13  C   UNL     1      -3.920  -1.454  -0.172  1.00  0.00    -0.048 A 
BRANCH  13  14
ATOM     14  C   UNL     1      -5.393  -1.398   0.140  1.00  0.00     0.041 C 
BRANCH  14  15
ATOM     15  C   UNL     1      -5.787  -0.845   1.525  1.00  0.00     0.022 C 
ATOM     16  C   UNL     1      -5.181  -1.569   2.740  1.00  0.00     0.007 C 
ATOM     17  C   UNL     1      -5.556   0.646   1.821  1.00  0.00     0.117 C 
ATOM     18  C   UNL     1      -5.134  -0.536   3.870  1.00  0.00     0.003 C 
ATOM     19  C   UNL     1      -5.802   0.724   3.324  1.00  0.00     0.032 C 
BRANCH  17  20
ATOM     20  O   UNL     1      -4.245   1.119   1.564  1.00  0.00    -0.393 OA
ATOM     21  H   UNL     1      -3.610   0.619   2.101  1.00  0.00     0.210 HD
ENDBRANCH  17  20
ENDBRANCH  14  15
ENDBRANCH  13  14
ENDBRANCH   6   8
ENDBRANCH   3   6
ENDBRANCH   1   2
BRANCH   1  22
ATOM     22  C   UNL     1       4.315  -1.049   0.709  1.00  0.00     0.042 C 
BRANCH  22  23
ATOM     23  C   UNL     1       5.037  -1.412   2.001  1.00  0.00     0.118 C 
BRANCH  23  24
ATOM     24  N   UNL     1       6.017  -2.466   1.811  1.00  0.00    -0.352 N 
ATOM     25  C   UNL     1       7.362  -2.478   2.080  1.00  0.00     0.251 C 
ATOM     26  H   UNL     1       5.661  -3.301   1.430  1.00  0.00     0.163 HD
ATOM     27  O   UNL     1       8.048  -3.407   1.663  1.00  0.00    -0.269 OA
BRANCH  25  28
ATOM     28  C   UNL     1       8.000  -1.389   2.856  1.00  0.00     0.039 A 
ATOM     29  C   UNL     1       9.292  -0.988   2.499  1.00  0.00     0.014 A 
ATOM     30  C   UNL     1       7.380  -0.813   3.969  1.00  0.00     0.014 A 
ATOM     31  C   UNL     1       9.950  -0.004   3.240  1.00  0.00     0.010 A 
ATOM     32  C   UNL     1       8.005   0.224   4.660  1.00  0.00     0.010 A 
ATOM     33  C   UNL     1       9.308   0.617   4.322  1.00  0.00    -0.014 A 
BRANCH  33  34
ATOM     34  C   UNL     1      10.015   1.627   5.151  1.00  0.00     0.031 A 
ATOM     35  C   UNL     1      10.334   1.326   6.591  1.00  0.00     0.074 A 
ATOM     36  C   UNL     1      10.344   2.821   4.624  1.00  0.00     0.049 A 
ATOM     37  N   UNL     1      10.911   2.084   7.490  1.00  0.00    -0.248 NA
ATOM     38  C   UNL     1       9.921   0.007   7.097  1.00  0.00     0.031 C 
ATOM     39  C   UNL     1      10.049   3.252   3.257  1.00  0.00     0.029 A 
ATOM     40  N   UNL     1      10.995   3.894   5.179  1.00  0.00    -0.354 N 
ATOM     41  C   UNL     1      10.915   1.341   8.664  1.00  0.00     0.074 A 
ATOM     42  C   UNL     1      10.231   0.099   8.381  1.00  0.00     0.031 C 
ATOM     43  C   UNL     1      10.533   4.491   3.074  1.00  0.00     0.029 A 
ATOM     44  C   UNL     1      11.151   4.950   4.316  1.00  0.00     0.049 A 
ATOM     45  H   UNL     1      11.319   3.906   6.109  1.00  0.00     0.167 HD
ATOM     46  C   UNL     1      11.463   1.652   9.863  1.00  0.00     0.037 A 
ATOM     47  C   UNL     1      11.730   6.150   4.505  1.00  0.00     0.037 A 
ATOM     48  C   UNL     1      12.169   2.876  10.136  1.00  0.00     0.049 A 
ATOM     49  C   UNL     1      12.364   6.460   5.833  1.00  0.00     0.074 A 
ATOM     50  C   UNL     1      12.791   3.275  11.307  1.00  0.00     0.029 A 
ATOM     51  N   UNL     1      12.351   3.900   9.218  1.00  0.00    -0.354 N 
ATOM     52  N   UNL     1      12.409   5.728   6.920  1.00  0.00    -0.248 NA
ATOM     53  C   UNL     1      13.046   7.756   5.955  1.00  0.00     0.031 C 
ATOM     54  C   UNL     1      13.325   4.553  11.105  1.00  0.00     0.029 A 
ATOM     55  C   UNL     1      13.075   4.931   9.796  1.00  0.00     0.049 A 
ATOM     56  H   UNL     1      12.016   3.895   8.292  1.00  0.00     0.167 HD
ATOM     57  C   UNL     1      13.149   6.457   7.841  1.00  0.00     0.074 A 
ATOM     58  C   UNL     1      13.543   7.685   7.182  1.00  0.00     0.031 C 
ATOM     59  C   UNL     1      13.473   6.138   9.119  1.00  0.00     0.037 A 
BRANCH  46  60
ATOM     60  C   UNL     1      11.326   0.642  10.966  1.00  0.00     0.064 A 
ATOM     61  C   UNL     1      12.012  -0.582  10.929  1.00  0.00     0.173 A 
ATOM     62  C   UNL     1      10.512   0.904  12.078  1.00  0.00     0.173 A 
ATOM     63  F   UNL     1      12.792  -0.887   9.882  1.00  0.00    -0.203 F 
ATOM     64  C   UNL     1      11.859  -1.521  11.946  1.00  0.00     0.198 A 
ATOM     65  C   UNL     1      10.386  -0.025  13.109  1.00  0.00     0.198 A 
ATOM     66  F   UNL     1       9.839   2.060  12.167  1.00  0.00    -0.203 F 
ATOM     67  F   UNL     1      12.478  -2.707  11.859  1.00  0.00    -0.200 F 
ATOM     68  C   UNL     1      11.051  -1.240  13.037  1.00  0.00     0.200 A 
ATOM     69  F   UNL     1       9.615   0.253  14.169  1.00  0.00    -0.200 F 
ATOM     70  F   UNL     1      10.905  -2.144  14.015  1.00  0.00    -0.200 F 
ENDBRANCH  46  60
BRANCH  47  71
ATOM     71  C   UNL     1      11.777   7.130   3.389  1.00  0.00     0.064 A 
ATOM     72  C   UNL     1      12.982   7.418   2.734  1.00  0.00     0.173 A 
ATOM     73  C   UNL     1      10.621   7.791   2.951  1.00  0.00     0.173 A 
ATOM     74  F   UNL     1      14.118   6.824   3.130  1.00  0.00    -0.203 F 
ATOM     75  C   UNL     1      13.033   8.346   1.696  1.00  0.00     0.198 A 
ATOM     76  C   UNL     1      10.668   8.699   1.896  1.00  0.00     0.198 A 
ATOM     77  F   UNL     1       9.442   7.544   3.541  1.00  0.00    -0.203 F 
ATOM     78  F   UNL     1      14.206   8.633   1.114  1.00  0.00    -0.200 F 
ATOM     79  C   UNL     1      11.875   8.981   1.274  1.00  0.00     0.200 A 
ATOM     80  F   UNL     1       9.545   9.300   1.481  1.00  0.00    -0.200 F 
ATOM     81  F   UNL     1      11.924   9.869   0.271  1.00  0.00    -0.200 F 
ENDBRANCH  47  71
BRANCH  59  82
ATOM     82  C   UNL     1      14.337   7.107   9.870  1.00  0.00     0.064 A 
ATOM     83  C   UNL     1      13.844   8.339  10.323  1.00  0.00     0.173 A 
ATOM     84  C   UNL     1      15.670   6.782  10.167  1.00  0.00     0.173 A 
ATOM     85  F   UNL     1      12.581   8.702  10.053  1.00  0.00    -0.203 F 
ATOM     86  C   UNL     1      14.663   9.224  11.021  1.00  0.00     0.198 A 
ATOM     87  C   UNL     1      16.477   7.656  10.889  1.00  0.00     0.198 A 
ATOM     88  F   UNL     1      16.187   5.612   9.762  1.00  0.00    -0.203 F 
ATOM     89  F   UNL     1      14.186  10.417  11.401  1.00  0.00    -0.200 F 
ATOM     90  C   UNL     1      15.976   8.880  11.308  1.00  0.00     0.200 A 
ATOM     91  F   UNL     1      17.741   7.317  11.176  1.00  0.00    -0.200 F 
ATOM     92  F   UNL     1      16.761   9.731  11.982  1.00  0.00    -0.200 F 
ENDBRANCH  59  82
ENDBRANCH  33  34
ENDBRANCH  25  28
ENDBRANCH  23  24
ENDBRANCH  22  23
ENDBRANCH   1  22
TORSDOF 14
