REMARK SMILES O=C(NCCCNC(=O)c1cc([N+](=O)[O-])cc([N+](=O)[O-])c1N1CCCCCC1)c1ccc(-c2c3nc(c(-c4c(F)c(F)c(F)c(F)c4F)c4ccc([nH]4)c(-c4c(F)c(F)c(F)c(F)c4F)c4nc(c(-c5c(F)c(F)c(F)c(F)c5F)c5ccc2[nH]5)C=C4)C=C3)cc1
REMARK SMILES IDX 6 1 5 2 4 3 3 4 1 5 2 6 29 8 30 9 91 10 31 11 90 12 32 13
REMARK SMILES IDX 33 14 34 15 84 16 35 17 89 18 83 19 85 20 36 21 88 22 82 23
REMARK SMILES IDX 81 24 37 26 69 27 49 28 68 29 50 30 53 31 67 32 86 33 51 34
REMARK SMILES IDX 52 35 66 37 87 38 54 39 38 40 39 41 47 42 40 43 41 44 45 45
REMARK SMILES IDX 48 46 42 47 43 48 46 49 44 50 70 51 71 52 79 53 72 54 73 55
REMARK SMILES IDX 77 56 80 57 74 58 75 59 78 60 76 61 55 62 56 63 64 64 57 65
REMARK SMILES IDX 58 66 62 67 65 68 59 69 60 70 63 71 61 72 7 73 8 74 9 76
REMARK SMILES IDX 10 77 11 78 21 79 12 80 17 81 16 82 22 83 23 84 24 85 25 86
REMARK SMILES IDX 28 88 27 89 26 90 13 92 14 93 15 94 18 95 19 96 20 97
REMARK H PARENT 3 7 85 25 53 36 7 75
REMARK Flexibility Score: 90.00
ROOT
ATOM      1  C   UNL     1       4.990  -2.115   2.722  1.00  0.00     0.118 C 
ENDROOT
BRANCH   1   2
ATOM      2  C   UNL     1       5.359  -1.038   1.722  1.00  0.00     0.042 C 
BRANCH   2   3
ATOM      3  C   UNL     1       4.731  -1.239   0.350  1.00  0.00     0.118 C 
BRANCH   3   4
ATOM      4  N   UNL     1       3.274  -1.146   0.356  1.00  0.00    -0.352 N 
ATOM      5  O   UNL     1       1.229  -0.226   0.190  1.00  0.00    -0.269 OA
ATOM      6  C   UNL     1       2.425  -0.146  -0.059  1.00  0.00     0.251 C 
ATOM      7  H   UNL     1       2.819  -1.939   0.721  1.00  0.00     0.163 HD
BRANCH   6   8
ATOM      8  C   UNL     1       2.951   1.043  -0.764  1.00  0.00     0.039 A 
ATOM      9  C   UNL     1       3.954   0.926  -1.725  1.00  0.00     0.014 A 
ATOM     10  C   UNL     1       2.420   2.302  -0.466  1.00  0.00     0.014 A 
ATOM     11  C   UNL     1       4.574   2.065  -2.222  1.00  0.00     0.010 A 
ATOM     12  C   UNL     1       2.962   3.444  -1.063  1.00  0.00     0.010 A 
ATOM     13  C   UNL     1       4.077   3.337  -1.908  1.00  0.00    -0.014 A 
BRANCH  13  14
ATOM     14  C   UNL     1       4.710   4.540  -2.504  1.00  0.00     0.031 A 
ATOM     15  C   UNL     1       5.337   5.591  -1.633  1.00  0.00     0.074 A 
ATOM     16  C   UNL     1       4.723   4.675  -3.844  1.00  0.00     0.049 A 
ATOM     17  N   UNL     1       5.868   6.739  -1.973  1.00  0.00    -0.248 NA
ATOM     18  C   UNL     1       5.363   5.326  -0.186  1.00  0.00     0.031 C 
ATOM     19  C   UNL     1       4.153   3.714  -4.792  1.00  0.00     0.029 A 
ATOM     20  N   UNL     1       5.233   5.666  -4.642  1.00  0.00    -0.354 N 
ATOM     21  C   UNL     1       6.258   7.345  -0.787  1.00  0.00     0.074 A 
ATOM     22  C   UNL     1       5.887   6.448   0.287  1.00  0.00     0.031 C 
ATOM     23  C   UNL     1       4.372   4.146  -6.041  1.00  0.00     0.029 A 
ATOM     24  C   UNL     1       5.023   5.448  -5.981  1.00  0.00     0.049 A 
ATOM     25  H   UNL     1       5.703   6.455  -4.290  1.00  0.00     0.167 HD
ATOM     26  C   UNL     1       6.870   8.542  -0.614  1.00  0.00     0.037 A 
ATOM     27  C   UNL     1       5.290   6.227  -7.045  1.00  0.00     0.037 A 
ATOM     28  C   UNL     1       7.253   9.416  -1.692  1.00  0.00     0.049 A 
ATOM     29  C   UNL     1       5.941   7.560  -6.826  1.00  0.00     0.074 A 
ATOM     30  C   UNL     1       7.909  10.634  -1.626  1.00  0.00     0.029 A 
ATOM     31  N   UNL     1       7.011   9.166  -3.036  1.00  0.00    -0.354 N 
ATOM     32  N   UNL     1       6.314   8.119  -5.701  1.00  0.00    -0.248 NA
ATOM     33  C   UNL     1       6.203   8.373  -8.020  1.00  0.00     0.031 C 
ATOM     34  C   UNL     1       8.019  11.142  -2.925  1.00  0.00     0.029 A 
ATOM     35  C   UNL     1       7.483  10.217  -3.807  1.00  0.00     0.049 A 
ATOM     36  H   UNL     1       6.569   8.361  -3.390  1.00  0.00     0.167 HD
ATOM     37  C   UNL     1       6.875   9.338  -6.050  1.00  0.00     0.074 A 
ATOM     38  C   UNL     1       6.800   9.434  -7.494  1.00  0.00     0.031 C 
ATOM     39  C   UNL     1       7.407  10.290  -5.245  1.00  0.00     0.037 A 
BRANCH  26  40
ATOM     40  C   UNL     1       7.132   8.991   0.796  1.00  0.00     0.064 A 
ATOM     41  C   UNL     1       8.096   8.373   1.607  1.00  0.00     0.173 A 
ATOM     42  C   UNL     1       6.421  10.074   1.337  1.00  0.00     0.173 A 
ATOM     43  F   UNL     1       8.796   7.326   1.145  1.00  0.00    -0.203 F 
ATOM     44  C   UNL     1       8.313   8.800   2.916  1.00  0.00     0.198 A 
ATOM     45  C   UNL     1       6.661  10.517   2.635  1.00  0.00     0.198 A 
ATOM     46  F   UNL     1       5.492  10.707   0.604  1.00  0.00    -0.203 F 
ATOM     47  F   UNL     1       9.199   8.157   3.689  1.00  0.00    -0.200 F 
ATOM     48  C   UNL     1       7.599   9.874   3.427  1.00  0.00     0.200 A 
ATOM     49  F   UNL     1       5.979  11.563   3.122  1.00  0.00    -0.200 F 
ATOM     50  F   UNL     1       7.809  10.282   4.686  1.00  0.00    -0.200 F 
ENDBRANCH  26  40
BRANCH  27  51
ATOM     51  C   UNL     1       4.917   5.752  -8.401  1.00  0.00     0.064 A 
ATOM     52  C   UNL     1       5.896   5.355  -9.321  1.00  0.00     0.173 A 
ATOM     53  C   UNL     1       3.572   5.629  -8.781  1.00  0.00     0.173 A 
ATOM     54  F   UNL     1       7.194   5.468  -9.007  1.00  0.00    -0.203 F 
ATOM     55  C   UNL     1       5.542   4.854 -10.572  1.00  0.00     0.198 A 
ATOM     56  C   UNL     1       3.220   5.101 -10.020  1.00  0.00     0.198 A 
ATOM     57  F   UNL     1       2.599   5.986  -7.930  1.00  0.00    -0.203 F 
ATOM     58  F   UNL     1       6.497   4.501 -11.444  1.00  0.00    -0.200 F 
ATOM     59  C   UNL     1       4.205   4.717 -10.916  1.00  0.00     0.200 A 
ATOM     60  F   UNL     1       1.927   4.950 -10.339  1.00  0.00    -0.200 F 
ATOM     61  F   UNL     1       3.867   4.214 -12.111  1.00  0.00    -0.200 F 
ENDBRANCH  27  51
BRANCH  39  62
ATOM     62  C   UNL     1       7.991  11.501  -5.909  1.00  0.00     0.064 A 
ATOM     63  C   UNL     1       7.181  12.498  -6.470  1.00  0.00     0.173 A 
ATOM     64  C   UNL     1       9.382  11.689  -5.935  1.00  0.00     0.173 A 
ATOM     65  F   UNL     1       5.847  12.354  -6.484  1.00  0.00    -0.203 F 
ATOM     66  C   UNL     1       7.743  13.633  -7.047  1.00  0.00     0.198 A 
ATOM     67  C   UNL     1       9.938  12.837  -6.489  1.00  0.00     0.198 A 
ATOM     68  F   UNL     1      10.198  10.764  -5.407  1.00  0.00    -0.203 F 
ATOM     69  F   UNL     1       6.952  14.556  -7.612  1.00  0.00    -0.200 F 
ATOM     70  C   UNL     1       9.120  13.806  -7.048  1.00  0.00     0.200 A 
ATOM     71  F   UNL     1      11.268  13.008  -6.478  1.00  0.00    -0.200 F 
ATOM     72  F   UNL     1       9.658  14.905  -7.594  1.00  0.00    -0.200 F 
ENDBRANCH  39  62
ENDBRANCH  13  14
ENDBRANCH   6   8
ENDBRANCH   3   4
ENDBRANCH   2   3
ENDBRANCH   1   2
BRANCH   1  73
ATOM     73  N   UNL     1       5.417  -3.442   2.349  1.00  0.00    -0.352 N 
ATOM     74  C   UNL     1       5.696  -4.499   3.171  1.00  0.00     0.253 C 
ATOM     75  H   UNL     1       5.520  -3.607   1.384  1.00  0.00     0.163 HD
ATOM     76  O   UNL     1       5.880  -5.611   2.679  1.00  0.00    -0.269 OA
BRANCH  74  77
ATOM     77  C   UNL     1       5.902  -4.326   4.626  1.00  0.00     0.077 A 
ATOM     78  C   UNL     1       7.221  -4.678   5.008  1.00  0.00     0.102 A 
ATOM     79  C   UNL     1       4.921  -3.936   5.578  1.00  0.00     0.129 A 
ATOM     80  C   UNL     1       7.604  -4.652   6.346  1.00  0.00     0.277 A 
ATOM     81  C   UNL     1       5.372  -3.966   6.922  1.00  0.00     0.300 A 
ATOM     82  C   UNL     1       6.681  -4.300   7.320  1.00  0.00     0.173 A 
BRANCH  79  83
ATOM     83  N   UNL     1       3.607  -3.564   5.258  1.00  0.00    -0.365 N 
BRANCH  83  84
ATOM     84  C   UNL     1       3.192  -2.161   5.432  1.00  0.00     0.117 C 
BRANCH  84  85
ATOM     85  C   UNL     1       2.106  -1.944   6.480  1.00  0.00     0.021 C 
BRANCH  85  86
ATOM     86  C   UNL     1       0.713  -2.410   6.077  1.00  0.00     0.002 CG0
ATOM     87  G   UNL     1       0.632  -3.880   5.680  1.00  0.00     0.000 G0
ENDBRANCH  85  86
ENDBRANCH  84  85
ENDBRANCH  83  84
BRANCH  83  88
ATOM     88  C   UNL     1       2.802  -4.512   4.476  1.00  0.00     0.117 C 
BRANCH  88  89
ATOM     89  C   UNL     1       1.324  -4.158   4.351  1.00  0.00     0.021 C 
BRANCH  89  90
ATOM     90  C   UNL     1       0.632  -3.880   5.680  1.00  0.00     0.002 CG0
ATOM     91  G   UNL     1       0.713  -2.410   6.077  1.00  0.00     0.000 G0
ENDBRANCH  89  90
ENDBRANCH  88  89
ENDBRANCH  83  88
ENDBRANCH  79  83
BRANCH  80  92
ATOM     92  N   UNL     1       8.972  -5.022   6.730  1.00  0.00     0.062 N 
ATOM     93  O   UNL     1       9.779  -5.258   5.822  1.00  0.00    -0.258 OA
ATOM     94  O   UNL     1       9.233  -5.064   7.939  1.00  0.00    -0.258 OA
ENDBRANCH  80  92
BRANCH  81  95
ATOM     95  N   UNL     1       4.449  -3.753   8.015  1.00  0.00     0.065 N 
ATOM     96  O   UNL     1       4.622  -2.727   8.689  1.00  0.00    -0.258 OA
ATOM     97  O   UNL     1       3.619  -4.643   8.242  1.00  0.00    -0.258 OA
ENDBRANCH  81  95
ENDBRANCH  74  77
ENDBRANCH   1  73
TORSDOF 13
