REMARK SMILES COc1ccc(-c2ncn(CC(=O)NCCCNC(=O)c3ccc(-c4c5nc(c(-c6c(F)c(F)c(F)c(F)c6F)c6ccc([nH]6)c(-c6c(F)c(F)c(F)c(F)c6F)c6nc(c(-c7c(F)c(F)c(F)c(F)c7F)c7ccc4[nH]7)C=C6)C=C5)cc3)c2-c2ccc(OC)cc2)cc1
REMARK SMILES IDX 15 1 14 2 12 3 13 4 11 6 10 7 7 8 8 9 84 10 9 11 6 12 3 13
REMARK SMILES IDX 4 14 94 15 5 16 93 17 2 18 1 19 85 20 86 21 92 22 87 23
REMARK SMILES IDX 91 24 88 25 89 26 90 27 16 28 17 29 18 30 19 31 20 33 21 34
REMARK SMILES IDX 22 35 83 36 23 37 82 38 24 39 25 40 26 41 76 42 27 43 81 44
REMARK SMILES IDX 75 45 77 46 28 47 80 48 74 49 73 50 29 52 61 53 41 54 60 55
REMARK SMILES IDX 42 56 45 57 59 58 78 59 43 60 44 61 58 63 79 64 46 65 30 66
REMARK SMILES IDX 31 67 39 68 32 69 33 70 37 71 40 72 34 73 35 74 38 75 36 76
REMARK SMILES IDX 62 77 63 78 71 79 64 80 65 81 69 82 72 83 66 84 67 85 70 86
REMARK SMILES IDX 68 87 47 88 48 89 56 90 49 91 50 92 54 93 57 94 51 95 52 96
REMARK SMILES IDX 55 97 53 98
REMARK H PARENT 14 5 18 32 77 51 45 62
REMARK Flexibility Score: inf
ROOT
ATOM      1  C   UNL     1       0.886  -5.438  -9.324  1.00  0.00     0.117 C 
ENDROOT
BRANCH   1   2
ATOM      2  N   UNL     1       0.090  -4.268  -9.660  1.00  0.00    -0.354 N 
ATOM      3  C   UNL     1       0.454  -2.951  -9.669  1.00  0.00     0.239 C 
ATOM      4  O   UNL     1      -0.316  -2.150 -10.204  1.00  0.00    -0.273 OA
ATOM      5  H   UNL     1      -0.842  -4.451  -9.918  1.00  0.00     0.163 HD
BRANCH   3   6
ATOM      6  C   UNL     1       1.782  -2.504  -9.096  1.00  0.00     0.223 C 
BRANCH   6   7
ATOM      7  N   UNL     1       1.956  -2.837  -7.693  1.00  0.00    -0.321 N 
ATOM      8  C   UNL     1       1.878  -2.943  -5.518  1.00  0.00     0.096 A 
ATOM      9  N   UNL     1       2.900  -3.770  -5.910  1.00  0.00    -0.236 NA
ATOM     10  C   UNL     1       1.279  -2.320  -6.607  1.00  0.00     0.076 A 
ATOM     11  C   UNL     1       2.942  -3.662  -7.216  1.00  0.00     0.201 A 
BRANCH   8  12
ATOM     12  C   UNL     1       1.574  -2.643  -4.133  1.00  0.00     0.003 A 
ATOM     13  C   UNL     1       0.963  -1.729  -1.563  1.00  0.00     0.118 A 
ATOM     14  C   UNL     1      -0.032  -2.306  -2.352  1.00  0.00     0.047 A 
ATOM     15  C   UNL     1       2.278  -1.676  -2.026  1.00  0.00     0.047 A 
ATOM     16  C   UNL     1       0.269  -2.755  -3.639  1.00  0.00     0.014 A 
ATOM     17  C   UNL     1       2.583  -2.137  -3.309  1.00  0.00     0.014 A 
BRANCH  13  18
ATOM     18  O   UNL     1       0.575  -1.284  -0.328  1.00  0.00    -0.497 OA
ATOM     19  C   UNL     1       1.096   0.003  -0.000  1.00  0.00     0.278 C 
ENDBRANCH  13  18
ENDBRANCH   8  12
BRANCH  10  20
ATOM     20  C   UNL     1       0.299  -1.239  -6.646  1.00  0.00     0.001 A 
ATOM     21  C   UNL     1      -0.978  -1.419  -7.178  1.00  0.00     0.014 A 
ATOM     22  C   UNL     1       0.631   0.000  -6.088  1.00  0.00     0.014 A 
ATOM     23  C   UNL     1      -1.889  -0.359  -7.193  1.00  0.00     0.047 A 
ATOM     24  C   UNL     1      -0.288   1.052  -6.078  1.00  0.00     0.047 A 
ATOM     25  C   UNL     1      -1.552   0.878  -6.638  1.00  0.00     0.118 A 
BRANCH  25  26
ATOM     26  O   UNL     1      -2.535   1.826  -6.705  1.00  0.00    -0.497 OA
ATOM     27  C   UNL     1      -2.295   3.038  -6.000  1.00  0.00     0.278 C 
ENDBRANCH  25  26
ENDBRANCH  10  20
ENDBRANCH   6   7
ENDBRANCH   3   6
ENDBRANCH   1   2
BRANCH   1  28
ATOM     28  C   UNL     1       0.576  -6.034  -7.948  1.00  0.00     0.042 C 
BRANCH  28  29
ATOM     29  C   UNL     1      -0.762  -6.744  -7.903  1.00  0.00     0.118 C 
BRANCH  29  30
ATOM     30  N   UNL     1      -0.829  -7.941  -8.757  1.00  0.00    -0.352 N 
ATOM     31  C   UNL     1      -1.854  -8.872  -8.897  1.00  0.00     0.251 C 
ATOM     32  H   UNL     1      -0.032  -8.107  -9.311  1.00  0.00     0.163 HD
ATOM     33  O   UNL     1      -1.651  -9.958  -9.405  1.00  0.00    -0.269 OA
BRANCH  31  34
ATOM     34  C   UNL     1      -3.204  -8.507  -8.425  1.00  0.00     0.039 A 
ATOM     35  C   UNL     1      -4.112  -9.414  -7.866  1.00  0.00     0.014 A 
ATOM     36  C   UNL     1      -3.530  -7.168  -8.510  1.00  0.00     0.014 A 
ATOM     37  C   UNL     1      -5.337  -8.926  -7.407  1.00  0.00     0.010 A 
ATOM     38  C   UNL     1      -4.493  -6.679  -7.695  1.00  0.00     0.010 A 
ATOM     39  C   UNL     1      -5.515  -7.540  -7.354  1.00  0.00    -0.014 A 
BRANCH  39  40
ATOM     40  C   UNL     1      -6.718  -6.861  -6.910  1.00  0.00     0.031 A 
ATOM     41  C   UNL     1      -6.930  -6.950  -5.450  1.00  0.00     0.074 A 
ATOM     42  C   UNL     1      -7.328  -5.948  -7.705  1.00  0.00     0.049 A 
ATOM     43  N   UNL     1      -7.838  -7.622  -4.827  1.00  0.00    -0.248 NA
ATOM     44  C   UNL     1      -5.888  -6.395  -4.567  1.00  0.00     0.031 C 
ATOM     45  C   UNL     1      -6.951  -5.507  -9.058  1.00  0.00     0.029 A 
ATOM     46  N   UNL     1      -8.367  -5.117  -7.412  1.00  0.00    -0.354 N 
ATOM     47  C   UNL     1      -7.616  -7.376  -3.475  1.00  0.00     0.074 A 
ATOM     48  C   UNL     1      -6.273  -6.878  -3.385  1.00  0.00     0.031 C 
ATOM     49  C   UNL     1      -7.602  -4.363  -9.369  1.00  0.00     0.029 A 
ATOM     50  C   UNL     1      -8.547  -4.065  -8.312  1.00  0.00     0.049 A 
ATOM     51  H   UNL     1      -8.945  -5.249  -6.627  1.00  0.00     0.167 HD
ATOM     52  C   UNL     1      -8.662  -7.292  -2.606  1.00  0.00     0.037 A 
ATOM     53  C   UNL     1      -9.389  -3.011  -8.141  1.00  0.00     0.037 A 
ATOM     54  C   UNL     1      -9.863  -7.811  -3.225  1.00  0.00     0.049 A 
ATOM     55  C   UNL     1     -10.363  -3.409  -7.086  1.00  0.00     0.074 A 
ATOM     56  C   UNL     1     -10.225  -9.025  -3.776  1.00  0.00     0.029 A 
ATOM     57  N   UNL     1     -10.766  -6.896  -3.716  1.00  0.00    -0.354 N 
ATOM     58  N   UNL     1     -11.246  -4.357  -7.246  1.00  0.00    -0.248 NA
ATOM     59  C   UNL     1     -10.003  -3.115  -5.706  1.00  0.00     0.031 C 
ATOM     60  C   UNL     1     -10.996  -8.691  -4.929  1.00  0.00     0.029 A 
ATOM     61  C   UNL     1     -11.145  -7.303  -4.966  1.00  0.00     0.049 A 
ATOM     62  H   UNL     1     -11.083  -6.089  -3.249  1.00  0.00     0.167 HD
ATOM     63  C   UNL     1     -11.229  -5.061  -6.050  1.00  0.00     0.074 A 
ATOM     64  C   UNL     1     -10.486  -4.214  -5.118  1.00  0.00     0.031 C 
ATOM     65  C   UNL     1     -11.536  -6.392  -6.015  1.00  0.00     0.037 A 
BRANCH  52  66
ATOM     66  C   UNL     1      -8.733  -6.358  -1.409  1.00  0.00     0.064 A 
ATOM     67  C   UNL     1      -9.919  -6.362  -0.642  1.00  0.00     0.173 A 
ATOM     68  C   UNL     1      -7.870  -5.268  -1.162  1.00  0.00     0.173 A 
ATOM     69  F   UNL     1     -10.803  -7.366  -0.752  1.00  0.00    -0.203 F 
ATOM     70  C   UNL     1     -10.282  -5.287   0.171  1.00  0.00     0.198 A 
ATOM     71  C   UNL     1      -8.215  -4.218  -0.312  1.00  0.00     0.198 A 
ATOM     72  F   UNL     1      -6.702  -5.104  -1.786  1.00  0.00    -0.203 F 
ATOM     73  F   UNL     1     -11.490  -5.271   0.749  1.00  0.00    -0.200 F 
ATOM     74  C   UNL     1      -9.438  -4.204   0.318  1.00  0.00     0.200 A 
ATOM     75  F   UNL     1      -7.378  -3.179  -0.182  1.00  0.00    -0.200 F 
ATOM     76  F   UNL     1      -9.816  -3.135   1.029  1.00  0.00    -0.200 F 
ENDBRANCH  52  66
BRANCH  53  77
ATOM     77  C   UNL     1      -9.219  -1.599  -8.574  1.00  0.00     0.064 A 
ATOM     78  C   UNL     1     -10.302  -0.702  -8.597  1.00  0.00     0.173 A 
ATOM     79  C   UNL     1      -7.938  -1.028  -8.709  1.00  0.00     0.173 A 
ATOM     80  F   UNL     1     -11.553  -1.152  -8.429  1.00  0.00    -0.203 F 
ATOM     81  C   UNL     1     -10.112   0.681  -8.726  1.00  0.00     0.198 A 
ATOM     82  C   UNL     1      -7.750   0.350  -8.841  1.00  0.00     0.198 A 
ATOM     83  F   UNL     1      -6.837  -1.787  -8.620  1.00  0.00    -0.203 F 
ATOM     84  F   UNL     1     -11.166   1.509  -8.686  1.00  0.00    -0.200 F 
ATOM     85  C   UNL     1      -8.835   1.206  -8.837  1.00  0.00     0.200 A 
ATOM     86  F   UNL     1      -6.507   0.848  -8.909  1.00  0.00    -0.200 F 
ATOM     87  F   UNL     1      -8.649   2.533  -8.898  1.00  0.00    -0.200 F 
ENDBRANCH  53  77
BRANCH  65  88
ATOM     88  C   UNL     1     -12.127  -7.017  -7.247  1.00  0.00     0.064 A 
ATOM     89  C   UNL     1     -11.435  -7.172  -8.462  1.00  0.00     0.173 A 
ATOM     90  C   UNL     1     -13.367  -7.656  -7.127  1.00  0.00     0.173 A 
ATOM     91  F   UNL     1     -10.206  -6.671  -8.623  1.00  0.00    -0.203 F 
ATOM     92  C   UNL     1     -11.974  -7.915  -9.512  1.00  0.00     0.198 A 
ATOM     93  C   UNL     1     -13.887  -8.425  -8.163  1.00  0.00     0.198 A 
ATOM     94  F   UNL     1     -14.045  -7.587  -5.971  1.00  0.00    -0.203 F 
ATOM     95  F   UNL     1     -11.291  -8.053 -10.658  1.00  0.00    -0.200 F 
ATOM     96  C   UNL     1     -13.194  -8.550  -9.357  1.00  0.00     0.200 A 
ATOM     97  F   UNL     1     -15.043  -9.079  -7.988  1.00  0.00    -0.200 F 
ATOM     98  F   UNL     1     -13.690  -9.308 -10.345  1.00  0.00    -0.200 F 
ENDBRANCH  65  88
ENDBRANCH  39  40
ENDBRANCH  31  34
ENDBRANCH  29  30
ENDBRANCH  28  29
ENDBRANCH   1  28
TORSDOF 15
