REMARK SMILES [NH3+][C@@H](Cc1cn(-c2nc(Cl)nc(N3CCOCC3)n2)c2ccccc12)C(=O)NCCCNC(=O)c1ccc(-c2c3nc(c(-c4c(F)c(F)c(F)c(F)c4F)c4ccc([nH]4)c(-c4c(F)c(F)c(F)c(F)c4F)c4nc(c(-c5c(F)c(F)c(F)c(F)c5F)c5ccc2[nH]5)C=C4)C=C3)cc1
REMARK SMILES IDX 29 1 28 2 26 3 27 4 2 6 1 7 3 11 4 12 5 13 25 14 6 15 20 16
REMARK SMILES IDX 24 17 21 18 23 19 22 20 7 21 8 22 19 23 9 24 12 25 10 26
REMARK SMILES IDX 11 27 13 28 14 29 18 30 15 31 17 32 16 33 30 34 31 35 32 36
REMARK SMILES IDX 33 37 34 39 35 40 36 41 97 42 37 43 96 44 38 45 39 46 40 47
REMARK SMILES IDX 90 48 41 49 95 50 89 51 91 52 42 53 94 54 88 55 87 56 43 58
REMARK SMILES IDX 75 59 55 60 74 61 56 62 59 63 73 64 92 65 57 66 58 67 72 69
REMARK SMILES IDX 93 70 60 71 44 72 45 73 53 74 46 75 47 76 51 77 54 78 48 79
REMARK SMILES IDX 49 80 52 81 50 82 76 83 77 84 85 85 78 86 79 87 83 88 86 89
REMARK SMILES IDX 80 90 81 91 84 92 82 93 61 94 62 95 70 96 63 97 64 98 68 99
REMARK SMILES IDX 71 100 65 101 66 102 69 103 67 104
REMARK H PARENT 28 5 1 8 1 9 1 10 32 38 91 57 59 68
REMARK Flexibility Score: inf
ROOT
ATOM      1  C   UNL     1      -1.653   0.144   1.707  1.00  0.00     0.118 C 
ENDROOT
BRANCH   1   2
ATOM      2  N   UNL     1      -1.970  -0.749   0.627  1.00  0.00    -0.351 N 
ATOM      3  C   UNL     1      -1.135  -1.663   0.035  1.00  0.00     0.278 C 
ATOM      4  O   UNL     1      -1.677  -2.572  -0.605  1.00  0.00    -0.268 OA
ATOM      5  H   UNL     1      -2.888  -0.699   0.272  1.00  0.00     0.163 HD
BRANCH   3   6
ATOM      6  C   UNL     1       0.423  -1.566   0.093  1.00  0.00     0.275 C 
BRANCH   6   7
ATOM      7  N   UNL     1       0.893  -0.279  -0.469  1.00  0.00    -0.347 N 
ATOM      8  H   UNL     1       1.911  -0.238  -0.420  1.00  0.00     0.345 HD
ATOM      9  H   UNL     1       0.496   0.492   0.068  1.00  0.00     0.345 HD
ATOM     10  H   UNL     1       0.596  -0.204  -1.442  1.00  0.00     0.345 HD
ENDBRANCH   6   7
BRANCH   6  11
ATOM     11  C   UNL     1       1.163  -2.094   1.355  1.00  0.00     0.113 C 
BRANCH  11  12
ATOM     12  C   UNL     1       0.984  -1.406   2.684  1.00  0.00    -0.015 A 
ATOM     13  C   UNL     1       0.478  -2.002   3.826  1.00  0.00     0.099 A 
ATOM     14  C   UNL     1       1.289  -0.053   3.062  1.00  0.00     0.004 A 
ATOM     15  N   UNL     1       0.213  -1.027   4.770  1.00  0.00    -0.285 N 
ATOM     16  C   UNL     1       0.646   0.195   4.285  1.00  0.00     0.056 A 
ATOM     17  C   UNL     1       1.934   1.025   2.416  1.00  0.00     0.010 A 
ATOM     18  C   UNL     1       0.573   1.485   4.838  1.00  0.00     0.027 A 
ATOM     19  C   UNL     1       1.851   2.313   2.953  1.00  0.00     0.001 A 
ATOM     20  C   UNL     1       1.167   2.539   4.141  1.00  0.00     0.002 A 
BRANCH  15  21
ATOM     21  C   UNL     1      -0.411  -1.278   6.023  1.00  0.00     0.240 A 
ATOM     22  N   UNL     1      -1.513  -0.603   6.340  1.00  0.00    -0.181 NA
ATOM     23  N   UNL     1       0.128  -2.250   6.761  1.00  0.00    -0.176 NA
ATOM     24  C   UNL     1      -2.097  -1.093   7.427  1.00  0.00     0.228 A 
ATOM     25  C   UNL     1      -0.503  -2.556   7.887  1.00  0.00     0.231 A 
ATOM     26  Cl  UNL     1      -3.613  -0.460   7.875  1.00  0.00    -0.041 Cl
ATOM     27  N   UNL     1      -1.668  -2.052   8.229  1.00  0.00    -0.182 NA
BRANCH  25  28
ATOM     28  N   UNL     1       0.086  -3.448   8.720  1.00  0.00    -0.336 N 
ATOM     29  C   UNL     1       1.458  -3.254   9.160  1.00  0.00     0.148 C 
ATOM     30  C   UNL     1      -0.667  -4.500   9.377  1.00  0.00     0.148 C 
ATOM     31  C   UNL     1       2.194  -4.595   9.076  1.00  0.00     0.181 C 
ATOM     32  C   UNL     1       0.153  -5.795   9.247  1.00  0.00     0.181 C 
ATOM     33  O   UNL     1       1.483  -5.633   9.779  1.00  0.00    -0.378 OA
ENDBRANCH  25  28
ENDBRANCH  15  21
ENDBRANCH  11  12
ENDBRANCH   6  11
ENDBRANCH   3   6
ENDBRANCH   1   2
BRANCH   1  34
ATOM     34  C   UNL     1      -2.210   1.554   1.652  1.00  0.00     0.042 C 
BRANCH  34  35
ATOM     35  C   UNL     1      -3.676   1.721   2.023  1.00  0.00     0.118 C 
BRANCH  35  36
ATOM     36  N   UNL     1      -4.113   1.002   3.200  1.00  0.00    -0.352 N 
ATOM     37  C   UNL     1      -4.418   1.390   4.481  1.00  0.00     0.251 C 
ATOM     38  H   UNL     1      -4.212   0.034   3.051  1.00  0.00     0.163 HD
ATOM     39  O   UNL     1      -5.265   0.722   5.057  1.00  0.00    -0.269 OA
BRANCH  37  40
ATOM     40  C   UNL     1      -3.709   2.466   5.236  1.00  0.00     0.039 A 
ATOM     41  C   UNL     1      -2.721   3.310   4.738  1.00  0.00     0.014 A 
ATOM     42  C   UNL     1      -4.004   2.529   6.611  1.00  0.00     0.014 A 
ATOM     43  C   UNL     1      -1.973   4.108   5.607  1.00  0.00     0.010 A 
ATOM     44  C   UNL     1      -3.241   3.290   7.489  1.00  0.00     0.010 A 
ATOM     45  C   UNL     1      -2.200   4.060   6.988  1.00  0.00    -0.014 A 
BRANCH  45  46
ATOM     46  C   UNL     1      -1.478   4.992   7.857  1.00  0.00     0.031 A 
ATOM     47  C   UNL     1      -1.852   6.421   7.650  1.00  0.00     0.074 A 
ATOM     48  C   UNL     1      -0.695   4.619   8.893  1.00  0.00     0.049 A 
ATOM     49  N   UNL     1      -1.079   7.429   7.407  1.00  0.00    -0.248 NA
ATOM     50  C   UNL     1      -3.289   6.754   7.641  1.00  0.00     0.031 C 
ATOM     51  C   UNL     1      -0.516   3.262   9.416  1.00  0.00     0.029 A 
ATOM     52  N   UNL     1       0.020   5.388   9.775  1.00  0.00    -0.354 N 
ATOM     53  C   UNL     1      -1.913   8.546   7.371  1.00  0.00     0.074 A 
ATOM     54  C   UNL     1      -3.267   8.064   7.400  1.00  0.00     0.031 C 
ATOM     55  C   UNL     1       0.073   3.326  10.632  1.00  0.00     0.029 A 
ATOM     56  C   UNL     1       0.430   4.707  10.915  1.00  0.00     0.049 A 
ATOM     57  H   UNL     1       0.224   6.338   9.615  1.00  0.00     0.167 HD
ATOM     58  C   UNL     1      -1.431   9.804   7.554  1.00  0.00     0.037 A 
ATOM     59  C   UNL     1       0.979   5.237  12.037  1.00  0.00     0.037 A 
ATOM     60  C   UNL     1      -0.007   9.863   7.407  1.00  0.00     0.049 A 
ATOM     61  C   UNL     1       1.539   6.566  11.704  1.00  0.00     0.074 A 
ATOM     62  C   UNL     1       0.887   9.966   6.367  1.00  0.00     0.029 A 
ATOM     63  N   UNL     1       0.690   9.467   8.513  1.00  0.00    -0.354 N 
ATOM     64  N   UNL     1       2.571   6.749  10.931  1.00  0.00    -0.248 NA
ATOM     65  C   UNL     1       0.782   7.770  12.036  1.00  0.00     0.031 C 
ATOM     66  C   UNL     1       2.130   9.463   6.855  1.00  0.00     0.029 A 
ATOM     67  C   UNL     1       1.962   9.083   8.183  1.00  0.00     0.049 A 
ATOM     68  H   UNL     1       0.325   9.458   9.427  1.00  0.00     0.167 HD
ATOM     69  C   UNL     1       2.345   7.980  10.356  1.00  0.00     0.074 A 
ATOM     70  C   UNL     1       1.359   8.636  11.200  1.00  0.00     0.031 C 
ATOM     71  C   UNL     1       2.709   8.220   9.067  1.00  0.00     0.037 A 
BRANCH  58  72
ATOM     72  C   UNL     1      -2.184  10.891   8.278  1.00  0.00     0.064 A 
ATOM     73  C   UNL     1      -1.758  12.229   8.187  1.00  0.00     0.173 A 
ATOM     74  C   UNL     1      -3.123  10.615   9.296  1.00  0.00     0.173 A 
ATOM     75  F   UNL     1      -0.827  12.589   7.291  1.00  0.00    -0.203 F 
ATOM     76  C   UNL     1      -2.229  13.213   9.064  1.00  0.00     0.198 A 
ATOM     77  C   UNL     1      -3.629  11.606  10.134  1.00  0.00     0.198 A 
ATOM     78  F   UNL     1      -3.496   9.360   9.584  1.00  0.00    -0.203 F 
ATOM     79  F   UNL     1      -1.729  14.455   9.004  1.00  0.00    -0.200 F 
ATOM     80  C   UNL     1      -3.167  12.902  10.032  1.00  0.00     0.200 A 
ATOM     81  F   UNL     1      -4.512  11.277  11.088  1.00  0.00    -0.200 F 
ATOM     82  F   UNL     1      -3.590  13.833  10.897  1.00  0.00    -0.200 F 
ENDBRANCH  58  72
BRANCH  59  83
ATOM     83  C   UNL     1       0.892   4.778  13.445  1.00  0.00     0.064 A 
ATOM     84  C   UNL     1       1.797   5.244  14.415  1.00  0.00     0.173 A 
ATOM     85  C   UNL     1      -0.253   4.117  13.924  1.00  0.00     0.173 A 
ATOM     86  F   UNL     1       2.901   5.911  14.046  1.00  0.00    -0.203 F 
ATOM     87  C   UNL     1       1.545   5.103  15.783  1.00  0.00     0.198 A 
ATOM     88  C   UNL     1      -0.499   3.967  15.290  1.00  0.00     0.198 A 
ATOM     89  F   UNL     1      -1.204   3.692  13.080  1.00  0.00    -0.203 F 
ATOM     90  F   UNL     1       2.392   5.631  16.677  1.00  0.00    -0.200 F 
ATOM     91  C   UNL     1       0.389   4.479  16.219  1.00  0.00     0.200 A 
ATOM     92  F   UNL     1      -1.636   3.388  15.701  1.00  0.00    -0.200 F 
ATOM     93  F   UNL     1       0.109   4.408  17.528  1.00  0.00    -0.200 F 
ENDBRANCH  59  83
BRANCH  71  94
ATOM     94  C   UNL     1       3.812   7.389   8.499  1.00  0.00     0.064 A 
ATOM     95  C   UNL     1       3.717   6.011   8.252  1.00  0.00     0.173 A 
ATOM     96  C   UNL     1       4.999   8.037   8.132  1.00  0.00     0.173 A 
ATOM     97  F   UNL     1       2.586   5.341   8.506  1.00  0.00    -0.203 F 
ATOM     98  C   UNL     1       4.784   5.307   7.696  1.00  0.00     0.198 A 
ATOM     99  C   UNL     1       6.048   7.340   7.543  1.00  0.00     0.198 A 
ATOM    100  F   UNL     1       5.126   9.361   8.313  1.00  0.00    -0.203 F 
ATOM    101  F   UNL     1       4.682   3.987   7.486  1.00  0.00    -0.200 F 
ATOM    102  C   UNL     1       5.945   5.974   7.336  1.00  0.00     0.200 A 
ATOM    103  F   UNL     1       7.151   7.996   7.159  1.00  0.00    -0.200 F 
ATOM    104  F   UNL     1       6.957   5.304   6.767  1.00  0.00    -0.200 F 
ENDBRANCH  71  94
ENDBRANCH  45  46
ENDBRANCH  37  40
ENDBRANCH  35  36
ENDBRANCH  34  35
ENDBRANCH   1  34
TORSDOF 15
