REMARK SMILES O=C(NCCCNC(=O)[C@H]1CC[C@H](CN2C(=O)c3cccnc3C2=O)O1)c1ccc(-c2c3nc(c(-c4c(F)c(F)c(F)c(F)c4F)c4ccc([nH]4)c(-c4c(F)c(F)c(F)c(F)c4F)c4nc(c(-c5c(F)c(F)c(F)c(F)c5F)c5ccc2[nH]5)C=C4)C=C3)cc1
REMARK SMILES IDX 5 1 4 2 3 3 1 4 2 5 27 7 28 8 89 9 29 10 88 11 30 12 31 13
REMARK SMILES IDX 32 14 82 15 33 16 87 17 81 18 83 19 34 20 86 21 80 22 79 23
REMARK SMILES IDX 35 25 67 26 47 27 66 28 48 29 51 30 65 31 84 32 49 33 50 34
REMARK SMILES IDX 64 36 85 37 52 38 36 39 37 40 45 41 38 42 39 43 43 44 46 45
REMARK SMILES IDX 40 46 41 47 44 48 42 49 68 50 69 51 77 52 70 53 71 54 75 55
REMARK SMILES IDX 78 56 72 57 73 58 76 59 74 60 53 61 54 62 62 63 55 64 56 65
REMARK SMILES IDX 60 66 63 67 57 68 58 69 61 70 59 71 6 72 7 73 8 74 9 76
REMARK SMILES IDX 10 77 11 78 26 79 12 80 13 81 14 82 15 83 16 84 24 85 17 86
REMARK SMILES IDX 18 87 23 88 25 89 19 90 22 91 20 92 21 93
REMARK H PARENT 3 6 83 24 51 35 7 75
REMARK Flexibility Score: inf
ROOT
ATOM      1  C   UNL     1       5.341   4.213  -0.983  1.00  0.00     0.042 C 
ENDROOT
BRANCH   1   2
ATOM      2  C   UNL     1       6.225   3.878  -2.179  1.00  0.00     0.118 C 
BRANCH   2   3
ATOM      3  N   UNL     1       6.273   2.448  -2.455  1.00  0.00    -0.352 N 
ATOM      4  O   UNL     1       5.840   0.538  -3.568  1.00  0.00    -0.269 OA
ATOM      5  C   UNL     1       5.910   1.763  -3.587  1.00  0.00     0.251 C 
ATOM      6  H   UNL     1       6.618   1.891  -1.721  1.00  0.00     0.163 HD
BRANCH   5   7
ATOM      7  C   UNL     1       5.602   2.500  -4.829  1.00  0.00     0.039 A 
ATOM      8  C   UNL     1       6.409   3.564  -5.238  1.00  0.00     0.014 A 
ATOM      9  C   UNL     1       4.523   2.092  -5.618  1.00  0.00     0.014 A 
ATOM     10  C   UNL     1       6.073   4.292  -6.372  1.00  0.00     0.010 A 
ATOM     11  C   UNL     1       4.240   2.767  -6.809  1.00  0.00     0.010 A 
ATOM     12  C   UNL     1       5.012   3.876  -7.190  1.00  0.00    -0.014 A 
BRANCH  12  13
ATOM     13  C   UNL     1       4.824   4.529  -8.508  1.00  0.00     0.031 A 
ATOM     14  C   UNL     1       3.586   5.314  -8.828  1.00  0.00     0.074 A 
ATOM     15  C   UNL     1       5.806   4.396  -9.422  1.00  0.00     0.049 A 
ATOM     16  N   UNL     1       3.268   5.926  -9.941  1.00  0.00    -0.248 NA
ATOM     17  C   UNL     1       2.569   5.425  -7.771  1.00  0.00     0.031 C 
ATOM     18  C   UNL     1       7.044   3.636  -9.219  1.00  0.00     0.029 A 
ATOM     19  N   UNL     1       5.928   4.889 -10.695  1.00  0.00    -0.354 N 
ATOM     20  C   UNL     1       2.013   6.479  -9.728  1.00  0.00     0.074 A 
ATOM     21  C   UNL     1       1.616   6.118  -8.383  1.00  0.00     0.031 C 
ATOM     22  C   UNL     1       7.810   3.739 -10.314  1.00  0.00     0.029 A 
ATOM     23  C   UNL     1       7.088   4.503 -11.322  1.00  0.00     0.049 A 
ATOM     24  H   UNL     1       5.250   5.464 -11.119  1.00  0.00     0.167 HD
ATOM     25  C   UNL     1       1.270   7.221 -10.583  1.00  0.00     0.037 A 
ATOM     26  C   UNL     1       7.508   4.707 -12.584  1.00  0.00     0.037 A 
ATOM     27  C   UNL     1       1.690   7.588 -11.913  1.00  0.00     0.049 A 
ATOM     28  C   UNL     1       6.636   5.499 -13.515  1.00  0.00     0.074 A 
ATOM     29  C   UNL     1       1.038   8.399 -12.827  1.00  0.00     0.029 A 
ATOM     30  N   UNL     1       2.858   7.157 -12.524  1.00  0.00    -0.354 N 
ATOM     31  N   UNL     1       5.486   6.081 -13.277  1.00  0.00    -0.248 NA
ATOM     32  C   UNL     1       7.116   5.659 -14.894  1.00  0.00     0.031 C 
ATOM     33  C   UNL     1       1.775   8.400 -14.015  1.00  0.00     0.029 A 
ATOM     34  C   UNL     1       2.920   7.645 -13.821  1.00  0.00     0.049 A 
ATOM     35  H   UNL     1       3.542   6.590 -12.101  1.00  0.00     0.167 HD
ATOM     36  C   UNL     1       5.112   6.685 -14.467  1.00  0.00     0.074 A 
ATOM     37  C   UNL     1       6.175   6.430 -15.417  1.00  0.00     0.031 C 
ATOM     38  C   UNL     1       3.984   7.378 -14.754  1.00  0.00     0.037 A 
BRANCH  25  39
ATOM     39  C   UNL     1      -0.088   7.680 -10.139  1.00  0.00     0.064 A 
ATOM     40  C   UNL     1      -0.251   8.706  -9.198  1.00  0.00     0.173 A 
ATOM     41  C   UNL     1      -1.240   7.164 -10.754  1.00  0.00     0.173 A 
ATOM     42  F   UNL     1       0.816   9.231  -8.578  1.00  0.00    -0.203 F 
ATOM     43  C   UNL     1      -1.518   9.197  -8.887  1.00  0.00     0.198 A 
ATOM     44  C   UNL     1      -2.502   7.675 -10.460  1.00  0.00     0.198 A 
ATOM     45  F   UNL     1      -1.139   6.188 -11.668  1.00  0.00    -0.203 F 
ATOM     46  F   UNL     1      -1.654  10.167  -7.972  1.00  0.00    -0.200 F 
ATOM     47  C   UNL     1      -2.640   8.690  -9.527  1.00  0.00     0.200 A 
ATOM     48  F   UNL     1      -3.581   7.196 -11.094  1.00  0.00    -0.200 F 
ATOM     49  F   UNL     1      -3.854   9.183  -9.246  1.00  0.00    -0.200 F 
ENDBRANCH  25  39
BRANCH  26  50
ATOM     50  C   UNL     1       8.786   4.108 -13.053  1.00  0.00     0.064 A 
ATOM     51  C   UNL     1       9.861   4.912 -13.455  1.00  0.00     0.173 A 
ATOM     52  C   UNL     1       8.945   2.716 -13.143  1.00  0.00     0.173 A 
ATOM     53  F   UNL     1       9.754   6.248 -13.405  1.00  0.00    -0.203 F 
ATOM     54  C   UNL     1      11.028   4.348 -13.966  1.00  0.00     0.198 A 
ATOM     55  C   UNL     1      10.128   2.153 -13.614  1.00  0.00     0.198 A 
ATOM     56  F   UNL     1       7.950   1.899 -12.765  1.00  0.00    -0.203 F 
ATOM     57  F   UNL     1      12.012   5.142 -14.410  1.00  0.00    -0.200 F 
ATOM     58  C   UNL     1      11.163   2.970 -14.040  1.00  0.00     0.200 A 
ATOM     59  F   UNL     1      10.259   0.821 -13.665  1.00  0.00    -0.200 F 
ATOM     60  F   UNL     1      12.284   2.430 -14.537  1.00  0.00    -0.200 F 
ENDBRANCH  26  50
BRANCH  38  61
ATOM     61  C   UNL     1       3.852   7.920 -16.148  1.00  0.00     0.064 A 
ATOM     62  C   UNL     1       3.639   7.072 -17.246  1.00  0.00     0.173 A 
ATOM     63  C   UNL     1       3.908   9.301 -16.385  1.00  0.00     0.173 A 
ATOM     64  F   UNL     1       3.597   5.742 -17.074  1.00  0.00    -0.203 F 
ATOM     65  C   UNL     1       3.517   7.587 -18.533  1.00  0.00     0.198 A 
ATOM     66  C   UNL     1       3.749   9.814 -17.669  1.00  0.00     0.198 A 
ATOM     67  F   UNL     1       4.105  10.155 -15.369  1.00  0.00    -0.203 F 
ATOM     68  F   UNL     1       3.371   6.755 -19.573  1.00  0.00    -0.200 F 
ATOM     69  C   UNL     1       3.563   8.957 -18.742  1.00  0.00     0.200 A 
ATOM     70  F   UNL     1       3.778  11.139 -17.867  1.00  0.00    -0.200 F 
ATOM     71  F   UNL     1       3.436   9.451 -19.981  1.00  0.00    -0.200 F 
ENDBRANCH  38  61
ENDBRANCH  12  13
ENDBRANCH   5   7
ENDBRANCH   2   3
ENDBRANCH   1   2
BRANCH   1  72
ATOM     72  C   UNL     1       5.863   3.641   0.330  1.00  0.00     0.117 C 
BRANCH  72  73
ATOM     73  N   UNL     1       7.138   4.229   0.700  1.00  0.00    -0.354 N 
ATOM     74  C   UNL     1       7.377   5.213   1.620  1.00  0.00     0.249 C 
ATOM     75  H   UNL     1       7.928   3.875   0.231  1.00  0.00     0.163 HD
ATOM     76  O   UNL     1       8.526   5.641   1.729  1.00  0.00    -0.272 OA
BRANCH  74  77
ATOM     77  C   UNL     1       6.210   5.683   2.512  1.00  0.00     0.207 C 
ATOM     78  C   UNL     1       6.599   6.801   3.463  1.00  0.00     0.045 C 
ATOM     79  O   UNL     1       5.121   6.185   1.723  1.00  0.00    -0.363 OA
ATOM     80  C   UNL     1       6.277   8.034   2.658  1.00  0.00     0.037 C 
ATOM     81  C   UNL     1       5.043   7.616   1.871  1.00  0.00     0.139 C 
BRANCH  81  82
ATOM     82  C   UNL     1       3.705   7.948   2.554  1.00  0.00     0.161 C 
BRANCH  82  83
ATOM     83  N   UNL     1       3.526   9.363   2.808  1.00  0.00    -0.270 N 
ATOM     84  C   UNL     1       3.468   9.918   4.057  1.00  0.00     0.263 C 
ATOM     85  C   UNL     1       3.411  10.309   1.823  1.00  0.00     0.280 C 
ATOM     86  O   UNL     1       3.542   9.380   5.142  1.00  0.00    -0.269 OA
ATOM     87  C   UNL     1       3.320  11.354   3.868  1.00  0.00     0.071 A 
ATOM     88  C   UNL     1       3.290  11.599   2.516  1.00  0.00     0.141 A 
ATOM     89  O   UNL     1       3.426  10.133   0.618  1.00  0.00    -0.267 OA
ATOM     90  C   UNL     1       3.247  12.399   4.762  1.00  0.00     0.018 A 
ATOM     91  N   UNL     1       3.204  12.810   1.938  1.00  0.00    -0.250 NA
ATOM     92  C   UNL     1       3.153  13.681   4.216  1.00  0.00     0.021 A 
ATOM     93  C   UNL     1       3.138  13.836   2.822  1.00  0.00     0.112 A 
ENDBRANCH  82  83
ENDBRANCH  81  82
ENDBRANCH  74  77
ENDBRANCH  72  73
ENDBRANCH   1  72
TORSDOF 12
