REMARK SMILES C[C@H](C[N@@H+](C)[C@@H](C)[C@@H](C)O)C(=O)NCCCNC(=O)c1ccc(-c2c3nc(c(-c4c(F)c(F)c(F)c(F)c4F)c4ccc([nH]4)c(-c4c(F)c(F)c(F)c(F)c4F)c4nc(c(-c5c(F)c(F)c(F)c(F)c5F)c5ccc2[nH]5)C=C4)C=C3)cc1
REMARK SMILES IDX 11 1 12 2 13 3 2 5 1 6 3 7 4 8 5 9 6 11 7 12 8 13 9 14 10 15
REMARK SMILES IDX 14 17 15 18 16 19 17 20 18 21 19 23 20 24 21 25 82 26 22 27
REMARK SMILES IDX 81 28 23 29 24 30 25 31 75 32 26 33 80 34 74 35 76 36 27 37
REMARK SMILES IDX 79 38 73 39 72 40 28 42 60 43 40 44 59 45 41 46 44 47 58 48
REMARK SMILES IDX 77 49 42 50 43 51 57 53 78 54 45 55 29 56 30 57 38 58 31 59
REMARK SMILES IDX 32 60 36 61 39 62 33 63 34 64 37 65 35 66 61 67 62 68 70 69
REMARK SMILES IDX 63 70 64 71 68 72 71 73 65 74 66 75 69 76 67 77 46 78 47 79
REMARK SMILES IDX 55 80 48 81 49 82 53 83 56 84 50 85 51 86 54 87 52 88
REMARK H PARENT 13 4 4 10 10 16 17 22 76 41 44 52
REMARK Flexibility Score: inf
ROOT
ATOM      1  C   UNL     1      -0.259   2.448   0.977  1.00  0.00     0.228 C 
ATOM      2  O   UNL     1      -0.771   2.854   2.029  1.00  0.00    -0.275 OA
ATOM      3  N   UNL     1      -0.590   3.133  -0.148  1.00  0.00    -0.356 N 
ATOM      4  H   UNL     1      -1.360   3.735  -0.036  1.00  0.00     0.163 HD
ENDROOT
BRANCH   1   5
ATOM      5  C   UNL     1       0.712   1.279   1.039  1.00  0.00     0.130 C 
ATOM      6  C   UNL     1       2.157   1.777   0.915  1.00  0.00     0.024 C 
BRANCH   5   7
ATOM      7  C   UNL     1       0.442  -0.011   0.229  1.00  0.00     0.275 C 
BRANCH   7   8
ATOM      8  N   UNL     1      -0.664  -0.052  -0.750  1.00  0.00    -0.332 N 
ATOM      9  C   UNL     1      -0.126  -0.578  -2.024  1.00  0.00     0.333 C 
ATOM     10  H   UNL     1      -1.008   0.904  -0.836  1.00  0.00     0.348 HD
BRANCH   8  11
ATOM     11  C   UNL     1      -1.872  -0.844  -0.336  1.00  0.00     0.209 C 
ATOM     12  C   UNL     1      -1.630  -2.374  -0.304  1.00  0.00     0.078 C 
BRANCH  11  13
ATOM     13  C   UNL     1      -2.627  -0.417   0.976  1.00  0.00     0.169 C 
ATOM     14  C   UNL     1      -3.309   0.943   0.941  1.00  0.00     0.045 C 
BRANCH  13  15
ATOM     15  O   UNL     1      -3.689  -1.350   1.250  1.00  0.00    -0.387 OA
ATOM     16  H   UNL     1      -4.346  -1.311   0.537  1.00  0.00     0.211 HD
ENDBRANCH  13  15
ENDBRANCH  11  13
ENDBRANCH   8  11
ENDBRANCH   7   8
ENDBRANCH   5   7
ENDBRANCH   1   5
BRANCH   3  17
ATOM     17  C   UNL     1      -0.026   3.147  -1.480  1.00  0.00     0.117 C 
BRANCH  17  18
ATOM     18  C   UNL     1      -0.935   2.732  -2.650  1.00  0.00     0.042 C 
BRANCH  18  19
ATOM     19  C   UNL     1      -2.407   2.451  -2.376  1.00  0.00     0.118 C 
BRANCH  19  20
ATOM     20  N   UNL     1      -3.252   3.619  -2.564  1.00  0.00    -0.352 N 
ATOM     21  C   UNL     1      -4.038   3.982  -3.631  1.00  0.00     0.251 C 
ATOM     22  H   UNL     1      -3.262   4.250  -1.808  1.00  0.00     0.163 HD
ATOM     23  O   UNL     1      -4.544   5.098  -3.663  1.00  0.00    -0.269 OA
BRANCH  21  24
ATOM     24  C   UNL     1      -4.267   3.056  -4.766  1.00  0.00     0.039 A 
ATOM     25  C   UNL     1      -4.089   3.541  -6.066  1.00  0.00     0.014 A 
ATOM     26  C   UNL     1      -4.731   1.752  -4.572  1.00  0.00     0.014 A 
ATOM     27  C   UNL     1      -4.312   2.705  -7.166  1.00  0.00     0.010 A 
ATOM     28  C   UNL     1      -4.915   0.904  -5.670  1.00  0.00     0.010 A 
ATOM     29  C   UNL     1      -4.700   1.369  -6.978  1.00  0.00    -0.014 A 
BRANCH  29  30
ATOM     30  C   UNL     1      -4.855   0.445  -8.135  1.00  0.00     0.031 A 
ATOM     31  C   UNL     1      -6.208  -0.083  -8.524  1.00  0.00     0.074 A 
ATOM     32  C   UNL     1      -3.763   0.033  -8.809  1.00  0.00     0.049 A 
ATOM     33  N   UNL     1      -6.520  -0.964  -9.443  1.00  0.00    -0.248 NA
ATOM     34  C   UNL     1      -7.360   0.437  -7.774  1.00  0.00     0.031 C 
ATOM     35  C   UNL     1      -2.391   0.455  -8.529  1.00  0.00     0.029 A 
ATOM     36  N   UNL     1      -3.634  -0.845  -9.858  1.00  0.00    -0.354 N 
ATOM     37  C   UNL     1      -7.899  -1.115  -9.373  1.00  0.00     0.074 A 
ATOM     38  C   UNL     1      -8.361  -0.256  -8.302  1.00  0.00     0.031 C 
ATOM     39  C   UNL     1      -1.560  -0.159  -9.386  1.00  0.00     0.029 A 
ATOM     40  C   UNL     1      -2.333  -1.047 -10.250  1.00  0.00     0.049 A 
ATOM     41  H   UNL     1      -4.401  -1.287 -10.288  1.00  0.00     0.167 HD
ATOM     42  C   UNL     1      -8.707  -1.888 -10.139  1.00  0.00     0.037 A 
ATOM     43  C   UNL     1      -1.816  -1.868 -11.185  1.00  0.00     0.037 A 
ATOM     44  C   UNL     1      -8.256  -2.726 -11.220  1.00  0.00     0.049 A 
ATOM     45  C   UNL     1      -2.733  -2.735 -12.004  1.00  0.00     0.074 A 
ATOM     46  C   UNL     1      -9.011  -3.507 -12.079  1.00  0.00     0.029 A 
ATOM     47  N   UNL     1      -6.931  -2.895 -11.591  1.00  0.00    -0.354 N 
ATOM     48  N   UNL     1      -4.038  -2.834 -11.957  1.00  0.00    -0.248 NA
ATOM     49  C   UNL     1      -2.103  -3.605 -13.009  1.00  0.00     0.031 C 
ATOM     50  C   UNL     1      -8.141  -4.179 -12.944  1.00  0.00     0.029 A 
ATOM     51  C   UNL     1      -6.846  -3.783 -12.653  1.00  0.00     0.049 A 
ATOM     52  H   UNL     1      -6.163  -2.451 -11.164  1.00  0.00     0.167 HD
ATOM     53  C   UNL     1      -4.388  -3.747 -12.943  1.00  0.00     0.074 A 
ATOM     54  C   UNL     1      -3.158  -4.173 -13.576  1.00  0.00     0.031 C 
ATOM     55  C   UNL     1      -5.620  -4.187 -13.291  1.00  0.00     0.037 A 
BRANCH  42  56
ATOM     56  C   UNL     1     -10.176  -1.873  -9.835  1.00  0.00     0.064 A 
ATOM     57  C   UNL     1     -10.981  -0.770 -10.153  1.00  0.00     0.173 A 
ATOM     58  C   UNL     1     -10.797  -2.999  -9.272  1.00  0.00     0.173 A 
ATOM     59  F   UNL     1     -10.434   0.333 -10.687  1.00  0.00    -0.203 F 
ATOM     60  C   UNL     1     -12.350  -0.784  -9.898  1.00  0.00     0.198 A 
ATOM     61  C   UNL     1     -12.170  -3.020  -9.042  1.00  0.00     0.198 A 
ATOM     62  F   UNL     1     -10.074  -4.085  -8.959  1.00  0.00    -0.203 F 
ATOM     63  F   UNL     1     -13.093   0.296 -10.175  1.00  0.00    -0.200 F 
ATOM     64  C   UNL     1     -12.944  -1.911  -9.349  1.00  0.00     0.200 A 
ATOM     65  F   UNL     1     -12.745  -4.115  -8.525  1.00  0.00    -0.200 F 
ATOM     66  F   UNL     1     -14.263  -1.926  -9.112  1.00  0.00    -0.200 F 
ENDBRANCH  42  56
BRANCH  43  67
ATOM     67  C   UNL     1      -0.348  -1.903 -11.405  1.00  0.00     0.064 A 
ATOM     68  C   UNL     1       0.218  -1.371 -12.571  1.00  0.00     0.173 A 
ATOM     69  C   UNL     1       0.517  -2.469 -10.457  1.00  0.00     0.173 A 
ATOM     70  F   UNL     1      -0.572  -0.840 -13.516  1.00  0.00    -0.203 F 
ATOM     71  C   UNL     1       1.593  -1.417 -12.789  1.00  0.00     0.198 A 
ATOM     72  C   UNL     1       1.894  -2.491 -10.664  1.00  0.00     0.198 A 
ATOM     73  F   UNL     1       0.024  -2.989  -9.323  1.00  0.00    -0.203 F 
ATOM     74  F   UNL     1       2.105  -0.937 -13.931  1.00  0.00    -0.200 F 
ATOM     75  C   UNL     1       2.431  -1.971 -11.833  1.00  0.00     0.200 A 
ATOM     76  F   UNL     1       2.701  -3.016  -9.732  1.00  0.00    -0.200 F 
ATOM     77  F   UNL     1       3.754  -2.011 -12.040  1.00  0.00    -0.200 F 
ENDBRANCH  43  67
BRANCH  55  78
ATOM     78  C   UNL     1      -5.716  -5.147 -14.441  1.00  0.00     0.064 A 
ATOM     79  C   UNL     1      -5.345  -6.492 -14.310  1.00  0.00     0.173 A 
ATOM     80  C   UNL     1      -6.241  -4.725 -15.672  1.00  0.00     0.173 A 
ATOM     81  F   UNL     1      -4.822  -6.939 -13.158  1.00  0.00    -0.203 F 
ATOM     82  C   UNL     1      -5.483  -7.378 -15.376  1.00  0.00     0.198 A 
ATOM     83  C   UNL     1      -6.400  -5.619 -16.727  1.00  0.00     0.198 A 
ATOM     84  F   UNL     1      -6.614  -3.448 -15.846  1.00  0.00    -0.203 F 
ATOM     85  F   UNL     1      -5.091  -8.653 -15.240  1.00  0.00    -0.200 F 
ATOM     86  C   UNL     1      -6.018  -6.943 -16.580  1.00  0.00     0.200 A 
ATOM     87  F   UNL     1      -6.926  -5.199 -17.886  1.00  0.00    -0.200 F 
ATOM     88  F   UNL     1      -6.160  -7.800 -17.600  1.00  0.00    -0.200 F 
ENDBRANCH  55  78
ENDBRANCH  29  30
ENDBRANCH  21  24
ENDBRANCH  19  20
ENDBRANCH  18  19
ENDBRANCH  17  18
ENDBRANCH   3  17
TORSDOF 15
