REMARK SMILES C=CCN(CC(=O)NCCCNC(=O)c1ccc(-c2c3nc(c(-c4c(F)c(F)c(F)c(F)c4F)c4ccc([nH]4)c(-c4c(F)c(F)c(F)c(F)c4F)c4nc(c(-c5c(F)c(F)c(F)c(F)c5F)c5ccc2[nH]5)C=C4)C=C3)cc1)C(=O)NCC(C)C
REMARK SMILES IDX 9 1 8 2 6 3 7 4 5 6 4 7 3 8 2 9 1 10 78 11 79 12 80 13 81 15
REMARK SMILES IDX 82 16 83 17 84 18 10 19 11 20 12 21 13 22 14 24 15 25 16 26
REMARK SMILES IDX 77 27 17 28 76 29 18 30 19 31 20 32 70 33 21 34 75 35 69 36
REMARK SMILES IDX 71 37 22 38 74 39 68 40 67 41 23 43 55 44 35 45 54 46 36 47
REMARK SMILES IDX 39 48 53 49 72 50 37 51 38 52 52 54 73 55 40 56 24 57 25 58
REMARK SMILES IDX 33 59 26 60 27 61 31 62 34 63 28 64 29 65 32 66 30 67 56 68
REMARK SMILES IDX 57 69 65 70 58 71 59 72 63 73 66 74 60 75 61 76 64 77 62 78
REMARK SMILES IDX 41 79 42 80 50 81 43 82 44 83 48 84 51 85 45 86 46 87 49 88
REMARK SMILES IDX 47 89
REMARK H PARENT 8 5 80 14 12 23 71 42 39 53
REMARK Flexibility Score: inf
ROOT
ATOM      1  C   UNL     1      -4.493  -0.114   0.940  1.00  0.00     0.117 C 
ENDROOT
BRANCH   1   2
ATOM      2  N   UNL     1      -4.772  -1.355   1.627  1.00  0.00    -0.354 N 
ATOM      3  C   UNL     1      -3.985  -2.047   2.499  1.00  0.00     0.239 C 
ATOM      4  O   UNL     1      -4.569  -2.751   3.330  1.00  0.00    -0.273 OA
ATOM      5  H   UNL     1      -5.652  -1.756   1.440  1.00  0.00     0.163 HD
BRANCH   3   6
ATOM      6  C   UNL     1      -2.463  -1.847   2.579  1.00  0.00     0.221 C 
BRANCH   6   7
ATOM      7  N   UNL     1      -1.763  -1.820   1.297  1.00  0.00    -0.312 N 
BRANCH   7   8
ATOM      8  C   UNL     1      -1.136  -0.549   0.927  1.00  0.00     0.149 C 
BRANCH   8   9
ATOM      9  C   UNL     1       0.353  -0.604   1.103  1.00  0.00    -0.013 C 
ATOM     10  C   UNL     1       1.213  -0.219   0.148  1.00  0.00     0.006 C 
ENDBRANCH   8   9
ENDBRANCH   7   8
BRANCH   7  11
ATOM     11  C   UNL     1      -1.595  -2.864   0.432  1.00  0.00     0.318 C 
ATOM     12  O   UNL     1      -1.063  -2.702  -0.673  1.00  0.00    -0.249 OA
ATOM     13  N   UNL     1      -1.980  -4.125   0.674  1.00  0.00    -0.338 N 
ATOM     14  H   UNL     1      -1.731  -4.704  -0.082  1.00  0.00     0.165 HD
BRANCH  13  15
ATOM     15  C   UNL     1      -2.654  -4.912   1.703  1.00  0.00     0.120 C 
BRANCH  15  16
ATOM     16  C   UNL     1      -4.026  -5.411   1.212  1.00  0.00     0.002 C 
ATOM     17  C   UNL     1      -3.874  -6.503   0.148  1.00  0.00     0.009 C 
ATOM     18  C   UNL     1      -4.860  -5.959   2.372  1.00  0.00     0.009 C 
ENDBRANCH  15  16
ENDBRANCH  13  15
ENDBRANCH   7  11
ENDBRANCH   6   7
ENDBRANCH   3   6
ENDBRANCH   1   2
BRANCH   1  19
ATOM     19  C   UNL     1      -4.367  -0.259  -0.571  1.00  0.00     0.042 C 
BRANCH  19  20
ATOM     20  C   UNL     1      -5.646  -0.705  -1.272  1.00  0.00     0.118 C 
BRANCH  20  21
ATOM     21  N   UNL     1      -6.764   0.204  -1.046  1.00  0.00    -0.352 N 
ATOM     22  C   UNL     1      -7.438   1.032  -1.903  1.00  0.00     0.251 C 
ATOM     23  H   UNL     1      -7.090   0.227  -0.117  1.00  0.00     0.163 HD
ATOM     24  O   UNL     1      -8.223   1.867  -1.441  1.00  0.00    -0.269 OA
BRANCH  22  25
ATOM     25  C   UNL     1      -7.239   0.957  -3.364  1.00  0.00     0.039 A 
ATOM     26  C   UNL     1      -7.207   2.145  -4.103  1.00  0.00     0.014 A 
ATOM     27  C   UNL     1      -7.133  -0.271  -4.020  1.00  0.00     0.014 A 
ATOM     28  C   UNL     1      -6.999   2.103  -5.484  1.00  0.00     0.010 A 
ATOM     29  C   UNL     1      -6.847  -0.310  -5.383  1.00  0.00     0.010 A 
ATOM     30  C   UNL     1      -6.777   0.876  -6.130  1.00  0.00    -0.014 A 
BRANCH  30  31
ATOM     31  C   UNL     1      -6.462   0.810  -7.580  1.00  0.00     0.031 A 
ATOM     32  C   UNL     1      -7.393   0.107  -8.528  1.00  0.00     0.074 A 
ATOM     33  C   UNL     1      -5.298   1.318  -8.030  1.00  0.00     0.049 A 
ATOM     34  N   UNL     1      -7.246  -0.137  -9.806  1.00  0.00    -0.248 NA
ATOM     35  C   UNL     1      -8.644  -0.417  -7.958  1.00  0.00     0.031 C 
ATOM     36  C   UNL     1      -4.291   1.983  -7.202  1.00  0.00     0.029 A 
ATOM     37  N   UNL     1      -4.757   1.339  -9.291  1.00  0.00    -0.354 N 
ATOM     38  C   UNL     1      -8.372  -0.855 -10.187  1.00  0.00     0.074 A 
ATOM     39  C   UNL     1      -9.170  -1.051  -8.996  1.00  0.00     0.031 C 
ATOM     40  C   UNL     1      -3.264   2.362  -7.978  1.00  0.00     0.029 A 
ATOM     41  C   UNL     1      -3.518   1.930  -9.349  1.00  0.00     0.049 A 
ATOM     42  H   UNL     1      -5.214   0.967 -10.080  1.00  0.00     0.167 HD
ATOM     43  C   UNL     1      -8.718  -1.292 -11.422  1.00  0.00     0.037 A 
ATOM     44  C   UNL     1      -2.676   2.092 -10.387  1.00  0.00     0.037 A 
ATOM     45  C   UNL     1      -7.932  -1.073 -12.608  1.00  0.00     0.049 A 
ATOM     46  C   UNL     1      -3.081   1.589 -11.746  1.00  0.00     0.074 A 
ATOM     47  C   UNL     1      -8.227  -1.419 -13.915  1.00  0.00     0.029 A 
ATOM     48  N   UNL     1      -6.691  -0.452 -12.630  1.00  0.00    -0.354 N 
ATOM     49  N   UNL     1      -4.180   0.973 -12.107  1.00  0.00    -0.248 NA
ATOM     50  C   UNL     1      -2.128   1.808 -12.843  1.00  0.00     0.031 C 
ATOM     51  C   UNL     1      -7.144  -1.053 -14.720  1.00  0.00     0.029 A 
ATOM     52  C   UNL     1      -6.197  -0.428 -13.925  1.00  0.00     0.049 A 
ATOM     53  H   UNL     1      -6.230  -0.083 -11.842  1.00  0.00     0.167 HD
ATOM     54  C   UNL     1      -4.066   0.757 -13.473  1.00  0.00     0.074 A 
ATOM     55  C   UNL     1      -2.796   1.321 -13.880  1.00  0.00     0.031 C 
ATOM     56  C   UNL     1      -4.935   0.146 -14.315  1.00  0.00     0.037 A 
BRANCH  43  57
ATOM     57  C   UNL     1     -10.006  -2.053 -11.555  1.00  0.00     0.064 A 
ATOM     58  C   UNL     1     -11.251  -1.425 -11.399  1.00  0.00     0.173 A 
ATOM     59  C   UNL     1      -9.997  -3.417 -11.884  1.00  0.00     0.173 A 
ATOM     60  F   UNL     1     -11.317  -0.125 -11.075  1.00  0.00    -0.203 F 
ATOM     61  C   UNL     1     -12.438  -2.141 -11.536  1.00  0.00     0.198 A 
ATOM     62  C   UNL     1     -11.186  -4.123 -12.051  1.00  0.00     0.198 A 
ATOM     63  F   UNL     1      -8.835  -4.065 -12.052  1.00  0.00    -0.203 F 
ATOM     64  F   UNL     1     -13.614  -1.531 -11.332  1.00  0.00    -0.200 F 
ATOM     65  C   UNL     1     -12.405  -3.487 -11.869  1.00  0.00     0.200 A 
ATOM     66  F   UNL     1     -11.152  -5.420 -12.388  1.00  0.00    -0.200 F 
ATOM     67  F   UNL     1     -13.547  -4.173 -12.009  1.00  0.00    -0.200 F 
ENDBRANCH  43  57
BRANCH  44  68
ATOM     68  C   UNL     1      -1.373   2.779 -10.185  1.00  0.00     0.064 A 
ATOM     69  C   UNL     1      -1.136   4.045 -10.738  1.00  0.00     0.173 A 
ATOM     70  C   UNL     1      -0.341   2.186  -9.444  1.00  0.00     0.173 A 
ATOM     71  F   UNL     1      -2.085   4.644 -11.472  1.00  0.00    -0.203 F 
ATOM     72  C   UNL     1       0.092   4.684 -10.574  1.00  0.00     0.198 A 
ATOM     73  C   UNL     1       0.876   2.838  -9.256  1.00  0.00     0.198 A 
ATOM     74  F   UNL     1      -0.519   0.978  -8.891  1.00  0.00    -0.203 F 
ATOM     75  F   UNL     1       0.308   5.873 -11.152  1.00  0.00    -0.200 F 
ATOM     76  C   UNL     1       1.094   4.082  -9.828  1.00  0.00     0.200 A 
ATOM     77  F   UNL     1       1.837   2.261  -8.522  1.00  0.00    -0.200 F 
ATOM     78  F   UNL     1       2.273   4.699  -9.667  1.00  0.00    -0.200 F 
ENDBRANCH  44  68
BRANCH  56  79
ATOM     79  C   UNL     1      -4.561   0.088 -15.768  1.00  0.00     0.064 A 
ATOM     80  C   UNL     1      -3.538  -0.751 -16.233  1.00  0.00     0.173 A 
ATOM     81  C   UNL     1      -5.266   0.850 -16.712  1.00  0.00     0.173 A 
ATOM     82  F   UNL     1      -2.823  -1.488 -15.369  1.00  0.00    -0.203 F 
ATOM     83  C   UNL     1      -3.218  -0.806 -17.587  1.00  0.00     0.198 A 
ATOM     84  C   UNL     1      -4.965   0.769 -18.069  1.00  0.00     0.198 A 
ATOM     85  F   UNL     1      -6.258   1.663 -16.320  1.00  0.00    -0.203 F 
ATOM     86  F   UNL     1      -2.205  -1.579 -18.004  1.00  0.00    -0.200 F 
ATOM     87  C   UNL     1      -3.937  -0.053 -18.504  1.00  0.00     0.200 A 
ATOM     88  F   UNL     1      -5.670   1.486 -18.954  1.00  0.00    -0.200 F 
ATOM     89  F   UNL     1      -3.634  -0.115 -19.808  1.00  0.00    -0.200 F 
ENDBRANCH  56  79
ENDBRANCH  30  31
ENDBRANCH  22  25
ENDBRANCH  20  21
ENDBRANCH  19  20
ENDBRANCH   1  19
TORSDOF 16
