REMARK SMILES O=C(NCCCNC(=O)[C@@H](Cc1ccccc1)N1C(=O)/C(=C/c2ccncc2)SC1=S)c1ccc(-c2c3nc(c(-c4c(F)c(F)c(F)c(F)c4F)c4ccc([nH]4)c(-c4c(F)c(F)c(F)c(F)c4F)c4nc(c(-c5c(F)c(F)c(F)c(F)c5F)c5ccc2[nH]5)C=C4)C=C3)cc1
REMARK SMILES IDX 5 1 4 2 3 3 1 4 2 5 32 7 33 8 94 9 34 10 93 11 35 12 36 13
REMARK SMILES IDX 37 14 87 15 38 16 92 17 86 18 88 19 39 20 91 21 85 22 84 23
REMARK SMILES IDX 40 25 72 26 52 27 71 28 53 29 56 30 70 31 89 32 54 33 55 34
REMARK SMILES IDX 69 36 90 37 57 38 41 39 42 40 50 41 43 42 44 43 48 44 51 45
REMARK SMILES IDX 45 46 46 47 49 48 47 49 73 50 74 51 82 52 75 53 76 54 80 55
REMARK SMILES IDX 83 56 77 57 78 58 81 59 79 60 58 61 59 62 67 63 60 64 61 65
REMARK SMILES IDX 65 66 68 67 62 68 63 69 66 70 64 71 6 72 7 73 8 74 9 76
REMARK SMILES IDX 10 77 11 78 12 79 13 80 17 81 14 82 16 83 15 84 18 85 19 86
REMARK SMILES IDX 30 87 20 88 21 89 29 90 31 91 22 92 23 93 24 94 28 95 25 96
REMARK SMILES IDX 27 97 26 98
REMARK H PARENT 3 6 88 24 56 35 7 75
REMARK Flexibility Score: inf
ROOT
ATOM      1  C   UNL     1       4.816  -1.344   2.123  1.00  0.00     0.042 C 
ENDROOT
BRANCH   1   2
ATOM      2  C   UNL     1       4.290  -1.713   0.742  1.00  0.00     0.118 C 
BRANCH   2   3
ATOM      3  N   UNL     1       2.900  -1.318   0.555  1.00  0.00    -0.352 N 
ATOM      4  O   UNL     1       1.127  -0.065   0.033  1.00  0.00    -0.269 OA
ATOM      5  C   UNL     1       2.315  -0.310  -0.173  1.00  0.00     0.251 C 
ATOM      6  H   UNL     1       2.257  -1.881   1.044  1.00  0.00     0.163 HD
BRANCH   5   7
ATOM      7  C   UNL     1       3.050   0.488  -1.191  1.00  0.00     0.039 A 
ATOM      8  C   UNL     1       4.103  -0.034  -1.942  1.00  0.00     0.014 A 
ATOM      9  C   UNL     1       2.589   1.780  -1.485  1.00  0.00     0.014 A 
ATOM     10  C   UNL     1       4.776   0.760  -2.869  1.00  0.00     0.010 A 
ATOM     11  C   UNL     1       3.190   2.538  -2.498  1.00  0.00     0.010 A 
ATOM     12  C   UNL     1       4.302   2.039  -3.191  1.00  0.00    -0.014 A 
BRANCH  12  13
ATOM     13  C   UNL     1       4.910   2.793  -4.319  1.00  0.00     0.031 A 
ATOM     14  C   UNL     1       5.552   4.132  -4.100  1.00  0.00     0.074 A 
ATOM     15  C   UNL     1       4.851   2.270  -5.560  1.00  0.00     0.049 A 
ATOM     16  N   UNL     1       6.060   4.960  -4.978  1.00  0.00    -0.248 NA
ATOM     17  C   UNL     1       5.621   4.611  -2.712  1.00  0.00     0.031 C 
ATOM     18  C   UNL     1       4.239   0.984  -5.900  1.00  0.00     0.029 A 
ATOM     19  N   UNL     1       5.300   2.750  -6.764  1.00  0.00    -0.354 N 
ATOM     20  C   UNL     1       6.484   6.068  -4.256  1.00  0.00     0.074 A 
ATOM     21  C   UNL     1       6.149   5.817  -2.870  1.00  0.00     0.031 C 
ATOM     22  C   UNL     1       4.367   0.767  -7.215  1.00  0.00     0.029 A 
ATOM     23  C   UNL     1       4.999   1.931  -7.825  1.00  0.00     0.049 A 
ATOM     24  H   UNL     1       5.789   3.599  -6.859  1.00  0.00     0.167 HD
ATOM     25  C   UNL     1       7.097   7.188  -4.712  1.00  0.00     0.037 A 
ATOM     26  C   UNL     1       5.169   2.109  -9.149  1.00  0.00     0.037 A 
ATOM     27  C   UNL     1       7.428   7.420  -6.096  1.00  0.00     0.049 A 
ATOM     28  C   UNL     1       5.817   3.371  -9.636  1.00  0.00     0.074 A 
ATOM     29  C   UNL     1       8.092   8.497  -6.655  1.00  0.00     0.029 A 
ATOM     30  N   UNL     1       7.103   6.566  -7.142  1.00  0.00    -0.354 N 
ATOM     31  N   UNL     1       6.253   4.393  -8.941  1.00  0.00    -0.248 NA
ATOM     32  C   UNL     1       5.997   3.510 -11.087  1.00  0.00     0.031 C 
ATOM     33  C   UNL     1       8.109   8.328  -8.044  1.00  0.00     0.029 A 
ATOM     34  C   UNL     1       7.520   7.110  -8.346  1.00  0.00     0.049 A 
ATOM     35  H   UNL     1       6.643   5.701  -7.042  1.00  0.00     0.167 HD
ATOM     36  C   UNL     1       6.778   5.286  -9.862  1.00  0.00     0.074 A 
ATOM     37  C   UNL     1       6.612   4.682 -11.169  1.00  0.00     0.031 C 
ATOM     38  C   UNL     1       7.352   6.494  -9.641  1.00  0.00     0.037 A 
BRANCH  25  39
ATOM     39  C   UNL     1       7.409   8.265  -3.710  1.00  0.00     0.064 A 
ATOM     40  C   UNL     1       8.366   8.089  -2.698  1.00  0.00     0.173 A 
ATOM     41  C   UNL     1       6.740   9.499  -3.766  1.00  0.00     0.173 A 
ATOM     42  F   UNL     1       9.031   6.929  -2.592  1.00  0.00    -0.203 F 
ATOM     43  C   UNL     1       8.604   9.085  -1.753  1.00  0.00     0.198 A 
ATOM     44  C   UNL     1       7.007  10.506  -2.842  1.00  0.00     0.198 A 
ATOM     45  F   UNL     1       5.825   9.729  -4.719  1.00  0.00    -0.203 F 
ATOM     46  F   UNL     1       9.470   8.865  -0.754  1.00  0.00    -0.200 F 
ATOM     47  C   UNL     1       7.927  10.293  -1.828  1.00  0.00     0.200 A 
ATOM     48  F   UNL     1       6.364  11.679  -2.927  1.00  0.00    -0.200 F 
ATOM     49  F   UNL     1       8.153  11.248  -0.915  1.00  0.00    -0.200 F 
ENDBRANCH  25  39
BRANCH  26  50
ATOM     50  C   UNL     1       4.687   1.062 -10.086  1.00  0.00     0.064 A 
ATOM     51  C   UNL     1       5.583   0.251 -10.793  1.00  0.00     0.173 A 
ATOM     52  C   UNL     1       3.314   0.809 -10.242  1.00  0.00     0.173 A 
ATOM     53  F   UNL     1       6.903   0.463 -10.688  1.00  0.00    -0.203 F 
ATOM     54  C   UNL     1       5.126  -0.774 -11.619  1.00  0.00     0.198 A 
ATOM     55  C   UNL     1       2.860  -0.235 -11.044  1.00  0.00     0.198 A 
ATOM     56  F   UNL     1       2.415   1.551  -9.578  1.00  0.00    -0.203 F 
ATOM     57  F   UNL     1       6.003  -1.523 -12.302  1.00  0.00    -0.200 F 
ATOM     58  C   UNL     1       3.766  -1.024 -11.735  1.00  0.00     0.200 A 
ATOM     59  F   UNL     1       1.547  -0.487 -11.132  1.00  0.00    -0.200 F 
ATOM     60  F   UNL     1       3.329  -2.026 -12.510  1.00  0.00    -0.200 F 
ENDBRANCH  26  50
BRANCH  38  61
ATOM     61  C   UNL     1       7.885   7.237 -10.831  1.00  0.00     0.064 A 
ATOM     62  C   UNL     1       7.036   7.860 -11.756  1.00  0.00     0.173 A 
ATOM     63  C   UNL     1       9.270   7.392 -11.000  1.00  0.00     0.173 A 
ATOM     64  F   UNL     1       5.705   7.726 -11.648  1.00  0.00    -0.203 F 
ATOM     65  C   UNL     1       7.554   8.607 -12.811  1.00  0.00     0.198 A 
ATOM     66  C   UNL     1       9.783   8.164 -12.038  1.00  0.00     0.198 A 
ATOM     67  F   UNL     1      10.124   6.817 -10.141  1.00  0.00    -0.203 F 
ATOM     68  F   UNL     1       6.726   9.170 -13.701  1.00  0.00    -0.200 F 
ATOM     69  C   UNL     1       8.925   8.769 -12.943  1.00  0.00     0.200 A 
ATOM     70  F   UNL     1      11.108   8.331 -12.154  1.00  0.00    -0.200 F 
ATOM     71  F   UNL     1       9.421   9.507 -13.946  1.00  0.00    -0.200 F 
ENDBRANCH  38  61
ENDBRANCH  12  13
ENDBRANCH   5   7
ENDBRANCH   2   3
ENDBRANCH   1   2
BRANCH   1  72
ATOM     72  C   UNL     1       4.266  -2.201   3.264  1.00  0.00     0.117 C 
BRANCH  72  73
ATOM     73  N   UNL     1       5.326  -2.963   3.898  1.00  0.00    -0.354 N 
ATOM     74  C   UNL     1       6.176  -2.745   4.931  1.00  0.00     0.243 C 
ATOM     75  H   UNL     1       5.458  -3.844   3.479  1.00  0.00     0.163 HD
ATOM     76  O   UNL     1       7.093  -3.577   5.024  1.00  0.00    -0.273 OA
BRANCH  74  77
ATOM     77  C   UNL     1       6.207  -1.508   5.881  1.00  0.00     0.185 C 
BRANCH  77  78
ATOM     78  C   UNL     1       6.934  -0.346   5.128  1.00  0.00     0.071 C 
BRANCH  78  79
ATOM     79  C   UNL     1       6.205   0.863   4.562  1.00  0.00    -0.045 A 
ATOM     80  C   UNL     1       6.982   1.947   4.118  1.00  0.00     0.004 A 
ATOM     81  C   UNL     1       4.819   0.975   4.433  1.00  0.00     0.004 A 
ATOM     82  C   UNL     1       6.391   3.066   3.523  1.00  0.00     0.000 A 
ATOM     83  C   UNL     1       4.225   2.074   3.807  1.00  0.00     0.000 A 
ATOM     84  C   UNL     1       5.013   3.118   3.344  1.00  0.00     0.000 A 
ENDBRANCH  78  79
ENDBRANCH  77  78
BRANCH  77  85
ATOM     85  N   UNL     1       5.018  -1.143   6.681  1.00  0.00    -0.280 N 
ATOM     86  C   UNL     1       4.039  -2.090   6.934  1.00  0.00     0.266 C 
ATOM     87  C   UNL     1       4.957  -0.063   7.550  1.00  0.00     0.149 C 
ATOM     88  O   UNL     1       4.057  -3.273   6.612  1.00  0.00    -0.268 OA
ATOM     89  C   UNL     1       2.926  -1.498   7.722  1.00  0.00     0.081 C 
ATOM     90  S   UNL     1       3.313   0.119   8.140  1.00  0.00    -0.054 SA
ATOM     91  S   UNL     1       6.164   0.943   8.110  1.00  0.00    -0.052 S 
ATOM     92  C   UNL     1       1.810  -2.166   8.045  1.00  0.00     0.029 C 
BRANCH  92  93
ATOM     93  C   UNL     1       0.679  -1.542   8.739  1.00  0.00    -0.021 A 
ATOM     94  C   UNL     1      -0.168  -0.680   8.041  1.00  0.00     0.028 A 
ATOM     95  C   UNL     1       0.474  -1.741  10.103  1.00  0.00     0.028 A 
ATOM     96  C   UNL     1      -1.175  -0.038   8.739  1.00  0.00     0.111 A 
ATOM     97  C   UNL     1      -0.565  -1.054  10.710  1.00  0.00     0.111 A 
ATOM     98  N   UNL     1      -1.393  -0.208  10.060  1.00  0.00    -0.265 NA
ENDBRANCH  92  93
ENDBRANCH  77  85
ENDBRANCH  74  77
ENDBRANCH  72  73
ENDBRANCH   1  72
TORSDOF 14
