REMARK SMILES CC(C)[C@H](NC(=O)CC[NH3+])C(=O)NCCCNC(=O)c1ccc(-c2c3nc(c(-c4c(F)c(F)c(F)c(F)c4F)c4ccc([nH]4)c(-c4c(F)c(F)c(F)c(F)c4F)c4nc(c(-c5c(F)c(F)c(F)c(F)c5F)c5ccc2[nH]5)C=C4)C=C3)cc1
REMARK SMILES IDX 14 1 13 2 11 3 12 4 4 6 2 7 1 8 3 9 5 10 6 11 7 13 8 14 9 15
REMARK SMILES IDX 10 16 15 20 16 21 17 22 18 23 19 25 20 26 21 27 82 28 22 29
REMARK SMILES IDX 81 30 23 31 24 32 25 33 75 34 26 35 80 36 74 37 76 38 27 39
REMARK SMILES IDX 79 40 73 41 72 42 28 44 60 45 40 46 59 47 41 48 44 49 58 50
REMARK SMILES IDX 77 51 42 52 43 53 57 55 78 56 45 57 29 58 30 59 38 60 31 61
REMARK SMILES IDX 32 62 36 63 39 64 33 65 34 66 37 67 35 68 61 69 62 70 70 71
REMARK SMILES IDX 63 72 64 73 68 74 71 75 65 76 66 77 69 78 67 79 46 80 47 81
REMARK SMILES IDX 55 82 48 83 49 84 53 85 56 86 50 87 51 88 54 89 52 90
REMARK H PARENT 13 5 5 12 10 17 10 18 10 19 17 24 76 43 44 54
REMARK Flexibility Score: inf
ROOT
ATOM      1  C   UNL     1       0.890   1.885   3.482  1.00  0.00     0.117 C 
ENDROOT
BRANCH   1   2
ATOM      2  N   UNL     1      -0.348   2.344   2.880  1.00  0.00    -0.354 N 
ATOM      3  C   UNL     1      -1.121   1.795   1.890  1.00  0.00     0.242 C 
ATOM      4  O   UNL     1      -2.148   2.429   1.625  1.00  0.00    -0.273 OA
ATOM      5  H   UNL     1      -0.691   3.193   3.243  1.00  0.00     0.163 HD
BRANCH   3   6
ATOM      6  C   UNL     1      -0.706   0.525   1.060  1.00  0.00     0.173 C 
BRANCH   6   7
ATOM      7  C   UNL     1      -1.812  -0.525   0.754  1.00  0.00     0.015 C 
ATOM      8  C   UNL     1      -3.171   0.035   0.331  1.00  0.00     0.010 C 
ATOM      9  C   UNL     1      -1.338  -1.509  -0.331  1.00  0.00     0.010 C 
ENDBRANCH   6   7
BRANCH   6  10
ATOM     10  N   UNL     1       0.578  -0.082   1.446  1.00  0.00    -0.344 N 
ATOM     11  C   UNL     1       0.956  -1.000   2.371  1.00  0.00     0.226 C 
ATOM     12  H   UNL     1       1.334   0.256   0.913  1.00  0.00     0.164 HD
ATOM     13  O   UNL     1       2.174  -1.102   2.565  1.00  0.00    -0.275 OA
BRANCH  11  14
ATOM     14  C   UNL     1      -0.007  -1.880   3.142  1.00  0.00     0.161 C 
BRANCH  14  15
ATOM     15  C   UNL     1      -0.711  -1.293   4.366  1.00  0.00     0.268 C 
BRANCH  15  16
ATOM     16  N   UNL     1      -1.876  -0.461   4.079  1.00  0.00    -0.357 N 
ATOM     17  H   UNL     1      -1.586   0.357   3.543  1.00  0.00     0.344 HD
ATOM     18  H   UNL     1      -2.303  -0.160   4.955  1.00  0.00     0.344 HD
ATOM     19  H   UNL     1      -2.553  -0.999   3.539  1.00  0.00     0.344 HD
ENDBRANCH  15  16
ENDBRANCH  14  15
ENDBRANCH  11  14
ENDBRANCH   6  10
ENDBRANCH   3   6
ENDBRANCH   1   2
BRANCH   1  20
ATOM     20  C   UNL     1       1.408   2.700   4.659  1.00  0.00     0.042 C 
BRANCH  20  21
ATOM     21  C   UNL     1       0.396   2.936   5.775  1.00  0.00     0.118 C 
BRANCH  21  22
ATOM     22  N   UNL     1       0.042   1.764   6.570  1.00  0.00    -0.352 N 
ATOM     23  C   UNL     1       0.513   1.229   7.748  1.00  0.00     0.251 C 
ATOM     24  H   UNL     1      -0.696   1.243   6.179  1.00  0.00     0.163 HD
ATOM     25  O   UNL     1      -0.006   0.193   8.167  1.00  0.00    -0.269 OA
BRANCH  23  26
ATOM     26  C   UNL     1       1.661   1.809   8.488  1.00  0.00     0.039 A 
ATOM     27  C   UNL     1       2.534   0.952   9.172  1.00  0.00     0.014 A 
ATOM     28  C   UNL     1       1.905   3.175   8.526  1.00  0.00     0.014 A 
ATOM     29  C   UNL     1       3.700   1.456   9.765  1.00  0.00     0.010 A 
ATOM     30  C   UNL     1       3.129   3.655   8.975  1.00  0.00     0.010 A 
ATOM     31  C   UNL     1       4.050   2.804   9.600  1.00  0.00    -0.014 A 
BRANCH  31  32
ATOM     32  C   UNL     1       5.353   3.366  10.055  1.00  0.00     0.031 A 
ATOM     33  C   UNL     1       5.384   4.589  10.938  1.00  0.00     0.074 A 
ATOM     34  C   UNL     1       6.509   2.865   9.574  1.00  0.00     0.049 A 
ATOM     35  N   UNL     1       6.396   5.351  11.273  1.00  0.00    -0.248 NA
ATOM     36  C   UNL     1       4.091   5.052  11.466  1.00  0.00     0.031 C 
ATOM     37  C   UNL     1       6.630   1.726   8.664  1.00  0.00     0.029 A 
ATOM     38  N   UNL     1       7.809   3.264   9.774  1.00  0.00    -0.354 N 
ATOM     39  C   UNL     1       5.853   6.402  12.001  1.00  0.00     0.074 A 
ATOM     40  C   UNL     1       4.418   6.220  11.996  1.00  0.00     0.031 C 
ATOM     41  C   UNL     1       7.929   1.488   8.422  1.00  0.00     0.029 A 
ATOM     42  C   UNL     1       8.732   2.490   9.114  1.00  0.00     0.049 A 
ATOM     43  H   UNL     1       8.055   4.033  10.338  1.00  0.00     0.167 HD
ATOM     44  C   UNL     1       6.489   7.409  12.648  1.00  0.00     0.037 A 
ATOM     45  C   UNL     1      10.074   2.580   9.066  1.00  0.00     0.037 A 
ATOM     46  C   UNL     1       7.919   7.553  12.706  1.00  0.00     0.049 A 
ATOM     47  C   UNL     1      10.763   3.691   9.811  1.00  0.00     0.074 A 
ATOM     48  C   UNL     1       8.668   8.491  13.394  1.00  0.00     0.029 A 
ATOM     49  N   UNL     1       8.820   6.719  12.058  1.00  0.00    -0.354 N 
ATOM     50  N   UNL     1      10.242   4.649  10.538  1.00  0.00    -0.248 NA
ATOM     51  C   UNL     1      12.229   3.729   9.728  1.00  0.00     0.031 C 
ATOM     52  C   UNL     1      10.021   8.246  13.136  1.00  0.00     0.029 A 
ATOM     53  C   UNL     1      10.117   7.127  12.323  1.00  0.00     0.049 A 
ATOM     54  H   UNL     1       8.574   5.951  11.494  1.00  0.00     0.167 HD
ATOM     55  C   UNL     1      11.314   5.382  11.027  1.00  0.00     0.074 A 
ATOM     56  C   UNL     1      12.516   4.753  10.521  1.00  0.00     0.031 C 
ATOM     57  C   UNL     1      11.303   6.478  11.825  1.00  0.00     0.037 A 
BRANCH  44  58
ATOM     58  C   UNL     1       5.632   8.422  13.356  1.00  0.00     0.064 A 
ATOM     59  C   UNL     1       4.860   8.079  14.478  1.00  0.00     0.173 A 
ATOM     60  C   UNL     1       5.574   9.750  12.906  1.00  0.00     0.173 A 
ATOM     61  F   UNL     1       4.870   6.822  14.945  1.00  0.00    -0.203 F 
ATOM     62  C   UNL     1       4.020   9.010  15.085  1.00  0.00     0.198 A 
ATOM     63  C   UNL     1       4.762  10.688  13.540  1.00  0.00     0.198 A 
ATOM     64  F   UNL     1       6.298  10.139  11.846  1.00  0.00    -0.203 F 
ATOM     65  F   UNL     1       3.233   8.634  16.102  1.00  0.00    -0.200 F 
ATOM     66  C   UNL     1       3.975  10.314  14.618  1.00  0.00     0.200 A 
ATOM     67  F   UNL     1       4.730  11.953  13.098  1.00  0.00    -0.200 F 
ATOM     68  F   UNL     1       3.162  11.207  15.200  1.00  0.00    -0.200 F 
ENDBRANCH  44  58
BRANCH  45  69
ATOM     69  C   UNL     1      10.861   1.554   8.335  1.00  0.00     0.064 A 
ATOM     70  C   UNL     1      11.627   0.615   9.041  1.00  0.00     0.173 A 
ATOM     71  C   UNL     1      10.861   1.476   6.935  1.00  0.00     0.173 A 
ATOM     72  F   UNL     1      11.673   0.662  10.380  1.00  0.00    -0.203 F 
ATOM     73  C   UNL     1      12.376  -0.352   8.375  1.00  0.00     0.198 A 
ATOM     74  C   UNL     1      11.591   0.492   6.270  1.00  0.00     0.198 A 
ATOM     75  F   UNL     1      10.141   2.348   6.214  1.00  0.00    -0.203 F 
ATOM     76  F   UNL     1      13.130  -1.211   9.074  1.00  0.00    -0.200 F 
ATOM     77  C   UNL     1      12.353  -0.417   6.990  1.00  0.00     0.200 A 
ATOM     78  F   UNL     1      11.557   0.425   4.932  1.00  0.00    -0.200 F 
ATOM     79  F   UNL     1      13.070  -1.350   6.349  1.00  0.00    -0.200 F 
ENDBRANCH  45  69
BRANCH  57  80
ATOM     80  C   UNL     1      12.632   7.037  12.243  1.00  0.00     0.064 A 
ATOM     81  C   UNL     1      13.457   7.728  11.346  1.00  0.00     0.173 A 
ATOM     82  C   UNL     1      13.064   6.911  13.573  1.00  0.00     0.173 A 
ATOM     83  F   UNL     1      13.096   7.861  10.061  1.00  0.00    -0.203 F 
ATOM     84  C   UNL     1      14.679   8.254  11.759  1.00  0.00     0.198 A 
ATOM     85  C   UNL     1      14.271   7.464  13.989  1.00  0.00     0.198 A 
ATOM     86  F   UNL     1      12.307   6.263  14.472  1.00  0.00    -0.203 F 
ATOM     87  F   UNL     1      15.473   8.872  10.874  1.00  0.00    -0.200 F 
ATOM     88  C   UNL     1      15.081   8.128  13.081  1.00  0.00     0.200 A 
ATOM     89  F   UNL     1      14.652   7.353  15.269  1.00  0.00    -0.200 F 
ATOM     90  F   UNL     1      16.253   8.642  13.477  1.00  0.00    -0.200 F 
ENDBRANCH  57  80
ENDBRANCH  31  32
ENDBRANCH  23  26
ENDBRANCH  21  22
ENDBRANCH  20  21
ENDBRANCH   1  20
TORSDOF 15
