REMARK SMILES CC[C@@H](C(=O)Nc1ccc(OC(C)=O)cc1C(=O)NCCCNC(=O)c1ccc(-c2c3nc(c(-c4c(F)c(F)c(F)c(F)c4F)c4ccc([nH]4)c(-c4c(F)c(F)c(F)c(F)c4F)c4nc(c(-c5c(F)c(F)c(F)c(F)c5F)c5ccc2[nH]5)C=C4)C=C3)cc1)c1ccccc1
REMARK SMILES IDX 20 1 19 2 17 3 18 4 16 6 7 7 8 8 9 9 15 10 10 11 6 12 4 13
REMARK SMILES IDX 5 14 3 16 2 17 1 18 89 19 90 20 94 21 91 22 93 23 92 24
REMARK SMILES IDX 11 25 12 26 13 27 14 28 21 29 22 30 23 31 24 32 25 34 26 35
REMARK SMILES IDX 27 36 88 37 28 38 87 39 29 40 30 41 31 42 81 43 32 44 86 45
REMARK SMILES IDX 80 46 82 47 33 48 85 49 79 50 78 51 34 53 66 54 46 55 65 56
REMARK SMILES IDX 47 57 50 58 64 59 83 60 48 61 49 62 63 64 84 65 51 66 35 67
REMARK SMILES IDX 36 68 44 69 37 70 38 71 42 72 45 73 39 74 40 75 43 76 41 77
REMARK SMILES IDX 67 78 68 79 76 80 69 81 70 82 74 83 77 84 71 85 72 86 75 87
REMARK SMILES IDX 73 88 52 89 53 90 61 91 54 92 55 93 59 94 62 95 56 96 57 97
REMARK SMILES IDX 60 98 58 99
REMARK H PARENT 19 5 6 15 23 33 82 52 50 63
REMARK Flexibility Score: inf
ROOT
ATOM      1  C   UNL     1      -1.081   2.411   0.361  1.00  0.00     0.118 C 
ENDROOT
BRANCH   1   2
ATOM      2  N   UNL     1      -1.150   1.068  -0.173  1.00  0.00    -0.352 N 
ATOM      3  C   UNL     1      -0.234   0.287  -0.810  1.00  0.00     0.253 C 
ATOM      4  O   UNL     1      -0.599  -0.855  -1.103  1.00  0.00    -0.269 OA
ATOM      5  H   UNL     1      -2.026   0.636  -0.052  1.00  0.00     0.163 HD
BRANCH   3   6
ATOM      6  C   UNL     1       1.143   0.710  -1.189  1.00  0.00     0.067 A 
ATOM      7  C   UNL     1       2.002   1.634  -0.566  1.00  0.00     0.054 A 
ATOM      8  C   UNL     1       3.190   2.009  -1.236  1.00  0.00     0.031 A 
ATOM      9  C   UNL     1       3.634   1.339  -2.373  1.00  0.00     0.049 A 
ATOM     10  C   UNL     1       1.603   0.048  -2.353  1.00  0.00     0.063 A 
ATOM     11  C   UNL     1       2.862   0.310  -2.879  1.00  0.00     0.131 A 
BRANCH   7  12
ATOM     12  N   UNL     1       1.826   2.333   0.635  1.00  0.00    -0.325 N 
ATOM     13  C   UNL     1       1.794   2.063   1.968  1.00  0.00     0.231 C 
ATOM     14  O   UNL     1       1.871   3.130   2.604  1.00  0.00    -0.274 OA
ATOM     15  H   UNL     1       1.685   3.293   0.466  1.00  0.00     0.169 HD
BRANCH  13  16
ATOM     16  C   UNL     1       1.817   0.697   2.733  1.00  0.00     0.108 C 
BRANCH  16  17
ATOM     17  C   UNL     1       1.617  -0.550   1.857  1.00  0.00     0.015 C 
ATOM     18  C   UNL     1       2.886  -1.009   1.154  1.00  0.00     0.005 C 
ENDBRANCH  16  17
BRANCH  16  19
ATOM     19  C   UNL     1       0.949   0.652   4.039  1.00  0.00    -0.036 A 
ATOM     20  C   UNL     1       0.542   1.803   4.739  1.00  0.00     0.004 A 
ATOM     21  C   UNL     1       0.651  -0.575   4.676  1.00  0.00     0.004 A 
ATOM     22  C   UNL     1      -0.155   1.737   5.955  1.00  0.00     0.000 A 
ATOM     23  C   UNL     1      -0.061  -0.647   5.882  1.00  0.00     0.000 A 
ATOM     24  C   UNL     1      -0.466   0.512   6.524  1.00  0.00     0.000 A 
ENDBRANCH  16  19
ENDBRANCH  13  16
ENDBRANCH   7  12
BRANCH  11  25
ATOM     25  O   UNL     1       3.352  -0.413  -3.972  1.00  0.00    -0.427 OA
BRANCH  25  26
ATOM     26  C   UNL     1       3.984  -1.634  -3.737  1.00  0.00     0.308 C 
ATOM     27  C   UNL     1       3.377  -2.505  -2.671  1.00  0.00     0.139 C 
ATOM     28  O   UNL     1       4.930  -2.005  -4.425  1.00  0.00    -0.252 OA
ENDBRANCH  25  26
ENDBRANCH  11  25
ENDBRANCH   3   6
ENDBRANCH   1   2
BRANCH   1  29
ATOM     29  C   UNL     1      -2.453   3.018   0.582  1.00  0.00     0.042 C 
BRANCH  29  30
ATOM     30  C   UNL     1      -3.239   2.288   1.668  1.00  0.00     0.118 C 
BRANCH  30  31
ATOM     31  N   UNL     1      -2.839   2.638   3.029  1.00  0.00    -0.352 N 
ATOM     32  C   UNL     1      -3.426   3.485   3.943  1.00  0.00     0.251 C 
ATOM     33  H   UNL     1      -2.017   2.198   3.344  1.00  0.00     0.163 HD
ATOM     34  O   UNL     1      -2.873   3.741   5.010  1.00  0.00    -0.269 OA
BRANCH  32  35
ATOM     35  C   UNL     1      -4.708   4.139   3.613  1.00  0.00     0.039 A 
ATOM     36  C   UNL     1      -4.849   5.513   3.822  1.00  0.00     0.014 A 
ATOM     37  C   UNL     1      -5.743   3.411   3.033  1.00  0.00     0.014 A 
ATOM     38  C   UNL     1      -5.974   6.172   3.321  1.00  0.00     0.010 A 
ATOM     39  C   UNL     1      -6.783   4.085   2.410  1.00  0.00     0.010 A 
ATOM     40  C   UNL     1      -6.912   5.475   2.542  1.00  0.00    -0.014 A 
BRANCH  40  41
ATOM     41  C   UNL     1      -8.028   6.165   1.841  1.00  0.00     0.031 A 
ATOM     42  C   UNL     1      -9.448   5.722   2.072  1.00  0.00     0.074 A 
ATOM     43  C   UNL     1      -7.759   7.099   0.907  1.00  0.00     0.049 A 
ATOM     44  N   UNL     1     -10.541   6.077   1.446  1.00  0.00    -0.248 NA
ATOM     45  C   UNL     1      -9.659   4.695   3.106  1.00  0.00     0.031 C 
ATOM     46  C   UNL     1      -6.422   7.554   0.519  1.00  0.00     0.029 A 
ATOM     47  N   UNL     1      -8.599   7.822   0.096  1.00  0.00    -0.354 N 
ATOM     48  C   UNL     1     -11.550   5.282   1.972  1.00  0.00     0.074 A 
ATOM     49  C   UNL     1     -10.933   4.384   2.922  1.00  0.00     0.031 C 
ATOM     50  C   UNL     1      -6.533   8.499  -0.428  1.00  0.00     0.029 A 
ATOM     51  C   UNL     1      -7.944   8.687  -0.747  1.00  0.00     0.049 A 
ATOM     52  H   UNL     1      -9.579   7.729   0.117  1.00  0.00     0.167 HD
ATOM     53  C   UNL     1     -12.879   5.317   1.710  1.00  0.00     0.037 A 
ATOM     54  C   UNL     1      -8.427   9.534  -1.676  1.00  0.00     0.037 A 
ATOM     55  C   UNL     1     -13.498   6.267   0.827  1.00  0.00     0.049 A 
ATOM     56  C   UNL     1      -9.913   9.615  -1.891  1.00  0.00     0.074 A 
ATOM     57  C   UNL     1     -14.844   6.473   0.587  1.00  0.00     0.029 A 
ATOM     58  N   UNL     1     -12.806   7.180   0.044  1.00  0.00    -0.354 N 
ATOM     59  N   UNL     1     -10.868   8.920  -1.322  1.00  0.00    -0.248 NA
ATOM     60  C   UNL     1     -10.389  10.600  -2.871  1.00  0.00     0.031 C 
ATOM     61  C   UNL     1     -14.966   7.487  -0.368  1.00  0.00     0.029 A 
ATOM     62  C   UNL     1     -13.697   7.940  -0.694  1.00  0.00     0.049 A 
ATOM     63  H   UNL     1     -11.826   7.273   0.017  1.00  0.00     0.167 HD
ATOM     64  C   UNL     1     -12.056   9.393  -1.860  1.00  0.00     0.074 A 
ATOM     65  C   UNL     1     -11.704  10.448  -2.787  1.00  0.00     0.031 C 
ATOM     66  C   UNL     1     -13.325   8.987  -1.611  1.00  0.00     0.037 A 
BRANCH  53  67
ATOM     67  C   UNL     1     -13.748   4.309   2.405  1.00  0.00     0.064 A 
ATOM     68  C   UNL     1     -13.969   4.353   3.791  1.00  0.00     0.173 A 
ATOM     69  C   UNL     1     -14.377   3.290   1.675  1.00  0.00     0.173 A 
ATOM     70  F   UNL     1     -13.383   5.301   4.538  1.00  0.00    -0.203 F 
ATOM     71  C   UNL     1     -14.748   3.389   4.424  1.00  0.00     0.198 A 
ATOM     72  C   UNL     1     -15.184   2.347   2.307  1.00  0.00     0.198 A 
ATOM     73  F   UNL     1     -14.206   3.204   0.347  1.00  0.00    -0.203 F 
ATOM     74  F   UNL     1     -14.889   3.414   5.757  1.00  0.00    -0.200 F 
ATOM     75  C   UNL     1     -15.359   2.390   3.682  1.00  0.00     0.200 A 
ATOM     76  F   UNL     1     -15.783   1.389   1.586  1.00  0.00    -0.200 F 
ATOM     77  F   UNL     1     -16.109   1.463   4.293  1.00  0.00    -0.200 F 
ENDBRANCH  53  67
BRANCH  54  78
ATOM     78  C   UNL     1      -7.494  10.399  -2.444  1.00  0.00     0.064 A 
ATOM     79  C   UNL     1      -7.423  11.776  -2.194  1.00  0.00     0.173 A 
ATOM     80  C   UNL     1      -6.643   9.869  -3.425  1.00  0.00     0.173 A 
ATOM     81  F   UNL     1      -8.230  12.331  -1.277  1.00  0.00    -0.203 F 
ATOM     82  C   UNL     1      -6.548  12.594  -2.905  1.00  0.00     0.198 A 
ATOM     83  C   UNL     1      -5.750  10.684  -4.119  1.00  0.00     0.198 A 
ATOM     84  F   UNL     1      -6.666   8.556  -3.696  1.00  0.00    -0.203 F 
ATOM     85  F   UNL     1      -6.526  13.913  -2.670  1.00  0.00    -0.200 F 
ATOM     86  C   UNL     1      -5.707  12.046  -3.862  1.00  0.00     0.200 A 
ATOM     87  F   UNL     1      -4.929  10.149  -5.032  1.00  0.00    -0.200 F 
ATOM     88  F   UNL     1      -4.859  12.832  -4.540  1.00  0.00    -0.200 F 
ENDBRANCH  54  78
BRANCH  66  89
ATOM     89  C   UNL     1     -14.428   9.695  -2.338  1.00  0.00     0.064 A 
ATOM     90  C   UNL     1     -14.666   9.471  -3.702  1.00  0.00     0.173 A 
ATOM     91  C   UNL     1     -15.288  10.565  -1.652  1.00  0.00     0.173 A 
ATOM     92  F   UNL     1     -13.860   8.659  -4.403  1.00  0.00    -0.203 F 
ATOM     93  C   UNL     1     -15.717  10.106  -4.357  1.00  0.00     0.198 A 
ATOM     94  C   UNL     1     -16.354  11.177  -2.304  1.00  0.00     0.198 A 
ATOM     95  F   UNL     1     -15.104  10.807  -0.346  1.00  0.00    -0.203 F 
ATOM     96  F   UNL     1     -15.905   9.906  -5.668  1.00  0.00    -0.200 F 
ATOM     97  C   UNL     1     -16.565  10.951  -3.656  1.00  0.00     0.200 A 
ATOM     98  F   UNL     1     -17.180  11.984  -1.623  1.00  0.00    -0.200 F 
ATOM     99  F   UNL     1     -17.583  11.553  -4.286  1.00  0.00    -0.200 F 
ENDBRANCH  66  89
ENDBRANCH  40  41
ENDBRANCH  32  35
ENDBRANCH  30  31
ENDBRANCH  29  30
ENDBRANCH   1  29
TORSDOF 16
