REMARK SMILES C[C@@H]1CN(C(=O)Nc2ccc(O)c(C(=O)NCCCNC(=O)c3ccc(-c4c5nc(c(-c6c(F)c(F)c(F)c(F)c6F)c6ccc([nH]6)c(-c6c(F)c(F)c(F)c(F)c6F)c6nc(c(-c7c(F)c(F)c(F)c(F)c7F)c7ccc4[nH]7)C=C6)C=C5)cc3)c2)C[C@@H]1C
REMARK SMILES IDX 18 1 17 2 16 3 14 4 15 5 13 7 8 8 9 9 86 10 10 11 11 12 7 13
REMARK SMILES IDX 5 14 6 15 4 17 1 18 2 19 3 20 88 21 87 22 89 23 12 24 19 26
REMARK SMILES IDX 20 27 21 28 22 30 23 31 24 32 85 33 25 34 84 35 26 36 27 37
REMARK SMILES IDX 28 38 78 39 29 40 83 41 77 42 79 43 30 44 82 45 76 46 75 47
REMARK SMILES IDX 31 49 63 50 43 51 62 52 44 53 47 54 61 55 80 56 45 57 46 58
REMARK SMILES IDX 60 60 81 61 48 62 32 63 33 64 41 65 34 66 35 67 39 68 42 69
REMARK SMILES IDX 36 70 37 71 40 72 38 73 64 74 65 75 73 76 66 77 67 78 71 79
REMARK SMILES IDX 74 80 68 81 69 82 72 83 70 84 49 85 50 86 58 87 51 88 52 89
REMARK SMILES IDX 56 90 59 91 53 92 54 93 57 94 55 95
REMARK H PARENT 16 6 7 16 12 25 20 29 79 48 47 59
REMARK Flexibility Score: inf
ROOT
ATOM      1  C   UNL     1      -0.247   5.946  -4.335  1.00  0.00     0.042 C 
ENDROOT
BRANCH   1   2
ATOM      2  C   UNL     1       0.910   5.227  -3.641  1.00  0.00     0.118 C 
BRANCH   2   3
ATOM      3  N   UNL     1       1.639   6.126  -2.770  1.00  0.00    -0.352 N 
ATOM      4  C   UNL     1       1.595   6.339  -1.418  1.00  0.00     0.255 C 
ATOM      5  O   UNL     1       2.367   7.190  -0.968  1.00  0.00    -0.269 OA
ATOM      6  H   UNL     1       2.292   6.692  -3.240  1.00  0.00     0.163 HD
BRANCH   4   7
ATOM      7  C   UNL     1       0.769   5.564  -0.450  1.00  0.00     0.083 A 
ATOM      8  C   UNL     1       0.786   4.543   1.764  1.00  0.00     0.043 A 
ATOM      9  C   UNL     1      -0.564   4.234   1.644  1.00  0.00     0.030 A 
ATOM     10  C   UNL     1       1.424   5.273   0.762  1.00  0.00     0.044 A 
ATOM     11  C   UNL     1      -1.235   4.525   0.463  1.00  0.00     0.049 A 
ATOM     12  C   UNL     1      -0.565   5.161  -0.589  1.00  0.00     0.128 A 
BRANCH   8  13
ATOM     13  N   UNL     1       1.534   4.146   2.873  1.00  0.00    -0.308 N 
ATOM     14  C   UNL     1       1.473   3.008   3.618  1.00  0.00     0.321 C 
ATOM     15  O   UNL     1       1.884   3.062   4.779  1.00  0.00    -0.248 OA
ATOM     16  H   UNL     1       2.216   4.793   3.163  1.00  0.00     0.171 HD
BRANCH  14  17
ATOM     17  N   UNL     1       1.113   1.817   3.031  1.00  0.00    -0.324 N 
ATOM     18  C   UNL     1       1.075  -0.561   0.169  1.00  0.00     0.010 C 
ATOM     19  C   UNL     1       0.753  -0.010   1.547  1.00  0.00     0.010 C 
ATOM     20  C   UNL     1       0.886   1.513   1.619  1.00  0.00     0.125 C 
ATOM     21  C   UNL     1       1.623  -0.478   2.721  1.00  0.00     0.010 C 
ATOM     22  C   UNL     1       1.274   0.579   3.780  1.00  0.00     0.125 C 
ATOM     23  C   UNL     1       3.123  -0.499   2.414  1.00  0.00     0.010 C 
ENDBRANCH  14  17
ENDBRANCH   8  13
BRANCH  12  24
ATOM     24  O   UNL     1      -1.285   5.389  -1.720  1.00  0.00    -0.507 OA
ATOM     25  H   UNL     1      -2.176   5.103  -1.775  1.00  0.00     0.293 HD
ENDBRANCH  12  24
ENDBRANCH   4   7
ENDBRANCH   2   3
ENDBRANCH   1   2
BRANCH   1  26
ATOM     26  C   UNL     1       0.179   6.921  -5.424  1.00  0.00     0.118 C 
BRANCH  26  27
ATOM     27  N   UNL     1       0.551   6.249  -6.656  1.00  0.00    -0.352 N 
ATOM     28  C   UNL     1      -0.032   6.288  -7.899  1.00  0.00     0.251 C 
ATOM     29  H   UNL     1       1.348   5.674  -6.590  1.00  0.00     0.163 HD
ATOM     30  O   UNL     1       0.319   5.478  -8.752  1.00  0.00    -0.269 OA
BRANCH  28  31
ATOM     31  C   UNL     1      -1.090   7.276  -8.227  1.00  0.00     0.039 A 
ATOM     32  C   UNL     1      -2.150   6.871  -9.045  1.00  0.00     0.014 A 
ATOM     33  C   UNL     1      -1.023   8.604  -7.796  1.00  0.00     0.014 A 
ATOM     34  C   UNL     1      -3.162   7.774  -9.385  1.00  0.00     0.010 A 
ATOM     35  C   UNL     1      -2.068   9.486  -8.074  1.00  0.00     0.010 A 
ATOM     36  C   UNL     1      -3.145   9.083  -8.879  1.00  0.00    -0.014 A 
BRANCH  36  37
ATOM     37  C   UNL     1      -4.238  10.042  -9.186  1.00  0.00     0.031 A 
ATOM     38  C   UNL     1      -3.959  11.280  -9.993  1.00  0.00     0.074 A 
ATOM     39  C   UNL     1      -5.470   9.832  -8.681  1.00  0.00     0.049 A 
ATOM     40  N   UNL     1      -4.761  12.270 -10.296  1.00  0.00    -0.248 NA
ATOM     41  C   UNL     1      -2.589  11.441 -10.507  1.00  0.00     0.031 C 
ATOM     42  C   UNL     1      -5.856   8.697  -7.841  1.00  0.00     0.029 A 
ATOM     43  N   UNL     1      -6.620  10.575  -8.785  1.00  0.00    -0.354 N 
ATOM     44  C   UNL     1      -3.990  13.178 -11.011  1.00  0.00     0.074 A 
ATOM     45  C   UNL     1      -2.648  12.640 -11.068  1.00  0.00     0.031 C 
ATOM     46  C   UNL     1      -7.153   8.815  -7.513  1.00  0.00     0.029 A 
ATOM     47  C   UNL     1      -7.681  10.047  -8.090  1.00  0.00     0.049 A 
ATOM     48  H   UNL     1      -6.679  11.406  -9.309  1.00  0.00     0.167 HD
ATOM     49  C   UNL     1      -4.372  14.345 -11.583  1.00  0.00     0.037 A 
ATOM     50  C   UNL     1      -8.935  10.510  -7.926  1.00  0.00     0.037 A 
ATOM     51  C   UNL     1      -5.717  14.858 -11.562  1.00  0.00     0.049 A 
ATOM     52  C   UNL     1      -9.338  11.796  -8.595  1.00  0.00     0.074 A 
ATOM     53  C   UNL     1      -6.219  15.986 -12.187  1.00  0.00     0.029 A 
ATOM     54  N   UNL     1      -6.774  14.274 -10.880  1.00  0.00    -0.354 N 
ATOM     55  N   UNL     1      -8.619  12.605  -9.334  1.00  0.00    -0.248 NA
ATOM     56  C   UNL     1     -10.731  12.229  -8.413  1.00  0.00     0.031 C 
ATOM     57  C   UNL     1      -7.571  16.108 -11.850  1.00  0.00     0.029 A 
ATOM     58  C   UNL     1      -7.921  15.032 -11.051  1.00  0.00     0.049 A 
ATOM     59  H   UNL     1      -6.717  13.444 -10.354  1.00  0.00     0.167 HD
ATOM     60  C   UNL     1      -9.473  13.628  -9.722  1.00  0.00     0.074 A 
ATOM     61  C   UNL     1     -10.770  13.329  -9.152  1.00  0.00     0.031 C 
ATOM     62  C   UNL     1      -9.206  14.718 -10.481  1.00  0.00     0.037 A 
BRANCH  49  63
ATOM     63  C   UNL     1      -3.324  15.154 -12.289  1.00  0.00     0.064 A 
ATOM     64  C   UNL     1      -2.789  14.751 -13.521  1.00  0.00     0.173 A 
ATOM     65  C   UNL     1      -2.894  16.379 -11.755  1.00  0.00     0.173 A 
ATOM     66  F   UNL     1      -3.161  13.584 -14.069  1.00  0.00    -0.203 F 
ATOM     67  C   UNL     1      -1.848  15.534 -14.184  1.00  0.00     0.198 A 
ATOM     68  C   UNL     1      -1.972  17.172 -12.433  1.00  0.00     0.198 A 
ATOM     69  F   UNL     1      -3.380  16.814 -10.583  1.00  0.00    -0.203 F 
ATOM     70  F   UNL     1      -1.324  15.111 -15.343  1.00  0.00    -0.200 F 
ATOM     71  C   UNL     1      -1.446  16.747 -13.644  1.00  0.00     0.200 A 
ATOM     72  F   UNL     1      -1.594  18.349 -11.917  1.00  0.00    -0.200 F 
ATOM     73  F   UNL     1      -0.549  17.505 -14.289  1.00  0.00    -0.200 F 
ENDBRANCH  49  63
BRANCH  50  74
ATOM     74  C   UNL     1      -9.906   9.746  -7.102  1.00  0.00     0.064 A 
ATOM     75  C   UNL     1     -10.990   9.084  -7.694  1.00  0.00     0.173 A 
ATOM     76  C   UNL     1      -9.774   9.666  -5.708  1.00  0.00     0.173 A 
ATOM     77  F   UNL     1     -11.170   9.149  -9.021  1.00  0.00    -0.203 F 
ATOM     78  C   UNL     1     -11.918   8.389  -6.921  1.00  0.00     0.198 A 
ATOM     79  C   UNL     1     -10.686   8.948  -4.939  1.00  0.00     0.198 A 
ATOM     80  F   UNL     1      -8.750  10.277  -5.094  1.00  0.00    -0.203 F 
ATOM     81  F   UNL     1     -12.970   7.802  -7.508  1.00  0.00    -0.200 F 
ATOM     82  C   UNL     1     -11.762   8.317  -5.545  1.00  0.00     0.200 A 
ATOM     83  F   UNL     1     -10.525   8.869  -3.611  1.00  0.00    -0.200 F 
ATOM     84  F   UNL     1     -12.652   7.645  -4.802  1.00  0.00    -0.200 F 
ENDBRANCH  50  74
BRANCH  62  85
ATOM     85  C   UNL     1     -10.342  15.656 -10.760  1.00  0.00     0.064 A 
ATOM     86  C   UNL     1     -10.847  16.510  -9.769  1.00  0.00     0.173 A 
ATOM     87  C   UNL     1     -10.906  15.728 -12.043  1.00  0.00     0.173 A 
ATOM     88  F   UNL     1     -10.352  16.466  -8.523  1.00  0.00    -0.203 F 
ATOM     89  C   UNL     1     -11.891  17.388 -10.047  1.00  0.00     0.198 A 
ATOM     90  C   UNL     1     -11.931  16.626 -12.324  1.00  0.00     0.198 A 
ATOM     91  F   UNL     1     -10.453  14.935 -13.026  1.00  0.00    -0.203 F 
ATOM     92  F   UNL     1     -12.388  18.165  -9.075  1.00  0.00    -0.200 F 
ATOM     93  C   UNL     1     -12.427  17.450 -11.325  1.00  0.00     0.200 A 
ATOM     94  F   UNL     1     -12.441  16.693 -13.562  1.00  0.00    -0.200 F 
ATOM     95  F   UNL     1     -13.428  18.300 -11.592  1.00  0.00    -0.200 F 
ENDBRANCH  62  85
ENDBRANCH  36  37
ENDBRANCH  28  31
ENDBRANCH  26  27
ENDBRANCH   1  26
TORSDOF 13
