REMARK SMILES O=C(NCCCNC(=O)[C@H](NC(=O)[C@H]1CC(=O)N(CC2CC2)C1)c1ccccc1C(F)(F)F)c1ccc(-c2c3nc(c(-c4c(F)c(F)c(F)c(F)c4F)c4ccc([nH]4)c(-c4c(F)c(F)c(F)c(F)c4F)c4nc(c(-c5c(F)c(F)c(F)c(F)c5F)c5ccc2[nH]5)C=C4)C=C3)cc1
REMARK SMILES IDX 6 1 5 2 4 3 3 4 1 5 2 6 34 8 35 9 96 10 36 11 95 12 37 13
REMARK SMILES IDX 38 14 39 15 89 16 40 17 94 18 88 19 90 20 41 21 93 22 87 23
REMARK SMILES IDX 86 24 42 26 74 27 54 28 73 29 55 30 58 31 72 32 91 33 56 34
REMARK SMILES IDX 57 35 71 37 92 38 59 39 43 40 44 41 52 42 45 43 46 44 50 45
REMARK SMILES IDX 53 46 47 47 48 48 51 49 49 50 75 51 76 52 84 53 77 54 78 55
REMARK SMILES IDX 82 56 85 57 79 58 80 59 83 60 81 61 60 62 61 63 69 64 62 65
REMARK SMILES IDX 63 66 67 67 70 68 64 69 65 70 68 71 66 72 7 73 8 74 9 76
REMARK SMILES IDX 10 77 24 78 25 79 29 80 26 81 28 82 27 83 30 84 31 85 32 86
REMARK SMILES IDX 33 87 11 88 12 89 13 91 14 92 15 93 23 94 16 95 18 96 17 97
REMARK SMILES IDX 19 98 20 99 21 100 22 101
REMARK H PARENT 3 7 90 25 58 36 7 75 11 90
REMARK Flexibility Score: inf
ROOT
ATOM      1  C   UNL     1       5.686  10.890  -6.185  1.00  0.00     0.117 C 
ENDROOT
BRANCH   1   2
ATOM      2  C   UNL     1       4.817  10.352  -7.320  1.00  0.00     0.042 C 
BRANCH   2   3
ATOM      3  C   UNL     1       4.766  11.251  -8.554  1.00  0.00     0.118 C 
BRANCH   3   4
ATOM      4  N   UNL     1       6.040  11.316  -9.267  1.00  0.00    -0.352 N 
ATOM      5  O   UNL     1       7.563  10.965 -10.880  1.00  0.00    -0.269 OA
ATOM      6  C   UNL     1       6.382  10.983 -10.560  1.00  0.00     0.251 C 
ATOM      7  H   UNL     1       6.789  11.660  -8.727  1.00  0.00     0.163 HD
BRANCH   6   8
ATOM      8  C   UNL     1       5.348  10.652 -11.571  1.00  0.00     0.039 A 
ATOM      9  C   UNL     1       4.117  11.302 -11.579  1.00  0.00     0.014 A 
ATOM     10  C   UNL     1       5.646   9.730 -12.585  1.00  0.00     0.014 A 
ATOM     11  C   UNL     1       3.137  10.932 -12.491  1.00  0.00     0.010 A 
ATOM     12  C   UNL     1       4.702   9.448 -13.581  1.00  0.00     0.010 A 
ATOM     13  C   UNL     1       3.433  10.042 -13.535  1.00  0.00    -0.014 A 
BRANCH  13  14
ATOM     14  C   UNL     1       2.434   9.868 -14.621  1.00  0.00     0.031 A 
ATOM     15  C   UNL     1       1.802   8.537 -14.904  1.00  0.00     0.074 A 
ATOM     16  C   UNL     1       2.075  10.960 -15.326  1.00  0.00     0.049 A 
ATOM     17  N   UNL     1       0.895   8.232 -15.799  1.00  0.00    -0.248 NA
ATOM     18  C   UNL     1       2.245   7.397 -14.089  1.00  0.00     0.031 C 
ATOM     19  C   UNL     1       2.642  12.300 -15.144  1.00  0.00     0.029 A 
ATOM     20  N   UNL     1       1.136  11.134 -16.310  1.00  0.00    -0.354 N 
ATOM     21  C   UNL     1       0.671   6.868 -15.667  1.00  0.00     0.074 A 
ATOM     22  C   UNL     1       1.556   6.397 -14.623  1.00  0.00     0.031 C 
ATOM     23  C   UNL     1       1.996  13.167 -15.934  1.00  0.00     0.029 A 
ATOM     24  C   UNL     1       1.036  12.434 -16.746  1.00  0.00     0.049 A 
ATOM     25  H   UNL     1       0.588  10.400 -16.670  1.00  0.00     0.167 HD
ATOM     26  C   UNL     1      -0.200   6.090 -16.355  1.00  0.00     0.037 A 
ATOM     27  C   UNL     1       0.275  12.975 -17.714  1.00  0.00     0.037 A 
ATOM     28  C   UNL     1      -1.079   6.579 -17.388  1.00  0.00     0.049 A 
ATOM     29  C   UNL     1      -0.652  12.077 -18.480  1.00  0.00     0.074 A 
ATOM     30  C   UNL     1      -2.015   5.879 -18.129  1.00  0.00     0.029 A 
ATOM     31  N   UNL     1      -1.124   7.894 -17.832  1.00  0.00    -0.354 N 
ATOM     32  N   UNL     1      -0.875  10.794 -18.325  1.00  0.00    -0.248 NA
ATOM     33  C   UNL     1      -1.426  12.698 -19.560  1.00  0.00     0.031 C 
ATOM     34  C   UNL     1      -2.584   6.755 -19.059  1.00  0.00     0.029 A 
ATOM     35  C   UNL     1      -2.052   8.018 -18.855  1.00  0.00     0.049 A 
ATOM     36  H   UNL     1      -0.577   8.630 -17.474  1.00  0.00     0.167 HD
ATOM     37  C   UNL     1      -1.826  10.456 -19.275  1.00  0.00     0.074 A 
ATOM     38  C   UNL     1      -2.159  11.677 -19.981  1.00  0.00     0.031 C 
ATOM     39  C   UNL     1      -2.368   9.244 -19.546  1.00  0.00     0.037 A 
BRANCH  26  40
ATOM     40  C   UNL     1      -0.234   4.621 -16.034  1.00  0.00     0.064 A 
ATOM     41  C   UNL     1      -0.750   4.138 -14.822  1.00  0.00     0.173 A 
ATOM     42  C   UNL     1       0.207   3.678 -16.977  1.00  0.00     0.173 A 
ATOM     43  F   UNL     1      -1.176   4.994 -13.881  1.00  0.00    -0.203 F 
ATOM     44  C   UNL     1      -0.803   2.771 -14.557  1.00  0.00     0.198 A 
ATOM     45  C   UNL     1       0.124   2.311 -16.721  1.00  0.00     0.198 A 
ATOM     46  F   UNL     1       0.704   4.082 -18.156  1.00  0.00    -0.203 F 
ATOM     47  F   UNL     1      -1.261   2.337 -13.375  1.00  0.00    -0.200 F 
ATOM     48  C   UNL     1      -0.374   1.859 -15.510  1.00  0.00     0.200 A 
ATOM     49  F   UNL     1       0.526   1.432 -17.650  1.00  0.00    -0.200 F 
ATOM     50  F   UNL     1      -0.437   0.544 -15.258  1.00  0.00    -0.200 F 
ENDBRANCH  26  40
BRANCH  27  51
ATOM     51  C   UNL     1       0.384  14.425 -18.026  1.00  0.00     0.064 A 
ATOM     52  C   UNL     1      -0.692  15.297 -17.811  1.00  0.00     0.173 A 
ATOM     53  C   UNL     1       1.569  14.969 -18.546  1.00  0.00     0.173 A 
ATOM     54  F   UNL     1      -1.851  14.825 -17.330  1.00  0.00    -0.203 F 
ATOM     55  C   UNL     1      -0.594  16.651 -18.127  1.00  0.00     0.198 A 
ATOM     56  C   UNL     1       1.678  16.329 -18.825  1.00  0.00     0.198 A 
ATOM     57  F   UNL     1       2.632  14.181 -18.764  1.00  0.00    -0.203 F 
ATOM     58  F   UNL     1      -1.655  17.452 -17.961  1.00  0.00    -0.200 F 
ATOM     59  C   UNL     1       0.592  17.167 -18.626  1.00  0.00     0.200 A 
ATOM     60  F   UNL     1       2.834  16.825 -19.285  1.00  0.00    -0.200 F 
ATOM     61  F   UNL     1       0.687  18.470 -18.923  1.00  0.00    -0.200 F 
ENDBRANCH  27  51
BRANCH  39  62
ATOM     62  C   UNL     1      -3.404   9.194 -20.632  1.00  0.00     0.064 A 
ATOM     63  C   UNL     1      -3.066   9.377 -21.981  1.00  0.00     0.173 A 
ATOM     64  C   UNL     1      -4.749   8.948 -20.317  1.00  0.00     0.173 A 
ATOM     65  F   UNL     1      -1.797   9.634 -22.331  1.00  0.00    -0.203 F 
ATOM     66  C   UNL     1      -4.044   9.351 -22.972  1.00  0.00     0.198 A 
ATOM     67  C   UNL     1      -5.717   8.887 -21.314  1.00  0.00     0.198 A 
ATOM     68  F   UNL     1      -5.123   8.762 -19.043  1.00  0.00    -0.203 F 
ATOM     69  F   UNL     1      -3.709   9.592 -24.247  1.00  0.00    -0.200 F 
ATOM     70  C   UNL     1      -5.366   9.099 -22.639  1.00  0.00     0.200 A 
ATOM     71  F   UNL     1      -6.992   8.628 -20.992  1.00  0.00    -0.200 F 
ATOM     72  F   UNL     1      -6.305   9.072 -23.594  1.00  0.00    -0.200 F 
ENDBRANCH  39  62
ENDBRANCH  13  14
ENDBRANCH   6   8
ENDBRANCH   3   4
ENDBRANCH   2   3
ENDBRANCH   1   2
BRANCH   1  73
ATOM     73  N   UNL     1       4.968  11.574  -5.119  1.00  0.00    -0.354 N 
ATOM     74  C   UNL     1       4.822  11.256  -3.790  1.00  0.00     0.247 C 
ATOM     75  H   UNL     1       4.511  12.401  -5.396  1.00  0.00     0.163 HD
ATOM     76  O   UNL     1       4.820  12.222  -3.014  1.00  0.00    -0.272 OA
BRANCH  74  77
ATOM     77  C   UNL     1       4.548   9.805  -3.219  1.00  0.00     0.202 C 
BRANCH  77  78
ATOM     78  C   UNL     1       3.881   8.899  -4.208  1.00  0.00    -0.004 A 
ATOM     79  C   UNL     1       2.491   8.990  -4.147  1.00  0.00     0.007 A 
ATOM     80  C   UNL     1       4.521   7.879  -4.960  1.00  0.00     0.061 A 
ATOM     81  C   UNL     1       1.741   7.972  -4.658  1.00  0.00     0.000 A 
ATOM     82  C   UNL     1       3.710   6.916  -5.570  1.00  0.00     0.013 A 
ATOM     83  C   UNL     1       2.339   6.933  -5.366  1.00  0.00     0.001 A 
BRANCH  80  84
ATOM     84  C   UNL     1       6.016   7.656  -5.091  1.00  0.00     0.416 C 
ATOM     85  F   UNL     1       6.394   6.418  -4.671  1.00  0.00    -0.166 F 
ATOM     86  F   UNL     1       6.413   7.734  -6.395  1.00  0.00    -0.166 F 
ATOM     87  F   UNL     1       6.808   8.537  -4.425  1.00  0.00    -0.166 F 
ENDBRANCH  80  84
ENDBRANCH  77  78
BRANCH  77  88
ATOM     88  N   UNL     1       5.414   9.000  -2.366  1.00  0.00    -0.340 N 
ATOM     89  C   UNL     1       5.205   7.861  -1.641  1.00  0.00     0.226 C 
ATOM     90  H   UNL     1       6.333   9.345  -2.300  1.00  0.00     0.164 HD
ATOM     91  O   UNL     1       6.260   7.328  -1.258  1.00  0.00    -0.275 OA
BRANCH  89  92
ATOM     92  C   UNL     1       3.874   7.129  -1.253  1.00  0.00     0.107 C 
ATOM     93  C   UNL     1       2.650   7.881  -0.757  1.00  0.00     0.115 C 
ATOM     94  C   UNL     1       3.312   6.004  -2.139  1.00  0.00     0.133 C 
ATOM     95  C   UNL     1       1.439   7.108  -1.275  1.00  0.00     0.223 C 
ATOM     96  N   UNL     1       1.853   6.159  -2.200  1.00  0.00    -0.342 N 
ATOM     97  O   UNL     1       0.298   7.299  -0.901  1.00  0.00    -0.275 OA
BRANCH  96  98
ATOM     98  C   UNL     1       0.997   5.066  -2.717  1.00  0.00     0.123 C 
BRANCH  98  99
ATOM     99  C   UNL     1      -0.352   5.320  -3.397  1.00  0.00     0.008 C 
ATOM    100  C   UNL     1      -0.865   6.119  -4.602  1.00  0.00     0.006 C 
ATOM    101  C   UNL     1      -0.540   4.681  -4.779  1.00  0.00     0.006 C 
ENDBRANCH  98  99
ENDBRANCH  96  98
ENDBRANCH  89  92
ENDBRANCH  77  88
ENDBRANCH  74  77
ENDBRANCH   1  73
TORSDOF 16
