REMARK SMILES CC(C)(C)OC(=O)Nc1ccc(SCC(=O)NCCCNC(=O)c2ccc(-c3c4nc(c(-c5c(F)c(F)c(F)c(F)c5F)c5ccc([nH]5)c(-c5c(F)c(F)c(F)c(F)c5F)c5nc(c(-c6c(F)c(F)c(F)c(F)c6F)c6ccc3[nH]6)C=C5)C=C4)cc2)cc1
REMARK SMILES IDX 15 1 16 2 17 3 14 5 13 6 12 7 9 8 10 9 88 10 11 11 87 12
REMARK SMILES IDX 8 13 6 14 7 15 5 17 2 18 1 19 3 20 4 21 18 22 19 23 20 24
REMARK SMILES IDX 21 25 22 26 23 28 24 29 25 30 86 31 26 32 85 33 27 34 28 35
REMARK SMILES IDX 29 36 79 37 30 38 84 39 78 40 80 41 31 42 83 43 77 44 76 45
REMARK SMILES IDX 32 47 64 48 44 49 63 50 45 51 48 52 62 53 81 54 46 55 47 56
REMARK SMILES IDX 61 58 82 59 49 60 33 61 34 62 42 63 35 64 36 65 40 66 43 67
REMARK SMILES IDX 37 68 38 69 41 70 39 71 65 72 66 73 74 74 67 75 68 76 72 77
REMARK SMILES IDX 75 78 69 79 70 80 73 81 71 82 50 83 51 84 59 85 52 86 53 87
REMARK SMILES IDX 57 88 60 89 54 90 55 91 58 92 56 93
REMARK H PARENT 17 4 8 16 21 27 80 46 48 57
REMARK Flexibility Score: inf
ROOT
ATOM      1  C   UNL     1       5.553   4.251   2.483  1.00  0.00     0.230 C 
ATOM      2  O   UNL     1       5.568   3.070   2.124  1.00  0.00    -0.274 OA
ATOM      3  N   UNL     1       4.944   4.534   3.667  1.00  0.00    -0.355 N 
ATOM      4  H   UNL     1       4.552   3.758   4.129  1.00  0.00     0.163 HD
ENDROOT
BRANCH   1   5
ATOM      5  C   UNL     1       6.271   5.319   1.679  1.00  0.00     0.174 C 
BRANCH   5   6
ATOM      6  S   UNL     1       5.193   6.616   0.990  1.00  0.00    -0.116 SA
BRANCH   6   7
ATOM      7  C   UNL     1       4.030   5.769  -0.065  1.00  0.00     0.008 A 
ATOM      8  C   UNL     1       2.009   4.604  -1.666  1.00  0.00     0.044 A 
ATOM      9  C   UNL     1       1.984   5.968  -1.383  1.00  0.00     0.027 A 
ATOM     10  C   UNL     1       3.080   3.841  -1.200  1.00  0.00     0.027 A 
ATOM     11  C   UNL     1       2.973   6.538  -0.571  1.00  0.00     0.017 A 
ATOM     12  C   UNL     1       4.092   4.425  -0.426  1.00  0.00     0.017 A 
BRANCH   8  13
ATOM     13  N   UNL     1       0.974   4.077  -2.453  1.00  0.00    -0.291 N 
ATOM     14  C   UNL     1       0.523   2.785  -2.544  1.00  0.00     0.412 C 
ATOM     15  O   UNL     1      -0.280   2.464  -3.413  1.00  0.00    -0.224 OA
ATOM     16  H   UNL     1       0.504   4.729  -3.022  1.00  0.00     0.173 HD
BRANCH  14  17
ATOM     17  O   UNL     1       0.958   1.982  -1.545  1.00  0.00    -0.444 OA
BRANCH  17  18
ATOM     18  C   UNL     1       0.476   0.623  -1.393  1.00  0.00     0.106 C 
ATOM     19  C   UNL     1       1.086   0.144  -0.067  1.00  0.00     0.056 C 
ATOM     20  C   UNL     1       0.996  -0.259  -2.530  1.00  0.00     0.056 C 
ATOM     21  C   UNL     1      -1.051   0.563  -1.270  1.00  0.00     0.056 C 
ENDBRANCH  17  18
ENDBRANCH  14  17
ENDBRANCH   8  13
ENDBRANCH   6   7
ENDBRANCH   5   6
ENDBRANCH   1   5
BRANCH   3  22
ATOM     22  C   UNL     1       4.782   5.801   4.352  1.00  0.00     0.117 C 
BRANCH  22  23
ATOM     23  C   UNL     1       3.346   6.315   4.279  1.00  0.00     0.042 C 
BRANCH  23  24
ATOM     24  C   UNL     1       2.308   5.396   4.919  1.00  0.00     0.118 C 
BRANCH  24  25
ATOM     25  N   UNL     1       2.505   5.225   6.352  1.00  0.00    -0.352 N 
ATOM     26  C   UNL     1       1.663   5.480   7.405  1.00  0.00     0.251 C 
ATOM     27  H   UNL     1       3.386   4.869   6.606  1.00  0.00     0.163 HD
ATOM     28  O   UNL     1       2.095   5.413   8.553  1.00  0.00    -0.269 OA
BRANCH  26  29
ATOM     29  C   UNL     1       0.248   5.855   7.182  1.00  0.00     0.039 A 
ATOM     30  C   UNL     1      -0.309   6.863   7.976  1.00  0.00     0.014 A 
ATOM     31  C   UNL     1      -0.543   5.200   6.235  1.00  0.00     0.014 A 
ATOM     32  C   UNL     1      -1.633   7.259   7.776  1.00  0.00     0.010 A 
ATOM     33  C   UNL     1      -1.843   5.641   5.990  1.00  0.00     0.010 A 
ATOM     34  C   UNL     1      -2.401   6.676   6.756  1.00  0.00    -0.014 A 
BRANCH  34  35
ATOM     35  C   UNL     1      -3.780   7.148   6.466  1.00  0.00     0.031 A 
ATOM     36  C   UNL     1      -4.957   6.234   6.658  1.00  0.00     0.074 A 
ATOM     37  C   UNL     1      -3.964   8.380   5.952  1.00  0.00     0.049 A 
ATOM     38  N   UNL     1      -6.220   6.440   6.382  1.00  0.00    -0.248 NA
ATOM     39  C   UNL     1      -4.673   4.900   7.207  1.00  0.00     0.031 C 
ATOM     40  C   UNL     1      -2.900   9.342   5.666  1.00  0.00     0.029 A 
ATOM     41  N   UNL     1      -5.111   9.025   5.560  1.00  0.00    -0.354 N 
ATOM     42  C   UNL     1      -6.876   5.259   6.702  1.00  0.00     0.074 A 
ATOM     43  C   UNL     1      -5.866   4.325   7.154  1.00  0.00     0.031 C 
ATOM     44  C   UNL     1      -3.442  10.457   5.151  1.00  0.00     0.029 A 
ATOM     45  C   UNL     1      -4.886  10.276   5.039  1.00  0.00     0.049 A 
ATOM     46  H   UNL     1      -6.008   8.629   5.644  1.00  0.00     0.167 HD
ATOM     47  C   UNL     1      -8.201   4.984   6.641  1.00  0.00     0.037 A 
ATOM     48  C   UNL     1      -5.745  11.172   4.516  1.00  0.00     0.037 A 
ATOM     49  C   UNL     1      -9.207   5.925   6.221  1.00  0.00     0.049 A 
ATOM     50  C   UNL     1      -7.213  10.851   4.477  1.00  0.00     0.074 A 
ATOM     51  C   UNL     1     -10.583   5.769   6.209  1.00  0.00     0.029 A 
ATOM     52  N   UNL     1      -8.946   7.196   5.733  1.00  0.00    -0.354 N 
ATOM     53  N   UNL     1      -7.831   9.761   4.861  1.00  0.00    -0.248 NA
ATOM     54  C   UNL     1      -8.105  11.889   3.940  1.00  0.00     0.031 C 
ATOM     55  C   UNL     1     -11.150   6.928   5.669  1.00  0.00     0.029 A 
ATOM     56  C   UNL     1     -10.132   7.826   5.391  1.00  0.00     0.049 A 
ATOM     57  H   UNL     1      -8.049   7.593   5.643  1.00  0.00     0.167 HD
ATOM     58  C   UNL     1      -9.181   9.987   4.632  1.00  0.00     0.074 A 
ATOM     59  C   UNL     1      -9.295  11.325   4.091  1.00  0.00     0.031 C 
ATOM     60  C   UNL     1     -10.232   9.158   4.851  1.00  0.00     0.037 A 
BRANCH  47  61
ATOM     61  C   UNL     1      -8.642   3.603   7.035  1.00  0.00     0.064 A 
ATOM     62  C   UNL     1      -8.595   3.165   8.367  1.00  0.00     0.173 A 
ATOM     63  C   UNL     1      -9.149   2.718   6.071  1.00  0.00     0.173 A 
ATOM     64  F   UNL     1      -8.111   3.969   9.325  1.00  0.00    -0.203 F 
ATOM     65  C   UNL     1      -9.006   1.881   8.714  1.00  0.00     0.198 A 
ATOM     66  C   UNL     1      -9.588   1.445   6.427  1.00  0.00     0.198 A 
ATOM     67  F   UNL     1      -9.224   3.089   4.784  1.00  0.00    -0.203 F 
ATOM     68  F   UNL     1      -8.903   1.467   9.984  1.00  0.00    -0.200 F 
ATOM     69  C   UNL     1      -9.508   1.024   7.745  1.00  0.00     0.200 A 
ATOM     70  F   UNL     1     -10.084   0.623   5.492  1.00  0.00    -0.200 F 
ATOM     71  F   UNL     1      -9.907  -0.210   8.082  1.00  0.00    -0.200 F 
ENDBRANCH  47  61
BRANCH  48  72
ATOM     72  C   UNL     1      -5.232  12.468   4.003  1.00  0.00     0.064 A 
ATOM     73  C   UNL     1      -5.480  13.664   4.689  1.00  0.00     0.173 A 
ATOM     74  C   UNL     1      -4.470  12.534   2.827  1.00  0.00     0.173 A 
ATOM     75  F   UNL     1      -6.220  13.653   5.808  1.00  0.00    -0.203 F 
ATOM     76  C   UNL     1      -4.998  14.881   4.211  1.00  0.00     0.198 A 
ATOM     77  C   UNL     1      -3.966  13.748   2.364  1.00  0.00     0.198 A 
ATOM     78  F   UNL     1      -4.200  11.416   2.138  1.00  0.00    -0.203 F 
ATOM     79  F   UNL     1      -5.281  16.015   4.866  1.00  0.00    -0.200 F 
ATOM     80  C   UNL     1      -4.236  14.921   3.053  1.00  0.00     0.200 A 
ATOM     81  F   UNL     1      -3.218  13.780   1.253  1.00  0.00    -0.200 F 
ATOM     82  F   UNL     1      -3.765  16.090   2.599  1.00  0.00    -0.200 F 
ENDBRANCH  48  72
BRANCH  60  83
ATOM     83  C   UNL     1     -11.600   9.682   4.526  1.00  0.00     0.064 A 
ATOM     84  C   UNL     1     -12.030   9.842   3.201  1.00  0.00     0.173 A 
ATOM     85  C   UNL     1     -12.505   9.991   5.553  1.00  0.00     0.173 A 
ATOM     86  F   UNL     1     -11.196   9.576   2.184  1.00  0.00    -0.203 F 
ATOM     87  C   UNL     1     -13.309  10.313   2.916  1.00  0.00     0.198 A 
ATOM     88  C   UNL     1     -13.792  10.435   5.264  1.00  0.00     0.198 A 
ATOM     89  F   UNL     1     -12.145   9.851   6.837  1.00  0.00    -0.203 F 
ATOM     90  F   UNL     1     -13.683  10.501   1.642  1.00  0.00    -0.200 F 
ATOM     91  C   UNL     1     -14.191  10.602   3.946  1.00  0.00     0.200 A 
ATOM     92  F   UNL     1     -14.647  10.703   6.261  1.00  0.00    -0.200 F 
ATOM     93  F   UNL     1     -15.424  11.049   3.669  1.00  0.00    -0.200 F 
ENDBRANCH  60  83
ENDBRANCH  34  35
ENDBRANCH  26  29
ENDBRANCH  24  25
ENDBRANCH  23  24
ENDBRANCH  22  23
ENDBRANCH   3  22
TORSDOF 15
