REMARK SMILES CC(C)Cc1ccc(S(=O)(=O)Nc2cnc(N3CCCC3)c(C(=O)NCCCNC(=O)c3ccc(-c4c5nc(c(-c6c(F)c(F)c(F)c(F)c6F)c6ccc([nH]6)c(-c6c(F)c(F)c(F)c(F)c6F)c6nc(c(-c7c(F)c(F)c(F)c(F)c7F)c7ccc4[nH]7)C=C6)C=C5)cc3)c2)cc1
REMARK SMILES IDX 23 1 24 2 25 3 22 5 13 6 14 7 95 8 15 9 16 10 12 11 9 13
REMARK SMILES IDX 10 14 11 15 8 16 5 17 6 18 97 19 7 20 96 21 4 22 2 23 1 24
REMARK SMILES IDX 3 25 17 26 18 27 21 28 19 29 20 30 26 31 27 32 28 33 29 34
REMARK SMILES IDX 30 35 31 37 32 38 33 39 94 40 34 41 93 42 35 43 36 44 37 45
REMARK SMILES IDX 87 46 38 47 92 48 86 49 88 50 39 51 91 52 85 53 84 54 40 56
REMARK SMILES IDX 72 57 52 58 71 59 53 60 56 61 70 62 89 63 54 64 55 65 69 67
REMARK SMILES IDX 90 68 57 69 41 70 42 71 50 72 43 73 44 74 48 75 51 76 45 77
REMARK SMILES IDX 46 78 49 79 47 80 73 81 74 82 82 83 75 84 76 85 80 86 83 87
REMARK SMILES IDX 77 88 78 89 81 90 79 91 58 92 59 93 67 94 60 95 61 96 65 97
REMARK SMILES IDX 68 98 62 99 63 100 66 101 64 102
REMARK H PARENT 25 4 12 12 29 36 88 55 56 66
REMARK Flexibility Score: inf
ROOT
ATOM      1  C   UNL     1       0.474  -3.158   2.025  1.00  0.00     0.255 C 
ATOM      2  O   UNL     1       1.048  -3.891   1.221  1.00  0.00    -0.269 OA
ATOM      3  N   UNL     1       1.123  -1.966   2.207  1.00  0.00    -0.352 N 
ATOM      4  H   UNL     1       1.906  -1.887   1.616  1.00  0.00     0.163 HD
ENDROOT
BRANCH   1   5
ATOM      5  C   UNL     1      -0.826  -3.527   2.680  1.00  0.00     0.084 A 
ATOM      6  C   UNL     1      -2.564  -2.908   4.235  1.00  0.00     0.068 A 
ATOM      7  C   UNL     1      -3.397  -3.802   3.589  1.00  0.00     0.140 A 
ATOM      8  C   UNL     1      -1.226  -2.898   3.869  1.00  0.00     0.046 A 
ATOM      9  N   UNL     1      -3.019  -4.528   2.522  1.00  0.00    -0.236 NA
ATOM     10  C   UNL     1      -1.759  -4.372   2.031  1.00  0.00     0.141 A 
BRANCH   6  11
ATOM     11  N   UNL     1      -3.148  -1.952   5.112  1.00  0.00    -0.278 N 
ATOM     12  H   UNL     1      -3.831  -2.260   5.752  1.00  0.00     0.180 HD
BRANCH  11  13
ATOM     13  S   UNL     1      -2.731  -0.319   5.111  1.00  0.00     0.261 S 
ATOM     14  O   UNL     1      -1.408  -0.220   5.703  1.00  0.00    -0.201 OA
ATOM     15  O   UNL     1      -3.863   0.364   5.694  1.00  0.00    -0.201 OA
BRANCH  13  16
ATOM     16  C   UNL     1      -2.572   0.293   3.437  1.00  0.00     0.087 A 
ATOM     17  C   UNL     1      -1.797   1.195   0.878  1.00  0.00    -0.048 A 
ATOM     18  C   UNL     1      -1.536   1.972   2.013  1.00  0.00     0.005 A 
ATOM     19  C   UNL     1      -2.519   0.003   1.034  1.00  0.00     0.005 A 
ATOM     20  C   UNL     1      -1.907   1.519   3.284  1.00  0.00     0.022 A 
ATOM     21  C   UNL     1      -2.932  -0.433   2.302  1.00  0.00     0.022 A 
BRANCH  17  22
ATOM     22  C   UNL     1      -1.302   1.630  -0.488  1.00  0.00     0.038 C 
BRANCH  22  23
ATOM     23  C   UNL     1       0.236   1.603  -0.641  1.00  0.00    -0.013 C 
ATOM     24  C   UNL     1       0.790   0.178  -0.626  1.00  0.00     0.008 C 
ATOM     25  C   UNL     1       0.659   2.281  -1.947  1.00  0.00     0.008 C 
ENDBRANCH  22  23
ENDBRANCH  17  22
ENDBRANCH  13  16
ENDBRANCH  11  13
ENDBRANCH   6  11
BRANCH  10  26
ATOM     26  N   UNL     1      -1.536  -5.009   0.845  1.00  0.00    -0.356 N 
ATOM     27  C   UNL     1      -0.605  -6.114   0.692  1.00  0.00     0.118 C 
ATOM     28  C   UNL     1      -2.563  -5.067  -0.187  1.00  0.00     0.118 C 
ATOM     29  C   UNL     1      -0.522  -6.205  -0.827  1.00  0.00     0.023 C 
ATOM     30  C   UNL     1      -1.977  -6.013  -1.244  1.00  0.00     0.023 C 
ENDBRANCH  10  26
ENDBRANCH   1   5
BRANCH   3  31
ATOM     31  C   UNL     1       0.964  -0.789   3.040  1.00  0.00     0.118 C 
BRANCH  31  32
ATOM     32  C   UNL     1       2.035  -0.757   4.119  1.00  0.00     0.042 C 
BRANCH  32  33
ATOM     33  C   UNL     1       3.438  -0.602   3.538  1.00  0.00     0.118 C 
BRANCH  33  34
ATOM     34  N   UNL     1       3.624   0.682   2.873  1.00  0.00    -0.352 N 
ATOM     35  C   UNL     1       4.581   1.639   3.093  1.00  0.00     0.251 C 
ATOM     36  H   UNL     1       2.970   0.891   2.167  1.00  0.00     0.163 HD
ATOM     37  O   UNL     1       4.479   2.750   2.585  1.00  0.00    -0.269 OA
BRANCH  35  38
ATOM     38  C   UNL     1       5.731   1.321   3.959  1.00  0.00     0.039 A 
ATOM     39  C   UNL     1       6.102   2.227   4.954  1.00  0.00     0.014 A 
ATOM     40  C   UNL     1       6.433   0.123   3.789  1.00  0.00     0.014 A 
ATOM     41  C   UNL     1       7.147   1.905   5.820  1.00  0.00     0.010 A 
ATOM     42  C   UNL     1       7.425  -0.227   4.695  1.00  0.00     0.010 A 
ATOM     43  C   UNL     1       7.796   0.663   5.715  1.00  0.00    -0.014 A 
BRANCH  43  44
ATOM     44  C   UNL     1       8.876   0.280   6.654  1.00  0.00     0.031 A 
ATOM     45  C   UNL     1      10.276   0.085   6.145  1.00  0.00     0.074 A 
ATOM     46  C   UNL     1       8.581   0.039   7.944  1.00  0.00     0.049 A 
ATOM     47  N   UNL     1      11.341  -0.323   6.786  1.00  0.00    -0.248 NA
ATOM     48  C   UNL     1      10.501   0.353   4.715  1.00  0.00     0.031 C 
ATOM     49  C   UNL     1       7.248   0.138   8.541  1.00  0.00     0.029 A 
ATOM     50  N   UNL     1       9.383  -0.351   8.986  1.00  0.00    -0.354 N 
ATOM     51  C   UNL     1      12.352  -0.383   5.837  1.00  0.00     0.074 A 
ATOM     52  C   UNL     1      11.765  -0.015   4.567  1.00  0.00     0.031 C 
ATOM     53  C   UNL     1       7.328  -0.161   9.847  1.00  0.00     0.029 A 
ATOM     54  C   UNL     1       8.709  -0.501  10.173  1.00  0.00     0.049 A 
ATOM     55  H   UNL     1      10.351  -0.508   8.892  1.00  0.00     0.167 HD
ATOM     56  C   UNL     1      13.657  -0.695   6.014  1.00  0.00     0.037 A 
ATOM     57  C   UNL     1       9.159  -0.871  11.386  1.00  0.00     0.037 A 
ATOM     58  C   UNL     1      14.245  -1.020   7.286  1.00  0.00     0.049 A 
ATOM     59  C   UNL     1      10.621  -1.175  11.564  1.00  0.00     0.074 A 
ATOM     60  C   UNL     1      15.570  -1.282   7.585  1.00  0.00     0.029 A 
ATOM     61  N   UNL     1      13.538  -1.120   8.476  1.00  0.00    -0.354 N 
ATOM     62  N   UNL     1      11.582  -1.165  10.672  1.00  0.00    -0.248 NA
ATOM     63  C   UNL     1      11.062  -1.534  12.919  1.00  0.00     0.031 C 
ATOM     64  C   UNL     1      15.661  -1.570   8.951  1.00  0.00     0.029 A 
ATOM     65  C   UNL     1      14.398  -1.451   9.510  1.00  0.00     0.049 A 
ATOM     66  H   UNL     1      12.569  -0.976   8.571  1.00  0.00     0.167 HD
ATOM     67  C   UNL     1      12.742  -1.492  11.359  1.00  0.00     0.074 A 
ATOM     68  C   UNL     1      12.368  -1.681  12.745  1.00  0.00     0.031 C 
ATOM     69  C   UNL     1      14.005  -1.626  10.884  1.00  0.00     0.037 A 
BRANCH  56  70
ATOM     70  C   UNL     1      14.540  -0.688   4.801  1.00  0.00     0.064 A 
ATOM     71  C   UNL     1      14.907   0.509   4.168  1.00  0.00     0.173 A 
ATOM     72  C   UNL     1      15.044  -1.889   4.281  1.00  0.00     0.173 A 
ATOM     73  F   UNL     1      14.439   1.682   4.619  1.00  0.00    -0.203 F 
ATOM     74  C   UNL     1      15.724   0.501   3.041  1.00  0.00     0.198 A 
ATOM     75  C   UNL     1      15.884  -1.891   3.170  1.00  0.00     0.198 A 
ATOM     76  F   UNL     1      14.727  -3.061   4.851  1.00  0.00    -0.203 F 
ATOM     77  F   UNL     1      16.022   1.653   2.424  1.00  0.00    -0.200 F 
ATOM     78  C   UNL     1      16.217  -0.697   2.546  1.00  0.00     0.200 A 
ATOM     79  F   UNL     1      16.367  -3.048   2.698  1.00  0.00    -0.200 F 
ATOM     80  F   UNL     1      17.006  -0.703   1.464  1.00  0.00    -0.200 F 
ENDBRANCH  56  70
BRANCH  57  81
ATOM     81  C   UNL     1       8.221  -0.934  12.535  1.00  0.00     0.064 A 
ATOM     82  C   UNL     1       8.271   0.028  13.553  1.00  0.00     0.173 A 
ATOM     83  C   UNL     1       7.257  -1.947  12.637  1.00  0.00     0.173 A 
ATOM     84  F   UNL     1       9.190   1.003  13.507  1.00  0.00    -0.203 F 
ATOM     85  C   UNL     1       7.401  -0.030  14.639  1.00  0.00     0.198 A 
ATOM     86  C   UNL     1       6.373  -1.990  13.713  1.00  0.00     0.198 A 
ATOM     87  F   UNL     1       7.168  -2.888  11.685  1.00  0.00    -0.203 F 
ATOM     88  F   UNL     1       7.495   0.880  15.618  1.00  0.00    -0.200 F 
ATOM     89  C   UNL     1       6.450  -1.036  14.716  1.00  0.00     0.200 A 
ATOM     90  F   UNL     1       5.447  -2.957  13.778  1.00  0.00    -0.200 F 
ATOM     91  F   UNL     1       5.612  -1.089  15.760  1.00  0.00    -0.200 F 
ENDBRANCH  57  81
BRANCH  69  92
ATOM     92  C   UNL     1      15.075  -1.966  11.876  1.00  0.00     0.064 A 
ATOM     93  C   UNL     1      15.191  -3.256  12.415  1.00  0.00     0.173 A 
ATOM     94  C   UNL     1      16.017  -1.001  12.263  1.00  0.00     0.173 A 
ATOM     95  F   UNL     1      14.304  -4.207  12.086  1.00  0.00    -0.203 F 
ATOM     96  C   UNL     1      16.200  -3.561  13.324  1.00  0.00     0.198 A 
ATOM     97  C   UNL     1      17.039  -1.317  13.153  1.00  0.00     0.198 A 
ATOM     98  F   UNL     1      15.950   0.245  11.770  1.00  0.00    -0.203 F 
ATOM     99  F   UNL     1      16.268  -4.788  13.858  1.00  0.00    -0.200 F 
ATOM    100  C   UNL     1      17.126  -2.594  13.687  1.00  0.00     0.200 A 
ATOM    101  F   UNL     1      17.939  -0.385  13.495  1.00  0.00    -0.200 F 
ATOM    102  F   UNL     1      18.100  -2.891  14.558  1.00  0.00    -0.200 F 
ENDBRANCH  69  92
ENDBRANCH  43  44
ENDBRANCH  35  38
ENDBRANCH  33  34
ENDBRANCH  32  33
ENDBRANCH  31  32
ENDBRANCH   3  31
TORSDOF 16
