REMARK SMILES Cn1c(=O)c(=O)n(C)c2cc(S(=O)(=O)N3CCC[C@H]3C(=O)NCCCNC(=O)c3ccc(-c4c5nc(c(-c6c(F)c(F)c(F)c(F)c6F)c6ccc([nH]6)c(-c6c(F)c(F)c(F)c(F)c6F)c6nc(c(-c7c(F)c(F)c(F)c(F)c7F)c7ccc4[nH]7)C=C6)C=C5)cc3)ccc21
REMARK SMILES IDX 24 1 23 2 22 3 20 4 21 5 19 7 15 8 16 9 17 10 18 11 12 12
REMARK SMILES IDX 13 13 14 14 11 15 1 16 2 17 3 18 94 19 4 20 5 21 9 22 93 23
REMARK SMILES IDX 6 24 7 25 10 26 92 27 8 28 25 29 26 30 27 31 28 33 29 34
REMARK SMILES IDX 30 35 91 36 31 37 90 38 32 39 33 40 34 41 84 42 35 43 89 44
REMARK SMILES IDX 83 45 85 46 36 47 88 48 82 49 81 50 37 52 69 53 49 54 68 55
REMARK SMILES IDX 50 56 53 57 67 58 86 59 51 60 52 61 66 63 87 64 54 65 38 66
REMARK SMILES IDX 39 67 47 68 40 69 41 70 45 71 48 72 42 73 43 74 46 75 44 76
REMARK SMILES IDX 70 77 71 78 79 79 72 80 73 81 77 82 80 83 74 84 75 85 78 86
REMARK SMILES IDX 76 87 55 88 56 89 64 90 57 91 58 92 62 93 65 94 59 95 60 96
REMARK SMILES IDX 63 97 61 98
REMARK H PARENT 22 6 26 32 85 51 53 62
REMARK Flexibility Score: inf
ROOT
ATOM      1  C   UNL     1       2.648   7.322   0.726  1.00  0.00     0.042 C 
ENDROOT
BRANCH   1   2
ATOM      2  C   UNL     1       2.776   6.979   2.206  1.00  0.00     0.117 C 
BRANCH   2   3
ATOM      3  N   UNL     1       1.859   7.748   3.040  1.00  0.00    -0.355 N 
ATOM      4  C   UNL     1       0.592   7.432   3.474  1.00  0.00     0.238 C 
ATOM      5  O   UNL     1      -0.011   8.246   4.173  1.00  0.00    -0.273 OA
ATOM      6  H   UNL     1       2.198   8.624   3.336  1.00  0.00     0.163 HD
BRANCH   4   7
ATOM      7  C   UNL     1      -0.025   6.130   2.989  1.00  0.00     0.162 C 
ATOM      8  N   UNL     1      -1.047   5.507   3.855  1.00  0.00    -0.185 NA
ATOM      9  C   UNL     1      -2.361   5.563   3.204  1.00  0.00     0.103 C 
ATOM     10  C   UNL     1      -2.034   5.569   1.725  1.00  0.00     0.019 C 
ATOM     11  C   UNL     1      -0.728   6.344   1.641  1.00  0.00     0.032 C 
BRANCH   8  12
ATOM     12  S   UNL     1      -0.626   4.204   4.828  1.00  0.00     0.243 S 
ATOM     13  O   UNL     1      -1.776   3.879   5.641  1.00  0.00    -0.207 OA
ATOM     14  O   UNL     1       0.668   4.490   5.414  1.00  0.00    -0.207 OA
BRANCH  12  15
ATOM     15  C   UNL     1      -0.352   2.781   3.764  1.00  0.00     0.084 A 
ATOM     16  C   UNL     1       1.001  -0.512   0.083  1.00  0.00     0.154 C 
ATOM     17  N   UNL     1       0.516  -0.665   1.448  1.00  0.00    -0.305 N 
ATOM     18  C   UNL     1       0.353  -1.956   1.942  1.00  0.00     0.316 A 
ATOM     19  C   UNL     1       0.224   0.475   2.239  1.00  0.00     0.068 A 
ATOM     20  O   UNL     1       0.589  -2.965   1.283  1.00  0.00    -0.263 OA
ATOM     21  C   UNL     1      -0.140  -2.112   3.386  1.00  0.00     0.316 A 
ATOM     22  C   UNL     1      -0.276   0.342   3.547  1.00  0.00     0.069 A 
ATOM     23  C   UNL     1       0.436   1.757   1.723  1.00  0.00     0.030 A 
ATOM     24  O   UNL     1      -0.244  -3.246   3.846  1.00  0.00    -0.263 OA
ATOM     25  N   UNL     1      -0.445  -0.955   4.105  1.00  0.00    -0.305 N 
ATOM     26  C   UNL     1      -0.576   1.503   4.294  1.00  0.00     0.050 A 
ATOM     27  C   UNL     1       0.154   2.892   2.476  1.00  0.00     0.024 A 
ATOM     28  C   UNL     1      -0.911  -1.112   5.474  1.00  0.00     0.154 C 
ENDBRANCH  12  15
ENDBRANCH   8  12
ENDBRANCH   4   7
ENDBRANCH   2   3
ENDBRANCH   1   2
BRANCH   1  29
ATOM     29  C   UNL     1       3.248   8.676   0.373  1.00  0.00     0.118 C 
BRANCH  29  30
ATOM     30  N   UNL     1       4.706   8.658   0.395  1.00  0.00    -0.352 N 
ATOM     31  C   UNL     1       5.609   8.861  -0.621  1.00  0.00     0.251 C 
ATOM     32  H   UNL     1       5.105   8.472   1.276  1.00  0.00     0.163 HD
ATOM     33  O   UNL     1       6.798   8.618  -0.441  1.00  0.00    -0.269 OA
BRANCH  31  34
ATOM     34  C   UNL     1       5.146   9.333  -1.944  1.00  0.00     0.039 A 
ATOM     35  C   UNL     1       4.202  10.356  -2.047  1.00  0.00     0.014 A 
ATOM     36  C   UNL     1       5.656   8.732  -3.098  1.00  0.00     0.014 A 
ATOM     37  C   UNL     1       3.631  10.645  -3.282  1.00  0.00     0.010 A 
ATOM     38  C   UNL     1       5.145   9.088  -4.349  1.00  0.00     0.010 A 
ATOM     39  C   UNL     1       4.088  10.006  -4.445  1.00  0.00    -0.014 A 
BRANCH  39  40
ATOM     40  C   UNL     1       3.430  10.293  -5.746  1.00  0.00     0.031 A 
ATOM     41  C   UNL     1       2.667   9.217  -6.470  1.00  0.00     0.074 A 
ATOM     42  C   UNL     1       3.471  11.542  -6.246  1.00  0.00     0.049 A 
ATOM     43  N   UNL     1       2.035   9.280  -7.616  1.00  0.00    -0.248 NA
ATOM     44  C   UNL     1       2.604   7.895  -5.827  1.00  0.00     0.031 C 
ATOM     45  C   UNL     1       4.160  12.675  -5.625  1.00  0.00     0.029 A 
ATOM     46  N   UNL     1       2.905  12.075  -7.376  1.00  0.00    -0.354 N 
ATOM     47  C   UNL     1       1.522   8.009  -7.840  1.00  0.00     0.074 A 
ATOM     48  C   UNL     1       1.934   7.185  -6.724  1.00  0.00     0.031 C 
ATOM     49  C   UNL     1       3.935  13.777  -6.355  1.00  0.00     0.029 A 
ATOM     50  C   UNL     1       3.143  13.419  -7.526  1.00  0.00     0.049 A 
ATOM     51  H   UNL     1       2.379  11.545  -8.018  1.00  0.00     0.167 HD
ATOM     52  C   UNL     1       0.767   7.573  -8.876  1.00  0.00     0.037 A 
ATOM     53  C   UNL     1       2.778  14.266  -8.506  1.00  0.00     0.037 A 
ATOM     54  C   UNL     1       0.338   8.401  -9.973  1.00  0.00     0.049 A 
ATOM     55  C   UNL     1       1.974  13.747  -9.664  1.00  0.00     0.074 A 
ATOM     56  C   UNL     1      -0.441   8.052 -11.063  1.00  0.00     0.029 A 
ATOM     57  N   UNL     1       0.646   9.745 -10.116  1.00  0.00    -0.354 N 
ATOM     58  N   UNL     1       1.508  12.539  -9.869  1.00  0.00    -0.248 NA
ATOM     59  C   UNL     1       1.656  14.705 -10.730  1.00  0.00     0.031 C 
ATOM     60  C   UNL     1      -0.573   9.176 -11.885  1.00  0.00     0.029 A 
ATOM     61  C   UNL     1       0.086  10.237 -11.285  1.00  0.00     0.049 A 
ATOM     62  H   UNL     1       1.183  10.273  -9.482  1.00  0.00     0.167 HD
ATOM     63  C   UNL     1       0.836  12.592 -11.082  1.00  0.00     0.074 A 
ATOM     64  C   UNL     1       0.935  13.958 -11.555  1.00  0.00     0.031 C 
ATOM     65  C   UNL     1       0.199  11.597 -11.745  1.00  0.00     0.037 A 
BRANCH  52  66
ATOM     66  C   UNL     1       0.359   6.129  -8.886  1.00  0.00     0.064 A 
ATOM     67  C   UNL     1      -0.629   5.638  -8.020  1.00  0.00     0.173 A 
ATOM     68  C   UNL     1       0.916   5.239  -9.818  1.00  0.00     0.173 A 
ATOM     69  F   UNL     1      -1.180   6.444  -7.099  1.00  0.00    -0.203 F 
ATOM     70  C   UNL     1      -1.033   4.307  -8.076  1.00  0.00     0.198 A 
ATOM     71  C   UNL     1       0.492   3.915  -9.888  1.00  0.00     0.198 A 
ATOM     72  F   UNL     1       1.863   5.659 -10.670  1.00  0.00    -0.203 F 
ATOM     73  F   UNL     1      -1.953   3.851  -7.214  1.00  0.00    -0.200 F 
ATOM     74  C   UNL     1      -0.480   3.449  -9.015  1.00  0.00     0.200 A 
ATOM     75  F   UNL     1       1.021   3.090 -10.802  1.00  0.00    -0.200 F 
ATOM     76  F   UNL     1      -0.879   2.171  -9.075  1.00  0.00    -0.200 F 
ENDBRANCH  52  66
BRANCH  53  77
ATOM     77  C   UNL     1       3.176  15.693  -8.423  1.00  0.00     0.064 A 
ATOM     78  C   UNL     1       2.227  16.691  -8.169  1.00  0.00     0.173 A 
ATOM     79  C   UNL     1       4.517  16.084  -8.558  1.00  0.00     0.173 A 
ATOM     80  F   UNL     1       0.930  16.367  -8.053  1.00  0.00    -0.203 F 
ATOM     81  C   UNL     1       2.603  18.028  -8.054  1.00  0.00     0.198 A 
ATOM     82  C   UNL     1       4.896  17.416  -8.416  1.00  0.00     0.198 A 
ATOM     83  F   UNL     1       5.463  15.164  -8.799  1.00  0.00    -0.203 F 
ATOM     84  F   UNL     1       1.673  18.967  -7.836  1.00  0.00    -0.200 F 
ATOM     85  C   UNL     1       3.938  18.387  -8.168  1.00  0.00     0.200 A 
ATOM     86  F   UNL     1       6.188  17.756  -8.510  1.00  0.00    -0.200 F 
ATOM     87  F   UNL     1       4.301  19.671  -8.040  1.00  0.00    -0.200 F 
ENDBRANCH  53  77
BRANCH  65  88
ATOM     88  C   UNL     1      -0.449  11.947 -13.051  1.00  0.00     0.064 A 
ATOM     89  C   UNL     1       0.313  12.175 -14.206  1.00  0.00     0.173 A 
ATOM     90  C   UNL     1      -1.846  12.007 -13.159  1.00  0.00     0.173 A 
ATOM     91  F   UNL     1       1.653  12.142 -14.148  1.00  0.00    -0.203 F 
ATOM     92  C   UNL     1      -0.301  12.469 -15.420  1.00  0.00     0.198 A 
ATOM     93  C   UNL     1      -2.457  12.277 -14.380  1.00  0.00     0.198 A 
ATOM     94  F   UNL     1      -2.618  11.790 -12.083  1.00  0.00    -0.203 F 
ATOM     95  F   UNL     1       0.446  12.721 -16.503  1.00  0.00    -0.200 F 
ATOM     96  C   UNL     1      -1.685  12.513 -15.507  1.00  0.00     0.200 A 
ATOM     97  F   UNL     1      -3.795  12.306 -14.466  1.00  0.00    -0.200 F 
ATOM     98  F   UNL     1      -2.275  12.788 -16.679  1.00  0.00    -0.200 F 
ENDBRANCH  65  88
ENDBRANCH  39  40
ENDBRANCH  31  34
ENDBRANCH  29  30
ENDBRANCH   1  29
TORSDOF 12
