REMARK SMILES O=C(NCCCNC(=O)c1ccc(-c2c3nc(c(-c4c(F)c(F)c(F)c(F)c4F)c4ccc([nH]4)c(-c4c(F)c(F)c(F)c(F)c4F)c4nc(c(-c5c(F)c(F)c(F)c(F)c5F)c5ccc2[nH]5)C=C4)C=C3)cc1)c1ccc(CNC(=O)c2c(F)cccc2Cl)cc1
REMARK SMILES IDX 4 1 3 2 1 3 2 4 73 6 74 7 90 8 75 9 89 10 76 11 77 12 78 13
REMARK SMILES IDX 79 14 80 16 81 17 82 18 87 19 83 20 84 21 86 22 88 23 85 24
REMARK SMILES IDX 5 25 6 26 7 27 8 28 9 30 10 31 11 32 72 33 12 34 71 35 13 36
REMARK SMILES IDX 14 37 15 38 65 39 16 40 70 41 64 42 66 43 17 44 69 45 63 46
REMARK SMILES IDX 62 47 18 49 50 50 30 51 49 52 31 53 34 54 48 55 67 56 32 57
REMARK SMILES IDX 33 58 47 60 68 61 35 62 19 63 20 64 28 65 21 66 22 67 26 68
REMARK SMILES IDX 29 69 23 70 24 71 27 72 25 73 51 74 52 75 60 76 53 77 54 78
REMARK SMILES IDX 58 79 61 80 55 81 56 82 59 83 57 84 36 85 37 86 45 87 38 88
REMARK SMILES IDX 39 89 43 90 46 91 40 92 41 93 44 94 42 95
REMARK H PARENT 3 5 78 15 7 29 66 48 34 59
REMARK Flexibility Score: inf
ROOT
ATOM      1  C   UNL     1       4.515  -1.042   0.622  1.00  0.00     0.118 C 
ENDROOT
BRANCH   1   2
ATOM      2  N   UNL     1       3.070  -1.016   0.452  1.00  0.00    -0.352 N 
ATOM      3  O   UNL     1       1.064  -0.122  -0.060  1.00  0.00    -0.269 OA
ATOM      4  C   UNL     1       2.287  -0.089  -0.186  1.00  0.00     0.251 C 
ATOM      5  H   UNL     1       2.585  -1.772   0.853  1.00  0.00     0.163 HD
BRANCH   4   6
ATOM      6  C   UNL     1       2.914   0.964  -1.006  1.00  0.00     0.039 A 
ATOM      7  C   UNL     1       3.872   0.645  -1.973  1.00  0.00     0.014 A 
ATOM      8  C   UNL     1       2.516   2.289  -0.819  1.00  0.00     0.014 A 
ATOM      9  C   UNL     1       4.503   1.661  -2.686  1.00  0.00     0.006 A 
ATOM     10  C   UNL     1       3.128   3.303  -1.555  1.00  0.00     0.006 A 
ATOM     11  C   UNL     1       4.140   2.999  -2.480  1.00  0.00    -0.029 A 
BRANCH  11  12
ATOM     12  C   UNL     1       4.753   4.083  -3.322  1.00  0.00     0.152 C 
BRANCH  12  13
ATOM     13  N   UNL     1       6.191   4.171  -3.164  1.00  0.00    -0.348 N 
ATOM     14  C   UNL     1       7.182   4.069  -4.108  1.00  0.00     0.256 C 
ATOM     15  H   UNL     1       6.503   4.326  -2.243  1.00  0.00     0.164 HD
ATOM     16  O   UNL     1       8.356   4.240  -3.795  1.00  0.00    -0.269 OA
BRANCH  14  17
ATOM     17  C   UNL     1       6.852   3.695  -5.491  1.00  0.00     0.094 A 
ATOM     18  C   UNL     1       7.353   2.479  -5.959  1.00  0.00     0.137 A 
ATOM     19  C   UNL     1       6.088   4.493  -6.347  1.00  0.00     0.056 A 
ATOM     20  F   UNL     1       8.114   1.700  -5.176  1.00  0.00    -0.206 F 
ATOM     21  C   UNL     1       7.051   2.025  -7.241  1.00  0.00     0.040 A 
ATOM     22  C   UNL     1       5.749   4.020  -7.621  1.00  0.00     0.021 A 
ATOM     23  Cl  UNL     1       5.542   6.075  -5.914  1.00  0.00    -0.083 Cl
ATOM     24  C   UNL     1       6.226   2.785  -8.066  1.00  0.00     0.005 A 
ENDBRANCH  14  17
ENDBRANCH  12  13
ENDBRANCH  11  12
ENDBRANCH   4   6
ENDBRANCH   1   2
BRANCH   1  25
ATOM     25  C   UNL     1       4.938  -0.718   2.046  1.00  0.00     0.042 C 
BRANCH  25  26
ATOM     26  C   UNL     1       4.435  -1.710   3.084  1.00  0.00     0.118 C 
BRANCH  26  27
ATOM     27  N   UNL     1       4.886  -3.071   2.829  1.00  0.00    -0.352 N 
ATOM     28  C   UNL     1       5.638  -3.923   3.596  1.00  0.00     0.251 C 
ATOM     29  H   UNL     1       4.603  -3.442   1.962  1.00  0.00     0.163 HD
ATOM     30  O   UNL     1       6.055  -4.968   3.103  1.00  0.00    -0.269 OA
BRANCH  28  31
ATOM     31  C   UNL     1       5.966  -3.593   5.000  1.00  0.00     0.039 A 
ATOM     32  C   UNL     1       7.223  -3.952   5.495  1.00  0.00     0.014 A 
ATOM     33  C   UNL     1       5.040  -2.975   5.843  1.00  0.00     0.014 A 
ATOM     34  C   UNL     1       7.564  -3.648   6.814  1.00  0.00     0.010 A 
ATOM     35  C   UNL     1       5.416  -2.579   7.123  1.00  0.00     0.010 A 
ATOM     36  C   UNL     1       6.674  -2.930   7.631  1.00  0.00    -0.014 A 
BRANCH  36  37
ATOM     37  C   UNL     1       7.040  -2.567   9.024  1.00  0.00     0.031 A 
ATOM     38  C   UNL     1       6.240  -3.099  10.182  1.00  0.00     0.074 A 
ATOM     39  C   UNL     1       8.065  -1.722   9.244  1.00  0.00     0.049 A 
ATOM     40  N   UNL     1       6.391  -2.879  11.465  1.00  0.00    -0.248 NA
ATOM     41  C   UNL     1       5.100  -3.971   9.858  1.00  0.00     0.031 C 
ATOM     42  C   UNL     1       8.879  -1.092   8.204  1.00  0.00     0.029 A 
ATOM     43  N   UNL     1       8.597  -1.244  10.416  1.00  0.00    -0.354 N 
ATOM     44  C   UNL     1       5.362  -3.570  12.092  1.00  0.00     0.074 A 
ATOM     45  C   UNL     1       4.555  -4.164  11.049  1.00  0.00     0.031 C 
ATOM     46  C   UNL     1       9.826  -0.337   8.783  1.00  0.00     0.029 A 
ATOM     47  C   UNL     1       9.662  -0.398  10.232  1.00  0.00     0.049 A 
ATOM     48  H   UNL     1       8.248  -1.486  11.304  1.00  0.00     0.167 HD
ATOM     49  C   UNL     1       5.127  -3.720  13.417  1.00  0.00     0.037 A 
ATOM     50  C   UNL     1      10.419   0.259  11.131  1.00  0.00     0.037 A 
ATOM     51  C   UNL     1       5.948  -3.145  14.452  1.00  0.00     0.049 A 
ATOM     52  C   UNL     1      10.141   0.073  12.598  1.00  0.00     0.074 A 
ATOM     53  C   UNL     1       5.836  -3.292  15.823  1.00  0.00     0.029 A 
ATOM     54  N   UNL     1       7.030  -2.306  14.227  1.00  0.00    -0.354 N 
ATOM     55  N   UNL     1       9.217  -0.651  13.181  1.00  0.00    -0.248 NA
ATOM     56  C   UNL     1      11.021   0.787  13.533  1.00  0.00     0.031 C 
ATOM     57  C   UNL     1       6.811  -2.493  16.429  1.00  0.00     0.029 A 
ATOM     58  C   UNL     1       7.576  -1.903  15.436  1.00  0.00     0.049 A 
ATOM     59  H   UNL     1       7.361  -2.037  13.340  1.00  0.00     0.167 HD
ATOM     60  C   UNL     1       9.422  -0.505  14.547  1.00  0.00     0.074 A 
ATOM     61  C   UNL     1      10.571   0.362  14.704  1.00  0.00     0.031 C 
ATOM     62  C   UNL     1       8.722  -1.041  15.578  1.00  0.00     0.037 A 
BRANCH  49  63
ATOM     63  C   UNL     1       3.932  -4.534  13.825  1.00  0.00     0.064 A 
ATOM     64  C   UNL     1       3.867  -5.919  13.601  1.00  0.00     0.173 A 
ATOM     65  C   UNL     1       2.847  -3.928  14.476  1.00  0.00     0.173 A 
ATOM     66  F   UNL     1       4.871  -6.550  12.973  1.00  0.00    -0.203 F 
ATOM     67  C   UNL     1       2.748  -6.657  13.981  1.00  0.00     0.198 A 
ATOM     68  C   UNL     1       1.746  -4.675  14.887  1.00  0.00     0.198 A 
ATOM     69  F   UNL     1       2.856  -2.609  14.722  1.00  0.00    -0.203 F 
ATOM     70  F   UNL     1       2.686  -7.967  13.703  1.00  0.00    -0.200 F 
ATOM     71  C   UNL     1       1.693  -6.036  14.630  1.00  0.00     0.200 A 
ATOM     72  F   UNL     1       0.733  -4.076  15.529  1.00  0.00    -0.200 F 
ATOM     73  F   UNL     1       0.620  -6.749  15.002  1.00  0.00    -0.200 F 
ENDBRANCH  49  63
BRANCH  50  74
ATOM     74  C   UNL     1      11.530   1.133  10.667  1.00  0.00     0.064 A 
ATOM     75  C   UNL     1      12.868   0.789  10.903  1.00  0.00     0.173 A 
ATOM     76  C   UNL     1      11.277   2.330   9.981  1.00  0.00     0.173 A 
ATOM     77  F   UNL     1      13.162  -0.337  11.572  1.00  0.00    -0.203 F 
ATOM     78  C   UNL     1      13.909   1.619  10.493  1.00  0.00     0.198 A 
ATOM     79  C   UNL     1      12.319   3.143   9.542  1.00  0.00     0.198 A 
ATOM     80  F   UNL     1      10.014   2.703   9.723  1.00  0.00    -0.203 F 
ATOM     81  F   UNL     1      15.177   1.290  10.777  1.00  0.00    -0.200 F 
ATOM     82  C   UNL     1      13.634   2.792   9.807  1.00  0.00     0.200 A 
ATOM     83  F   UNL     1      12.049   4.267   8.864  1.00  0.00    -0.200 F 
ATOM     84  F   UNL     1      14.636   3.588   9.408  1.00  0.00    -0.200 F 
ENDBRANCH  50  74
BRANCH  62  85
ATOM     85  C   UNL     1       9.203  -0.736  16.968  1.00  0.00     0.064 A 
ATOM     86  C   UNL     1       9.099   0.548  17.525  1.00  0.00     0.173 A 
ATOM     87  C   UNL     1       9.753  -1.752  17.765  1.00  0.00     0.173 A 
ATOM     88  F   UNL     1       8.593   1.558  16.802  1.00  0.00    -0.203 F 
ATOM     89  C   UNL     1       9.561   0.810  18.812  1.00  0.00     0.198 A 
ATOM     90  C   UNL     1      10.180  -1.495  19.065  1.00  0.00     0.198 A 
ATOM     91  F   UNL     1       9.868  -3.001  17.287  1.00  0.00    -0.203 F 
ATOM     92  F   UNL     1       9.508   2.058  19.299  1.00  0.00    -0.200 F 
ATOM     93  C   UNL     1      10.094  -0.212  19.583  1.00  0.00     0.200 A 
ATOM     94  F   UNL     1      10.677  -2.488  19.814  1.00  0.00    -0.200 F 
ATOM     95  F   UNL     1      10.534   0.042  20.823  1.00  0.00    -0.200 F 
ENDBRANCH  62  85
ENDBRANCH  36  37
ENDBRANCH  28  31
ENDBRANCH  26  27
ENDBRANCH  25  26
ENDBRANCH   1  25
TORSDOF 13
