REMARK SMILES O=C1[NH+]=C(Nc2ccc(C(=O)NCCCNC(=O)c3ccc(-c4c5nc(c(-c6c(F)c(F)c(F)c(F)c6F)c6ccc([nH]6)c(-c6c(F)c(F)c(F)c(F)c6F)c6nc(c(-c7c(F)c(F)c(F)c(F)c7F)c7ccc4[nH]7)C=C6)C=C5)cc3)c(O)c2)S/C1=C\c1ccc[nH]1
REMARK SMILES IDX 14 1 13 2 12 3 10 4 11 5 9 7 6 8 7 9 84 10 8 11 82 12 5 13
REMARK SMILES IDX 1 14 2 15 3 16 86 17 4 18 85 20 87 21 88 23 89 24 92 25
REMARK SMILES IDX 90 26 91 27 83 29 15 31 16 32 17 33 18 35 19 36 20 37 81 38
REMARK SMILES IDX 21 39 80 40 22 41 23 42 24 43 74 44 25 45 79 46 73 47 75 48
REMARK SMILES IDX 26 49 78 50 72 51 71 52 27 54 59 55 39 56 58 57 40 58 43 59
REMARK SMILES IDX 57 60 76 61 41 62 42 63 56 65 77 66 44 67 28 68 29 69 37 70
REMARK SMILES IDX 30 71 31 72 35 73 38 74 32 75 33 76 36 77 34 78 60 79 61 80
REMARK SMILES IDX 69 81 62 82 63 83 67 84 70 85 64 86 65 87 68 88 66 89 45 90
REMARK SMILES IDX 46 91 54 92 47 93 48 94 52 95 55 96 49 97 50 98 53 99 51 100
REMARK H PARENT 12 6 3 19 5 22 92 28 83 30 16 34 75 53 43 64
REMARK Flexibility Score: inf
ROOT
ATOM      1  C   UNL     1      -1.057   8.588  -3.490  1.00  0.00     0.042 C 
ENDROOT
BRANCH   1   2
ATOM      2  C   UNL     1      -0.117   8.220  -2.356  1.00  0.00     0.118 C 
BRANCH   2   3
ATOM      3  N   UNL     1      -0.627   8.513  -1.025  1.00  0.00    -0.352 N 
ATOM      4  C   UNL     1      -0.543   7.801   0.147  1.00  0.00     0.255 C 
ATOM      5  O   UNL     1      -1.072   8.269   1.153  1.00  0.00    -0.269 OA
ATOM      6  H   UNL     1      -1.117   9.364  -0.952  1.00  0.00     0.163 HD
BRANCH   4   7
ATOM      7  C   UNL     1       0.112   6.473   0.219  1.00  0.00     0.081 A 
ATOM      8  C   UNL     1       1.049   3.810   0.285  1.00  0.00     0.129 A 
ATOM      9  C   UNL     1      -0.078   4.189   1.020  1.00  0.00     0.053 A 
ATOM     10  C   UNL     1       1.741   4.797  -0.425  1.00  0.00     0.098 A 
ATOM     11  C   UNL     1      -0.543   5.505   0.991  1.00  0.00     0.022 A 
ATOM     12  C   UNL     1       1.305   6.123  -0.417  1.00  0.00     0.132 A 
BRANCH   8  13
ATOM     13  N   UNL     1       1.458   2.478   0.172  1.00  0.00    -0.234 N 
ATOM     14  O   UNL     1      -2.283  -0.300  -0.050  1.00  0.00    -0.240 OA
ATOM     15  C   UNL     1      -1.103   0.015   0.042  1.00  0.00     0.346 C 
ATOM     16  N   UNL     1      -0.635   1.305   0.114  1.00  0.00    -0.199 N 
ATOM     17  C   UNL     1       0.008  -0.978   0.077  1.00  0.00     0.111 C 
ATOM     18  C   UNL     1       0.653   1.380   0.155  1.00  0.00     0.322 C 
ATOM     19  H   UNL     1      -1.224   2.094   0.134  1.00  0.00     0.316 HD
ATOM     20  S   UNL     1       1.509  -0.144   0.137  1.00  0.00     0.006 SA
ATOM     21  C   UNL     1      -0.210  -2.300   0.039  1.00  0.00     0.050 C 
ATOM     22  H   UNL     1       2.426   2.317   0.098  1.00  0.00     0.313 HD
BRANCH  21  23
ATOM     23  C   UNL     1       0.839  -3.244   0.137  1.00  0.00     0.039 A 
ATOM     24  C   UNL     1       1.843  -3.461   1.061  1.00  0.00     0.027 A 
ATOM     25  N   UNL     1       0.978  -4.187  -0.852  1.00  0.00    -0.362 N 
ATOM     26  C   UNL     1       2.631  -4.538   0.595  1.00  0.00     0.020 A 
ATOM     27  C   UNL     1       2.081  -4.961  -0.593  1.00  0.00     0.083 A 
ATOM     28  H   UNL     1       0.378  -4.291  -1.626  1.00  0.00     0.166 HD
ENDBRANCH  21  23
ENDBRANCH   8  13
BRANCH  12  29
ATOM     29  O   UNL     1       2.134   7.015  -1.039  1.00  0.00    -0.507 OA
ATOM     30  H   UNL     1       1.905   7.923  -1.072  1.00  0.00     0.293 HD
ENDBRANCH  12  29
ENDBRANCH   4   7
ENDBRANCH   2   3
ENDBRANCH   1   2
BRANCH   1  31
ATOM     31  C   UNL     1      -1.489  10.045  -3.528  1.00  0.00     0.118 C 
BRANCH  31  32
ATOM     32  N   UNL     1      -0.395  10.985  -3.745  1.00  0.00    -0.352 N 
ATOM     33  C   UNL     1      -0.044  11.735  -4.845  1.00  0.00     0.251 C 
ATOM     34  H   UNL     1       0.197  11.104  -2.968  1.00  0.00     0.163 HD
ATOM     35  O   UNL     1       1.006  12.372  -4.834  1.00  0.00    -0.269 OA
BRANCH  33  36
ATOM     36  C   UNL     1      -0.892  11.747  -6.058  1.00  0.00     0.039 A 
ATOM     37  C   UNL     1      -0.284  11.717  -7.316  1.00  0.00     0.014 A 
ATOM     38  C   UNL     1      -2.282  11.777  -5.967  1.00  0.00     0.014 A 
ATOM     39  C   UNL     1      -1.070  11.610  -8.467  1.00  0.00     0.010 A 
ATOM     40  C   UNL     1      -3.056  11.534  -7.095  1.00  0.00     0.010 A 
ATOM     41  C   UNL     1      -2.462  11.456  -8.362  1.00  0.00    -0.014 A 
BRANCH  41  42
ATOM     42  C   UNL     1      -3.320  11.228  -9.555  1.00  0.00     0.031 A 
ATOM     43  C   UNL     1      -4.440  12.185  -9.870  1.00  0.00     0.074 A 
ATOM     44  C   UNL     1      -3.147  10.123 -10.307  1.00  0.00     0.049 A 
ATOM     45  N   UNL     1      -5.357  12.112 -10.802  1.00  0.00    -0.248 NA
ATOM     46  C   UNL     1      -4.570  13.363  -8.998  1.00  0.00     0.031 C 
ATOM     47  C   UNL     1      -2.135   9.091 -10.077  1.00  0.00     0.029 A 
ATOM     48  N   UNL     1      -3.827   9.677 -11.414  1.00  0.00    -0.354 N 
ATOM     49  C   UNL     1      -6.174  13.219 -10.614  1.00  0.00     0.074 A 
ATOM     50  C   UNL     1      -5.694  13.905  -9.436  1.00  0.00     0.031 C 
ATOM     51  C   UNL     1      -2.235   8.154 -11.033  1.00  0.00     0.029 A 
ATOM     52  C   UNL     1      -3.350   8.488 -11.913  1.00  0.00     0.049 A 
ATOM     53  H   UNL     1      -4.585  10.162 -11.812  1.00  0.00     0.167 HD
ATOM     54  C   UNL     1      -7.211  13.646 -11.373  1.00  0.00     0.037 A 
ATOM     55  C   UNL     1      -3.770   7.748 -12.957  1.00  0.00     0.037 A 
ATOM     56  C   UNL     1      -7.672  12.973 -12.559  1.00  0.00     0.049 A 
ATOM     57  C   UNL     1      -4.944   8.230 -13.769  1.00  0.00     0.074 A 
ATOM     58  C   UNL     1      -8.678  13.350 -13.429  1.00  0.00     0.029 A 
ATOM     59  N   UNL     1      -7.157  11.776 -13.036  1.00  0.00    -0.354 N 
ATOM     60  N   UNL     1      -5.663   9.316 -13.624  1.00  0.00    -0.248 NA
ATOM     61  C   UNL     1      -5.360   7.382 -14.894  1.00  0.00     0.031 C 
ATOM     62  C   UNL     1      -8.813  12.352 -14.399  1.00  0.00     0.029 A 
ATOM     63  C   UNL     1      -7.844  11.387 -14.174  1.00  0.00     0.049 A 
ATOM     64  H   UNL     1      -6.413  11.278 -12.627  1.00  0.00     0.167 HD
ATOM     65  C   UNL     1      -6.591   9.301 -14.657  1.00  0.00     0.074 A 
ATOM     66  C   UNL     1      -6.333   8.104 -15.430  1.00  0.00     0.031 C 
ATOM     67  C   UNL     1      -7.567  10.198 -14.941  1.00  0.00     0.037 A 
BRANCH  54  68
ATOM     68  C   UNL     1      -7.914  14.904 -10.944  1.00  0.00     0.064 A 
ATOM     69  C   UNL     1      -7.277  16.156 -10.982  1.00  0.00     0.173 A 
ATOM     70  C   UNL     1      -9.248  14.864 -10.511  1.00  0.00     0.173 A 
ATOM     71  F   UNL     1      -5.999  16.252 -11.376  1.00  0.00    -0.203 F 
ATOM     72  C   UNL     1      -7.936  17.310 -10.564  1.00  0.00     0.198 A 
ATOM     73  C   UNL     1      -9.915  16.026 -10.131  1.00  0.00     0.198 A 
ATOM     74  F   UNL     1      -9.909  13.698 -10.461  1.00  0.00    -0.203 F 
ATOM     75  F   UNL     1      -7.284  18.481 -10.548  1.00  0.00    -0.200 F 
ATOM     76  C   UNL     1      -9.256  17.245 -10.147  1.00  0.00     0.200 A 
ATOM     77  F   UNL     1     -11.197  15.964  -9.744  1.00  0.00    -0.200 F 
ATOM     78  F   UNL     1      -9.890  18.358  -9.751  1.00  0.00    -0.200 F 
ENDBRANCH  54  68
BRANCH  55  79
ATOM     79  C   UNL     1      -3.064   6.488 -13.313  1.00  0.00     0.064 A 
ATOM     80  C   UNL     1      -2.341   6.383 -14.510  1.00  0.00     0.173 A 
ATOM     81  C   UNL     1      -3.107   5.361 -12.479  1.00  0.00     0.173 A 
ATOM     82  F   UNL     1      -2.286   7.425 -15.352  1.00  0.00    -0.203 F 
ATOM     83  C   UNL     1      -1.711   5.194 -14.871  1.00  0.00     0.198 A 
ATOM     84  C   UNL     1      -2.448   4.182 -12.825  1.00  0.00     0.198 A 
ATOM     85  F   UNL     1      -3.779   5.408 -11.319  1.00  0.00    -0.203 F 
ATOM     86  F   UNL     1      -1.073   5.106 -16.046  1.00  0.00    -0.200 F 
ATOM     87  C   UNL     1      -1.760   4.096 -14.025  1.00  0.00     0.200 A 
ATOM     88  F   UNL     1      -2.483   3.130 -11.996  1.00  0.00    -0.200 F 
ATOM     89  F   UNL     1      -1.151   2.953 -14.371  1.00  0.00    -0.200 F 
ENDBRANCH  55  79
BRANCH  67  90
ATOM     90  C   UNL     1      -8.402   9.948 -16.165  1.00  0.00     0.064 A 
ATOM     91  C   UNL     1      -9.328   8.897 -16.229  1.00  0.00     0.173 A 
ATOM     92  C   UNL     1      -8.303  10.803 -17.274  1.00  0.00     0.173 A 
ATOM     93  F   UNL     1      -9.453   8.042 -15.202  1.00  0.00    -0.203 F 
ATOM     94  C   UNL     1     -10.103   8.694 -17.368  1.00  0.00     0.198 A 
ATOM     95  C   UNL     1      -9.105  10.620 -18.396  1.00  0.00     0.198 A 
ATOM     96  F   UNL     1      -7.439  11.830 -17.262  1.00  0.00    -0.203 F 
ATOM     97  F   UNL     1     -10.942   7.650 -17.427  1.00  0.00    -0.200 F 
ATOM     98  C   UNL     1      -9.998   9.560 -18.446  1.00  0.00     0.200 A 
ATOM     99  F   UNL     1      -9.015  11.469 -19.428  1.00  0.00    -0.200 F 
ATOM    100  F   UNL     1     -10.752   9.369 -19.537  1.00  0.00    -0.200 F 
ENDBRANCH  67  90
ENDBRANCH  41  42
ENDBRANCH  33  36
ENDBRANCH  31  32
ENDBRANCH   1  31
TORSDOF 13
