REMARK SMILES CC(C)C[C@H](Nc1ncnc2scc(-c3ccccc3)c12)C(=O)NCCCNC(=O)c1ccc(-c2c3nc(c(-c4c(F)c(F)c(F)c(F)c4F)c4ccc([nH]4)c(-c4c(F)c(F)c(F)c(F)c4F)c4nc(c(-c5c(F)c(F)c(F)c(F)c5F)c5ccc2[nH]5)C=C4)C=C3)cc1
REMARK SMILES IDX 25 1 24 2 22 3 23 4 5 6 4 7 2 8 1 9 3 10 6 11 7 13 8 14
REMARK SMILES IDX 21 15 9 16 11 17 14 18 10 19 12 20 13 21 15 22 16 23 20 24
REMARK SMILES IDX 17 25 19 26 18 27 26 28 27 29 28 30 29 31 30 33 31 34 32 35
REMARK SMILES IDX 93 36 33 37 92 38 34 39 35 40 36 41 86 42 37 43 91 44 85 45
REMARK SMILES IDX 87 46 38 47 90 48 84 49 83 50 39 52 71 53 51 54 70 55 52 56
REMARK SMILES IDX 55 57 69 58 88 59 53 60 54 61 68 63 89 64 56 65 40 66 41 67
REMARK SMILES IDX 49 68 42 69 43 70 47 71 50 72 44 73 45 74 48 75 46 76 72 77
REMARK SMILES IDX 73 78 81 79 74 80 75 81 79 82 82 83 76 84 77 85 80 86 78 87
REMARK SMILES IDX 57 88 58 89 66 90 59 91 60 92 64 93 67 94 61 95 62 96 65 97
REMARK SMILES IDX 63 98
REMARK H PARENT 24 5 6 12 28 32 87 51 55 62
REMARK Flexibility Score: inf
ROOT
ATOM      1  C   UNL     1      -3.434  -3.868  -0.192  1.00  0.00     0.117 C 
ENDROOT
BRANCH   1   2
ATOM      2  N   UNL     1      -3.839  -2.531  -0.597  1.00  0.00    -0.354 N 
ATOM      3  C   UNL     1      -3.120  -1.466  -1.059  1.00  0.00     0.242 C 
ATOM      4  O   UNL     1      -3.777  -0.469  -1.384  1.00  0.00    -0.273 OA
ATOM      5  H   UNL     1      -4.806  -2.364  -0.525  1.00  0.00     0.163 HD
BRANCH   3   6
ATOM      6  C   UNL     1      -1.576  -1.446  -1.144  1.00  0.00     0.170 C 
BRANCH   6   7
ATOM      7  C   UNL     1      -0.938  -2.185  -2.347  1.00  0.00     0.038 C 
BRANCH   7   8
ATOM      8  C   UNL     1      -1.494  -3.555  -2.801  1.00  0.00    -0.015 C 
ATOM      9  C   UNL     1      -2.787  -3.440  -3.620  1.00  0.00     0.007 C 
ATOM     10  C   UNL     1      -0.470  -4.326  -3.640  1.00  0.00     0.007 C 
ENDBRANCH   7   8
ENDBRANCH   6   7
BRANCH   6  11
ATOM     11  N   UNL     1      -0.985  -1.560   0.209  1.00  0.00    -0.358 N 
ATOM     12  H   UNL     1      -1.044  -0.758   0.778  1.00  0.00     0.162 HD
BRANCH  11  13
ATOM     13  C   UNL     1      -0.364  -2.647   0.761  1.00  0.00     0.139 A 
ATOM     14  N   UNL     1       0.446  -3.365  -0.047  1.00  0.00    -0.219 NA
ATOM     15  C   UNL     1      -0.531  -3.070   2.114  1.00  0.00     0.062 A 
ATOM     16  C   UNL     1       1.107  -4.419   0.430  1.00  0.00     0.225 A 
ATOM     17  C   UNL     1       0.178  -4.229   2.436  1.00  0.00     0.129 A 
ATOM     18  C   UNL     1      -1.313  -2.624   3.285  1.00  0.00     0.006 A 
ATOM     19  N   UNL     1       1.015  -4.923   1.650  1.00  0.00    -0.225 NA
ATOM     20  S   UNL     1      -0.119  -4.810   4.002  1.00  0.00    -0.123 S 
ATOM     21  C   UNL     1      -1.206  -3.549   4.317  1.00  0.00     0.076 A 
BRANCH  18  22
ATOM     22  C   UNL     1      -2.244  -1.494   3.504  1.00  0.00    -0.017 A 
ATOM     23  C   UNL     1      -2.347  -0.884   4.767  1.00  0.00     0.009 A 
ATOM     24  C   UNL     1      -3.142  -1.071   2.525  1.00  0.00     0.009 A 
ATOM     25  C   UNL     1      -3.330   0.078   5.034  1.00  0.00     0.001 A 
ATOM     26  C   UNL     1      -4.109  -0.091   2.771  1.00  0.00     0.001 A 
ATOM     27  C   UNL     1      -4.212   0.474   4.034  1.00  0.00     0.000 A 
ENDBRANCH  18  22
ENDBRANCH  11  13
ENDBRANCH   6  11
ENDBRANCH   3   6
ENDBRANCH   1   2
BRANCH   1  28
ATOM     28  C   UNL     1      -3.967  -4.306   1.162  1.00  0.00     0.042 C 
BRANCH  28  29
ATOM     29  C   UNL     1      -5.478  -4.269   1.269  1.00  0.00     0.118 C 
BRANCH  29  30
ATOM     30  N   UNL     1      -6.088  -5.440   0.661  1.00  0.00    -0.352 N 
ATOM     31  C   UNL     1      -6.544  -6.588   1.257  1.00  0.00     0.251 C 
ATOM     32  H   UNL     1      -6.188  -5.405  -0.318  1.00  0.00     0.163 HD
ATOM     33  O   UNL     1      -6.784  -7.582   0.566  1.00  0.00    -0.269 OA
BRANCH  31  34
ATOM     34  C   UNL     1      -6.734  -6.651   2.722  1.00  0.00     0.039 A 
ATOM     35  C   UNL     1      -6.387  -7.819   3.408  1.00  0.00     0.014 A 
ATOM     36  C   UNL     1      -7.287  -5.576   3.422  1.00  0.00     0.014 A 
ATOM     37  C   UNL     1      -6.551  -7.886   4.794  1.00  0.00     0.010 A 
ATOM     38  C   UNL     1      -7.343  -5.602   4.811  1.00  0.00     0.010 A 
ATOM     39  C   UNL     1      -7.005  -6.767   5.511  1.00  0.00    -0.014 A 
BRANCH  39  40
ATOM     40  C   UNL     1      -7.195  -6.807   6.984  1.00  0.00     0.031 A 
ATOM     41  C   UNL     1      -8.567  -6.584   7.566  1.00  0.00     0.074 A 
ATOM     42  C   UNL     1      -6.137  -6.977   7.799  1.00  0.00     0.049 A 
ATOM     43  N   UNL     1      -8.932  -6.480   8.820  1.00  0.00    -0.248 NA
ATOM     44  C   UNL     1      -9.673  -6.415   6.609  1.00  0.00     0.031 C 
ATOM     45  C   UNL     1      -4.751  -7.152   7.364  1.00  0.00     0.029 A 
ATOM     46  N   UNL     1      -6.062  -7.020   9.169  1.00  0.00    -0.354 N 
ATOM     47  C   UNL     1     -10.293  -6.206   8.796  1.00  0.00     0.074 A 
ATOM     48  C   UNL     1     -10.681  -6.099   7.407  1.00  0.00     0.031 C 
ATOM     49  C   UNL     1      -3.968  -7.313   8.443  1.00  0.00     0.029 A 
ATOM     50  C   UNL     1      -4.789  -7.213   9.646  1.00  0.00     0.049 A 
ATOM     51  H   UNL     1      -6.847  -6.921   9.755  1.00  0.00     0.167 HD
ATOM     52  C   UNL     1     -11.152  -6.084   9.836  1.00  0.00     0.037 A 
ATOM     53  C   UNL     1      -4.336  -7.297  10.912  1.00  0.00     0.037 A 
ATOM     54  C   UNL     1     -10.775  -6.244  11.215  1.00  0.00     0.049 A 
ATOM     55  C   UNL     1      -5.314  -7.183  12.050  1.00  0.00     0.074 A 
ATOM     56  C   UNL     1     -11.581  -6.212  12.339  1.00  0.00     0.029 A 
ATOM     57  N   UNL     1      -9.480  -6.474  11.655  1.00  0.00    -0.354 N 
ATOM     58  N   UNL     1      -6.609  -6.985  12.013  1.00  0.00    -0.248 NA
ATOM     59  C   UNL     1      -4.766  -7.312  13.408  1.00  0.00     0.031 C 
ATOM     60  C   UNL     1     -10.767  -6.386  13.464  1.00  0.00     0.029 A 
ATOM     61  C   UNL     1      -9.462  -6.571  13.036  1.00  0.00     0.049 A 
ATOM     62  H   UNL     1      -8.691  -6.557  11.072  1.00  0.00     0.167 HD
ATOM     63  C   UNL     1      -7.035  -6.993  13.334  1.00  0.00     0.074 A 
ATOM     64  C   UNL     1      -5.862  -7.229  14.149  1.00  0.00     0.031 C 
ATOM     65  C   UNL     1      -8.285  -6.818  13.829  1.00  0.00     0.037 A 
BRANCH  52  66
ATOM     66  C   UNL     1     -12.587  -5.774   9.520  1.00  0.00     0.064 A 
ATOM     67  C   UNL     1     -13.425  -6.716   8.902  1.00  0.00     0.173 A 
ATOM     68  C   UNL     1     -13.140  -4.532   9.865  1.00  0.00     0.173 A 
ATOM     69  F   UNL     1     -12.942  -7.914   8.540  1.00  0.00    -0.203 F 
ATOM     70  C   UNL     1     -14.752  -6.413   8.611  1.00  0.00     0.198 A 
ATOM     71  C   UNL     1     -14.477  -4.244   9.601  1.00  0.00     0.198 A 
ATOM     72  F   UNL     1     -12.385  -3.597  10.462  1.00  0.00    -0.203 F 
ATOM     73  F   UNL     1     -15.517  -7.308   7.971  1.00  0.00    -0.200 F 
ATOM     74  C   UNL     1     -15.279  -5.181   8.967  1.00  0.00     0.200 A 
ATOM     75  F   UNL     1     -14.988  -3.058   9.957  1.00  0.00    -0.200 F 
ATOM     76  F   UNL     1     -16.559  -4.893   8.692  1.00  0.00    -0.200 F 
ENDBRANCH  52  66
BRANCH  53  77
ATOM     77  C   UNL     1      -2.892  -7.533  11.169  1.00  0.00     0.064 A 
ATOM     78  C   UNL     1      -2.446  -8.760  11.681  1.00  0.00     0.173 A 
ATOM     79  C   UNL     1      -1.932  -6.545  10.912  1.00  0.00     0.173 A 
ATOM     80  F   UNL     1      -3.329  -9.729  11.961  1.00  0.00    -0.203 F 
ATOM     81  C   UNL     1      -1.096  -8.981  11.946  1.00  0.00     0.198 A 
ATOM     82  C   UNL     1      -0.579  -6.777  11.153  1.00  0.00     0.198 A 
ATOM     83  F   UNL     1      -2.306  -5.356  10.417  1.00  0.00    -0.203 F 
ATOM     84  F   UNL     1      -0.703 -10.146  12.478  1.00  0.00    -0.200 F 
ATOM     85  C   UNL     1      -0.163  -7.992  11.677  1.00  0.00     0.200 A 
ATOM     86  F   UNL     1       0.321  -5.822  10.879  1.00  0.00    -0.200 F 
ATOM     87  F   UNL     1       1.135  -8.206  11.930  1.00  0.00    -0.200 F 
ENDBRANCH  53  77
BRANCH  65  88
ATOM     88  C   UNL     1      -8.456  -6.911  15.316  1.00  0.00     0.064 A 
ATOM     89  C   UNL     1      -8.004  -5.897  16.172  1.00  0.00     0.173 A 
ATOM     90  C   UNL     1      -9.120  -8.007  15.887  1.00  0.00     0.173 A 
ATOM     91  F   UNL     1      -7.350  -4.835  15.676  1.00  0.00    -0.203 F 
ATOM     92  C   UNL     1      -8.190  -5.988  17.549  1.00  0.00     0.198 A 
ATOM     93  C   UNL     1      -9.330  -8.082  17.260  1.00  0.00     0.198 A 
ATOM     94  F   UNL     1      -9.578  -9.000  15.109  1.00  0.00    -0.203 F 
ATOM     95  F   UNL     1      -7.711  -5.029  18.353  1.00  0.00    -0.200 F 
ATOM     96  C   UNL     1      -8.859  -7.076  18.091  1.00  0.00     0.200 A 
ATOM     97  F   UNL     1      -9.988  -9.126  17.781  1.00  0.00    -0.200 F 
ATOM     98  F   UNL     1      -9.044  -7.158  19.415  1.00  0.00    -0.200 F 
ENDBRANCH  65  88
ENDBRANCH  39  40
ENDBRANCH  31  34
ENDBRANCH  29  30
ENDBRANCH  28  29
ENDBRANCH   1  28
TORSDOF 15
