REMARK SMILES O=C(NCCCNC(=O)c1ccc(-c2c(F)cccc2F)cn1)c1ccc(-c2c3nc(c(-c4c(F)c(F)c(F)c(F)c4F)c4ccc([nH]4)c(-c4c(F)c(F)c(F)c(F)c4F)c4nc(c(-c5c(F)c(F)c(F)c(F)c5F)c5ccc2[nH]5)C=C4)C=C3)cc1
REMARK SMILES IDX 4 1 3 2 1 3 2 4 24 6 25 7 86 8 26 9 85 10 27 11 28 12 29 13
REMARK SMILES IDX 79 14 30 15 84 16 78 17 80 18 31 19 83 20 77 21 76 22 32 24
REMARK SMILES IDX 64 25 44 26 63 27 45 28 48 29 62 30 81 31 46 32 47 33 61 35
REMARK SMILES IDX 82 36 49 37 33 38 34 39 42 40 35 41 36 42 40 43 43 44 37 45
REMARK SMILES IDX 38 46 41 47 39 48 65 49 66 50 74 51 67 52 68 53 72 54 75 55
REMARK SMILES IDX 69 56 70 57 73 58 71 59 50 60 51 61 59 62 52 63 53 64 57 65
REMARK SMILES IDX 60 66 54 67 55 68 58 69 56 70 5 71 6 72 7 73 8 74 9 76 10 77
REMARK SMILES IDX 11 78 23 79 12 80 22 81 13 82 14 83 15 84 20 85 16 86 17 87
REMARK SMILES IDX 19 88 21 89 18 90
REMARK H PARENT 3 5 80 23 48 34 7 75
REMARK Flexibility Score: inf
ROOT
ATOM      1  C   UNL     1       4.493   1.213  -0.694  1.00  0.00     0.118 C 
ENDROOT
BRANCH   1   2
ATOM      2  N   UNL     1       3.067   1.011  -0.457  1.00  0.00    -0.352 N 
ATOM      3  O   UNL     1       1.160  -0.109  -0.032  1.00  0.00    -0.269 OA
ATOM      4  C   UNL     1       2.387  -0.087   0.009  1.00  0.00     0.251 C 
ATOM      5  H   UNL     1       2.501   1.789  -0.665  1.00  0.00     0.163 HD
BRANCH   4   6
ATOM      6  C   UNL     1       3.124  -1.253   0.541  1.00  0.00     0.039 A 
ATOM      7  C   UNL     1       4.253  -1.076   1.339  1.00  0.00     0.014 A 
ATOM      8  C   UNL     1       2.667  -2.545   0.259  1.00  0.00     0.014 A 
ATOM      9  C   UNL     1       5.025  -2.172   1.696  1.00  0.00     0.010 A 
ATOM     10  C   UNL     1       3.379  -3.655   0.724  1.00  0.00     0.010 A 
ATOM     11  C   UNL     1       4.584  -3.476   1.419  1.00  0.00    -0.014 A 
BRANCH  11  12
ATOM     12  C   UNL     1       5.368  -4.615   1.956  1.00  0.00     0.031 A 
ATOM     13  C   UNL     1       6.043  -5.605   1.053  1.00  0.00     0.074 A 
ATOM     14  C   UNL     1       5.516  -4.706   3.293  1.00  0.00     0.049 A 
ATOM     15  N   UNL     1       6.836  -6.597   1.371  1.00  0.00    -0.248 NA
ATOM     16  C   UNL     1       5.792  -5.478  -0.390  1.00  0.00     0.031 C 
ATOM     17  C   UNL     1       4.885  -3.808   4.264  1.00  0.00     0.029 A 
ATOM     18  N   UNL     1       6.267  -5.554   4.064  1.00  0.00    -0.354 N 
ATOM     19  C   UNL     1       7.162  -7.223   0.176  1.00  0.00     0.074 A 
ATOM     20  C   UNL     1       6.462  -6.516  -0.875  1.00  0.00     0.031 C 
ATOM     21  C   UNL     1       5.339  -4.098   5.489  1.00  0.00     0.029 A 
ATOM     22  C   UNL     1       6.233  -5.246   5.402  1.00  0.00     0.049 A 
ATOM     23  H   UNL     1       6.780  -6.309   3.695  1.00  0.00     0.167 HD
ATOM     24  C   UNL     1       7.979  -8.286  -0.020  1.00  0.00     0.037 A 
ATOM     25  C   UNL     1       6.850  -5.824   6.449  1.00  0.00     0.037 A 
ATOM     26  C   UNL     1       8.689  -8.966   1.033  1.00  0.00     0.049 A 
ATOM     27  C   UNL     1       7.748  -6.999   6.205  1.00  0.00     0.074 A 
ATOM     28  C   UNL     1       9.575 -10.024   0.930  1.00  0.00     0.029 A 
ATOM     29  N   UNL     1       8.591  -8.658   2.383  1.00  0.00    -0.354 N 
ATOM     30  N   UNL     1       8.073  -7.561   5.067  1.00  0.00    -0.248 NA
ATOM     31  C   UNL     1       8.356  -7.627   7.385  1.00  0.00     0.031 C 
ATOM     32  C   UNL     1       9.973 -10.390   2.220  1.00  0.00     0.029 A 
ATOM     33  C   UNL     1       9.378  -9.525   3.125  1.00  0.00     0.049 A 
ATOM     34  H   UNL     1       8.043  -7.931   2.759  1.00  0.00     0.167 HD
ATOM     35  C   UNL     1       8.926  -8.605   5.388  1.00  0.00     0.074 A 
ATOM     36  C   UNL     1       9.084  -8.586   6.829  1.00  0.00     0.031 C 
ATOM     37  C   UNL     1       9.521  -9.497   4.560  1.00  0.00     0.037 A 
BRANCH  24  38
ATOM     38  C   UNL     1       8.142  -8.799  -1.422  1.00  0.00     0.064 A 
ATOM     39  C   UNL     1       7.621 -10.051  -1.784  1.00  0.00     0.173 A 
ATOM     40  C   UNL     1       8.868  -8.088  -2.390  1.00  0.00     0.173 A 
ATOM     41  F   UNL     1       6.926 -10.776  -0.895  1.00  0.00    -0.203 F 
ATOM     42  C   UNL     1       7.827 -10.575  -3.058  1.00  0.00     0.198 A 
ATOM     43  C   UNL     1       9.049  -8.603  -3.672  1.00  0.00     0.198 A 
ATOM     44  F   UNL     1       9.380  -6.883  -2.099  1.00  0.00    -0.203 F 
ATOM     45  F   UNL     1       7.343 -11.785  -3.370  1.00  0.00    -0.200 F 
ATOM     46  C   UNL     1       8.536  -9.848  -4.002  1.00  0.00     0.200 A 
ATOM     47  F   UNL     1       9.714  -7.889  -4.591  1.00  0.00    -0.200 F 
ATOM     48  F   UNL     1       8.722 -10.347  -5.232  1.00  0.00    -0.200 F 
ENDBRANCH  24  38
BRANCH  25  49
ATOM     49  C   UNL     1       6.637  -5.261   7.806  1.00  0.00     0.064 A 
ATOM     50  C   UNL     1       5.386  -5.346   8.437  1.00  0.00     0.173 A 
ATOM     51  C   UNL     1       7.650  -4.543   8.454  1.00  0.00     0.173 A 
ATOM     52  F   UNL     1       4.382  -6.013   7.850  1.00  0.00    -0.203 F 
ATOM     53  C   UNL     1       5.145  -4.697   9.646  1.00  0.00     0.198 A 
ATOM     54  C   UNL     1       7.415  -3.918   9.677  1.00  0.00     0.198 A 
ATOM     55  F   UNL     1       8.865  -4.446   7.895  1.00  0.00    -0.203 F 
ATOM     56  F   UNL     1       3.925  -4.743  10.196  1.00  0.00    -0.200 F 
ATOM     57  C   UNL     1       6.160  -3.983  10.264  1.00  0.00     0.200 A 
ATOM     58  F   UNL     1       8.402  -3.242  10.281  1.00  0.00    -0.200 F 
ATOM     59  F   UNL     1       5.926  -3.354  11.424  1.00  0.00    -0.200 F 
ENDBRANCH  25  49
BRANCH  37  60
ATOM     60  C   UNL     1      10.408 -10.532   5.183  1.00  0.00     0.064 A 
ATOM     61  C   UNL     1      11.799 -10.474   5.007  1.00  0.00     0.173 A 
ATOM     62  C   UNL     1       9.876 -11.625   5.882  1.00  0.00     0.173 A 
ATOM     63  F   UNL     1      12.354  -9.451   4.340  1.00  0.00    -0.203 F 
ATOM     64  C   UNL     1      12.623 -11.484   5.493  1.00  0.00     0.198 A 
ATOM     65  C   UNL     1      10.707 -12.620   6.389  1.00  0.00     0.198 A 
ATOM     66  F   UNL     1       8.554 -11.716   6.088  1.00  0.00    -0.203 F 
ATOM     67  F   UNL     1      13.946 -11.427   5.283  1.00  0.00    -0.200 F 
ATOM     68  C   UNL     1      12.077 -12.555   6.185  1.00  0.00     0.200 A 
ATOM     69  F   UNL     1      10.181 -13.644   7.076  1.00  0.00    -0.200 F 
ATOM     70  F   UNL     1      12.873 -13.525   6.656  1.00  0.00    -0.200 F 
ENDBRANCH  37  60
ENDBRANCH  11  12
ENDBRANCH   4   6
ENDBRANCH   1   2
BRANCH   1  71
ATOM     71  C   UNL     1       4.830   1.380  -2.167  1.00  0.00     0.042 C 
BRANCH  71  72
ATOM     72  C   UNL     1       4.242   2.638  -2.786  1.00  0.00     0.118 C 
BRANCH  72  73
ATOM     73  N   UNL     1       4.762   3.848  -2.167  1.00  0.00    -0.351 N 
ATOM     74  C   UNL     1       5.678   4.753  -2.659  1.00  0.00     0.269 C 
ATOM     75  H   UNL     1       4.410   4.048  -1.270  1.00  0.00     0.163 HD
ATOM     76  O   UNL     1       6.124   5.621  -1.914  1.00  0.00    -0.268 OA
BRANCH  74  77
ATOM     77  C   UNL     1       6.083   4.680  -4.088  1.00  0.00     0.128 A 
ATOM     78  C   UNL     1       5.109   4.716  -5.076  1.00  0.00     0.035 A 
ATOM     79  N   UNL     1       7.406   4.557  -4.343  1.00  0.00    -0.250 NA
ATOM     80  C   UNL     1       5.506   4.551  -6.399  1.00  0.00     0.013 A 
ATOM     81  C   UNL     1       7.758   4.437  -5.646  1.00  0.00     0.120 A 
ATOM     82  C   UNL     1       6.863   4.404  -6.721  1.00  0.00     0.006 A 
BRANCH  82  83
ATOM     83  C   UNL     1       7.307   4.214  -8.112  1.00  0.00     0.055 A 
ATOM     84  C   UNL     1       6.765   4.959  -9.171  1.00  0.00     0.134 A 
ATOM     85  C   UNL     1       8.277   3.259  -8.455  1.00  0.00     0.134 A 
ATOM     86  F   UNL     1       5.838   5.899  -8.930  1.00  0.00    -0.206 F 
ATOM     87  C   UNL     1       7.158   4.764 -10.495  1.00  0.00     0.040 A 
ATOM     88  C   UNL     1       8.682   3.052  -9.775  1.00  0.00     0.040 A 
ATOM     89  F   UNL     1       8.832   2.490  -7.505  1.00  0.00    -0.206 F 
ATOM     90  C   UNL     1       8.120   3.807 -10.801  1.00  0.00     0.006 A 
ENDBRANCH  82  83
ENDBRANCH  74  77
ENDBRANCH  72  73
ENDBRANCH  71  72
ENDBRANCH   1  71
TORSDOF 11
