REMARK SMILES C[C@@](NC(=O)c1ccc[nH]c1=O)(C(=O)NCCCNC(=O)c1ccc(-c2c3nc(c(-c4c(F)c(F)c(F)c(F)c4F)c4ccc([nH]4)c(-c4c(F)c(F)c(F)c(F)c4F)c4nc(c(-c5c(F)c(F)c(F)c(F)c5F)c5ccc2[nH]5)C=C4)C=C3)cc1)C(F)(F)F
REMARK SMILES IDX 17 1 16 2 15 3 13 4 14 5 2 7 1 8 3 9 4 10 5 12 6 13 7 14
REMARK SMILES IDX 11 15 8 16 10 17 12 18 9 19 85 21 86 22 87 23 88 24 18 25
REMARK SMILES IDX 19 26 20 27 21 29 22 30 23 31 84 32 24 33 83 34 25 35 26 36
REMARK SMILES IDX 27 37 77 38 28 39 82 40 76 41 78 42 29 43 81 44 75 45 74 46
REMARK SMILES IDX 30 48 62 49 42 50 61 51 43 52 46 53 60 54 79 55 44 56 45 57
REMARK SMILES IDX 59 59 80 60 47 61 31 62 32 63 40 64 33 65 34 66 38 67 41 68
REMARK SMILES IDX 35 69 36 70 39 71 37 72 63 73 64 74 72 75 65 76 66 77 70 78
REMARK SMILES IDX 73 79 67 80 68 81 71 82 69 83 48 84 49 85 57 86 50 87 51 88
REMARK SMILES IDX 55 89 58 90 52 91 53 92 56 93 54 94
REMARK H PARENT 15 6 3 11 10 20 19 28 78 47 46 58
REMARK Flexibility Score: inf
ROOT
ATOM      1  C   UNL     1      -1.172   1.329   2.527  1.00  0.00     0.042 C 
ENDROOT
BRANCH   1   2
ATOM      2  C   UNL     1      -0.851  -0.082   2.066  1.00  0.00     0.117 C 
BRANCH   2   3
ATOM      3  N   UNL     1      -1.330  -0.338   0.713  1.00  0.00    -0.354 N 
ATOM      4  C   UNL     1      -0.752  -0.987  -0.348  1.00  0.00     0.254 C 
ATOM      5  O   UNL     1      -1.385  -0.949  -1.403  1.00  0.00    -0.272 OA
ATOM      6  H   UNL     1      -2.229   0.019   0.528  1.00  0.00     0.163 HD
BRANCH   4   7
ATOM      7  C   UNL     1       0.656  -1.587  -0.238  1.00  0.00     0.212 C 
ATOM      8  C   UNL     1       1.626  -0.371  -0.179  1.00  0.00     0.056 C 
BRANCH   7   9
ATOM      9  N   UNL     1       0.847  -2.413   1.009  1.00  0.00    -0.330 N 
ATOM     10  C   UNL     1       0.111  -3.422   1.576  1.00  0.00     0.257 C 
ATOM     11  H   UNL     1       1.659  -2.182   1.516  1.00  0.00     0.165 HD
ATOM     12  O   UNL     1       0.694  -4.158   2.375  1.00  0.00    -0.269 OA
BRANCH  10  13
ATOM     13  C   UNL     1      -1.371  -3.456   1.492  1.00  0.00     0.104 A 
ATOM     14  C   UNL     1      -2.049  -3.238   2.639  1.00  0.00     0.021 A 
ATOM     15  C   UNL     1      -2.163  -3.731   0.267  1.00  0.00     0.260 A 
ATOM     16  C   UNL     1      -3.489  -3.086   2.652  1.00  0.00     0.019 A 
ATOM     17  N   UNL     1      -3.518  -3.501   0.348  1.00  0.00    -0.328 N 
ATOM     18  O   UNL     1      -1.658  -4.144  -0.768  1.00  0.00    -0.269 OA
ATOM     19  C   UNL     1      -4.174  -3.187   1.508  1.00  0.00     0.086 A 
ATOM     20  H   UNL     1      -4.048  -3.566  -0.479  1.00  0.00     0.169 HD
ENDBRANCH  10  13
ENDBRANCH   7   9
BRANCH   7  21
ATOM     21  C   UNL     1       1.060  -2.334  -1.536  1.00  0.00     0.420 C 
ATOM     22  F   UNL     1       0.947  -1.564  -2.642  1.00  0.00    -0.168 F 
ATOM     23  F   UNL     1       2.384  -2.667  -1.451  1.00  0.00    -0.168 F 
ATOM     24  F   UNL     1       0.414  -3.486  -1.755  1.00  0.00    -0.168 F 
ENDBRANCH   7  21
ENDBRANCH   4   7
ENDBRANCH   2   3
ENDBRANCH   1   2
BRANCH   1  25
ATOM     25  C   UNL     1      -2.661   1.566   2.743  1.00  0.00     0.118 C 
BRANCH  25  26
ATOM     26  N   UNL     1      -3.220   0.777   3.836  1.00  0.00    -0.352 N 
ATOM     27  C   UNL     1      -4.004   1.193   4.886  1.00  0.00     0.251 C 
ATOM     28  H   UNL     1      -3.007  -0.184   3.819  1.00  0.00     0.163 HD
ATOM     29  O   UNL     1      -4.303   0.419   5.787  1.00  0.00    -0.269 OA
BRANCH  27  30
ATOM     30  C   UNL     1      -4.449   2.599   4.928  1.00  0.00     0.039 A 
ATOM     31  C   UNL     1      -4.225   3.352   6.082  1.00  0.00     0.014 A 
ATOM     32  C   UNL     1      -5.014   3.187   3.793  1.00  0.00     0.014 A 
ATOM     33  C   UNL     1      -4.485   4.723   6.067  1.00  0.00     0.010 A 
ATOM     34  C   UNL     1      -5.189   4.564   3.752  1.00  0.00     0.010 A 
ATOM     35  C   UNL     1      -4.922   5.346   4.886  1.00  0.00    -0.014 A 
BRANCH  35  36
ATOM     36  C   UNL     1      -5.102   6.817   4.804  1.00  0.00     0.031 A 
ATOM     37  C   UNL     1      -6.462   7.388   4.519  1.00  0.00     0.074 A 
ATOM     38  C   UNL     1      -4.030   7.628   4.893  1.00  0.00     0.049 A 
ATOM     39  N   UNL     1      -6.810   8.630   4.301  1.00  0.00    -0.248 NA
ATOM     40  C   UNL     1      -7.575   6.428   4.430  1.00  0.00     0.031 C 
ATOM     41  C   UNL     1      -2.650   7.189   5.105  1.00  0.00     0.029 A 
ATOM     42  N   UNL     1      -3.932   8.993   4.798  1.00  0.00    -0.354 N 
ATOM     43  C   UNL     1      -8.170   8.597   4.025  1.00  0.00     0.074 A 
ATOM     44  C   UNL     1      -8.575   7.208   4.050  1.00  0.00     0.031 C 
ATOM     45  C   UNL     1      -1.847   8.264   5.149  1.00  0.00     0.029 A 
ATOM     46  C   UNL     1      -2.648   9.464   4.931  1.00  0.00     0.049 A 
ATOM     47  H   UNL     1      -4.708   9.580   4.650  1.00  0.00     0.167 HD
ATOM     48  C   UNL     1      -9.011   9.633   3.797  1.00  0.00     0.037 A 
ATOM     49  C   UNL     1      -2.173  10.723   4.879  1.00  0.00     0.037 A 
ATOM     50  C   UNL     1      -8.612  11.015   3.815  1.00  0.00     0.049 A 
ATOM     51  C   UNL     1      -3.133  11.860   4.653  1.00  0.00     0.074 A 
ATOM     52  C   UNL     1      -9.399  12.143   3.666  1.00  0.00     0.029 A 
ATOM     53  N   UNL     1      -7.309  11.455   3.999  1.00  0.00    -0.354 N 
ATOM     54  N   UNL     1      -4.429  11.821   4.462  1.00  0.00    -0.248 NA
ATOM     55  C   UNL     1      -2.565  13.215   4.643  1.00  0.00     0.031 C 
ATOM     56  C   UNL     1      -8.567  13.266   3.727  1.00  0.00     0.029 A 
ATOM     57  C   UNL     1      -7.269  12.839   3.955  1.00  0.00     0.049 A 
ATOM     58  H   UNL     1      -6.530  10.871   4.140  1.00  0.00     0.167 HD
ATOM     59  C   UNL     1      -4.836  13.142   4.338  1.00  0.00     0.074 A 
ATOM     60  C   UNL     1      -3.650  13.960   4.486  1.00  0.00     0.031 C 
ATOM     61  C   UNL     1      -6.080  13.634   4.120  1.00  0.00     0.037 A 
BRANCH  48  62
ATOM     62  C   UNL     1     -10.449   9.309   3.521  1.00  0.00     0.064 A 
ATOM     63  C   UNL     1     -11.296   8.815   4.525  1.00  0.00     0.173 A 
ATOM     64  C   UNL     1     -10.995   9.518   2.246  1.00  0.00     0.173 A 
ATOM     65  F   UNL     1     -10.819   8.582   5.757  1.00  0.00    -0.203 F 
ATOM     66  C   UNL     1     -12.628   8.513   4.254  1.00  0.00     0.198 A 
ATOM     67  C   UNL     1     -12.336   9.244   1.987  1.00  0.00     0.198 A 
ATOM     68  F   UNL     1     -10.230   9.992   1.251  1.00  0.00    -0.203 F 
ATOM     69  F   UNL     1     -13.404   7.992   5.216  1.00  0.00    -0.200 F 
ATOM     70  C   UNL     1     -13.149   8.735   2.988  1.00  0.00     0.200 A 
ATOM     71  F   UNL     1     -12.840   9.468   0.766  1.00  0.00    -0.200 F 
ATOM     72  F   UNL     1     -14.432   8.448   2.731  1.00  0.00    -0.200 F 
ENDBRANCH  48  62
BRANCH  49  73
ATOM     73  C   UNL     1      -0.724  10.979   5.081  1.00  0.00     0.064 A 
ATOM     74  C   UNL     1      -0.262  11.593   6.254  1.00  0.00     0.173 A 
ATOM     75  C   UNL     1       0.226  10.618   4.115  1.00  0.00     0.173 A 
ATOM     76  F   UNL     1      -1.135  11.973   7.198  1.00  0.00    -0.203 F 
ATOM     77  C   UNL     1       1.093  11.854   6.444  1.00  0.00     0.198 A 
ATOM     78  C   UNL     1       1.584  10.857   4.318  1.00  0.00     0.198 A 
ATOM     79  F   UNL     1      -0.165  10.021   2.979  1.00  0.00    -0.203 F 
ATOM     80  F   UNL     1       1.503  12.479   7.556  1.00  0.00    -0.200 F 
ATOM     81  C   UNL     1       2.016  11.481   5.478  1.00  0.00     0.200 A 
ATOM     82  F   UNL     1       2.474  10.481   3.389  1.00  0.00    -0.200 F 
ATOM     83  F   UNL     1       3.320  11.728   5.663  1.00  0.00    -0.200 F 
ENDBRANCH  49  73
BRANCH  61  84
ATOM     84  C   UNL     1      -6.229  15.125   4.069  1.00  0.00     0.064 A 
ATOM     85  C   UNL     1      -5.787  15.871   2.967  1.00  0.00     0.173 A 
ATOM     86  C   UNL     1      -6.866  15.809   5.116  1.00  0.00     0.173 A 
ATOM     87  F   UNL     1      -5.158  15.264   1.950  1.00  0.00    -0.203 F 
ATOM     88  C   UNL     1      -5.958  17.252   2.925  1.00  0.00     0.198 A 
ATOM     89  C   UNL     1      -7.060  17.185   5.058  1.00  0.00     0.198 A 
ATOM     90  F   UNL     1      -7.313  15.138   6.189  1.00  0.00    -0.203 F 
ATOM     91  F   UNL     1      -5.491  17.951   1.882  1.00  0.00    -0.200 F 
ATOM     92  C   UNL     1      -6.601  17.906   3.966  1.00  0.00     0.200 A 
ATOM     93  F   UNL     1      -7.692  17.814   6.059  1.00  0.00    -0.200 F 
ATOM     94  F   UNL     1      -6.772  19.235   3.919  1.00  0.00    -0.200 F 
ENDBRANCH  61  84
ENDBRANCH  35  36
ENDBRANCH  27  30
ENDBRANCH  25  26
ENDBRANCH   1  25
TORSDOF 13
