REMARK SMILES Cc1ccc(C(=O)NCCCNC(=O)c2ccc(-c3c4nc(c(-c5c(F)c(F)c(F)c(F)c5F)c5ccc([nH]5)c(-c5c(F)c(F)c(F)c(F)c5F)c5nc(c(-c6c(F)c(F)c(F)c(F)c6F)c6ccc3[nH]6)C=C5)C=C4)cc2)cc1N[C@@H]1CC(=O)N(c2ccccc2C)C1=O
REMARK SMILES IDX 9 1 8 2 6 3 7 4 5 6 1 7 2 8 3 9 79 10 4 11 78 12 80 13 81 15
REMARK SMILES IDX 82 16 93 17 83 18 85 19 94 20 84 21 86 22 87 23 91 24 88 25
REMARK SMILES IDX 90 26 92 27 89 28 10 29 11 30 12 31 13 32 14 34 15 35 16 36
REMARK SMILES IDX 77 37 17 38 76 39 18 40 19 41 20 42 70 43 21 44 75 45 69 46
REMARK SMILES IDX 71 47 22 48 74 49 68 50 67 51 23 53 55 54 35 55 54 56 36 57
REMARK SMILES IDX 39 58 53 59 72 60 37 61 38 62 52 64 73 65 40 66 24 67 25 68
REMARK SMILES IDX 33 69 26 70 27 71 31 72 34 73 28 74 29 75 32 76 30 77 56 78
REMARK SMILES IDX 57 79 65 80 58 81 59 82 63 83 66 84 60 85 61 86 64 87 62 88
REMARK SMILES IDX 41 89 42 90 50 91 43 92 44 93 48 94 51 95 45 96 46 97 49 98
REMARK SMILES IDX 47 99
REMARK H PARENT 8 5 80 14 12 33 71 52 39 63
REMARK Flexibility Score: inf
ROOT
ATOM      1  C   UNL     1      -3.717   2.228   0.312  1.00  0.00     0.118 C 
ENDROOT
BRANCH   1   2
ATOM      2  N   UNL     1      -3.919   0.807   0.113  1.00  0.00    -0.352 N 
ATOM      3  C   UNL     1      -3.044  -0.220  -0.133  1.00  0.00     0.251 C 
ATOM      4  O   UNL     1      -3.540  -1.334  -0.318  1.00  0.00    -0.269 OA
ATOM      5  H   UNL     1      -4.861   0.527   0.164  1.00  0.00     0.163 HD
BRANCH   3   6
ATOM      6  C   UNL     1      -1.555  -0.075  -0.138  1.00  0.00     0.041 A 
ATOM      7  C   UNL     1       2.763  -0.051   0.065  1.00  0.00     0.046 C 
ATOM      8  C   UNL     1       1.261   0.022  -0.020  1.00  0.00    -0.028 A 
ATOM      9  C   UNL     1       0.570  -1.200   0.099  1.00  0.00     0.006 A 
ATOM     10  C   UNL     1       0.548   1.220  -0.235  1.00  0.00     0.038 A 
ATOM     11  C   UNL     1      -0.820  -1.244   0.058  1.00  0.00     0.014 A 
ATOM     12  C   UNL     1      -0.847   1.121  -0.326  1.00  0.00     0.039 A 
BRANCH  10  13
ATOM     13  N   UNL     1       1.202   2.438  -0.267  1.00  0.00    -0.373 N 
ATOM     14  H   UNL     1       2.149   2.382  -0.528  1.00  0.00     0.161 HD
BRANCH  13  15
ATOM     15  C   UNL     1       0.734   3.804   0.021  1.00  0.00     0.179 C 
ATOM     16  C   UNL     1      -0.179   3.970   1.212  1.00  0.00     0.136 C 
ATOM     17  C   UNL     1       0.035   4.524  -1.125  1.00  0.00     0.256 C 
ATOM     18  C   UNL     1      -1.246   4.901   0.710  1.00  0.00     0.236 C 
ATOM     19  N   UNL     1      -0.955   5.323  -0.566  1.00  0.00    -0.248 N 
ATOM     20  O   UNL     1       0.365   4.421  -2.285  1.00  0.00    -0.272 OA
ATOM     21  O   UNL     1      -2.289   5.068   1.334  1.00  0.00    -0.274 OA
BRANCH  19  22
ATOM     22  C   UNL     1      -1.761   6.254  -1.305  1.00  0.00     0.055 A 
ATOM     23  C   UNL     1      -2.050   5.991  -2.661  1.00  0.00     0.027 A 
ATOM     24  C   UNL     1      -2.330   7.418  -0.730  1.00  0.00    -0.027 A 
ATOM     25  C   UNL     1      -2.917   6.797  -3.408  1.00  0.00     0.002 A 
ATOM     26  C   UNL     1      -3.184   8.232  -1.512  1.00  0.00     0.005 A 
ATOM     27  C   UNL     1      -2.148   7.859   0.699  1.00  0.00     0.046 C 
ATOM     28  C   UNL     1      -3.494   7.915  -2.830  1.00  0.00     0.000 A 
ENDBRANCH  19  22
ENDBRANCH  13  15
ENDBRANCH  10  13
ENDBRANCH   3   6
ENDBRANCH   1   2
BRANCH   1  29
ATOM     29  C   UNL     1      -3.587   2.923  -1.034  1.00  0.00     0.042 C 
BRANCH  29  30
ATOM     30  C   UNL     1      -4.742   3.838  -1.359  1.00  0.00     0.118 C 
BRANCH  30  31
ATOM     31  N   UNL     1      -4.737   5.115  -0.651  1.00  0.00    -0.352 N 
ATOM     32  C   UNL     1      -5.550   6.226  -0.832  1.00  0.00     0.251 C 
ATOM     33  H   UNL     1      -4.058   5.201   0.056  1.00  0.00     0.163 HD
ATOM     34  O   UNL     1      -5.493   7.189  -0.071  1.00  0.00    -0.269 OA
BRANCH  32  35
ATOM     35  C   UNL     1      -6.635   6.187  -1.843  1.00  0.00     0.039 A 
ATOM     36  C   UNL     1      -7.904   6.346  -1.285  1.00  0.00     0.014 A 
ATOM     37  C   UNL     1      -6.456   5.444  -3.000  1.00  0.00     0.014 A 
ATOM     38  C   UNL     1      -8.863   5.394  -1.571  1.00  0.00     0.010 A 
ATOM     39  C   UNL     1      -7.351   4.421  -3.207  1.00  0.00     0.010 A 
ATOM     40  C   UNL     1      -8.498   4.348  -2.411  1.00  0.00    -0.014 A 
BRANCH  40  41
ATOM     41  C   UNL     1      -9.283   3.140  -2.534  1.00  0.00     0.031 A 
ATOM     42  C   UNL     1     -10.223   3.095  -3.662  1.00  0.00     0.074 A 
ATOM     43  C   UNL     1      -9.167   2.124  -1.650  1.00  0.00     0.049 A 
ATOM     44  N   UNL     1     -11.359   2.496  -3.627  1.00  0.00    -0.248 NA
ATOM     45  C   UNL     1      -9.996   3.838  -4.896  1.00  0.00     0.031 C 
ATOM     46  C   UNL     1      -9.729   0.784  -1.787  1.00  0.00     0.029 A 
ATOM     47  N   UNL     1      -8.607   2.137  -0.361  1.00  0.00    -0.354 N 
ATOM     48  C   UNL     1     -11.897   2.554  -4.892  1.00  0.00     0.074 A 
ATOM     49  C   UNL     1     -11.062   3.480  -5.614  1.00  0.00     0.031 C 
ATOM     50  C   UNL     1      -9.714   0.174  -0.591  1.00  0.00     0.029 A 
ATOM     51  C   UNL     1      -9.276   1.143   0.396  1.00  0.00     0.049 A 
ATOM     52  H   UNL     1      -7.886   2.726  -0.044  1.00  0.00     0.167 HD
ATOM     53  C   UNL     1     -12.908   1.695  -5.205  1.00  0.00     0.037 A 
ATOM     54  C   UNL     1      -9.954   1.439   1.546  1.00  0.00     0.037 A 
ATOM     55  C   UNL     1     -13.263   0.895  -4.031  1.00  0.00     0.049 A 
ATOM     56  C   UNL     1     -11.438   1.243   1.429  1.00  0.00     0.074 A 
ATOM     57  C   UNL     1     -12.817  -0.344  -3.602  1.00  0.00     0.029 A 
ATOM     58  N   UNL     1     -13.866   1.502  -2.932  1.00  0.00    -0.354 N 
ATOM     59  N   UNL     1     -12.056   1.102   0.292  1.00  0.00    -0.248 NA
ATOM     60  C   UNL     1     -12.344   1.265   2.572  1.00  0.00     0.031 C 
ATOM     61  C   UNL     1     -13.104  -0.457  -2.220  1.00  0.00     0.029 A 
ATOM     62  C   UNL     1     -13.757   0.695  -1.811  1.00  0.00     0.049 A 
ATOM     63  H   UNL     1     -14.308   2.381  -2.949  1.00  0.00     0.167 HD
ATOM     64  C   UNL     1     -13.405   1.100   0.513  1.00  0.00     0.074 A 
ATOM     65  C   UNL     1     -13.533   1.151   1.958  1.00  0.00     0.031 C 
ATOM     66  C   UNL     1     -14.297   1.104  -0.520  1.00  0.00     0.037 A 
BRANCH  53  67
ATOM     67  C   UNL     1     -13.331   1.343  -6.615  1.00  0.00     0.064 A 
ATOM     68  C   UNL     1     -13.922   0.087  -6.882  1.00  0.00     0.173 A 
ATOM     69  C   UNL     1     -13.134   2.146  -7.755  1.00  0.00     0.173 A 
ATOM     70  F   UNL     1     -14.269  -0.747  -5.894  1.00  0.00    -0.203 F 
ATOM     71  C   UNL     1     -14.182  -0.364  -8.179  1.00  0.00     0.198 A 
ATOM     72  C   UNL     1     -13.348   1.677  -9.056  1.00  0.00     0.198 A 
ATOM     73  F   UNL     1     -12.791   3.434  -7.657  1.00  0.00    -0.203 F 
ATOM     74  F   UNL     1     -14.734  -1.571  -8.364  1.00  0.00    -0.200 F 
ATOM     75  C   UNL     1     -13.863   0.417  -9.269  1.00  0.00     0.200 A 
ATOM     76  F   UNL     1     -13.056   2.465 -10.102  1.00  0.00    -0.200 F 
ATOM     77  F   UNL     1     -14.079  -0.028 -10.514  1.00  0.00    -0.200 F 
ENDBRANCH  53  67
BRANCH  54  78
ATOM     78  C   UNL     1      -9.323   2.539   2.319  1.00  0.00     0.064 A 
ATOM     79  C   UNL     1      -8.036   2.272   2.812  1.00  0.00     0.173 A 
ATOM     80  C   UNL     1      -9.665   3.865   2.031  1.00  0.00     0.173 A 
ATOM     81  F   UNL     1      -7.705   1.026   3.186  1.00  0.00    -0.203 F 
ATOM     82  C   UNL     1      -7.042   3.233   2.713  1.00  0.00     0.198 A 
ATOM     83  C   UNL     1      -8.671   4.834   1.968  1.00  0.00     0.198 A 
ATOM     84  F   UNL     1     -10.914   4.181   1.658  1.00  0.00    -0.203 F 
ATOM     85  F   UNL     1      -5.769   2.898   2.964  1.00  0.00    -0.200 F 
ATOM     86  C   UNL     1      -7.350   4.494   2.230  1.00  0.00     0.200 A 
ATOM     87  F   UNL     1      -8.977   6.070   1.552  1.00  0.00    -0.200 F 
ATOM     88  F   UNL     1      -6.364   5.363   1.980  1.00  0.00    -0.200 F 
ENDBRANCH  54  78
BRANCH  66  89
ATOM     89  C   UNL     1     -15.771   1.374  -0.364  1.00  0.00     0.064 A 
ATOM     90  C   UNL     1     -16.321   2.139   0.678  1.00  0.00     0.173 A 
ATOM     91  C   UNL     1     -16.689   0.933  -1.344  1.00  0.00     0.173 A 
ATOM     92  F   UNL     1     -15.545   2.772   1.569  1.00  0.00    -0.203 F 
ATOM     93  C   UNL     1     -17.697   2.327   0.810  1.00  0.00     0.198 A 
ATOM     94  C   UNL     1     -18.055   1.192  -1.253  1.00  0.00     0.198 A 
ATOM     95  F   UNL     1     -16.288   0.257  -2.430  1.00  0.00    -0.203 F 
ATOM     96  F   UNL     1     -18.176   2.986   1.874  1.00  0.00    -0.200 F 
ATOM     97  C   UNL     1     -18.564   1.856  -0.157  1.00  0.00     0.200 A 
ATOM     98  F   UNL     1     -18.872   0.801  -2.240  1.00  0.00    -0.200 F 
ATOM     99  F   UNL     1     -19.881   2.064  -0.044  1.00  0.00    -0.200 F 
ENDBRANCH  66  89
ENDBRANCH  40  41
ENDBRANCH  32  35
ENDBRANCH  30  31
ENDBRANCH  29  30
ENDBRANCH   1  29
TORSDOF 13
