REMARK SMILES O=C(CC1CN(C(=O)C[C@H]2CCCCO2)C1)NCCCNC(=O)c1ccc(-c2c3nc(c(-c4c(F)c(F)c(F)c(F)c4F)c4ccc([nH]4)c(-c4c(F)c(F)c(F)c(F)c4F)c4nc(c(-c5c(F)c(F)c(F)c(F)c5F)c5ccc2[nH]5)C=C4)C=C3)cc1
REMARK SMILES IDX 18 1 17 2 1 3 2 4 3 6 4 7 5 8 16 9 6 10 7 11 8 12 9 13 10 14
REMARK SMILES IDX 11 15 15 16 12 17 14 18 13 19 19 20 20 21 21 22 22 23 23 25
REMARK SMILES IDX 24 26 25 27 86 28 26 29 85 30 27 31 28 32 29 33 79 34 30 35
REMARK SMILES IDX 84 36 78 37 80 38 31 39 83 40 77 41 76 42 32 44 64 45 44 46
REMARK SMILES IDX 63 47 45 48 48 49 62 50 81 51 46 52 47 53 61 55 82 56 49 57
REMARK SMILES IDX 33 58 34 59 42 60 35 61 36 62 40 63 43 64 37 65 38 66 41 67
REMARK SMILES IDX 39 68 65 69 66 70 74 71 67 72 68 73 72 74 75 75 69 76 70 77
REMARK SMILES IDX 73 78 71 79 50 80 51 81 59 82 52 83 53 84 57 85 60 86 54 87
REMARK SMILES IDX 55 88 58 89 56 90
REMARK H PARENT 17 5 21 24 80 43 48 54
REMARK Flexibility Score: inf
ROOT
ATOM      1  C   UNL     1       8.204   6.247  -0.205  1.00  0.00     0.117 C 
ENDROOT
BRANCH   1   2
ATOM      2  N   UNL     1       6.915   6.546  -0.798  1.00  0.00    -0.356 N 
ATOM      3  O   UNL     1       6.699   4.568  -1.953  1.00  0.00    -0.275 OA
ATOM      4  C   UNL     1       6.242   5.646  -1.595  1.00  0.00     0.220 C 
ATOM      5  H   UNL     1       6.506   7.425  -0.624  1.00  0.00     0.163 HD
BRANCH   4   6
ATOM      6  C   UNL     1       4.857   6.109  -1.976  1.00  0.00     0.107 C 
BRANCH   6   7
ATOM      7  C   UNL     1       3.886   6.253  -0.807  1.00  0.00     0.037 C 
ATOM      8  C   UNL     1       2.777   5.182  -0.683  1.00  0.00     0.125 C 
ATOM      9  C   UNL     1       4.304   5.838   0.632  1.00  0.00     0.125 C 
ATOM     10  N   UNL     1       2.969   5.310   0.749  1.00  0.00    -0.342 N 
ATOM     11  C   UNL     1       2.122   5.034   1.778  1.00  0.00     0.225 C 
ATOM     12  O   UNL     1       0.957   4.688   1.579  1.00  0.00    -0.275 OA
BRANCH  11  13
ATOM     13  C   UNL     1       2.653   5.248   3.182  1.00  0.00     0.132 C 
BRANCH  13  14
ATOM     14  C   UNL     1       3.779   4.284   3.557  1.00  0.00     0.127 C 
ATOM     15  C   UNL     1       4.149   4.439   5.039  1.00  0.00     0.033 C 
ATOM     16  O   UNL     1       3.350   2.942   3.312  1.00  0.00    -0.378 OA
ATOM     17  C   UNL     1       5.194   3.405   5.454  1.00  0.00     0.005 C 
ATOM     18  C   UNL     1       4.378   1.985   3.560  1.00  0.00     0.160 C 
ATOM     19  C   UNL     1       4.769   2.003   5.029  1.00  0.00     0.029 C 
ENDBRANCH  13  14
ENDBRANCH  11  13
ENDBRANCH   6   7
ENDBRANCH   4   6
ENDBRANCH   1   2
BRANCH   1  20
ATOM     20  C   UNL     1       9.243   7.318  -0.507  1.00  0.00     0.042 C 
BRANCH  20  21
ATOM     21  C   UNL     1       8.898   8.707   0.022  1.00  0.00     0.118 C 
BRANCH  21  22
ATOM     22  N   UNL     1       8.830   8.774   1.475  1.00  0.00    -0.352 N 
ATOM     23  C   UNL     1       9.464   9.622   2.350  1.00  0.00     0.251 C 
ATOM     24  H   UNL     1       8.238   8.109   1.895  1.00  0.00     0.163 HD
ATOM     25  O   UNL     1       9.366   9.428   3.560  1.00  0.00    -0.269 OA
BRANCH  23  26
ATOM     26  C   UNL     1      10.292  10.743   1.852  1.00  0.00     0.039 A 
ATOM     27  C   UNL     1      11.531  10.979   2.454  1.00  0.00     0.014 A 
ATOM     28  C   UNL     1       9.860  11.561   0.805  1.00  0.00     0.014 A 
ATOM     29  C   UNL     1      12.370  11.977   1.952  1.00  0.00     0.010 A 
ATOM     30  C   UNL     1      10.728  12.504   0.256  1.00  0.00     0.010 A 
ATOM     31  C   UNL     1      11.996  12.716   0.817  1.00  0.00    -0.014 A 
BRANCH  31  32
ATOM     32  C   UNL     1      12.933  13.683   0.185  1.00  0.00     0.031 A 
ATOM     33  C   UNL     1      12.593  15.146   0.117  1.00  0.00     0.074 A 
ATOM     34  C   UNL     1      14.063  13.229  -0.391  1.00  0.00     0.049 A 
ATOM     35  N   UNL     1      13.250  16.122  -0.458  1.00  0.00    -0.248 NA
ATOM     36  C   UNL     1      11.337  15.563   0.758  1.00  0.00     0.031 C 
ATOM     37  C   UNL     1      14.487  11.829  -0.433  1.00  0.00     0.029 A 
ATOM     38  N   UNL     1      15.058  13.896  -1.065  1.00  0.00    -0.354 N 
ATOM     39  C   UNL     1      12.485  17.264  -0.257  1.00  0.00     0.074 A 
ATOM     40  C   UNL     1      11.289  16.851   0.446  1.00  0.00     0.031 C 
ATOM     41  C   UNL     1      15.662  11.743  -1.077  1.00  0.00     0.029 A 
ATOM     42  C   UNL     1      16.053  13.072  -1.534  1.00  0.00     0.049 A 
ATOM     43  H   UNL     1      15.057  14.871  -1.199  1.00  0.00     0.167 HD
ATOM     44  C   UNL     1      12.765  18.543  -0.607  1.00  0.00     0.037 A 
ATOM     45  C   UNL     1      17.151  13.353  -2.262  1.00  0.00     0.037 A 
ATOM     46  C   UNL     1      13.962  18.953  -1.295  1.00  0.00     0.049 A 
ATOM     47  C   UNL     1      17.423  14.778  -2.662  1.00  0.00     0.074 A 
ATOM     48  C   UNL     1      14.362  20.232  -1.642  1.00  0.00     0.029 A 
ATOM     49  N   UNL     1      14.950  18.090  -1.750  1.00  0.00    -0.354 N 
ATOM     50  N   UNL     1      16.728  15.859  -2.404  1.00  0.00    -0.248 NA
ATOM     51  C   UNL     1      18.638  15.023  -3.452  1.00  0.00     0.031 C 
ATOM     52  C   UNL     1      15.560  20.139  -2.357  1.00  0.00     0.029 A 
ATOM     53  C   UNL     1      15.942  18.808  -2.401  1.00  0.00     0.049 A 
ATOM     54  H   UNL     1      14.946  17.114  -1.627  1.00  0.00     0.167 HD
ATOM     55  C   UNL     1      17.432  16.912  -2.972  1.00  0.00     0.074 A 
ATOM     56  C   UNL     1      18.620  16.342  -3.574  1.00  0.00     0.031 C 
ATOM     57  C   UNL     1      17.122  18.231  -2.994  1.00  0.00     0.037 A 
BRANCH  44  58
ATOM     58  C   UNL     1      11.754  19.598  -0.256  1.00  0.00     0.064 A 
ATOM     59  C   UNL     1      11.516  19.978   1.074  1.00  0.00     0.173 A 
ATOM     60  C   UNL     1      11.048  20.272  -1.265  1.00  0.00     0.173 A 
ATOM     61  F   UNL     1      12.157  19.361   2.078  1.00  0.00    -0.203 F 
ATOM     62  C   UNL     1      10.588  20.970   1.382  1.00  0.00     0.198 A 
ATOM     63  C   UNL     1      10.146  21.286  -0.955  1.00  0.00     0.198 A 
ATOM     64  F   UNL     1      11.241  19.954  -2.554  1.00  0.00    -0.203 F 
ATOM     65  F   UNL     1      10.341  21.279   2.662  1.00  0.00    -0.200 F 
ATOM     66  C   UNL     1       9.910  21.629   0.367  1.00  0.00     0.200 A 
ATOM     67  F   UNL     1       9.503  21.932  -1.938  1.00  0.00    -0.200 F 
ATOM     68  F   UNL     1       9.024  22.589   0.665  1.00  0.00    -0.200 F 
ENDBRANCH  44  58
BRANCH  45  69
ATOM     69  C   UNL     1      18.083  12.262  -2.653  1.00  0.00     0.064 A 
ATOM     70  C   UNL     1      19.377  12.194  -2.118  1.00  0.00     0.173 A 
ATOM     71  C   UNL     1      17.706  11.274  -3.574  1.00  0.00     0.173 A 
ATOM     72  F   UNL     1      19.792  13.128  -1.250  1.00  0.00    -0.203 F 
ATOM     73  C   UNL     1      20.265  11.194  -2.507  1.00  0.00     0.198 A 
ATOM     74  C   UNL     1      18.584  10.255  -3.937  1.00  0.00     0.198 A 
ATOM     75  F   UNL     1      16.478  11.290  -4.113  1.00  0.00    -0.203 F 
ATOM     76  F   UNL     1      21.513  11.183  -2.018  1.00  0.00    -0.200 F 
ATOM     77  C   UNL     1      19.866  10.221  -3.411  1.00  0.00     0.200 A 
ATOM     78  F   UNL     1      18.188   9.308  -4.799  1.00  0.00    -0.200 F 
ATOM     79  F   UNL     1      20.720   9.257  -3.781  1.00  0.00    -0.200 F 
ENDBRANCH  45  69
BRANCH  57  80
ATOM     80  C   UNL     1      18.099  19.158  -3.661  1.00  0.00     0.064 A 
ATOM     81  C   UNL     1      18.281  19.163  -5.052  1.00  0.00     0.173 A 
ATOM     82  C   UNL     1      18.838  20.077  -2.900  1.00  0.00     0.173 A 
ATOM     83  F   UNL     1      17.611  18.295  -5.824  1.00  0.00    -0.203 F 
ATOM     84  C   UNL     1      19.188  20.033  -5.652  1.00  0.00     0.198 A 
ATOM     85  C   UNL     1      19.718  20.969  -3.507  1.00  0.00     0.198 A 
ATOM     86  F   UNL     1      18.697  20.120  -1.567  1.00  0.00    -0.203 F 
ATOM     87  F   UNL     1      19.385  19.983  -6.977  1.00  0.00    -0.200 F 
ATOM     88  C   UNL     1      19.899  20.940  -4.881  1.00  0.00     0.200 A 
ATOM     89  F   UNL     1      20.392  21.855  -2.761  1.00  0.00    -0.200 F 
ATOM     90  F   UNL     1      20.766  21.781  -5.462  1.00  0.00    -0.200 F 
ENDBRANCH  57  80
ENDBRANCH  31  32
ENDBRANCH  23  26
ENDBRANCH  21  22
ENDBRANCH  20  21
ENDBRANCH   1  20
TORSDOF 13
