REMARK SMILES Cn1cc(/C=C2\SC(=S)N(c3cccc(C(=O)NCCCNC(=O)c4ccc(-c5c6nc(c(-c7c(F)c(F)c(F)c(F)c7F)c7ccc([nH]7)c(-c7c(F)c(F)c(F)c(F)c7F)c7nc(c(-c8c(F)c(F)c(F)c(F)c8F)c8ccc5[nH]8)C=C7)C=C6)cc4)c3)C2=O)c2ccccc21
REMARK SMILES IDX 20 1 19 2 18 3 16 4 17 5 15 7 11 8 12 9 88 10 13 11 14 12
REMARK SMILES IDX 10 13 5 14 6 15 7 16 89 17 8 18 90 19 9 20 4 21 1 22 2 23
REMARK SMILES IDX 3 24 96 25 91 26 95 27 92 28 94 29 93 30 21 31 22 32 23 33
REMARK SMILES IDX 24 35 25 36 26 37 87 38 27 39 86 40 28 41 29 42 30 43 80 44
REMARK SMILES IDX 31 45 85 46 79 47 81 48 32 49 84 50 78 51 77 52 33 54 65 55
REMARK SMILES IDX 45 56 64 57 46 58 49 59 63 60 82 61 47 62 48 63 62 65 83 66
REMARK SMILES IDX 50 67 34 68 35 69 43 70 36 71 37 72 41 73 44 74 38 75 39 76
REMARK SMILES IDX 42 77 40 78 66 79 67 80 75 81 68 82 69 83 73 84 76 85 70 86
REMARK SMILES IDX 71 87 74 88 72 89 51 90 52 91 60 92 53 93 54 94 58 95 61 96
REMARK SMILES IDX 55 97 56 98 59 99 57 100
REMARK H PARENT 18 6 22 34 81 53 49 64
REMARK Flexibility Score: inf
ROOT
ATOM      1  C   UNL     1      -0.482  -7.063   5.954  1.00  0.00     0.042 C 
ENDROOT
BRANCH   1   2
ATOM      2  C   UNL     1       0.883  -7.698   6.212  1.00  0.00     0.118 C 
BRANCH   2   3
ATOM      3  N   UNL     1       0.900  -9.098   5.826  1.00  0.00    -0.352 N 
ATOM      4  C   UNL     1       1.316  -9.795   4.722  1.00  0.00     0.251 C 
ATOM      5  O   UNL     1       1.215 -11.023   4.792  1.00  0.00    -0.269 OA
ATOM      6  H   UNL     1       0.524  -9.684   6.522  1.00  0.00     0.163 HD
BRANCH   4   7
ATOM      7  C   UNL     1       1.868  -9.195   3.470  1.00  0.00     0.041 A 
ATOM      8  C   UNL     1       2.442  -7.345   1.982  1.00  0.00     0.051 A 
ATOM      9  C   UNL     1       2.865  -8.242   1.001  1.00  0.00     0.027 A 
ATOM     10  C   UNL     1       1.908  -7.833   3.185  1.00  0.00     0.040 A 
ATOM     11  C   UNL     1       2.819  -9.611   1.257  1.00  0.00     0.003 A 
ATOM     12  C   UNL     1       2.337 -10.079   2.484  1.00  0.00     0.014 A 
BRANCH   8  13
ATOM     13  N   UNL     1       2.459  -5.941   1.763  1.00  0.00    -0.261 N 
ATOM     14  C   UNL     1       1.024  -3.178  -0.071  1.00  0.00     0.031 C 
ATOM     15  C   UNL     1       1.737  -3.931   0.779  1.00  0.00     0.081 C 
ATOM     16  S   UNL     1       2.630  -3.399   2.148  1.00  0.00    -0.054 SA
ATOM     17  C   UNL     1       1.774  -5.413   0.675  1.00  0.00     0.270 C 
ATOM     18  C   UNL     1       3.036  -5.033   2.642  1.00  0.00     0.152 C 
ATOM     19  O   UNL     1       1.217  -6.029  -0.224  1.00  0.00    -0.268 OA
ATOM     20  S   UNL     1       4.037  -5.309   3.955  1.00  0.00    -0.051 S 
BRANCH  14  21
ATOM     21  C   UNL     1       0.931  -1.755  -0.061  1.00  0.00     0.001 A 
ATOM     22  C   UNL     1       2.394   1.548  -0.042  1.00  0.00     0.149 C 
ATOM     23  N   UNL     1       1.550   0.375  -0.052  1.00  0.00    -0.350 N 
ATOM     24  C   UNL     1       2.018  -0.910  -0.079  1.00  0.00     0.094 A 
ATOM     25  C   UNL     1       0.171   0.383  -0.045  1.00  0.00     0.048 A 
ATOM     26  C   UNL     1      -0.248  -0.953  -0.063  1.00  0.00     0.007 A 
ATOM     27  C   UNL     1      -0.740   1.451  -0.025  1.00  0.00     0.027 A 
ATOM     28  C   UNL     1      -1.633  -1.227  -0.060  1.00  0.00     0.011 A 
ATOM     29  C   UNL     1      -2.105   1.152  -0.029  1.00  0.00     0.002 A 
ATOM     30  C   UNL     1      -2.548  -0.168  -0.047  1.00  0.00     0.001 A 
ENDBRANCH  14  21
ENDBRANCH   8  13
ENDBRANCH   4   7
ENDBRANCH   2   3
ENDBRANCH   1   2
BRANCH   1  31
ATOM     31  C   UNL     1      -1.474  -7.350   7.081  1.00  0.00     0.118 C 
BRANCH  31  32
ATOM     32  N   UNL     1      -1.063  -6.723   8.336  1.00  0.00    -0.352 N 
ATOM     33  C   UNL     1      -1.649  -5.715   9.061  1.00  0.00     0.251 C 
ATOM     34  H   UNL     1      -0.232  -7.081   8.724  1.00  0.00     0.163 HD
ATOM     35  O   UNL     1      -1.021  -5.144   9.943  1.00  0.00    -0.269 OA
BRANCH  33  36
ATOM     36  C   UNL     1      -3.041  -5.323   8.773  1.00  0.00     0.039 A 
ATOM     37  C   UNL     1      -3.386  -3.969   8.753  1.00  0.00     0.014 A 
ATOM     38  C   UNL     1      -4.007  -6.303   8.542  1.00  0.00     0.014 A 
ATOM     39  C   UNL     1      -4.690  -3.595   8.422  1.00  0.00     0.010 A 
ATOM     40  C   UNL     1      -5.276  -5.928   8.127  1.00  0.00     0.010 A 
ATOM     41  C   UNL     1      -5.632  -4.572   8.066  1.00  0.00    -0.014 A 
BRANCH  41  42
ATOM     42  C   UNL     1      -7.008  -4.229   7.635  1.00  0.00     0.031 A 
ATOM     43  C   UNL     1      -8.175  -4.742   8.430  1.00  0.00     0.074 A 
ATOM     44  C   UNL     1      -7.205  -3.573   6.476  1.00  0.00     0.049 A 
ATOM     45  N   UNL     1      -9.448  -4.744   8.130  1.00  0.00    -0.248 NA
ATOM     46  C   UNL     1      -7.861  -5.376   9.722  1.00  0.00     0.031 C 
ATOM     47  C   UNL     1      -6.149  -3.052   5.607  1.00  0.00     0.029 A 
ATOM     48  N   UNL     1      -8.365  -3.260   5.812  1.00  0.00    -0.354 N 
ATOM     49  C   UNL     1     -10.078  -5.404   9.176  1.00  0.00     0.074 A 
ATOM     50  C   UNL     1      -9.046  -5.835  10.092  1.00  0.00     0.031 C 
ATOM     51  C   UNL     1      -6.708  -2.478   4.530  1.00  0.00     0.029 A 
ATOM     52  C   UNL     1      -8.157  -2.640   4.604  1.00  0.00     0.049 A 
ATOM     53  H   UNL     1      -9.261  -3.460   6.168  1.00  0.00     0.167 HD
ATOM     54  C   UNL     1     -11.403  -5.614   9.361  1.00  0.00     0.037 A 
ATOM     55  C   UNL     1      -9.035  -2.270   3.652  1.00  0.00     0.037 A 
ATOM     56  C   UNL     1     -12.420  -5.155   8.455  1.00  0.00     0.049 A 
ATOM     57  C   UNL     1     -10.502  -2.536   3.871  1.00  0.00     0.074 A 
ATOM     58  C   UNL     1     -13.794  -5.264   8.574  1.00  0.00     0.029 A 
ATOM     59  N   UNL     1     -12.171  -4.499   7.258  1.00  0.00    -0.354 N 
ATOM     60  N   UNL     1     -11.095  -3.114   4.887  1.00  0.00    -0.248 NA
ATOM     61  C   UNL     1     -11.422  -2.098   2.812  1.00  0.00     0.031 C 
ATOM     62  C   UNL     1     -14.374  -4.724   7.423  1.00  0.00     0.029 A 
ATOM     63  C   UNL     1     -13.366  -4.216   6.618  1.00  0.00     0.049 A 
ATOM     64  H   UNL     1     -11.277  -4.268   6.915  1.00  0.00     0.167 HD
ATOM     65  C   UNL     1     -12.455  -3.070   4.613  1.00  0.00     0.074 A 
ATOM     66  C   UNL     1     -12.601  -2.410   3.332  1.00  0.00     0.031 C 
ATOM     67  C   UNL     1     -13.490  -3.528   5.358  1.00  0.00     0.037 A 
BRANCH  54  68
ATOM     68  C   UNL     1     -11.825  -6.374  10.586  1.00  0.00     0.064 A 
ATOM     69  C   UNL     1     -11.676  -5.839  11.875  1.00  0.00     0.173 A 
ATOM     70  C   UNL     1     -12.417  -7.641  10.468  1.00  0.00     0.173 A 
ATOM     71  F   UNL     1     -11.107  -4.636  12.046  1.00  0.00    -0.203 F 
ATOM     72  C   UNL     1     -12.072  -6.558  13.000  1.00  0.00     0.198 A 
ATOM     73  C   UNL     1     -12.845  -8.341  11.593  1.00  0.00     0.198 A 
ATOM     74  F   UNL     1     -12.589  -8.198   9.260  1.00  0.00    -0.203 F 
ATOM     75  F   UNL     1     -11.867  -6.050  14.223  1.00  0.00    -0.200 F 
ATOM     76  C   UNL     1     -12.663  -7.803  12.858  1.00  0.00     0.200 A 
ATOM     77  F   UNL     1     -13.431  -9.538  11.452  1.00  0.00    -0.200 F 
ATOM     78  F   UNL     1     -13.052  -8.490  13.941  1.00  0.00    -0.200 F 
ENDBRANCH  54  68
BRANCH  55  79
ATOM     79  C   UNL     1      -8.554  -1.597   2.417  1.00  0.00     0.064 A 
ATOM     80  C   UNL     1      -8.859  -0.251   2.168  1.00  0.00     0.173 A 
ATOM     81  C   UNL     1      -7.782  -2.276   1.463  1.00  0.00     0.173 A 
ATOM     82  F   UNL     1      -9.608   0.438   3.042  1.00  0.00    -0.203 F 
ATOM     83  C   UNL     1      -8.430   0.383   1.004  1.00  0.00     0.198 A 
ATOM     84  C   UNL     1      -7.325  -1.631   0.314  1.00  0.00     0.198 A 
ATOM     85  F   UNL     1      -7.454  -3.562   1.654  1.00  0.00    -0.203 F 
ATOM     86  F   UNL     1      -8.776   1.656   0.770  1.00  0.00    -0.200 F 
ATOM     87  C   UNL     1      -7.657  -0.306   0.081  1.00  0.00     0.200 A 
ATOM     88  F   UNL     1      -6.560  -2.294  -0.564  1.00  0.00    -0.200 F 
ATOM     89  F   UNL     1      -7.237   0.306  -1.034  1.00  0.00    -0.200 F 
ENDBRANCH  55  79
BRANCH  67  90
ATOM     90  C   UNL     1     -14.881  -3.276   4.856  1.00  0.00     0.064 A 
ATOM     91  C   UNL     1     -15.419  -3.988   3.775  1.00  0.00     0.173 A 
ATOM     92  C   UNL     1     -15.717  -2.375   5.535  1.00  0.00     0.173 A 
ATOM     93  F   UNL     1     -14.656  -4.849   3.086  1.00  0.00    -0.203 F 
ATOM     94  C   UNL     1     -16.744  -3.802   3.388  1.00  0.00     0.198 A 
ATOM     95  C   UNL     1     -17.049  -2.216   5.165  1.00  0.00     0.198 A 
ATOM     96  F   UNL     1     -15.250  -1.676   6.580  1.00  0.00    -0.203 F 
ATOM     97  F   UNL     1     -17.232  -4.471   2.335  1.00  0.00    -0.200 F 
ATOM     98  C   UNL     1     -17.560  -2.927   4.091  1.00  0.00     0.200 A 
ATOM     99  F   UNL     1     -17.840  -1.384   5.857  1.00  0.00    -0.200 F 
ATOM    100  F   UNL     1     -18.842  -2.771   3.733  1.00  0.00    -0.200 F 
ENDBRANCH  67  90
ENDBRANCH  41  42
ENDBRANCH  33  36
ENDBRANCH  31  32
ENDBRANCH   1  31
TORSDOF 12
