REMARK SMILES CC[NH+](CC)C[C@H](C)NC(=O)N[C@H]1C=C[C@@H](C(=O)NCCCNC(=O)c2ccc(-c3c4nc(c(-c5c(F)c(F)c(F)c(F)c5F)c5ccc([nH]5)c(-c5c(F)c(F)c(F)c(F)c5F)c5nc(c(-c6c(F)c(F)c(F)c(F)c6F)c6ccc3[nH]6)C=C5)C=C4)cc2)C1
REMARK SMILES IDX 17 1 18 2 19 3 16 5 13 6 14 7 89 8 15 9 12 10 9 11 10 12
REMARK SMILES IDX 11 14 7 16 8 17 6 18 3 19 2 21 1 22 4 23 5 24 20 25 21 26
REMARK SMILES IDX 22 27 23 28 24 29 25 31 26 32 27 33 88 34 28 35 87 36 29 37
REMARK SMILES IDX 30 38 31 39 81 40 32 41 86 42 80 43 82 44 33 45 85 46 79 47
REMARK SMILES IDX 78 48 34 50 66 51 46 52 65 53 47 54 50 55 64 56 83 57 48 58
REMARK SMILES IDX 49 59 63 61 84 62 51 63 35 64 36 65 44 66 37 67 38 68 42 69
REMARK SMILES IDX 45 70 39 71 40 72 43 73 41 74 67 75 68 76 76 77 69 78 70 79
REMARK SMILES IDX 74 80 77 81 71 82 72 83 75 84 73 85 52 86 53 87 61 88 54 89
REMARK SMILES IDX 55 90 59 91 62 92 56 93 57 94 60 95 58 96
REMARK H PARENT 19 4 9 13 12 15 3 20 23 30 82 49 50 60
REMARK Flexibility Score: inf
ROOT
ATOM      1  C   UNL     1       1.270   0.776  -1.810  1.00  0.00     0.227 C 
ATOM      2  O   UNL     1       0.245   0.861  -1.079  1.00  0.00    -0.274 OA
ATOM      3  N   UNL     1       2.347   0.590  -0.964  1.00  0.00    -0.356 N 
ATOM      4  H   UNL     1       1.881   0.672  -0.101  1.00  0.00     0.163 HD
ENDROOT
BRANCH   1   5
ATOM      5  C   UNL     1       0.833   0.870  -3.457  1.00  0.00     0.103 C 
ATOM      6  C   UNL     1       1.810   0.370  -5.755  1.00  0.00     0.107 C 
ATOM      7  C   UNL     1       1.025  -0.776  -5.203  1.00  0.00    -0.006 C 
ATOM      8  C   UNL     1       1.381   1.515  -4.805  1.00  0.00     0.047 C 
ATOM      9  C   UNL     1       0.439  -0.489  -4.022  1.00  0.00    -0.016 C 
BRANCH   6  10
ATOM     10  N   UNL     1       3.231   0.102  -6.067  1.00  0.00    -0.332 N 
ATOM     11  N   UNL     1       4.512  -0.778  -4.290  1.00  0.00    -0.330 N 
ATOM     12  C   UNL     1       4.359  -0.433  -5.570  1.00  0.00     0.315 C 
ATOM     13  H   UNL     1       5.269  -1.370  -4.072  1.00  0.00     0.165 HD
ATOM     14  O   UNL     1       5.322  -0.589  -6.322  1.00  0.00    -0.249 OA
ATOM     15  H   UNL     1       3.420   0.440  -6.973  1.00  0.00     0.165 HD
BRANCH  11  16
ATOM     16  C   UNL     1       3.668  -0.362  -3.198  1.00  0.00     0.135 C 
ATOM     17  C   UNL     1       3.361  -1.651  -2.383  1.00  0.00     0.037 C 
BRANCH  16  18
ATOM     18  C   UNL     1       3.856   1.348  -3.019  1.00  0.00     0.287 C 
BRANCH  18  19
ATOM     19  N   UNL     1       3.901   2.695  -2.274  1.00  0.00    -0.334 N 
ATOM     20  H   UNL     1       4.666   2.422  -1.657  1.00  0.00     0.348 HD
BRANCH  19  21
ATOM     21  C   UNL     1       2.892   3.268  -1.284  1.00  0.00     0.258 C 
ATOM     22  C   UNL     1       2.748   3.008   0.241  1.00  0.00     0.071 C 
ENDBRANCH  19  21
BRANCH  19  23
ATOM     23  C   UNL     1       3.971   3.800  -3.313  1.00  0.00     0.258 C 
ATOM     24  C   UNL     1       4.877   3.649  -4.528  1.00  0.00     0.071 C 
ENDBRANCH  19  23
ENDBRANCH  18  19
ENDBRANCH  16  18
ENDBRANCH  11  16
ENDBRANCH   6  10
ENDBRANCH   1   5
BRANCH   3  25
ATOM     25  C   UNL     1       3.889   0.323  -0.401  1.00  0.00     0.117 C 
BRANCH  25  26
ATOM     26  C   UNL     1       5.344   0.907  -0.767  1.00  0.00     0.042 C 
BRANCH  26  27
ATOM     27  C   UNL     1       5.893   2.292  -0.319  1.00  0.00     0.118 C 
BRANCH  27  28
ATOM     28  N   UNL     1       6.051   2.376   1.118  1.00  0.00    -0.352 N 
ATOM     29  C   UNL     1       7.253   2.461   1.771  1.00  0.00     0.251 C 
ATOM     30  H   UNL     1       5.234   2.372   1.667  1.00  0.00     0.163 HD
ATOM     31  O   UNL     1       7.453   1.910   2.831  1.00  0.00    -0.269 OA
BRANCH  29  32
ATOM     32  C   UNL     1       8.248   3.376   1.178  1.00  0.00     0.039 A 
ATOM     33  C   UNL     1       9.573   2.975   1.022  1.00  0.00     0.014 A 
ATOM     34  C   UNL     1       7.830   4.669   0.842  1.00  0.00     0.014 A 
ATOM     35  C   UNL     1      10.501   3.897   0.544  1.00  0.00     0.010 A 
ATOM     36  C   UNL     1       8.742   5.565   0.315  1.00  0.00     0.010 A 
ATOM     37  C   UNL     1      10.090   5.197   0.205  1.00  0.00    -0.014 A 
BRANCH  37  38
ATOM     38  C   UNL     1      11.060   6.237  -0.192  1.00  0.00     0.031 A 
ATOM     39  C   UNL     1      11.250   7.428   0.704  1.00  0.00     0.074 A 
ATOM     40  C   UNL     1      11.666   6.146  -1.386  1.00  0.00     0.049 A 
ATOM     41  N   UNL     1      11.940   8.519   0.504  1.00  0.00    -0.248 NA
ATOM     42  C   UNL     1      10.506   7.414   1.976  1.00  0.00     0.031 C 
ATOM     43  C   UNL     1      11.481   5.053  -2.342  1.00  0.00     0.029 A 
ATOM     44  N   UNL     1      12.546   6.989  -2.006  1.00  0.00    -0.354 N 
ATOM     45  C   UNL     1      11.677   9.332   1.600  1.00  0.00     0.074 A 
ATOM     46  C   UNL     1      10.705   8.645   2.417  1.00  0.00     0.031 C 
ATOM     47  C   UNL     1      12.255   5.275  -3.416  1.00  0.00     0.029 A 
ATOM     48  C   UNL     1      12.958   6.540  -3.235  1.00  0.00     0.049 A 
ATOM     49  H   UNL     1      12.853   7.836  -1.609  1.00  0.00     0.167 HD
ATOM     50  C   UNL     1      12.229  10.530   1.907  1.00  0.00     0.037 A 
ATOM     51  C   UNL     1      13.819   7.098  -4.105  1.00  0.00     0.037 A 
ATOM     52  C   UNL     1      13.228  11.159   1.085  1.00  0.00     0.049 A 
ATOM     53  C   UNL     1      14.454   8.408  -3.728  1.00  0.00     0.074 A 
ATOM     54  C   UNL     1      13.933  12.325   1.312  1.00  0.00     0.029 A 
ATOM     55  N   UNL     1      13.664  10.655  -0.136  1.00  0.00    -0.354 N 
ATOM     56  N   UNL     1      14.267   9.140  -2.654  1.00  0.00    -0.248 NA
ATOM     57  C   UNL     1      15.426   8.964  -4.675  1.00  0.00     0.031 C 
ATOM     58  C   UNL     1      14.756  12.554   0.203  1.00  0.00     0.029 A 
ATOM     59  C   UNL     1      14.613  11.497  -0.686  1.00  0.00     0.049 A 
ATOM     60  H   UNL     1      13.343   9.821  -0.549  1.00  0.00     0.167 HD
ATOM     61  C   UNL     1      15.118  10.228  -2.777  1.00  0.00     0.074 A 
ATOM     62  C   UNL     1      15.831  10.049  -4.029  1.00  0.00     0.031 C 
ATOM     63  C   UNL     1      15.301  11.277  -1.936  1.00  0.00     0.037 A 
BRANCH  50  64
ATOM     64  C   UNL     1      11.755  11.214   3.163  1.00  0.00     0.064 A 
ATOM     65  C   UNL     1      11.948  10.652   4.436  1.00  0.00     0.173 A 
ATOM     66  C   UNL     1      11.068  12.436   3.094  1.00  0.00     0.173 A 
ATOM     67  F   UNL     1      12.592   9.482   4.568  1.00  0.00    -0.203 F 
ATOM     68  C   UNL     1      11.415  11.247   5.578  1.00  0.00     0.198 A 
ATOM     69  C   UNL     1      10.575  13.052   4.243  1.00  0.00     0.198 A 
ATOM     70  F   UNL     1      10.859  13.031   1.910  1.00  0.00    -0.203 F 
ATOM     71  F   UNL     1      11.533  10.639   6.766  1.00  0.00    -0.200 F 
ATOM     72  C   UNL     1      10.732  12.448   5.481  1.00  0.00     0.200 A 
ATOM     73  F   UNL     1       9.929  14.223   4.149  1.00  0.00    -0.200 F 
ATOM     74  F   UNL     1      10.212  13.017   6.578  1.00  0.00    -0.200 F 
ENDBRANCH  50  64
BRANCH  51  75
ATOM     75  C   UNL     1      14.177   6.373  -5.350  1.00  0.00     0.064 A 
ATOM     76  C   UNL     1      15.446   5.792  -5.494  1.00  0.00     0.173 A 
ATOM     77  C   UNL     1      13.255   6.185  -6.390  1.00  0.00     0.173 A 
ATOM     78  F   UNL     1      16.365   5.950  -4.530  1.00  0.00    -0.203 F 
ATOM     79  C   UNL     1      15.781   5.062  -6.631  1.00  0.00     0.198 A 
ATOM     80  C   UNL     1      13.583   5.432  -7.517  1.00  0.00     0.198 A 
ATOM     81  F   UNL     1      12.022   6.705  -6.297  1.00  0.00    -0.203 F 
ATOM     82  F   UNL     1      17.010   4.540  -6.752  1.00  0.00    -0.200 F 
ATOM     83  C   UNL     1      14.847   4.875  -7.638  1.00  0.00     0.200 A 
ATOM     84  F   UNL     1      12.670   5.236  -8.479  1.00  0.00    -0.200 F 
ATOM     85  F   UNL     1      15.164   4.157  -8.725  1.00  0.00    -0.200 F 
ENDBRANCH  51  75
BRANCH  63  86
ATOM     86  C   UNL     1      16.338  12.288  -2.329  1.00  0.00     0.064 A 
ATOM     87  C   UNL     1      16.137  13.173  -3.397  1.00  0.00     0.173 A 
ATOM     88  C   UNL     1      17.525  12.402  -1.590  1.00  0.00     0.173 A 
ATOM     89  F   UNL     1      15.024  13.093  -4.142  1.00  0.00    -0.203 F 
ATOM     90  C   UNL     1      17.102  14.120  -3.729  1.00  0.00     0.198 A 
ATOM     91  C   UNL     1      18.469  13.374  -1.901  1.00  0.00     0.198 A 
ATOM     92  F   UNL     1      17.758  11.584  -0.552  1.00  0.00    -0.203 F 
ATOM     93  F   UNL     1      16.914  14.921  -4.786  1.00  0.00    -0.200 F 
ATOM     94  C   UNL     1      18.262  14.226  -2.975  1.00  0.00     0.200 A 
ATOM     95  F   UNL     1      19.580  13.488  -1.159  1.00  0.00    -0.200 F 
ATOM     96  F   UNL     1      19.183  15.147  -3.288  1.00  0.00    -0.200 F 
ENDBRANCH  63  86
ENDBRANCH  37  38
ENDBRANCH  29  32
ENDBRANCH  27  28
ENDBRANCH  26  27
ENDBRANCH  25  26
ENDBRANCH   3  25
TORSDOF 16
