REMARK SMILES CC(C)n1cc(C(=O)NCCCNC(=O)c2ccc(-c3c4nc(c(-c5c(F)c(F)c(F)c(F)c5F)c5ccc([nH]5)c(-c5c(F)c(F)c(F)c(F)c5F)c5nc(c(-c6c(F)c(F)c(F)c(F)c6F)c6ccc3[nH]6)C=C5)C=C4)cc2)c2ccccc2c1=O
REMARK SMILES IDX 11 1 10 2 9 3 7 4 8 5 6 7 4 8 5 9 85 10 84 11 86 12 79 13
REMARK SMILES IDX 83 14 80 15 82 16 81 17 2 18 1 19 3 20 12 21 13 22 14 23
REMARK SMILES IDX 15 25 16 26 17 27 78 28 18 29 77 30 19 31 20 32 21 33 71 34
REMARK SMILES IDX 22 35 76 36 70 37 72 38 23 39 75 40 69 41 68 42 24 44 56 45
REMARK SMILES IDX 36 46 55 47 37 48 40 49 54 50 73 51 38 52 39 53 53 55 74 56
REMARK SMILES IDX 41 57 25 58 26 59 34 60 27 61 28 62 32 63 35 64 29 65 30 66
REMARK SMILES IDX 33 67 31 68 57 69 58 70 66 71 59 72 60 73 64 74 67 75 61 76
REMARK SMILES IDX 62 77 65 78 63 79 42 80 43 81 51 82 44 83 45 84 49 85 52 86
REMARK SMILES IDX 46 87 47 88 50 89 48 90
REMARK H PARENT 9 6 13 24 72 43 40 54
REMARK Flexibility Score: inf
ROOT
ATOM      1  C   UNL     1      -0.844   5.814   0.029  1.00  0.00     0.042 C 
ENDROOT
BRANCH   1   2
ATOM      2  C   UNL     1      -1.631   5.297   1.235  1.00  0.00     0.118 C 
BRANCH   2   3
ATOM      3  N   UNL     1      -2.995   4.971   0.849  1.00  0.00    -0.352 N 
ATOM      4  C   UNL     1      -3.632   3.852   0.406  1.00  0.00     0.253 C 
ATOM      5  O   UNL     1      -4.790   4.042   0.030  1.00  0.00    -0.269 OA
ATOM      6  H   UNL     1      -3.601   5.742   0.927  1.00  0.00     0.163 HD
BRANCH   4   7
ATOM      7  C   UNL     1      -3.028   2.466   0.419  1.00  0.00     0.064 A 
ATOM      8  N   UNL     1      -1.024   1.084   0.379  1.00  0.00    -0.312 N 
ATOM      9  C   UNL     1      -1.704   2.294   0.258  1.00  0.00     0.104 A 
ATOM     10  C   UNL     1      -1.732  -0.081   0.711  1.00  0.00     0.258 A 
ATOM     11  C   UNL     1      -3.210  -0.013   0.612  1.00  0.00     0.048 A 
ATOM     12  O   UNL     1      -1.216  -1.136   1.065  1.00  0.00    -0.269 OA
ATOM     13  C   UNL     1      -3.852   1.229   0.495  1.00  0.00     0.001 A 
ATOM     14  C   UNL     1      -3.935  -1.218   0.614  1.00  0.00     0.014 A 
ATOM     15  C   UNL     1      -5.256   1.213   0.408  1.00  0.00     0.010 A 
ATOM     16  C   UNL     1      -5.320  -1.203   0.497  1.00  0.00     0.001 A 
ATOM     17  C   UNL     1      -5.980   0.014   0.401  1.00  0.00     0.001 A 
BRANCH   8  18
ATOM     18  C   UNL     1       0.473   1.047   0.410  1.00  0.00     0.084 C 
ATOM     19  C   UNL     1       1.074  -0.168  -0.321  1.00  0.00     0.031 C 
ATOM     20  C   UNL     1       1.177   2.297  -0.151  1.00  0.00     0.031 C 
ENDBRANCH   8  18
ENDBRANCH   4   7
ENDBRANCH   2   3
ENDBRANCH   1   2
BRANCH   1  21
ATOM     21  C   UNL     1      -1.291   7.199  -0.434  1.00  0.00     0.118 C 
BRANCH  21  22
ATOM     22  N   UNL     1      -0.845   8.254   0.466  1.00  0.00    -0.352 N 
ATOM     23  C   UNL     1      -0.004   9.317   0.227  1.00  0.00     0.251 C 
ATOM     24  H   UNL     1      -1.199   8.199   1.383  1.00  0.00     0.163 HD
ATOM     25  O   UNL     1       0.419   9.987   1.159  1.00  0.00    -0.269 OA
BRANCH  23  26
ATOM     26  C   UNL     1       0.412   9.630  -1.158  1.00  0.00     0.039 A 
ATOM     27  C   UNL     1      -0.519   9.632  -2.196  1.00  0.00     0.014 A 
ATOM     28  C   UNL     1       1.755   9.918  -1.419  1.00  0.00     0.014 A 
ATOM     29  C   UNL     1      -0.083   9.739  -3.512  1.00  0.00     0.010 A 
ATOM     30  C   UNL     1       2.179  10.114  -2.738  1.00  0.00     0.010 A 
ATOM     31  C   UNL     1       1.272   9.970  -3.800  1.00  0.00    -0.014 A 
BRANCH  31  32
ATOM     32  C   UNL     1       1.716  10.028  -5.217  1.00  0.00     0.031 A 
ATOM     33  C   UNL     1       2.646   8.982  -5.772  1.00  0.00     0.074 A 
ATOM     34  C   UNL     1       1.220  10.985  -6.025  1.00  0.00     0.049 A 
ATOM     35  N   UNL     1       3.116   8.856  -6.988  1.00  0.00    -0.248 NA
ATOM     36  C   UNL     1       3.113   7.941  -4.842  1.00  0.00     0.031 C 
ATOM     37  C   UNL     1       0.298  12.042  -5.607  1.00  0.00     0.029 A 
ATOM     38  N   UNL     1       1.393  11.207  -7.368  1.00  0.00    -0.354 N 
ATOM     39  C   UNL     1       3.942   7.739  -6.963  1.00  0.00     0.074 A 
ATOM     40  C   UNL     1       3.937   7.239  -5.607  1.00  0.00     0.031 C 
ATOM     41  C   UNL     1      -0.059  12.763  -6.679  1.00  0.00     0.029 A 
ATOM     42  C   UNL     1       0.657  12.263  -7.848  1.00  0.00     0.049 A 
ATOM     43  H   UNL     1       1.988  10.662  -7.933  1.00  0.00     0.167 HD
ATOM     44  C   UNL     1       4.630   7.175  -7.985  1.00  0.00     0.037 A 
ATOM     45  C   UNL     1       0.576  12.779  -9.089  1.00  0.00     0.037 A 
ATOM     46  C   UNL     1       4.610   7.659  -9.341  1.00  0.00     0.049 A 
ATOM     47  C   UNL     1       1.384  12.159 -10.194  1.00  0.00     0.074 A 
ATOM     48  C   UNL     1       5.256   7.141 -10.450  1.00  0.00     0.029 A 
ATOM     49  N   UNL     1       3.902   8.771  -9.774  1.00  0.00    -0.354 N 
ATOM     50  N   UNL     1       2.160  11.104 -10.156  1.00  0.00    -0.248 NA
ATOM     51  C   UNL     1       1.314  12.808 -11.510  1.00  0.00     0.031 C 
ATOM     52  C   UNL     1       4.975   7.964 -11.544  1.00  0.00     0.029 A 
ATOM     53  C   UNL     1       4.114   8.967 -11.129  1.00  0.00     0.049 A 
ATOM     54  H   UNL     1       3.333   9.336  -9.203  1.00  0.00     0.167 HD
ATOM     55  C   UNL     1       2.665  10.957 -11.440  1.00  0.00     0.074 A 
ATOM     56  C   UNL     1       2.088  12.017 -12.241  1.00  0.00     0.031 C 
ATOM     57  C   UNL     1       3.535  10.030 -11.910  1.00  0.00     0.037 A 
BRANCH  44  58
ATOM     58  C   UNL     1       5.473   5.969  -7.686  1.00  0.00     0.064 A 
ATOM     59  C   UNL     1       4.898   4.716  -7.429  1.00  0.00     0.173 A 
ATOM     60  C   UNL     1       6.873   6.052  -7.730  1.00  0.00     0.173 A 
ATOM     61  F   UNL     1       3.564   4.585  -7.363  1.00  0.00    -0.203 F 
ATOM     62  C   UNL     1       5.694   3.593  -7.215  1.00  0.00     0.198 A 
ATOM     63  C   UNL     1       7.665   4.923  -7.542  1.00  0.00     0.198 A 
ATOM     64  F   UNL     1       7.473   7.226  -7.977  1.00  0.00    -0.203 F 
ATOM     65  F   UNL     1       5.123   2.412  -6.940  1.00  0.00    -0.200 F 
ATOM     66  C   UNL     1       7.076   3.695  -7.282  1.00  0.00     0.200 A 
ATOM     67  F   UNL     1       9.000   5.021  -7.619  1.00  0.00    -0.200 F 
ATOM     68  F   UNL     1       7.839   2.610  -7.092  1.00  0.00    -0.200 F 
ENDBRANCH  44  58
BRANCH  45  69
ATOM     69  C   UNL     1      -0.307  13.947  -9.340  1.00  0.00     0.064 A 
ATOM     70  C   UNL     1      -1.473  13.817 -10.107  1.00  0.00     0.173 A 
ATOM     71  C   UNL     1      -0.024  15.206  -8.791  1.00  0.00     0.173 A 
ATOM     72  F   UNL     1      -1.775  12.639 -10.671  1.00  0.00    -0.203 F 
ATOM     73  C   UNL     1      -2.320  14.903 -10.316  1.00  0.00     0.198 A 
ATOM     74  C   UNL     1      -0.887  16.283  -8.975  1.00  0.00     0.198 A 
ATOM     75  F   UNL     1       1.079  15.381  -8.047  1.00  0.00    -0.203 F 
ATOM     76  F   UNL     1      -3.414  14.760 -11.076  1.00  0.00    -0.200 F 
ATOM     77  C   UNL     1      -2.032  16.132  -9.741  1.00  0.00     0.200 A 
ATOM     78  F   UNL     1      -0.613  17.464  -8.403  1.00  0.00    -0.200 F 
ATOM     79  F   UNL     1      -2.857  17.171  -9.927  1.00  0.00    -0.200 F 
ENDBRANCH  45  69
BRANCH  57  80
ATOM     80  C   UNL     1       3.917  10.113 -13.358  1.00  0.00     0.064 A 
ATOM     81  C   UNL     1       4.784  11.110 -13.827  1.00  0.00     0.173 A 
ATOM     82  C   UNL     1       3.467   9.147 -14.270  1.00  0.00     0.173 A 
ATOM     83  F   UNL     1       5.230  12.063 -12.995  1.00  0.00    -0.203 F 
ATOM     84  C   UNL     1       5.177  11.144 -15.162  1.00  0.00     0.198 A 
ATOM     85  C   UNL     1       3.884   9.169 -15.598  1.00  0.00     0.198 A 
ATOM     86  F   UNL     1       2.642   8.169 -13.868  1.00  0.00    -0.203 F 
ATOM     87  F   UNL     1       5.980  12.125 -15.597  1.00  0.00    -0.200 F 
ATOM     88  C   UNL     1       4.735  10.169 -16.044  1.00  0.00     0.200 A 
ATOM     89  F   UNL     1       3.467   8.217 -16.445  1.00  0.00    -0.200 F 
ATOM     90  F   UNL     1       5.126  10.195 -17.325  1.00  0.00    -0.200 F 
ENDBRANCH  57  80
ENDBRANCH  31  32
ENDBRANCH  23  26
ENDBRANCH  21  22
ENDBRANCH   1  21
TORSDOF 11
