REMARK SMILES Cc1n[nH]c(C[N@H+]2CCC[C@H](c3cccc(C(=O)NCCCNC(=O)c4ccc(-c5c6nc(c(-c7c(F)c(F)c(F)c(F)c7F)c7ccc([nH]7)c(-c7c(F)c(F)c(F)c(F)c7F)c7nc(c(-c8c(F)c(F)c(F)c(F)c8F)c8ccc5[nH]8)C=C7)C=C6)cc4)c3)C2)n1
REMARK SMILES IDX 20 1 19 2 17 3 18 4 16 6 12 7 13 8 89 9 14 10 15 11 11 12
REMARK SMILES IDX 7 13 8 14 90 15 9 17 10 18 6 19 5 20 1 21 2 22 3 23 91 24
REMARK SMILES IDX 4 25 21 27 22 28 23 29 24 30 25 32 26 33 27 34 88 35 28 36
REMARK SMILES IDX 87 37 29 38 30 39 31 40 81 41 32 42 86 43 80 44 82 45 33 46
REMARK SMILES IDX 85 47 79 48 78 49 34 51 66 52 46 53 65 54 47 55 50 56 64 57
REMARK SMILES IDX 83 58 48 59 49 60 63 62 84 63 51 64 35 65 36 66 44 67 37 68
REMARK SMILES IDX 38 69 42 70 45 71 39 72 40 73 43 74 41 75 67 76 68 77 76 78
REMARK SMILES IDX 69 79 70 80 74 81 77 82 71 83 72 84 75 85 73 86 52 87 53 88
REMARK SMILES IDX 61 89 54 90 55 91 59 92 62 93 56 94 57 95 60 96 58 97
REMARK H PARENT 19 5 7 16 4 26 23 31 82 50 50 61
REMARK Flexibility Score: inf
ROOT
ATOM      1  C   UNL     1      -5.242   7.928  -1.747  1.00  0.00     0.118 C 
ENDROOT
BRANCH   1   2
ATOM      2  N   UNL     1      -4.896   8.911  -2.767  1.00  0.00    -0.352 N 
ATOM      3  C   UNL     1      -4.013   8.907  -3.825  1.00  0.00     0.251 C 
ATOM      4  O   UNL     1      -4.060   9.871  -4.591  1.00  0.00    -0.269 OA
ATOM      5  H   UNL     1      -5.398   9.754  -2.683  1.00  0.00     0.163 HD
BRANCH   3   6
ATOM      6  C   UNL     1      -3.034   7.814  -4.101  1.00  0.00     0.040 A 
ATOM      7  C   UNL     1      -1.891   5.725  -3.506  1.00  0.00    -0.039 A 
ATOM      8  C   UNL     1      -1.211   5.763  -4.725  1.00  0.00     0.004 A 
ATOM      9  C   UNL     1      -2.740   6.795  -3.201  1.00  0.00     0.018 A 
ATOM     10  C   UNL     1      -1.431   6.808  -5.625  1.00  0.00     0.001 A 
ATOM     11  C   UNL     1      -2.352   7.815  -5.324  1.00  0.00     0.014 A 
BRANCH   7  12
ATOM     12  C   UNL     1      -1.782   4.612  -2.469  1.00  0.00     0.074 C 
ATOM     13  N   UNL     1      -1.249   2.665  -3.936  1.00  0.00    -0.328 N 
ATOM     14  C   UNL     1      -2.536   2.022  -3.653  1.00  0.00     0.262 C 
ATOM     15  C   UNL     1      -0.790   3.488  -2.800  1.00  0.00     0.270 C 
ATOM     16  H   UNL     1      -1.419   3.286  -4.727  1.00  0.00     0.348 HD
ATOM     17  C   UNL     1      -3.611   3.047  -3.283  1.00  0.00     0.062 C 
ATOM     18  C   UNL     1      -3.149   3.959  -2.149  1.00  0.00     0.020 C 
BRANCH  13  19
ATOM     19  C   UNL     1      -0.205   1.725  -4.380  1.00  0.00     0.340 C 
BRANCH  19  20
ATOM     20  C   UNL     1       0.230   0.762  -3.329  1.00  0.00     0.179 A 
ATOM     21  C   UNL     1       1.177  -0.243  -0.096  1.00  0.00     0.092 C 
ATOM     22  C   UNL     1       0.774  -0.150  -1.512  1.00  0.00     0.147 A 
ATOM     23  N   UNL     1       0.238  -1.165  -2.200  1.00  0.00    -0.159 NA
ATOM     24  N   UNL     1       0.844   1.030  -2.195  1.00  0.00    -0.211 NA
ATOM     25  N   UNL     1      -0.076  -0.566  -3.361  1.00  0.00    -0.258 N 
ATOM     26  H   UNL     1      -0.475  -1.027  -4.134  1.00  0.00     0.192 HD
ENDBRANCH  19  20
ENDBRANCH  13  19
ENDBRANCH   7  12
ENDBRANCH   3   6
ENDBRANCH   1   2
BRANCH   1  27
ATOM     27  C   UNL     1      -4.362   8.032  -0.488  1.00  0.00     0.042 C 
BRANCH  27  28
ATOM     28  C   UNL     1      -4.897   9.034   0.516  1.00  0.00     0.118 C 
BRANCH  28  29
ATOM     29  N   UNL     1      -6.173   8.606   1.111  1.00  0.00    -0.352 N 
ATOM     30  C   UNL     1      -7.073   9.323   1.887  1.00  0.00     0.251 C 
ATOM     31  H   UNL     1      -6.426   7.671   0.932  1.00  0.00     0.163 HD
ATOM     32  O   UNL     1      -7.901   8.759   2.579  1.00  0.00    -0.269 OA
BRANCH  30  33
ATOM     33  C   UNL     1      -7.002  10.793   1.848  1.00  0.00     0.039 A 
ATOM     34  C   UNL     1      -7.178  11.595   2.978  1.00  0.00     0.014 A 
ATOM     35  C   UNL     1      -6.651  11.352   0.631  1.00  0.00     0.014 A 
ATOM     36  C   UNL     1      -6.912  12.958   2.862  1.00  0.00     0.010 A 
ATOM     37  C   UNL     1      -6.072  12.581   0.622  1.00  0.00     0.010 A 
ATOM     38  C   UNL     1      -6.333  13.434   1.674  1.00  0.00    -0.014 A 
BRANCH  38  39
ATOM     39  C   UNL     1      -5.885  14.806   1.500  1.00  0.00     0.031 A 
ATOM     40  C   UNL     1      -4.951  15.252   2.556  1.00  0.00     0.074 A 
ATOM     41  C   UNL     1      -6.112  15.511   0.368  1.00  0.00     0.049 A 
ATOM     42  N   UNL     1      -5.204  16.076   3.515  1.00  0.00    -0.248 NA
ATOM     43  C   UNL     1      -3.654  14.568   2.682  1.00  0.00     0.031 C 
ATOM     44  C   UNL     1      -6.742  15.072  -0.887  1.00  0.00     0.029 A 
ATOM     45  N   UNL     1      -5.736  16.783   0.068  1.00  0.00    -0.354 N 
ATOM     46  C   UNL     1      -4.020  16.195   4.230  1.00  0.00     0.074 A 
ATOM     47  C   UNL     1      -3.191  15.093   3.819  1.00  0.00     0.031 C 
ATOM     48  C   UNL     1      -6.500  15.973  -1.866  1.00  0.00     0.029 A 
ATOM     49  C   UNL     1      -5.862  17.131  -1.275  1.00  0.00     0.049 A 
ATOM     50  H   UNL     1      -5.401  17.411   0.749  1.00  0.00     0.167 HD
ATOM     51  C   UNL     1      -3.728  17.358   4.875  1.00  0.00     0.037 A 
ATOM     52  C   UNL     1      -5.452  18.292  -1.848  1.00  0.00     0.037 A 
ATOM     53  C   UNL     1      -4.911  18.182   4.995  1.00  0.00     0.049 A 
ATOM     54  C   UNL     1      -5.305  19.283  -0.751  1.00  0.00     0.074 A 
ATOM     55  C   UNL     1      -6.150  18.019   5.585  1.00  0.00     0.029 A 
ATOM     56  N   UNL     1      -5.061  19.207   4.093  1.00  0.00    -0.354 N 
ATOM     57  N   UNL     1      -6.310  19.746  -0.059  1.00  0.00    -0.248 NA
ATOM     58  C   UNL     1      -4.005  19.369  -0.102  1.00  0.00     0.031 C 
ATOM     59  C   UNL     1      -7.075  18.609   4.671  1.00  0.00     0.029 A 
ATOM     60  C   UNL     1      -6.349  19.177   3.623  1.00  0.00     0.049 A 
ATOM     61  H   UNL     1      -4.365  19.851   3.829  1.00  0.00     0.167 HD
ATOM     62  C   UNL     1      -5.856  19.760   1.252  1.00  0.00     0.074 A 
ATOM     63  C   UNL     1      -4.407  19.587   1.153  1.00  0.00     0.031 C 
ATOM     64  C   UNL     1      -6.724  19.605   2.295  1.00  0.00     0.037 A 
BRANCH  51  65
ATOM     65  C   UNL     1      -2.340  17.938   5.008  1.00  0.00     0.064 A 
ATOM     66  C   UNL     1      -2.172  19.113   5.768  1.00  0.00     0.173 A 
ATOM     67  C   UNL     1      -1.244  17.586   4.189  1.00  0.00     0.173 A 
ATOM     68  F   UNL     1      -3.150  19.547   6.579  1.00  0.00    -0.203 F 
ATOM     69  C   UNL     1      -1.043  19.924   5.636  1.00  0.00     0.198 A 
ATOM     70  C   UNL     1      -0.096  18.371   4.100  1.00  0.00     0.198 A 
ATOM     71  F   UNL     1      -1.273  16.542   3.354  1.00  0.00    -0.203 F 
ATOM     72  F   UNL     1      -0.994  21.102   6.273  1.00  0.00    -0.200 F 
ATOM     73  C   UNL     1      -0.010  19.558   4.794  1.00  0.00     0.200 A 
ATOM     74  F   UNL     1       0.886  18.005   3.265  1.00  0.00    -0.200 F 
ATOM     75  F   UNL     1       1.042  20.366   4.612  1.00  0.00    -0.200 F 
ENDBRANCH  51  65
BRANCH  52  76
ATOM     76  C   UNL     1      -4.868  18.512  -3.195  1.00  0.00     0.064 A 
ATOM     77  C   UNL     1      -4.750  19.804  -3.734  1.00  0.00     0.173 A 
ATOM     78  C   UNL     1      -4.141  17.496  -3.846  1.00  0.00     0.173 A 
ATOM     79  F   UNL     1      -5.372  20.838  -3.148  1.00  0.00    -0.203 F 
ATOM     80  C   UNL     1      -3.930  20.070  -4.837  1.00  0.00     0.198 A 
ATOM     81  C   UNL     1      -3.325  17.762  -4.948  1.00  0.00     0.198 A 
ATOM     82  F   UNL     1      -4.129  16.246  -3.364  1.00  0.00    -0.203 F 
ATOM     83  F   UNL     1      -3.791  21.328  -5.281  1.00  0.00    -0.200 F 
ATOM     84  C   UNL     1      -3.208  19.051  -5.435  1.00  0.00     0.200 A 
ATOM     85  F   UNL     1      -2.599  16.775  -5.491  1.00  0.00    -0.200 F 
ATOM     86  F   UNL     1      -2.369  19.316  -6.446  1.00  0.00    -0.200 F 
ENDBRANCH  52  76
BRANCH  64  87
ATOM     87  C   UNL     1      -8.198  19.685   1.998  1.00  0.00     0.064 A 
ATOM     88  C   UNL     1      -8.896  18.784   1.174  1.00  0.00     0.173 A 
ATOM     89  C   UNL     1      -8.957  20.637   2.691  1.00  0.00     0.173 A 
ATOM     90  F   UNL     1      -8.263  17.784   0.550  1.00  0.00    -0.203 F 
ATOM     91  C   UNL     1     -10.281  18.862   1.022  1.00  0.00     0.198 A 
ATOM     92  C   UNL     1     -10.342  20.691   2.567  1.00  0.00     0.198 A 
ATOM     93  F   UNL     1      -8.353  21.491   3.532  1.00  0.00    -0.203 F 
ATOM     94  F   UNL     1     -10.921  17.997   0.221  1.00  0.00    -0.200 F 
ATOM     95  C   UNL     1     -11.003  19.812   1.725  1.00  0.00     0.200 A 
ATOM     96  F   UNL     1     -11.039  21.580   3.287  1.00  0.00    -0.200 F 
ATOM     97  F   UNL     1     -12.338  19.864   1.611  1.00  0.00    -0.200 F 
ENDBRANCH  64  87
ENDBRANCH  38  39
ENDBRANCH  30  33
ENDBRANCH  28  29
ENDBRANCH  27  28
ENDBRANCH   1  27
TORSDOF 13
