REMARK SMILES O=C(NCCCNC(=O)[C@H](CO)NC(=O)[C@H](CS)NC(=O)[C@H](Cc1ccccc1)NC(=O)c1ccc(F)cc1)c1ccc(-c2c3nc(c(-c4c(F)c(F)c(F)c(F)c4F)c4ccc([nH]4)c(-c4c(F)c(F)c(F)c(F)c4F)c4nc(c(-c5c(F)c(F)c(F)c(F)c5F)c5ccc2[nH]5)C=C4)C=C3)cc1
REMARK SMILES IDX 7 1 8 2 9 3 6 5 5 6 4 7 3 8 1 9 2 10 40 12 41 13 102 14
REMARK SMILES IDX 42 15 101 16 43 17 44 18 45 19 95 20 46 21 100 22 94 23
REMARK SMILES IDX 96 24 47 25 99 26 93 27 92 28 48 30 80 31 60 32 79 33 61 34
REMARK SMILES IDX 64 35 78 36 97 37 62 38 63 39 77 41 98 42 65 43 49 44 50 45
REMARK SMILES IDX 58 46 51 47 52 48 56 49 59 50 53 51 54 52 57 53 55 54 81 55
REMARK SMILES IDX 82 56 90 57 83 58 84 59 88 60 91 61 85 62 86 63 89 64 87 65
REMARK SMILES IDX 66 66 67 67 75 68 68 69 69 70 73 71 76 72 70 73 71 74 74 75
REMARK SMILES IDX 72 76 10 77 13 78 14 79 15 81 16 82 19 83 20 84 21 86 22 87
REMARK SMILES IDX 30 88 31 89 32 91 33 92 34 93 39 94 35 95 38 96 36 97 37 98
REMARK SMILES IDX 23 99 24 100 25 101 29 102 26 103 28 104 27 105 17 106
REMARK SMILES IDX 18 107 11 109 12 110
REMARK H PARENT 7 4 3 11 96 29 64 40 13 80 19 85 30 90 18 108 12 111
REMARK Flexibility Score: inf
ROOT
ATOM      1  N   UNL     1       3.457  -1.495  -7.446  1.00  0.00    -0.354 N 
ATOM      2  C   UNL     1       4.673  -1.172  -7.957  1.00  0.00     0.244 C 
ATOM      3  O   UNL     1       5.092  -2.176  -8.586  1.00  0.00    -0.273 OA
ATOM      4  H   UNL     1       3.293  -2.445  -7.645  1.00  0.00     0.163 HD
ENDROOT
BRANCH   1   5
ATOM      5  C   UNL     1       2.285  -0.985  -6.710  1.00  0.00     0.117 C 
BRANCH   5   6
ATOM      6  C   UNL     1       1.207  -0.372  -7.620  1.00  0.00     0.042 C 
BRANCH   6   7
ATOM      7  C   UNL     1      -0.127  -1.101  -7.618  1.00  0.00     0.118 C 
BRANCH   7   8
ATOM      8  N   UNL     1      -0.832  -0.973  -6.352  1.00  0.00    -0.352 N 
ATOM      9  O   UNL     1      -1.981  -0.187  -4.626  1.00  0.00    -0.269 OA
ATOM     10  C   UNL     1      -1.735  -0.081  -5.829  1.00  0.00     0.251 C 
ATOM     11  H   UNL     1      -0.610  -1.696  -5.723  1.00  0.00     0.163 HD
BRANCH  10  12
ATOM     12  C   UNL     1      -2.434   0.987  -6.601  1.00  0.00     0.039 A 
ATOM     13  C   UNL     1      -2.663   0.929  -7.972  1.00  0.00     0.014 A 
ATOM     14  C   UNL     1      -3.022   2.045  -5.880  1.00  0.00     0.014 A 
ATOM     15  C   UNL     1      -3.376   1.939  -8.621  1.00  0.00     0.010 A 
ATOM     16  C   UNL     1      -3.838   2.998  -6.513  1.00  0.00     0.010 A 
ATOM     17  C   UNL     1      -4.027   2.951  -7.896  1.00  0.00    -0.014 A 
BRANCH  17  18
ATOM     18  C   UNL     1      -4.994   3.823  -8.621  1.00  0.00     0.031 A 
ATOM     19  C   UNL     1      -4.793   5.304  -8.753  1.00  0.00     0.074 A 
ATOM     20  C   UNL     1      -6.035   3.229  -9.243  1.00  0.00     0.049 A 
ATOM     21  N   UNL     1      -5.475   6.165  -9.468  1.00  0.00    -0.248 NA
ATOM     22  C   UNL     1      -3.700   5.906  -7.976  1.00  0.00     0.031 C 
ATOM     23  C   UNL     1      -6.370   1.806  -9.137  1.00  0.00     0.029 A 
ATOM     24  N   UNL     1      -6.964   3.717 -10.127  1.00  0.00    -0.354 N 
ATOM     25  C   UNL     1      -4.907   7.407  -9.219  1.00  0.00     0.074 A 
ATOM     26  C   UNL     1      -3.836   7.194  -8.268  1.00  0.00     0.031 C 
ATOM     27  C   UNL     1      -7.350   1.515 -10.003  1.00  0.00     0.029 A 
ATOM     28  C   UNL     1      -7.763   2.741 -10.676  1.00  0.00     0.049 A 
ATOM     29  H   UNL     1      -7.050   4.673 -10.348  1.00  0.00     0.167 HD
ATOM     30  C   UNL     1      -5.247   8.611  -9.741  1.00  0.00     0.037 A 
ATOM     31  C   UNL     1      -8.718   2.817 -11.622  1.00  0.00     0.037 A 
ATOM     32  C   UNL     1      -6.309   8.815 -10.694  1.00  0.00     0.049 A 
ATOM     33  C   UNL     1      -9.030   4.154 -12.227  1.00  0.00     0.074 A 
ATOM     34  C   UNL     1      -6.739   9.998 -11.273  1.00  0.00     0.029 A 
ATOM     35  N   UNL     1      -7.106   7.806 -11.216  1.00  0.00    -0.354 N 
ATOM     36  N   UNL     1      -8.475   5.316 -11.985  1.00  0.00    -0.248 NA
ATOM     37  C   UNL     1     -10.106   4.195 -13.225  1.00  0.00     0.031 C 
ATOM     38  C   UNL     1      -7.810   9.707 -12.126  1.00  0.00     0.029 A 
ATOM     39  C   UNL     1      -8.025   8.339 -12.107  1.00  0.00     0.049 A 
ATOM     40  H   UNL     1      -7.030   6.851 -10.988  1.00  0.00     0.167 HD
ATOM     41  C   UNL     1      -9.145   6.229 -12.784  1.00  0.00     0.074 A 
ATOM     42  C   UNL     1     -10.112   5.478 -13.558  1.00  0.00     0.031 C 
ATOM     43  C   UNL     1      -8.990   7.574 -12.853  1.00  0.00     0.037 A 
BRANCH  30  44
ATOM     44  C   UNL     1      -4.468   9.811  -9.286  1.00  0.00     0.064 A 
ATOM     45  C   UNL     1      -3.155  10.041  -9.723  1.00  0.00     0.173 A 
ATOM     46  C   UNL     1      -5.056  10.767  -8.443  1.00  0.00     0.173 A 
ATOM     47  F   UNL     1      -2.544   9.152 -10.520  1.00  0.00    -0.203 F 
ATOM     48  C   UNL     1      -2.454  11.175  -9.319  1.00  0.00     0.198 A 
ATOM     49  C   UNL     1      -4.360  11.911  -8.060  1.00  0.00     0.198 A 
ATOM     50  F   UNL     1      -6.311  10.598  -8.001  1.00  0.00    -0.203 F 
ATOM     51  F   UNL     1      -1.189  11.358  -9.723  1.00  0.00    -0.200 F 
ATOM     52  C   UNL     1      -3.059  12.112  -8.494  1.00  0.00     0.200 A 
ATOM     53  F   UNL     1      -4.950  12.820  -7.271  1.00  0.00    -0.200 F 
ATOM     54  F   UNL     1      -2.385  13.207  -8.114  1.00  0.00    -0.200 F 
ENDBRANCH  30  44
BRANCH  31  55
ATOM     55  C   UNL     1      -9.436   1.587 -12.051  1.00  0.00     0.064 A 
ATOM     56  C   UNL     1      -9.265   1.057 -13.337  1.00  0.00     0.173 A 
ATOM     57  C   UNL     1     -10.294   0.906 -11.175  1.00  0.00     0.173 A 
ATOM     58  F   UNL     1      -8.471   1.681 -14.220  1.00  0.00    -0.203 F 
ATOM     59  C   UNL     1      -9.931  -0.103 -13.732  1.00  0.00     0.198 A 
ATOM     60  C   UNL     1     -10.932  -0.271 -11.559  1.00  0.00     0.198 A 
ATOM     61  F   UNL     1     -10.489   1.369  -9.931  1.00  0.00    -0.203 F 
ATOM     62  F   UNL     1      -9.778  -0.568 -14.980  1.00  0.00    -0.200 F 
ATOM     63  C   UNL     1     -10.756  -0.770 -12.840  1.00  0.00     0.200 A 
ATOM     64  F   UNL     1     -11.712  -0.923 -10.687  1.00  0.00    -0.200 F 
ATOM     65  F   UNL     1     -11.383  -1.893 -13.215  1.00  0.00    -0.200 F 
ENDBRANCH  31  55
BRANCH  43  66
ATOM     66  C   UNL     1      -9.904   8.306 -13.788  1.00  0.00     0.064 A 
ATOM     67  C   UNL     1     -11.260   8.493 -13.479  1.00  0.00     0.173 A 
ATOM     68  C   UNL     1      -9.424   8.824 -14.999  1.00  0.00     0.173 A 
ATOM     69  F   UNL     1     -11.767   7.998 -12.340  1.00  0.00    -0.203 F 
ATOM     70  C   UNL     1     -12.110   9.149 -14.365  1.00  0.00     0.198 A 
ATOM     71  C   UNL     1     -10.273   9.499 -15.872  1.00  0.00     0.198 A 
ATOM     72  F   UNL     1      -8.135   8.670 -15.337  1.00  0.00    -0.203 F 
ATOM     73  F   UNL     1     -13.412   9.271 -14.073  1.00  0.00    -0.200 F 
ATOM     74  C   UNL     1     -11.615   9.654 -15.558  1.00  0.00     0.200 A 
ATOM     75  F   UNL     1      -9.794   9.992 -17.022  1.00  0.00    -0.200 F 
ATOM     76  F   UNL     1     -12.437  10.279 -16.413  1.00  0.00    -0.200 F 
ENDBRANCH  43  66
ENDBRANCH  17  18
ENDBRANCH  10  12
ENDBRANCH   7   8
ENDBRANCH   6   7
ENDBRANCH   5   6
ENDBRANCH   1   5
BRANCH   2  77
ATOM     77  C   UNL     1       5.780   0.250  -7.941  1.00  0.00     0.197 C 
BRANCH  77  78
ATOM     78  N   UNL     1       5.512   2.307  -7.631  1.00  0.00    -0.340 N 
ATOM     79  C   UNL     1       5.225   3.626  -7.970  1.00  0.00     0.244 C 
ATOM     80  H   UNL     1       5.703   2.388  -6.668  1.00  0.00     0.164 HD
ATOM     81  O   UNL     1       5.135   4.306  -6.922  1.00  0.00    -0.273 OA
BRANCH  79  82
ATOM     82  C   UNL     1       5.177   4.431  -9.335  1.00  0.00     0.181 C 
BRANCH  82  83
ATOM     83  N   UNL     1       4.848   3.854 -10.654  1.00  0.00    -0.342 N 
ATOM     84  C   UNL     1       5.626   3.280 -11.616  1.00  0.00     0.243 C 
ATOM     85  H   UNL     1       3.891   3.889 -10.880  1.00  0.00     0.164 HD
ATOM     86  O   UNL     1       5.061   2.838 -12.621  1.00  0.00    -0.273 OA
BRANCH  84  87
ATOM     87  C   UNL     1       7.137   3.168 -11.455  1.00  0.00     0.176 C 
BRANCH  87  88
ATOM     88  N   UNL     1       7.631   4.552 -11.552  1.00  0.00    -0.340 N 
ATOM     89  C   UNL     1       8.124   5.239 -12.628  1.00  0.00     0.251 C 
ATOM     90  H   UNL     1       7.603   5.063 -10.711  1.00  0.00     0.164 HD
ATOM     91  O   UNL     1       8.202   6.462 -12.581  1.00  0.00    -0.269 OA
BRANCH  89  92
ATOM     92  C   UNL     1       8.706   4.519 -13.773  1.00  0.00     0.040 A 
ATOM     93  C   UNL     1      10.068   4.743 -14.017  1.00  0.00     0.017 A 
ATOM     94  C   UNL     1       7.972   3.650 -14.585  1.00  0.00     0.017 A 
ATOM     95  C   UNL     1      10.714   4.041 -15.030  1.00  0.00     0.040 A 
ATOM     96  C   UNL     1       8.629   2.938 -15.590  1.00  0.00     0.040 A 
ATOM     97  C   UNL     1       9.993   3.132 -15.795  1.00  0.00     0.123 A 
ATOM     98  F   UNL     1      10.623   2.431 -16.746  1.00  0.00    -0.207 F 
ENDBRANCH  89  92
ENDBRANCH  87  88
BRANCH  87  99
ATOM     99  C   UNL     1       7.651   2.390 -10.232  1.00  0.00     0.070 C 
BRANCH  99 100
ATOM    100  C   UNL     1       6.715   1.829  -9.184  1.00  0.00    -0.045 A 
ATOM    101  C   UNL     1       4.926   1.532  -9.417  1.00  0.00     0.004 A 
ATOM    102  C   UNL     1       7.425   1.698  -7.527  1.00  0.00     0.004 A 
ATOM    103  C   UNL     1       3.885   1.218  -7.977  1.00  0.00     0.000 A 
ATOM    104  C   UNL     1       6.407   1.232  -6.112  1.00  0.00     0.000 A 
ATOM    105  C   UNL     1       4.630   1.013  -6.327  1.00  0.00     0.000 A 
ENDBRANCH  99 100
ENDBRANCH  87  99
ENDBRANCH  84  87
ENDBRANCH  82  83
BRANCH  82 106
ATOM    106  C   UNL     1       4.181   5.616  -9.155  1.00  0.00     0.101 C 
BRANCH 106 107
ATOM    107  S   UNL     1       4.771   7.006  -8.139  1.00  0.00    -0.177 SA
ATOM    108  H   UNL     1       4.989   6.578  -6.866  1.00  0.00     0.102 HD
ENDBRANCH 106 107
ENDBRANCH  82 106
ENDBRANCH  79  82
ENDBRANCH  77  78
BRANCH  77 109
ATOM    109  C   UNL     1       7.232  -0.735  -7.571  1.00  0.00     0.191 C 
BRANCH 109 110
ATOM    110  O   UNL     1       7.464  -1.085  -6.208  1.00  0.00    -0.394 OA
ATOM    111  H   UNL     1       7.629  -0.281  -5.691  1.00  0.00     0.210 HD
ENDBRANCH 109 110
ENDBRANCH  77 109
ENDBRANCH   2  77
TORSDOF 22
