REMARK SMILES CC(C)[NH2+][C@@]1(C(=O)NCCCNC(=O)c2ccc(-c3c4nc(c(-c5c(F)c(F)c(F)c(F)c5F)c5ccc([nH]5)c(-c5c(F)c(F)c(F)c(F)c5F)c5nc(c(-c6c(F)c(F)c(F)c(F)c6F)c6ccc3[nH]6)C=C5)C=C4)cc2)CCC[C@H](SC2CCCCC2)C1
REMARK SMILES IDX 10 1 9 2 8 3 6 4 7 5 5 7 78 8 89 9 79 10 81 11 80 12 4 13
REMARK SMILES IDX 2 16 1 17 3 18 82 19 83 20 84 21 88 22 85 23 87 24 86 25
REMARK SMILES IDX 11 26 12 27 13 28 14 30 15 31 16 32 77 33 17 34 76 35 18 36
REMARK SMILES IDX 19 37 20 38 70 39 21 40 75 41 69 42 71 43 22 44 74 45 68 46
REMARK SMILES IDX 67 47 23 49 55 50 35 51 54 52 36 53 39 54 53 55 72 56 37 57
REMARK SMILES IDX 38 58 52 60 73 61 40 62 24 63 25 64 33 65 26 66 27 67 31 68
REMARK SMILES IDX 34 69 28 70 29 71 32 72 30 73 56 74 57 75 65 76 58 77 59 78
REMARK SMILES IDX 63 79 66 80 60 81 61 82 64 83 62 84 41 85 42 86 50 87 43 88
REMARK SMILES IDX 44 89 48 90 51 91 45 92 46 93 49 94 47 95
REMARK H PARENT 8 6 4 14 4 15 12 29 71 48 39 59
REMARK Flexibility Score: inf
ROOT
ATOM      1  C   UNL     1      -1.214   2.931  -6.083  1.00  0.00     0.042 C 
ENDROOT
BRANCH   1   2
ATOM      2  C   UNL     1      -2.033   1.761  -5.600  1.00  0.00     0.118 C 
BRANCH   2   3
ATOM      3  N   UNL     1      -1.279   0.860  -4.760  1.00  0.00    -0.351 N 
ATOM      4  C   UNL     1      -1.221   0.651  -3.430  1.00  0.00     0.281 C 
ATOM      5  O   UNL     1      -1.015  -0.552  -3.168  1.00  0.00    -0.268 OA
ATOM      6  H   UNL     1      -0.676   0.272  -5.270  1.00  0.00     0.163 HD
BRANCH   4   7
ATOM      7  C   UNL     1      -1.411   1.671  -2.206  1.00  0.00     0.176 C 
ATOM      8  C   UNL     1      -2.900   1.781  -1.836  1.00  0.00     0.079 C 
ATOM      9  C   UNL     1      -0.750   3.063  -2.172  1.00  0.00     0.093 C 
ATOM     10  C   UNL     1      -3.679   2.868  -2.555  1.00  0.00     0.008 C 
ATOM     11  C   UNL     1      -1.502   4.344  -2.612  1.00  0.00     0.053 C 
ATOM     12  C   UNL     1      -3.024   4.242  -2.626  1.00  0.00     0.015 C 
BRANCH   7  13
ATOM     13  N   UNL     1      -0.808   0.883  -1.036  1.00  0.00    -0.332 N 
ATOM     14  H   UNL     1      -1.229   1.246  -0.181  1.00  0.00     0.347 HD
ATOM     15  H   UNL     1      -1.010  -0.090  -1.263  1.00  0.00     0.347 HD
BRANCH  13  16
ATOM     16  C   UNL     1       0.660   0.908  -0.843  1.00  0.00     0.176 C 
ATOM     17  C   UNL     1       0.981  -0.042   0.319  1.00  0.00     0.075 C 
ATOM     18  C   UNL     1       1.536   0.515  -2.039  1.00  0.00     0.075 C 
ENDBRANCH  13  16
ENDBRANCH   7  13
BRANCH  11  19
ATOM     19  S   UNL     1      -0.408   5.139  -3.871  1.00  0.00    -0.155 SA
BRANCH  19  20
ATOM     20  C   UNL     1      -1.280   6.283  -5.000  1.00  0.00     0.047 C 
ATOM     21  C   UNL     1      -2.797   6.332  -5.155  1.00  0.00     0.014 C 
ATOM     22  C   UNL     1      -0.712   7.687  -4.760  1.00  0.00     0.014 C 
ATOM     23  C   UNL     1      -3.200   7.271  -6.296  1.00  0.00     0.001 C 
ATOM     24  C   UNL     1      -1.104   8.612  -5.904  1.00  0.00     0.001 C 
ATOM     25  C   UNL     1      -2.612   8.664  -6.113  1.00  0.00     0.000 C 
ENDBRANCH  19  20
ENDBRANCH  11  19
ENDBRANCH   4   7
ENDBRANCH   2   3
ENDBRANCH   1   2
BRANCH   1  26
ATOM     26  C   UNL     1      -0.807   2.945  -7.546  1.00  0.00     0.118 C 
BRANCH  26  27
ATOM     27  N   UNL     1      -1.892   3.330  -8.437  1.00  0.00    -0.352 N 
ATOM     28  C   UNL     1      -2.146   4.427  -9.223  1.00  0.00     0.251 C 
ATOM     29  H   UNL     1      -2.603   2.651  -8.487  1.00  0.00     0.163 HD
ATOM     30  O   UNL     1      -3.246   4.456  -9.786  1.00  0.00    -0.269 OA
BRANCH  28  31
ATOM     31  C   UNL     1      -1.221   5.584  -9.426  1.00  0.00     0.039 A 
ATOM     32  C   UNL     1      -1.787   6.794  -9.876  1.00  0.00     0.014 A 
ATOM     33  C   UNL     1       0.163   5.537  -9.278  1.00  0.00     0.014 A 
ATOM     34  C   UNL     1      -0.997   7.926 -10.131  1.00  0.00     0.010 A 
ATOM     35  C   UNL     1       0.945   6.689  -9.449  1.00  0.00     0.010 A 
ATOM     36  C   UNL     1       0.382   7.893  -9.903  1.00  0.00    -0.014 A 
BRANCH  36  37
ATOM     37  C   UNL     1       1.270   9.049 -10.223  1.00  0.00     0.031 A 
ATOM     38  C   UNL     1       2.307   8.906 -11.308  1.00  0.00     0.074 A 
ATOM     39  C   UNL     1       1.198  10.206  -9.535  1.00  0.00     0.049 A 
ATOM     40  N   UNL     1       3.253   9.737 -11.668  1.00  0.00    -0.248 NA
ATOM     41  C   UNL     1       2.269   7.664 -12.097  1.00  0.00     0.031 C 
ATOM     42  C   UNL     1       0.212  10.517  -8.506  1.00  0.00     0.029 A 
ATOM     43  N   UNL     1       1.988  11.332  -9.576  1.00  0.00    -0.354 N 
ATOM     44  C   UNL     1       3.908   9.127 -12.729  1.00  0.00     0.074 A 
ATOM     45  C   UNL     1       3.303   7.825 -12.909  1.00  0.00     0.031 C 
ATOM     46  C   UNL     1       0.490  11.713  -7.963  1.00  0.00     0.029 A 
ATOM     47  C   UNL     1       1.671  12.265  -8.616  1.00  0.00     0.049 A 
ATOM     48  H   UNL     1       2.713  11.457 -10.230  1.00  0.00     0.167 HD
ATOM     49  C   UNL     1       4.895   9.621 -13.513  1.00  0.00     0.037 A 
ATOM     50  C   UNL     1       2.263  13.432  -8.295  1.00  0.00     0.037 A 
ATOM     51  C   UNL     1       5.495  10.918 -13.348  1.00  0.00     0.049 A 
ATOM     52  C   UNL     1       3.434  13.911  -9.113  1.00  0.00     0.074 A 
ATOM     53  C   UNL     1       6.497  11.506 -14.100  1.00  0.00     0.029 A 
ATOM     54  N   UNL     1       5.149  11.829 -12.362  1.00  0.00    -0.354 N 
ATOM     55  N   UNL     1       4.009  13.344 -10.144  1.00  0.00    -0.248 NA
ATOM     56  C   UNL     1       4.017  15.209  -8.744  1.00  0.00     0.031 C 
ATOM     57  C   UNL     1       6.790  12.754 -13.543  1.00  0.00     0.029 A 
ATOM     58  C   UNL     1       5.931  12.967 -12.477  1.00  0.00     0.049 A 
ATOM     59  H   UNL     1       4.452  11.688 -11.681  1.00  0.00     0.167 HD
ATOM     60  C   UNL     1       4.975  14.240 -10.582  1.00  0.00     0.074 A 
ATOM     61  C   UNL     1       4.909  15.389  -9.707  1.00  0.00     0.031 C 
ATOM     62  C   UNL     1       5.834  14.122 -11.623  1.00  0.00     0.037 A 
BRANCH  49  63
ATOM     63  C   UNL     1       5.379   8.761 -14.644  1.00  0.00     0.064 A 
ATOM     64  C   UNL     1       4.581   8.528 -15.775  1.00  0.00     0.173 A 
ATOM     65  C   UNL     1       6.670   8.214 -14.627  1.00  0.00     0.173 A 
ATOM     66  F   UNL     1       3.333   9.018 -15.834  1.00  0.00    -0.203 F 
ATOM     67  C   UNL     1       5.052   7.764 -16.838  1.00  0.00     0.198 A 
ATOM     68  C   UNL     1       7.149   7.476 -15.705  1.00  0.00     0.198 A 
ATOM     69  F   UNL     1       7.474   8.411 -13.571  1.00  0.00    -0.203 F 
ATOM     70  F   UNL     1       4.258   7.521 -17.891  1.00  0.00    -0.200 F 
ATOM     71  C   UNL     1       6.338   7.247 -16.807  1.00  0.00     0.200 A 
ATOM     72  F   UNL     1       8.397   6.988 -15.680  1.00  0.00    -0.200 F 
ATOM     73  F   UNL     1       6.796   6.524 -17.839  1.00  0.00    -0.200 F 
ENDBRANCH  49  63
BRANCH  50  74
ATOM     74  C   UNL     1       1.757  14.256  -7.162  1.00  0.00     0.064 A 
ATOM     75  C   UNL     1       1.176  15.512  -7.385  1.00  0.00     0.173 A 
ATOM     76  C   UNL     1       1.910  13.837  -5.832  1.00  0.00     0.173 A 
ATOM     77  F   UNL     1       1.026  15.967  -8.637  1.00  0.00    -0.203 F 
ATOM     78  C   UNL     1       0.812  16.338  -6.322  1.00  0.00     0.198 A 
ATOM     79  C   UNL     1       1.516  14.651  -4.770  1.00  0.00     0.198 A 
ATOM     80  F   UNL     1       2.455  12.642  -5.561  1.00  0.00    -0.203 F 
ATOM     81  F   UNL     1       0.330  17.564  -6.566  1.00  0.00    -0.200 F 
ATOM     82  C   UNL     1       0.982  15.907  -5.016  1.00  0.00     0.200 A 
ATOM     83  F   UNL     1       1.672  14.226  -3.509  1.00  0.00    -0.200 F 
ATOM     84  F   UNL     1       0.648  16.708  -3.995  1.00  0.00    -0.200 F 
ENDBRANCH  50  74
BRANCH  62  85
ATOM     85  C   UNL     1       6.726  15.292 -11.925  1.00  0.00     0.064 A 
ATOM     86  C   UNL     1       7.789  15.651 -11.085  1.00  0.00     0.173 A 
ATOM     87  C   UNL     1       6.536  16.038 -13.099  1.00  0.00     0.173 A 
ATOM     88  F   UNL     1       8.004  14.980  -9.943  1.00  0.00    -0.203 F 
ATOM     89  C   UNL     1       8.613  16.730 -11.395  1.00  0.00     0.198 A 
ATOM     90  C   UNL     1       7.383  17.094 -13.423  1.00  0.00     0.198 A 
ATOM     91  F   UNL     1       5.537  15.732 -13.941  1.00  0.00    -0.203 F 
ATOM     92  F   UNL     1       9.592  17.087 -10.552  1.00  0.00    -0.200 F 
ATOM     93  C   UNL     1       8.415  17.444 -12.567  1.00  0.00     0.200 A 
ATOM     94  F   UNL     1       7.200  17.771 -14.565  1.00  0.00    -0.200 F 
ATOM     95  F   UNL     1       9.217  18.475 -12.869  1.00  0.00    -0.200 F 
ENDBRANCH  62  85
ENDBRANCH  36  37
ENDBRANCH  28  31
ENDBRANCH  26  27
ENDBRANCH   1  26
TORSDOF 14
