REMARK SMILES O=C(CSc1cccs1)N[C@H]1CCCCC[C@H]1C(=O)NCCCNC(=O)c1ccc(-c2c3nc(c(-c4c(F)c(F)c(F)c(F)c4F)c4ccc([nH]4)c(-c4c(F)c(F)c(F)c(F)c4F)c4nc(c(-c5c(F)c(F)c(F)c(F)c5F)c5ccc2[nH]5)C=C4)C=C3)cc1
REMARK SMILES IDX 18 1 19 2 20 3 17 5 11 6 10 8 1 9 2 10 3 12 4 13 5 14 6 15
REMARK SMILES IDX 9 16 7 17 8 18 16 19 15 20 14 21 13 22 12 23 21 25 22 26
REMARK SMILES IDX 23 27 24 28 25 29 26 31 27 32 28 33 89 34 29 35 88 36 30 37
REMARK SMILES IDX 31 38 32 39 82 40 33 41 87 42 81 43 83 44 34 45 86 46 80 47
REMARK SMILES IDX 79 48 35 50 67 51 47 52 66 53 48 54 51 55 65 56 84 57 49 58
REMARK SMILES IDX 50 59 64 61 85 62 52 63 36 64 37 65 45 66 38 67 39 68 43 69
REMARK SMILES IDX 46 70 40 71 41 72 44 73 42 74 68 75 69 76 77 77 70 78 71 79
REMARK SMILES IDX 75 80 78 81 72 82 73 83 76 84 74 85 53 86 54 87 62 88 55 89
REMARK SMILES IDX 56 90 60 91 63 92 57 93 58 94 61 95 59 96
REMARK H PARENT 20 4 10 11 24 30 83 49 51 60
REMARK Flexibility Score: 90.00
ROOT
ATOM      1  C   UNL     1       0.470   0.264  -4.170  1.00  0.00     0.225 C 
ATOM      2  O   UNL     1       0.096  -0.753  -4.765  1.00  0.00    -0.275 OA
ATOM      3  N   UNL     1       0.585   1.390  -4.932  1.00  0.00    -0.356 N 
ATOM      4  H   UNL     1       1.071   1.306  -5.784  1.00  0.00     0.163 HD
ENDROOT
BRANCH   1   5
ATOM      5  C   UNL     1       0.794   0.204  -2.665  1.00  0.00     0.101 C 
BRANCH   5   6
ATOM      6  C   UNL     1       2.062   0.892  -2.121  1.00  0.00     0.094 CG0
ATOM      7  G   UNL     1       1.919   2.020  -1.083  1.00  0.00     0.000 G0
BRANCH   6   8
ATOM      8  N   UNL     1       3.052   1.153  -3.167  1.00  0.00    -0.352 N 
ATOM      9  O   UNL     1       4.480  -0.533  -2.539  1.00  0.00    -0.274 OA
ATOM     10  C   UNL     1       4.126   0.300  -3.373  1.00  0.00     0.230 C 
ATOM     11  H   UNL     1       2.953   1.950  -3.737  1.00  0.00     0.163 HD
BRANCH  10  12
ATOM     12  C   UNL     1       4.907   0.489  -4.663  1.00  0.00     0.175 C 
BRANCH  12  13
ATOM     13  S   UNL     1       3.862   0.550  -6.144  1.00  0.00    -0.105 SA
BRANCH  13  14
ATOM     14  C   UNL     1       3.343  -1.116  -6.408  1.00  0.00     0.060 A 
ATOM     15  C   UNL     1       3.022  -1.634  -7.649  1.00  0.00     0.027 A 
ATOM     16  S   UNL     1       3.088  -2.280  -5.181  1.00  0.00    -0.137 S 
ATOM     17  C   UNL     1       2.484  -2.954  -7.575  1.00  0.00     0.013 A 
ATOM     18  C   UNL     1       2.430  -3.411  -6.279  1.00  0.00     0.066 A 
ENDBRANCH  13  14
ENDBRANCH  12  13
ENDBRANCH  10  12
ENDBRANCH   6   8
ENDBRANCH   5   6
BRANCH   5  19
ATOM     19  C   UNL     1      -0.421   0.236  -1.736  1.00  0.00     0.015 C 
BRANCH  19  20
ATOM     20  C   UNL     1      -1.233   1.517  -1.681  1.00  0.00     0.001 C 
BRANCH  20  21
ATOM     21  C   UNL     1      -0.584   2.738  -1.024  1.00  0.00     0.000 C 
BRANCH  21  22
ATOM     22  C   UNL     1       0.880   3.106  -1.291  1.00  0.00     0.002 C 
BRANCH  22  23
ATOM     23  C   UNL     1       1.919   2.020  -1.083  1.00  0.00     0.026 CG0
ATOM     24  G   UNL     1       2.062   0.892  -2.121  1.00  0.00     0.000 G0
ENDBRANCH  22  23
ENDBRANCH  21  22
ENDBRANCH  20  21
ENDBRANCH  19  20
ENDBRANCH   5  19
ENDBRANCH   1   5
BRANCH   3  25
ATOM     25  C   UNL     1       0.061   2.689  -4.604  1.00  0.00     0.117 C 
BRANCH  25  26
ATOM     26  C   UNL     1       0.997   3.842  -4.906  1.00  0.00     0.042 C 
BRANCH  26  27
ATOM     27  C   UNL     1       0.677   4.508  -6.228  1.00  0.00     0.118 C 
BRANCH  27  28
ATOM     28  N   UNL     1      -0.591   5.237  -6.176  1.00  0.00    -0.352 N 
ATOM     29  C   UNL     1      -0.861   6.581  -6.104  1.00  0.00     0.251 C 
ATOM     30  H   UNL     1      -1.390   4.663  -6.197  1.00  0.00     0.163 HD
ATOM     31  O   UNL     1      -2.003   6.952  -5.823  1.00  0.00    -0.269 OA
BRANCH  29  32
ATOM     32  C   UNL     1       0.195   7.586  -6.341  1.00  0.00     0.039 A 
ATOM     33  C   UNL     1       0.156   8.810  -5.666  1.00  0.00     0.014 A 
ATOM     34  C   UNL     1       1.219   7.340  -7.253  1.00  0.00     0.014 A 
ATOM     35  C   UNL     1       1.179   9.743  -5.857  1.00  0.00     0.010 A 
ATOM     36  C   UNL     1       2.311   8.190  -7.319  1.00  0.00     0.010 A 
ATOM     37  C   UNL     1       2.289   9.421  -6.654  1.00  0.00    -0.014 A 
BRANCH  37  38
ATOM     38  C   UNL     1       3.416  10.362  -6.871  1.00  0.00     0.031 A 
ATOM     39  C   UNL     1       3.778  10.772  -8.277  1.00  0.00     0.074 A 
ATOM     40  C   UNL     1       4.167  10.769  -5.830  1.00  0.00     0.049 A 
ATOM     41  N   UNL     1       4.807  11.458  -8.705  1.00  0.00    -0.248 NA
ATOM     42  C   UNL     1       2.889  10.302  -9.355  1.00  0.00     0.031 C 
ATOM     43  C   UNL     1       3.954  10.393  -4.431  1.00  0.00     0.029 A 
ATOM     44  N   UNL     1       5.273  11.579  -5.789  1.00  0.00    -0.354 N 
ATOM     45  C   UNL     1       4.705  11.465 -10.091  1.00  0.00     0.074 A 
ATOM     46  C   UNL     1       3.562  10.654 -10.438  1.00  0.00     0.031 C 
ATOM     47  C   UNL     1       4.877  10.998  -3.667  1.00  0.00     0.029 A 
ATOM     48  C   UNL     1       5.775  11.763  -4.524  1.00  0.00     0.049 A 
ATOM     49  H   UNL     1       5.669  11.990  -6.591  1.00  0.00     0.167 HD
ATOM     50  C   UNL     1       5.473  12.121 -10.992  1.00  0.00     0.037 A 
ATOM     51  C   UNL     1       6.847  12.464  -4.108  1.00  0.00     0.037 A 
ATOM     52  C   UNL     1       6.574  12.971 -10.633  1.00  0.00     0.049 A 
ATOM     53  C   UNL     1       7.674  13.200  -5.128  1.00  0.00     0.074 A 
ATOM     54  C   UNL     1       7.373  13.743 -11.457  1.00  0.00     0.029 A 
ATOM     55  N   UNL     1       7.026  13.166  -9.336  1.00  0.00    -0.354 N 
ATOM     56  N   UNL     1       7.528  13.256  -6.430  1.00  0.00    -0.248 NA
ATOM     57  C   UNL     1       8.812  13.977  -4.619  1.00  0.00     0.031 C 
ATOM     58  C   UNL     1       8.341  14.367 -10.663  1.00  0.00     0.029 A 
ATOM     59  C   UNL     1       8.107  14.031  -9.338  1.00  0.00     0.049 A 
ATOM     60  H   UNL     1       6.636  12.751  -8.533  1.00  0.00     0.167 HD
ATOM     61  C   UNL     1       8.531  14.097  -6.892  1.00  0.00     0.074 A 
ATOM     62  C   UNL     1       9.270  14.540  -5.728  1.00  0.00     0.031 C 
ATOM     63  C   UNL     1       8.816  14.470  -8.164  1.00  0.00     0.037 A 
BRANCH  50  64
ATOM     64  C   UNL     1       5.137  11.955 -12.448  1.00  0.00     0.064 A 
ATOM     65  C   UNL     1       3.948  12.463 -12.996  1.00  0.00     0.173 A 
ATOM     66  C   UNL     1       6.026  11.300 -13.314  1.00  0.00     0.173 A 
ATOM     67  F   UNL     1       3.054  13.085 -12.211  1.00  0.00    -0.203 F 
ATOM     68  C   UNL     1       3.646  12.289 -14.344  1.00  0.00     0.198 A 
ATOM     69  C   UNL     1       5.738  11.162 -14.669  1.00  0.00     0.198 A 
ATOM     70  F   UNL     1       7.179  10.798 -12.847  1.00  0.00    -0.203 F 
ATOM     71  F   UNL     1       2.475  12.728 -14.828  1.00  0.00    -0.200 F 
ATOM     72  C   UNL     1       4.544  11.646 -15.181  1.00  0.00     0.200 A 
ATOM     73  F   UNL     1       6.614  10.553 -15.480  1.00  0.00    -0.200 F 
ATOM     74  F   UNL     1       4.256  11.487 -16.480  1.00  0.00    -0.200 F 
ENDBRANCH  50  64
BRANCH  51  75
ATOM     75  C   UNL     1       7.178  12.531  -2.660  1.00  0.00     0.064 A 
ATOM     76  C   UNL     1       7.044  13.731  -1.947  1.00  0.00     0.173 A 
ATOM     77  C   UNL     1       7.637  11.406  -1.959  1.00  0.00     0.173 A 
ATOM     78  F   UNL     1       6.624  14.839  -2.575  1.00  0.00    -0.203 F 
ATOM     79  C   UNL     1       7.381  13.810  -0.597  1.00  0.00     0.198 A 
ATOM     80  C   UNL     1       7.944  11.479  -0.601  1.00  0.00     0.198 A 
ATOM     81  F   UNL     1       7.775  10.231  -2.590  1.00  0.00    -0.203 F 
ATOM     82  F   UNL     1       7.291  14.983   0.046  1.00  0.00    -0.200 F 
ATOM     83  C   UNL     1       7.825  12.683   0.076  1.00  0.00     0.200 A 
ATOM     84  F   UNL     1       8.356  10.382   0.050  1.00  0.00    -0.200 F 
ATOM     85  F   UNL     1       8.146  12.758   1.375  1.00  0.00    -0.200 F 
ENDBRANCH  51  75
BRANCH  63  86
ATOM     86  C   UNL     1       9.945  15.440  -8.360  1.00  0.00     0.064 A 
ATOM     87  C   UNL     1      11.283  15.064  -8.172  1.00  0.00     0.173 A 
ATOM     88  C   UNL     1       9.684  16.750  -8.791  1.00  0.00     0.173 A 
ATOM     89  F   UNL     1      11.584  13.827  -7.749  1.00  0.00    -0.203 F 
ATOM     90  C   UNL     1      12.316  15.973  -8.382  1.00  0.00     0.198 A 
ATOM     91  C   UNL     1      10.721  17.645  -9.033  1.00  0.00     0.198 A 
ATOM     92  F   UNL     1       8.421  17.155  -8.994  1.00  0.00    -0.203 F 
ATOM     93  F   UNL     1      13.584  15.607  -8.148  1.00  0.00    -0.200 F 
ATOM     94  C   UNL     1      12.035  17.258  -8.821  1.00  0.00     0.200 A 
ATOM     95  F   UNL     1      10.448  18.880  -9.474  1.00  0.00    -0.200 F 
ATOM     96  F   UNL     1      13.032  18.128  -9.033  1.00  0.00    -0.200 F 
ENDBRANCH  63  86
ENDBRANCH  37  38
ENDBRANCH  29  32
ENDBRANCH  27  28
ENDBRANCH  26  27
ENDBRANCH  25  26
ENDBRANCH   3  25
TORSDOF 14
