REMARK SMILES Cc1ccc(-c2c(C)sc(NC(=O)[C@H]3CC=CC[C@H]3C(=O)NCCCNC(=O)c3ccc(-c4c5nc(c(-c6c(F)c(F)c(F)c(F)c6F)c6ccc([nH]6)c(-c6c(F)c(F)c(F)c(F)c6F)c6nc(c(-c7c(F)c(F)c(F)c(F)c7F)c7ccc4[nH]7)C=C6)C=C5)cc3)c2C(N)=O)cc1
REMARK SMILES IDX 23 1 22 2 20 3 21 4 19 6 14 7 15 8 16 9 18 10 17 11 12 12
REMARK SMILES IDX 11 13 13 15 10 16 6 17 7 18 92 19 8 20 9 21 5 22 1 23 2 24
REMARK SMILES IDX 3 25 97 26 4 27 96 28 93 29 94 30 95 31 24 34 25 35 26 36
REMARK SMILES IDX 27 37 28 39 29 40 30 41 91 42 31 43 90 44 32 45 33 46 34 47
REMARK SMILES IDX 84 48 35 49 89 50 83 51 85 52 36 53 88 54 82 55 81 56 37 58
REMARK SMILES IDX 69 59 49 60 68 61 50 62 53 63 67 64 86 65 51 66 52 67 66 69
REMARK SMILES IDX 87 70 54 71 38 72 39 73 47 74 40 75 41 76 45 77 48 78 42 79
REMARK SMILES IDX 43 80 46 81 44 82 70 83 71 84 79 85 72 86 73 87 77 88 80 89
REMARK SMILES IDX 74 90 75 91 78 92 76 93 55 94 56 95 64 96 57 97 58 98 62 99
REMARK SMILES IDX 65 100 59 101 60 102 63 103 61 104
REMARK H PARENT 22 5 11 14 94 32 94 33 26 38 85 57 53 68
REMARK Flexibility Score: inf
ROOT
ATOM      1  C   UNL     1      -7.423  -3.175   0.900  1.00  0.00     0.117 C 
ENDROOT
BRANCH   1   2
ATOM      2  N   UNL     1      -8.515  -3.194  -0.040  1.00  0.00    -0.356 N 
ATOM      3  C   UNL     1      -9.028  -2.171  -0.764  1.00  0.00     0.224 C 
ATOM      4  O   UNL     1     -10.178  -2.323  -1.189  1.00  0.00    -0.275 OA
ATOM      5  H   UNL     1      -8.946  -4.069  -0.173  1.00  0.00     0.163 HD
BRANCH   3   6
ATOM      6  C   UNL     1      -8.239  -0.916  -1.110  1.00  0.00     0.095 C 
ATOM      7  C   UNL     1      -8.236   0.304  -0.165  1.00  0.00     0.095 C 
ATOM      8  C   UNL     1      -7.922   1.566  -0.996  1.00  0.00     0.041 C 
ATOM      9  C   UNL     1      -6.956   1.337  -2.141  1.00  0.00    -0.030 C 
ATOM     10  C   UNL     1      -6.920  -1.147  -1.837  1.00  0.00     0.041 C 
ATOM     11  C   UNL     1      -6.474   0.131  -2.489  1.00  0.00    -0.030 C 
BRANCH   7  12
ATOM     12  C   UNL     1      -7.619   0.276   1.264  1.00  0.00     0.229 C 
ATOM     13  N   UNL     1      -6.341   0.011   1.671  1.00  0.00    -0.317 N 
ATOM     14  H   UNL     1      -6.285  -0.377   2.574  1.00  0.00     0.170 HD
ATOM     15  O   UNL     1      -8.409   0.432   2.216  1.00  0.00    -0.274 OA
BRANCH  13  16
ATOM     16  C   UNL     1      -5.117   0.183   1.063  1.00  0.00     0.109 A 
ATOM     17  C   UNL     1      -2.907   0.213   0.319  1.00  0.00     0.010 A 
ATOM     18  C   UNL     1      -3.542   1.094  -0.544  1.00  0.00     0.012 A 
ATOM     19  C   UNL     1      -3.844  -0.346   1.305  1.00  0.00     0.082 A 
ATOM     20  C   UNL     1      -3.126   1.703  -1.840  1.00  0.00     0.057 C 
ATOM     21  S   UNL     1      -4.961   1.634   0.197  1.00  0.00    -0.122 S 
BRANCH  17  22
ATOM     22  C   UNL     1      -1.461   0.044   0.210  1.00  0.00    -0.016 A 
ATOM     23  C   UNL     1       2.831  -0.202  -0.085  1.00  0.00     0.044 C 
ATOM     24  C   UNL     1       1.337  -0.116  -0.006  1.00  0.00    -0.051 A 
ATOM     25  C   UNL     1       0.545  -1.272  -0.091  1.00  0.00     0.004 A 
ATOM     26  C   UNL     1       0.720   1.119   0.195  1.00  0.00     0.004 A 
ATOM     27  C   UNL     1      -0.850  -1.193   0.004  1.00  0.00     0.009 A 
ATOM     28  C   UNL     1      -0.662   1.193   0.319  1.00  0.00     0.009 A 
ENDBRANCH  17  22
BRANCH  19  29
ATOM     29  C   UNL     1      -3.427  -1.310   2.342  1.00  0.00     0.252 C 
ATOM     30  N   UNL     1      -4.399  -1.940   3.066  1.00  0.00    -0.365 N 
ATOM     31  O   UNL     1      -2.272  -1.590   2.597  1.00  0.00    -0.269 OA
ATOM     32  H   UNL     1      -5.348  -1.743   2.892  1.00  0.00     0.159 HD
ATOM     33  H   UNL     1      -4.151  -2.590   3.762  1.00  0.00     0.159 HD
ENDBRANCH  19  29
ENDBRANCH  13  16
ENDBRANCH   7  12
ENDBRANCH   3   6
ENDBRANCH   1   2
BRANCH   1  34
ATOM     34  C   UNL     1      -7.940  -2.667   2.228  1.00  0.00     0.042 C 
BRANCH  34  35
ATOM     35  C   UNL     1      -8.472  -3.740   3.131  1.00  0.00     0.118 C 
BRANCH  35  36
ATOM     36  N   UNL     1      -7.436  -4.418   3.894  1.00  0.00    -0.352 N 
ATOM     37  C   UNL     1      -7.546  -5.168   5.051  1.00  0.00     0.251 C 
ATOM     38  H   UNL     1      -6.524  -4.330   3.534  1.00  0.00     0.163 HD
ATOM     39  O   UNL     1      -6.525  -5.528   5.628  1.00  0.00    -0.269 OA
BRANCH  37  40
ATOM     40  C   UNL     1      -8.868  -5.722   5.452  1.00  0.00     0.039 A 
ATOM     41  C   UNL     1      -8.876  -7.087   5.769  1.00  0.00     0.014 A 
ATOM     42  C   UNL     1     -10.030  -5.115   5.014  1.00  0.00     0.014 A 
ATOM     43  C   UNL     1      -9.918  -7.877   5.307  1.00  0.00     0.010 A 
ATOM     44  C   UNL     1     -10.907  -5.897   4.319  1.00  0.00     0.010 A 
ATOM     45  C   UNL     1     -10.830  -7.284   4.450  1.00  0.00    -0.014 A 
BRANCH  45  46
ATOM     46  C   UNL     1     -11.882  -7.966   3.740  1.00  0.00     0.031 A 
ATOM     47  C   UNL     1     -13.230  -7.844   4.323  1.00  0.00     0.074 A 
ATOM     48  C   UNL     1     -11.633  -8.411   2.489  1.00  0.00     0.049 A 
ATOM     49  N   UNL     1     -14.243  -8.518   3.928  1.00  0.00    -0.248 NA
ATOM     50  C   UNL     1     -13.549  -6.942   5.432  1.00  0.00     0.031 C 
ATOM     51  C   UNL     1     -12.595  -8.730   1.441  1.00  0.00     0.029 A 
ATOM     52  N   UNL     1     -10.401  -8.836   1.960  1.00  0.00    -0.354 N 
ATOM     53  C   UNL     1     -15.368  -7.963   4.498  1.00  0.00     0.074 A 
ATOM     54  C   UNL     1     -14.881  -7.023   5.472  1.00  0.00     0.031 C 
ATOM     55  C   UNL     1     -12.021  -9.572   0.564  1.00  0.00     0.029 A 
ATOM     56  C   UNL     1     -10.726  -9.928   1.115  1.00  0.00     0.049 A 
ATOM     57  H   UNL     1      -9.509  -8.458   2.136  1.00  0.00     0.167 HD
ATOM     58  C   UNL     1     -16.571  -8.303   3.962  1.00  0.00     0.037 A 
ATOM     59  C   UNL     1     -10.347 -11.199   1.450  1.00  0.00     0.037 A 
ATOM     60  C   UNL     1     -16.369  -9.310   2.927  1.00  0.00     0.049 A 
ATOM     61  C   UNL     1     -11.528 -12.114   1.673  1.00  0.00     0.074 A 
ATOM     62  C   UNL     1     -16.219  -9.223   1.552  1.00  0.00     0.029 A 
ATOM     63  N   UNL     1     -15.880 -10.552   3.303  1.00  0.00    -0.354 N 
ATOM     64  N   UNL     1     -12.708 -11.701   2.052  1.00  0.00    -0.248 NA
ATOM     65  C   UNL     1     -11.493 -13.550   1.424  1.00  0.00     0.031 C 
ATOM     66  C   UNL     1     -15.610 -10.424   1.106  1.00  0.00     0.029 A 
ATOM     67  C   UNL     1     -15.407 -11.240   2.207  1.00  0.00     0.049 A 
ATOM     68  H   UNL     1     -15.871 -10.895   4.226  1.00  0.00     0.167 HD
ATOM     69  C   UNL     1     -13.587 -12.757   2.054  1.00  0.00     0.074 A 
ATOM     70  C   UNL     1     -12.773 -13.892   1.661  1.00  0.00     0.031 C 
ATOM     71  C   UNL     1     -14.914 -12.599   2.354  1.00  0.00     0.037 A 
BRANCH  58  72
ATOM     72  C   UNL     1     -17.887  -7.607   4.190  1.00  0.00     0.064 A 
ATOM     73  C   UNL     1     -18.904  -7.696   3.212  1.00  0.00     0.173 A 
ATOM     74  C   UNL     1     -18.219  -6.835   5.318  1.00  0.00     0.173 A 
ATOM     75  F   UNL     1     -18.750  -8.429   2.102  1.00  0.00    -0.203 F 
ATOM     76  C   UNL     1     -20.124  -7.028   3.330  1.00  0.00     0.198 A 
ATOM     77  C   UNL     1     -19.428  -6.137   5.419  1.00  0.00     0.198 A 
ATOM     78  F   UNL     1     -17.416  -6.767   6.385  1.00  0.00    -0.203 F 
ATOM     79  F   UNL     1     -21.047  -7.159   2.366  1.00  0.00    -0.200 F 
ATOM     80  C   UNL     1     -20.380  -6.234   4.425  1.00  0.00     0.200 A 
ATOM     81  F   UNL     1     -19.666  -5.376   6.497  1.00  0.00    -0.200 F 
ATOM     82  F   UNL     1     -21.545  -5.582   4.533  1.00  0.00    -0.200 F 
ENDBRANCH  58  72
BRANCH  59  83
ATOM     83  C   UNL     1      -9.043 -11.207   2.178  1.00  0.00     0.064 A 
ATOM     84  C   UNL     1      -7.928 -10.712   1.467  1.00  0.00     0.173 A 
ATOM     85  C   UNL     1      -8.988 -11.156   3.576  1.00  0.00     0.173 A 
ATOM     86  F   UNL     1      -7.915 -10.765   0.125  1.00  0.00    -0.203 F 
ATOM     87  C   UNL     1      -6.918 -10.001   2.112  1.00  0.00     0.198 A 
ATOM     88  C   UNL     1      -7.945 -10.482   4.221  1.00  0.00     0.198 A 
ATOM     89  F   UNL     1     -10.007 -11.621   4.313  1.00  0.00    -0.203 F 
ATOM     90  F   UNL     1      -5.975  -9.377   1.390  1.00  0.00    -0.200 F 
ATOM     91  C   UNL     1      -6.952  -9.850   3.486  1.00  0.00     0.200 A 
ATOM     92  F   UNL     1      -7.961 -10.348   5.555  1.00  0.00    -0.200 F 
ATOM     93  F   UNL     1      -6.059  -9.057   4.096  1.00  0.00    -0.200 F 
ENDBRANCH  59  83
BRANCH  71  94
ATOM     94  C   UNL     1     -15.923 -13.671   2.737  1.00  0.00     0.064 A 
ATOM     95  C   UNL     1     -15.589 -14.975   3.127  1.00  0.00     0.173 A 
ATOM     96  C   UNL     1     -17.302 -13.344   2.886  1.00  0.00     0.173 A 
ATOM     97  F   UNL     1     -14.322 -15.401   3.154  1.00  0.00    -0.203 F 
ATOM     98  C   UNL     1     -16.552 -15.888   3.575  1.00  0.00     0.198 A 
ATOM     99  C   UNL     1     -18.241 -14.227   3.413  1.00  0.00     0.198 A 
ATOM    100  F   UNL     1     -17.793 -12.140   2.559  1.00  0.00    -0.203 F 
ATOM    101  F   UNL     1     -16.179 -17.138   3.883  1.00  0.00    -0.200 F 
ATOM    102  C   UNL     1     -17.870 -15.510   3.739  1.00  0.00     0.200 A 
ATOM    103  F   UNL     1     -19.499 -13.813   3.624  1.00  0.00    -0.200 F 
ATOM    104  F   UNL     1     -18.771 -16.370   4.228  1.00  0.00    -0.200 F 
ENDBRANCH  71  94
ENDBRANCH  45  46
ENDBRANCH  37  40
ENDBRANCH  35  36
ENDBRANCH  34  35
ENDBRANCH   1  34
TORSDOF 14
