REMARK SMILES Cc1cccc(Cl)c1Nc1ccccc1CC(=O)NCCCNC(=O)c1ccc(-c2c3nc(c(-c4c(F)c(F)c(F)c(F)c4F)c4ccc([nH]4)c(-c4c(F)c(F)c(F)c(F)c4F)c4nc(c(-c5c(F)c(F)c(F)c(F)c5F)c5ccc2[nH]5)C=C4)C=C3)cc1
REMARK SMILES IDX 20 1 19 2 17 3 18 4 16 6 15 7 10 8 11 9 12 10 14 11 13 12
REMARK SMILES IDX 9 13 8 15 1 16 2 17 3 18 4 19 6 20 5 21 7 22 21 23 22 24
REMARK SMILES IDX 23 25 24 26 25 28 26 29 27 30 88 31 28 32 87 33 29 34 30 35
REMARK SMILES IDX 31 36 81 37 32 38 86 39 80 40 82 41 33 42 85 43 79 44 78 45
REMARK SMILES IDX 34 47 66 48 46 49 65 50 47 51 50 52 64 53 83 54 48 55 49 56
REMARK SMILES IDX 63 58 84 59 51 60 35 61 36 62 44 63 37 64 38 65 42 66 45 67
REMARK SMILES IDX 39 68 40 69 43 70 41 71 67 72 68 73 76 74 69 75 70 76 74 77
REMARK SMILES IDX 77 78 71 79 72 80 75 81 73 82 52 83 53 84 61 85 54 86 55 87
REMARK SMILES IDX 59 88 62 89 56 90 57 91 60 92 58 93
REMARK H PARENT 19 5 9 14 23 27 82 46 50 57
REMARK Flexibility Score: inf
ROOT
ATOM      1  C   UNL     1      -0.060   3.639  -2.837  1.00  0.00     0.117 C 
ENDROOT
BRANCH   1   2
ATOM      2  N   UNL     1       0.941   3.061  -3.712  1.00  0.00    -0.356 N 
ATOM      3  C   UNL     1       1.872   2.105  -3.418  1.00  0.00     0.224 C 
ATOM      4  O   UNL     1       2.704   1.816  -4.280  1.00  0.00    -0.275 OA
ATOM      5  H   UNL     1       0.952   3.401  -4.636  1.00  0.00     0.163 HD
BRANCH   3   6
ATOM      6  C   UNL     1       1.838   1.405  -2.069  1.00  0.00     0.137 C 
BRANCH   6   7
ATOM      7  C   UNL     1       2.332   2.260  -0.920  1.00  0.00    -0.015 A 
ATOM      8  C   UNL     1       1.561   2.543   0.228  1.00  0.00     0.042 A 
ATOM      9  C   UNL     1       2.087   3.426   1.191  1.00  0.00     0.026 A 
ATOM     10  C   UNL     1       3.353   3.995   1.047  1.00  0.00     0.002 A 
ATOM     11  C   UNL     1       3.622   2.823  -1.035  1.00  0.00     0.006 A 
ATOM     12  C   UNL     1       4.126   3.683  -0.062  1.00  0.00     0.000 A 
BRANCH   8  13
ATOM     13  N   UNL     1       0.311   1.958   0.520  1.00  0.00    -0.354 N 
ATOM     14  H   UNL     1      -0.356   2.598   0.859  1.00  0.00     0.167 HD
BRANCH  13  15
ATOM     15  C   UNL     1      -0.171   0.630   0.419  1.00  0.00     0.060 A 
ATOM     16  C   UNL     1      -2.506   1.598   0.005  1.00  0.00     0.046 C 
ATOM     17  C   UNL     1      -1.550   0.439   0.132  1.00  0.00    -0.026 A 
ATOM     18  C   UNL     1      -2.054  -0.857  -0.080  1.00  0.00     0.005 A 
ATOM     19  C   UNL     1      -1.222  -1.968   0.001  1.00  0.00     0.002 A 
ATOM     20  C   UNL     1       0.645  -0.520   0.531  1.00  0.00     0.064 A 
ATOM     21  C   UNL     1       0.121  -1.801   0.314  1.00  0.00     0.023 A 
ATOM     22  Cl  UNL     1       2.299  -0.465   1.046  1.00  0.00    -0.082 Cl
ENDBRANCH  13  15
ENDBRANCH   8  13
ENDBRANCH   6   7
ENDBRANCH   3   6
ENDBRANCH   1   2
BRANCH   1  23
ATOM     23  C   UNL     1       0.388   4.979  -2.260  1.00  0.00     0.042 C 
BRANCH  23  24
ATOM     24  C   UNL     1       0.497   6.089  -3.299  1.00  0.00     0.118 C 
BRANCH  24  25
ATOM     25  N   UNL     1      -0.792   6.437  -3.878  1.00  0.00    -0.352 N 
ATOM     26  C   UNL     1      -1.409   7.656  -3.990  1.00  0.00     0.251 C 
ATOM     27  H   UNL     1      -1.300   5.678  -4.246  1.00  0.00     0.163 HD
ATOM     28  O   UNL     1      -2.587   7.707  -4.343  1.00  0.00    -0.269 OA
BRANCH  26  29
ATOM     29  C   UNL     1      -0.683   8.906  -3.682  1.00  0.00     0.039 A 
ATOM     30  C   UNL     1      -1.364   9.930  -3.017  1.00  0.00     0.014 A 
ATOM     31  C   UNL     1       0.641   9.097  -4.085  1.00  0.00     0.014 A 
ATOM     32  C   UNL     1      -0.706  11.124  -2.717  1.00  0.00     0.010 A 
ATOM     33  C   UNL     1       1.319  10.258  -3.722  1.00  0.00     0.010 A 
ATOM     34  C   UNL     1       0.649  11.289  -3.045  1.00  0.00    -0.014 A 
BRANCH  34  35
ATOM     35  C   UNL     1       1.376  12.539  -2.710  1.00  0.00     0.031 A 
ATOM     36  C   UNL     1       1.902  13.421  -3.809  1.00  0.00     0.074 A 
ATOM     37  C   UNL     1       1.614  12.849  -1.421  1.00  0.00     0.049 A 
ATOM     38  N   UNL     1       2.631  14.505  -3.725  1.00  0.00    -0.248 NA
ATOM     39  C   UNL     1       1.589  13.015  -5.189  1.00  0.00     0.031 C 
ATOM     40  C   UNL     1       1.190  12.054  -0.268  1.00  0.00     0.029 A 
ATOM     41  N   UNL     1       2.283  13.910  -0.864  1.00  0.00    -0.354 N 
ATOM     42  C   UNL     1       2.880  14.896  -5.035  1.00  0.00     0.074 A 
ATOM     43  C   UNL     1       2.265  13.910  -5.896  1.00  0.00     0.031 C 
ATOM     44  C   UNL     1       1.594  12.663   0.859  1.00  0.00     0.029 A 
ATOM     45  C   UNL     1       2.337  13.869   0.507  1.00  0.00     0.049 A 
ATOM     46  H   UNL     1       2.687  14.633  -1.398  1.00  0.00     0.167 HD
ATOM     47  C   UNL     1       3.543  15.990  -5.478  1.00  0.00     0.037 A 
ATOM     48  C   UNL     1       2.930  14.705   1.381  1.00  0.00     0.037 A 
ATOM     49  C   UNL     1       4.123  16.988  -4.618  1.00  0.00     0.049 A 
ATOM     50  C   UNL     1       3.658  15.915   0.860  1.00  0.00     0.074 A 
ATOM     51  C   UNL     1       4.762  18.164  -4.969  1.00  0.00     0.029 A 
ATOM     52  N   UNL     1       4.133  16.926  -3.232  1.00  0.00    -0.354 N 
ATOM     53  N   UNL     1       3.830  16.309  -0.378  1.00  0.00    -0.248 NA
ATOM     54  C   UNL     1       4.269  16.802   1.860  1.00  0.00     0.031 C 
ATOM     55  C   UNL     1       5.196  18.793  -3.798  1.00  0.00     0.029 A 
ATOM     56  C   UNL     1       4.782  18.035  -2.715  1.00  0.00     0.049 A 
ATOM     57  H   UNL     1       3.737  16.201  -2.696  1.00  0.00     0.167 HD
ATOM     58  C   UNL     1       4.535  17.502  -0.305  1.00  0.00     0.074 A 
ATOM     59  C   UNL     1       4.748  17.776   1.100  1.00  0.00     0.031 C 
ATOM     60  C   UNL     1       4.968  18.301  -1.311  1.00  0.00     0.037 A 
BRANCH  47  61
ATOM     61  C   UNL     1       3.675  16.174  -6.962  1.00  0.00     0.064 A 
ATOM     62  C   UNL     1       2.572  16.509  -7.763  1.00  0.00     0.173 A 
ATOM     63  C   UNL     1       4.928  16.067  -7.584  1.00  0.00     0.173 A 
ATOM     64  F   UNL     1       1.350  16.613  -7.219  1.00  0.00    -0.203 F 
ATOM     65  C   UNL     1       2.715  16.705  -9.134  1.00  0.00     0.198 A 
ATOM     66  C   UNL     1       5.072  16.293  -8.950  1.00  0.00     0.198 A 
ATOM     67  F   UNL     1       6.016  15.756  -6.864  1.00  0.00    -0.203 F 
ATOM     68  F   UNL     1       1.640  16.981  -9.885  1.00  0.00    -0.200 F 
ATOM     69  C   UNL     1       3.966  16.605  -9.725  1.00  0.00     0.200 A 
ATOM     70  F   UNL     1       6.284  16.210  -9.518  1.00  0.00    -0.200 F 
ATOM     71  F   UNL     1       4.103  16.806 -11.043  1.00  0.00    -0.200 F 
ENDBRANCH  47  61
BRANCH  48  72
ATOM     72  C   UNL     1       2.844  14.443   2.842  1.00  0.00     0.064 A 
ATOM     73  C   UNL     1       2.102  15.286   3.682  1.00  0.00     0.173 A 
ATOM     74  C   UNL     1       3.517  13.363   3.432  1.00  0.00     0.173 A 
ATOM     75  F   UNL     1       1.458  16.343   3.167  1.00  0.00    -0.203 F 
ATOM     76  C   UNL     1       2.059  15.075   5.058  1.00  0.00     0.198 A 
ATOM     77  C   UNL     1       3.448  13.136   4.805  1.00  0.00     0.198 A 
ATOM     78  F   UNL     1       4.236  12.523   2.673  1.00  0.00    -0.203 F 
ATOM     79  F   UNL     1       1.386  15.928   5.843  1.00  0.00    -0.200 F 
ATOM     80  C   UNL     1       2.728  13.998   5.618  1.00  0.00     0.200 A 
ATOM     81  F   UNL     1       4.084  12.085   5.341  1.00  0.00    -0.200 F 
ATOM     82  F   UNL     1       2.688  13.796   6.942  1.00  0.00    -0.200 F 
ENDBRANCH  48  72
BRANCH  60  83
ATOM     83  C   UNL     1       5.670  19.571  -0.930  1.00  0.00     0.064 A 
ATOM     84  C   UNL     1       6.967  19.566  -0.397  1.00  0.00     0.173 A 
ATOM     85  C   UNL     1       5.049  20.812  -1.140  1.00  0.00     0.173 A 
ATOM     86  F   UNL     1       7.596  18.405  -0.163  1.00  0.00    -0.203 F 
ATOM     87  C   UNL     1       7.607  20.757  -0.064  1.00  0.00     0.198 A 
ATOM     88  C   UNL     1       5.704  22.002  -0.835  1.00  0.00     0.198 A 
ATOM     89  F   UNL     1       3.812  20.871  -1.654  1.00  0.00    -0.203 F 
ATOM     90  F   UNL     1       8.827  20.727   0.489  1.00  0.00    -0.200 F 
ATOM     91  C   UNL     1       6.979  21.973  -0.290  1.00  0.00     0.200 A 
ATOM     92  F   UNL     1       5.101  23.175  -1.068  1.00  0.00    -0.200 F 
ATOM     93  F   UNL     1       7.600  23.118   0.024  1.00  0.00    -0.200 F 
ENDBRANCH  60  83
ENDBRANCH  34  35
ENDBRANCH  26  29
ENDBRANCH  24  25
ENDBRANCH  23  24
ENDBRANCH   1  23
TORSDOF 13
