REMARK SMILES C[C@@H]1[C@@H](C(=O)NCCCNC(=O)c2ccc(-c3c4nc(c(-c5c(F)c(F)c(F)c(F)c5F)c5ccc([nH]5)c(-c5c(F)c(F)c(F)c(F)c5F)c5nc(c(-c6c(F)c(F)c(F)c(F)c6F)c6ccc3[nH]6)C=C5)C=C4)cc2)CCN1c1ccc(C(F)(F)F)cc1C#N
REMARK SMILES IDX 8 1 7 2 6 3 4 4 5 5 3 7 1 8 2 9 78 10 76 11 77 12 79 13
REMARK SMILES IDX 80 14 88 15 81 16 87 17 82 18 89 19 90 20 83 21 84 22 85 23
REMARK SMILES IDX 86 24 9 25 10 26 11 27 12 29 13 30 14 31 75 32 15 33 74 34
REMARK SMILES IDX 16 35 17 36 18 37 68 38 19 39 73 40 67 41 69 42 20 43 72 44
REMARK SMILES IDX 66 45 65 46 21 48 53 49 33 50 52 51 34 52 37 53 51 54 70 55
REMARK SMILES IDX 35 56 36 57 50 59 71 60 38 61 22 62 23 63 31 64 24 65 25 66
REMARK SMILES IDX 29 67 32 68 26 69 27 70 30 71 28 72 54 73 55 74 63 75 56 76
REMARK SMILES IDX 57 77 61 78 64 79 58 80 59 81 62 82 60 83 39 84 40 85 48 86
REMARK SMILES IDX 41 87 42 88 46 89 49 90 43 91 44 92 47 93 45 94
REMARK H PARENT 6 6 10 28 69 47 37 58
REMARK Flexibility Score: inf
ROOT
ATOM      1  C   UNL     1      -2.981   4.179  -1.193  1.00  0.00     0.042 C 
ENDROOT
BRANCH   1   2
ATOM      2  C   UNL     1      -2.639   2.753  -0.813  1.00  0.00     0.117 C 
BRANCH   2   3
ATOM      3  N   UNL     1      -1.901   2.040  -1.835  1.00  0.00    -0.356 N 
ATOM      4  C   UNL     1      -0.856   1.175  -1.708  1.00  0.00     0.225 C 
ATOM      5  O   UNL     1      -0.429   0.671  -2.747  1.00  0.00    -0.275 OA
ATOM      6  H   UNL     1      -2.199   2.204  -2.759  1.00  0.00     0.163 HD
BRANCH   4   7
ATOM      7  C   UNL     1      -0.213   0.954  -0.345  1.00  0.00     0.102 C 
ATOM      8  C   UNL     1       2.045   0.179   0.456  1.00  0.00     0.032 C 
ATOM      9  C   UNL     1       0.842  -0.186  -0.412  1.00  0.00     0.091 C 
ATOM     10  N   UNL     1       0.127  -1.360   0.140  1.00  0.00    -0.367 N 
ATOM     11  C   UNL     1      -1.162   0.467   0.756  1.00  0.00     0.037 C 
ATOM     12  C   UNL     1      -1.241  -1.022   0.506  1.00  0.00     0.118 C 
BRANCH  10  13
ATOM     13  C   UNL     1       0.378  -2.660  -0.264  1.00  0.00     0.055 A 
ATOM     14  C   UNL     1      -0.408  -3.259  -1.266  1.00  0.00     0.028 A 
ATOM     15  C   UNL     1       1.330  -3.468   0.384  1.00  0.00     0.076 A 
ATOM     16  C   UNL     1      -0.303  -4.620  -1.570  1.00  0.00     0.015 A 
ATOM     17  C   UNL     1       1.452  -4.831   0.060  1.00  0.00     0.034 A 
ATOM     18  C   UNL     1       0.623  -5.425  -0.900  1.00  0.00     0.057 A 
BRANCH  15  19
ATOM     19  C   UNL     1       2.145  -2.966   1.453  1.00  0.00     0.101 C 
ATOM     20  N   UNL     1       2.830  -2.611   2.323  1.00  0.00    -0.192 NA
ENDBRANCH  15  19
BRANCH  18  21
ATOM     21  C   UNL     1       0.685  -6.906  -1.177  1.00  0.00     0.416 C 
ATOM     22  F   UNL     1      -0.450  -7.550  -0.788  1.00  0.00    -0.166 F 
ATOM     23  F   UNL     1       0.843  -7.187  -2.499  1.00  0.00    -0.166 F 
ATOM     24  F   UNL     1       1.708  -7.534  -0.535  1.00  0.00    -0.166 F 
ENDBRANCH  18  21
ENDBRANCH  10  13
ENDBRANCH   4   7
ENDBRANCH   2   3
ENDBRANCH   1   2
BRANCH   1  25
ATOM     25  C   UNL     1      -3.739   4.321  -2.500  1.00  0.00     0.118 C 
BRANCH  25  26
ATOM     26  N   UNL     1      -5.060   3.707  -2.477  1.00  0.00    -0.352 N 
ATOM     27  C   UNL     1      -6.309   4.282  -2.501  1.00  0.00     0.251 C 
ATOM     28  H   UNL     1      -5.058   2.723  -2.438  1.00  0.00     0.163 HD
ATOM     29  O   UNL     1      -7.306   3.589  -2.324  1.00  0.00    -0.269 OA
BRANCH  27  30
ATOM     30  C   UNL     1      -6.451   5.742  -2.694  1.00  0.00     0.039 A 
ATOM     31  C   UNL     1      -7.371   6.445  -1.912  1.00  0.00     0.014 A 
ATOM     32  C   UNL     1      -5.663   6.423  -3.622  1.00  0.00     0.014 A 
ATOM     33  C   UNL     1      -7.426   7.838  -1.996  1.00  0.00     0.010 A 
ATOM     34  C   UNL     1      -5.627   7.812  -3.610  1.00  0.00     0.010 A 
ATOM     35  C   UNL     1      -6.515   8.537  -2.804  1.00  0.00    -0.014 A 
BRANCH  35  36
ATOM     36  C   UNL     1      -6.481  10.022  -2.837  1.00  0.00     0.031 A 
ATOM     37  C   UNL     1      -6.708  10.752  -4.134  1.00  0.00     0.074 A 
ATOM     38  C   UNL     1      -6.177  10.712  -1.719  1.00  0.00     0.049 A 
ATOM     39  N   UNL     1      -6.641  12.035  -4.387  1.00  0.00    -0.248 NA
ATOM     40  C   UNL     1      -7.019   9.927  -5.313  1.00  0.00     0.031 C 
ATOM     41  C   UNL     1      -5.883  10.121  -0.412  1.00  0.00     0.029 A 
ATOM     42  N   UNL     1      -6.056  12.062  -1.505  1.00  0.00    -0.354 N 
ATOM     43  C   UNL     1      -6.886  12.164  -5.748  1.00  0.00     0.074 A 
ATOM     44  C   UNL     1      -7.030  10.829  -6.282  1.00  0.00     0.031 C 
ATOM     45  C   UNL     1      -5.652  11.102   0.474  1.00  0.00     0.029 A 
ATOM     46  C   UNL     1      -5.731  12.389  -0.210  1.00  0.00     0.049 A 
ATOM     47  H   UNL     1      -6.190  12.734  -2.212  1.00  0.00     0.167 HD
ATOM     48  C   UNL     1      -7.012  13.295  -6.482  1.00  0.00     0.037 A 
ATOM     49  C   UNL     1      -5.514  13.590   0.359  1.00  0.00     0.037 A 
ATOM     50  C   UNL     1      -6.890  14.623  -5.942  1.00  0.00     0.049 A 
ATOM     51  C   UNL     1      -5.637  14.832  -0.484  1.00  0.00     0.074 A 
ATOM     52  C   UNL     1      -7.054  15.835  -6.588  1.00  0.00     0.029 A 
ATOM     53  N   UNL     1      -6.570  14.913  -4.623  1.00  0.00    -0.354 N 
ATOM     54  N   UNL     1      -5.940  14.944  -1.755  1.00  0.00    -0.248 NA
ATOM     55  C   UNL     1      -5.394  16.115   0.189  1.00  0.00     0.031 C 
ATOM     56  C   UNL     1      -6.774  16.858  -5.677  1.00  0.00     0.029 A 
ATOM     57  C   UNL     1      -6.503  16.285  -4.444  1.00  0.00     0.049 A 
ATOM     58  H   UNL     1      -6.412  14.243  -3.919  1.00  0.00     0.167 HD
ATOM     59  C   UNL     1      -5.958  16.307  -2.024  1.00  0.00     0.074 A 
ATOM     60  C   UNL     1      -5.651  16.981  -0.781  1.00  0.00     0.031 C 
ATOM     61  C   UNL     1      -6.207  16.942  -3.196  1.00  0.00     0.037 A 
BRANCH  48  62
ATOM     62  C   UNL     1      -7.300  13.144  -7.949  1.00  0.00     0.064 A 
ATOM     63  C   UNL     1      -8.524  12.637  -8.413  1.00  0.00     0.173 A 
ATOM     64  C   UNL     1      -6.353  13.542  -8.905  1.00  0.00     0.173 A 
ATOM     65  F   UNL     1      -9.460  12.230  -7.542  1.00  0.00    -0.203 F 
ATOM     66  C   UNL     1      -8.776  12.502  -9.775  1.00  0.00     0.198 A 
ATOM     67  C   UNL     1      -6.623  13.440 -10.268  1.00  0.00     0.198 A 
ATOM     68  F   UNL     1      -5.168  14.038  -8.520  1.00  0.00    -0.203 F 
ATOM     69  F   UNL     1      -9.929  11.960 -10.191  1.00  0.00    -0.200 F 
ATOM     70  C   UNL     1      -7.829  12.912 -10.702  1.00  0.00     0.200 A 
ATOM     71  F   UNL     1      -5.713  13.851 -11.162  1.00  0.00    -0.200 F 
ATOM     72  F   UNL     1      -8.076  12.790 -12.013  1.00  0.00    -0.200 F 
ENDBRANCH  48  62
BRANCH  49  73
ATOM     73  C   UNL     1      -5.179  13.683   1.806  1.00  0.00     0.064 A 
ATOM     74  C   UNL     1      -6.072  14.267   2.715  1.00  0.00     0.173 A 
ATOM     75  C   UNL     1      -3.960  13.206   2.308  1.00  0.00     0.173 A 
ATOM     76  F   UNL     1      -7.244  14.756   2.283  1.00  0.00    -0.203 F 
ATOM     77  C   UNL     1      -5.747  14.395   4.064  1.00  0.00     0.198 A 
ATOM     78  C   UNL     1      -3.650  13.303   3.663  1.00  0.00     0.198 A 
ATOM     79  F   UNL     1      -3.072  12.632   1.483  1.00  0.00    -0.203 F 
ATOM     80  F   UNL     1      -6.597  15.007   4.900  1.00  0.00    -0.200 F 
ATOM     81  C   UNL     1      -4.539  13.908   4.538  1.00  0.00     0.200 A 
ATOM     82  F   UNL     1      -2.489  12.815   4.119  1.00  0.00    -0.200 F 
ATOM     83  F   UNL     1      -4.228  14.028   5.836  1.00  0.00    -0.200 F 
ENDBRANCH  49  73
BRANCH  61  84
ATOM     84  C   UNL     1      -6.205  18.445  -3.182  1.00  0.00     0.064 A 
ATOM     85  C   UNL     1      -5.024  19.183  -3.014  1.00  0.00     0.173 A 
ATOM     86  C   UNL     1      -7.399  19.155  -3.382  1.00  0.00     0.173 A 
ATOM     87  F   UNL     1      -3.858  18.553  -2.805  1.00  0.00    -0.203 F 
ATOM     88  C   UNL     1      -5.044  20.575  -3.016  1.00  0.00     0.198 A 
ATOM     89  C   UNL     1      -7.409  20.546  -3.421  1.00  0.00     0.198 A 
ATOM     90  F   UNL     1      -8.556  18.498  -3.557  1.00  0.00    -0.203 F 
ATOM     91  F   UNL     1      -3.912  21.259  -2.798  1.00  0.00    -0.200 F 
ATOM     92  C   UNL     1      -6.234  21.255  -3.228  1.00  0.00     0.200 A 
ATOM     93  F   UNL     1      -8.557  21.200  -3.645  1.00  0.00    -0.200 F 
ATOM     94  F   UNL     1      -6.249  22.595  -3.240  1.00  0.00    -0.200 F 
ENDBRANCH  61  84
ENDBRANCH  35  36
ENDBRANCH  27  30
ENDBRANCH  25  26
ENDBRANCH   1  25
TORSDOF 13
