REMARK SMILES CC(C)n1ccc(C[C@@H](C(=O)NCCCNC(=O)c2ccc(-c3c4nc(c(-c5c(F)c(F)c(F)c(F)c5F)c5ccc([nH]5)c(-c5c(F)c(F)c(F)c(F)c5F)c5nc(c(-c6c(F)c(F)c(F)c(F)c6F)c6ccc3[nH]6)C=C5)C=C4)cc2)c2cccc(Cl)c2)n1
REMARK SMILES IDX 13 1 12 2 10 3 11 4 9 6 8 7 7 8 4 9 5 10 89 11 6 12 2 13
REMARK SMILES IDX 1 14 3 15 82 16 83 17 88 18 84 19 86 20 85 21 87 22 14 23
REMARK SMILES IDX 15 24 16 25 17 26 18 28 19 29 20 30 81 31 21 32 80 33 22 34
REMARK SMILES IDX 23 35 24 36 74 37 25 38 79 39 73 40 75 41 26 42 78 43 72 44
REMARK SMILES IDX 71 45 27 47 59 48 39 49 58 50 40 51 43 52 57 53 76 54 41 55
REMARK SMILES IDX 42 56 56 58 77 59 44 60 28 61 29 62 37 63 30 64 31 65 35 66
REMARK SMILES IDX 38 67 32 68 33 69 36 70 34 71 60 72 61 73 69 74 62 75 63 76
REMARK SMILES IDX 67 77 70 78 64 79 65 80 68 81 66 82 45 83 46 84 54 85 47 86
REMARK SMILES IDX 48 87 52 88 55 89 49 90 50 91 53 92 51 93
REMARK H PARENT 12 5 16 27 75 46 43 57
REMARK Flexibility Score: inf
ROOT
ATOM      1  C   UNL     1      -3.524   0.455  -3.289  1.00  0.00     0.117 C 
ENDROOT
BRANCH   1   2
ATOM      2  N   UNL     1      -4.824   0.411  -2.631  1.00  0.00    -0.355 N 
ATOM      3  C   UNL     1      -5.287   1.257  -1.658  1.00  0.00     0.227 C 
ATOM      4  O   UNL     1      -6.004   0.760  -0.785  1.00  0.00    -0.274 OA
ATOM      5  H   UNL     1      -5.436  -0.305  -2.918  1.00  0.00     0.163 HD
BRANCH   3   6
ATOM      6  C   UNL     1      -4.969   2.761  -1.716  1.00  0.00     0.114 C 
BRANCH   6   7
ATOM      7  C   UNL     1      -4.211   3.221  -0.451  1.00  0.00     0.076 C 
BRANCH   7   8
ATOM      8  C   UNL     1      -2.991   2.455  -0.053  1.00  0.00     0.064 A 
ATOM      9  N   UNL     1      -0.968   1.764  -0.012  1.00  0.00    -0.270 N 
ATOM     10  C   UNL     1      -1.577   1.178   1.068  1.00  0.00     0.109 A 
ATOM     11  N   UNL     1      -1.817   2.581  -0.695  1.00  0.00    -0.178 NA
ATOM     12  C   UNL     1      -2.884   1.592   1.059  1.00  0.00     0.045 A 
BRANCH   9  13
ATOM     13  C   UNL     1       0.444   1.643  -0.393  1.00  0.00     0.101 C 
ATOM     14  C   UNL     1       1.098   0.350   0.123  1.00  0.00     0.033 C 
ATOM     15  C   UNL     1       0.713   1.735  -1.902  1.00  0.00     0.033 C 
ENDBRANCH   9  13
ENDBRANCH   7   8
ENDBRANCH   6   7
BRANCH   6  16
ATOM     16  C   UNL     1      -6.237   3.648  -1.847  1.00  0.00    -0.034 A 
ATOM     17  C   UNL     1      -6.077   5.035  -2.037  1.00  0.00     0.004 A 
ATOM     18  C   UNL     1      -7.550   3.164  -1.688  1.00  0.00     0.025 A 
ATOM     19  C   UNL     1      -7.170   5.907  -1.994  1.00  0.00     0.002 A 
ATOM     20  C   UNL     1      -8.641   4.040  -1.655  1.00  0.00     0.041 A 
ATOM     21  C   UNL     1      -8.454   5.411  -1.790  1.00  0.00     0.020 A 
ATOM     22  Cl  UNL     1     -10.230   3.420  -1.411  1.00  0.00    -0.084 Cl
ENDBRANCH   6  16
ENDBRANCH   3   6
ENDBRANCH   1   2
BRANCH   1  23
ATOM     23  C   UNL     1      -2.447  -0.126  -2.381  1.00  0.00     0.042 C 
BRANCH  23  24
ATOM     24  C   UNL     1      -2.544  -1.608  -2.139  1.00  0.00     0.118 C 
BRANCH  24  25
ATOM     25  N   UNL     1      -1.531  -2.443  -2.769  1.00  0.00    -0.352 N 
ATOM     26  C   UNL     1      -1.088  -3.725  -2.421  1.00  0.00     0.251 C 
ATOM     27  H   UNL     1      -1.091  -2.046  -3.556  1.00  0.00     0.163 HD
ATOM     28  O   UNL     1      -0.160  -4.223  -3.008  1.00  0.00    -0.269 OA
BRANCH  26  29
ATOM     29  C   UNL     1      -1.747  -4.469  -1.305  1.00  0.00     0.039 A 
ATOM     30  C   UNL     1      -1.188  -5.597  -0.691  1.00  0.00     0.014 A 
ATOM     31  C   UNL     1      -2.963  -4.042  -0.835  1.00  0.00     0.014 A 
ATOM     32  C   UNL     1      -1.951  -6.277   0.274  1.00  0.00     0.010 A 
ATOM     33  C   UNL     1      -3.284  -4.340   0.442  1.00  0.00     0.010 A 
ATOM     34  C   UNL     1      -3.090  -5.649   0.766  1.00  0.00    -0.014 A 
BRANCH  34  35
ATOM     35  C   UNL     1      -4.141  -6.238   1.579  1.00  0.00     0.031 A 
ATOM     36  C   UNL     1      -3.831  -6.373   3.013  1.00  0.00     0.074 A 
ATOM     37  C   UNL     1      -5.428  -6.308   1.156  1.00  0.00     0.049 A 
ATOM     38  N   UNL     1      -3.691  -7.458   3.695  1.00  0.00    -0.248 NA
ATOM     39  C   UNL     1      -3.537  -5.144   3.762  1.00  0.00     0.031 C 
ATOM     40  C   UNL     1      -6.031  -5.806  -0.089  1.00  0.00     0.029 A 
ATOM     41  N   UNL     1      -6.513  -6.775   1.836  1.00  0.00    -0.354 N 
ATOM     42  C   UNL     1      -3.429  -7.053   4.998  1.00  0.00     0.074 A 
ATOM     43  C   UNL     1      -3.160  -5.641   4.939  1.00  0.00     0.031 C 
ATOM     44  C   UNL     1      -7.382  -5.830   0.012  1.00  0.00     0.029 A 
ATOM     45  C   UNL     1      -7.741  -6.489   1.253  1.00  0.00     0.049 A 
ATOM     46  H   UNL     1      -6.433  -7.277   2.678  1.00  0.00     0.167 HD
ATOM     47  C   UNL     1      -3.659  -7.874   6.059  1.00  0.00     0.037 A 
ATOM     48  C   UNL     1      -8.961  -6.755   1.780  1.00  0.00     0.037 A 
ATOM     49  C   UNL     1      -3.896  -9.229   5.627  1.00  0.00     0.049 A 
ATOM     50  C   UNL     1      -8.768  -7.775   2.843  1.00  0.00     0.074 A 
ATOM     51  C   UNL     1      -3.146 -10.171   4.949  1.00  0.00     0.029 A 
ATOM     52  N   UNL     1      -5.199  -9.655   5.530  1.00  0.00    -0.354 N 
ATOM     53  N   UNL     1      -8.395  -9.005   2.618  1.00  0.00    -0.248 NA
ATOM     54  C   UNL     1      -8.556  -7.301   4.203  1.00  0.00     0.031 C 
ATOM     55  C   UNL     1      -4.072 -10.830   4.085  1.00  0.00     0.029 A 
ATOM     56  C   UNL     1      -5.336 -10.286   4.318  1.00  0.00     0.049 A 
ATOM     57  H   UNL     1      -5.904  -9.531   6.206  1.00  0.00     0.167 HD
ATOM     58  C   UNL     1      -7.537  -9.316   3.664  1.00  0.00     0.074 A 
ATOM     59  C   UNL     1      -7.756  -8.269   4.657  1.00  0.00     0.031 C 
ATOM     60  C   UNL     1      -6.531 -10.226   3.505  1.00  0.00     0.037 A 
BRANCH  47  61
ATOM     61  C   UNL     1      -3.961  -7.408   7.458  1.00  0.00     0.064 A 
ATOM     62  C   UNL     1      -3.943  -8.342   8.511  1.00  0.00     0.173 A 
ATOM     63  C   UNL     1      -4.504  -6.144   7.776  1.00  0.00     0.173 A 
ATOM     64  F   UNL     1      -3.471  -9.583   8.315  1.00  0.00    -0.203 F 
ATOM     65  C   UNL     1      -4.478  -8.050   9.767  1.00  0.00     0.198 A 
ATOM     66  C   UNL     1      -4.978  -5.834   9.049  1.00  0.00     0.198 A 
ATOM     67  F   UNL     1      -4.699  -5.198   6.850  1.00  0.00    -0.203 F 
ATOM     68  F   UNL     1      -4.543  -9.008  10.701  1.00  0.00    -0.200 F 
ATOM     69  C   UNL     1      -4.994  -6.796  10.036  1.00  0.00     0.200 A 
ATOM     70  F   UNL     1      -5.488  -4.617   9.285  1.00  0.00    -0.200 F 
ATOM     71  F   UNL     1      -5.550  -6.528  11.225  1.00  0.00    -0.200 F 
ENDBRANCH  47  61
BRANCH  48  72
ATOM     72  C   UNL     1     -10.225  -6.001   1.615  1.00  0.00     0.064 A 
ATOM     73  C   UNL     1     -11.472  -6.591   1.877  1.00  0.00     0.173 A 
ATOM     74  C   UNL     1     -10.216  -4.602   1.453  1.00  0.00     0.173 A 
ATOM     75  F   UNL     1     -11.560  -7.913   2.086  1.00  0.00    -0.203 F 
ATOM     76  C   UNL     1     -12.637  -5.824   1.992  1.00  0.00     0.198 A 
ATOM     77  C   UNL     1     -11.379  -3.838   1.563  1.00  0.00     0.198 A 
ATOM     78  F   UNL     1      -9.063  -3.941   1.278  1.00  0.00    -0.203 F 
ATOM     79  F   UNL     1     -13.800  -6.416   2.300  1.00  0.00    -0.200 F 
ATOM     80  C   UNL     1     -12.588  -4.447   1.845  1.00  0.00     0.200 A 
ATOM     81  F   UNL     1     -11.312  -2.503   1.455  1.00  0.00    -0.200 F 
ATOM     82  F   UNL     1     -13.692  -3.707   2.015  1.00  0.00    -0.200 F 
ENDBRANCH  48  72
BRANCH  60  83
ATOM     83  C   UNL     1      -6.537 -11.056   2.246  1.00  0.00     0.064 A 
ATOM     84  C   UNL     1      -6.383 -10.519   0.955  1.00  0.00     0.173 A 
ATOM     85  C   UNL     1      -6.554 -12.451   2.357  1.00  0.00     0.173 A 
ATOM     86  F   UNL     1      -6.249  -9.203   0.768  1.00  0.00    -0.203 F 
ATOM     87  C   UNL     1      -6.301 -11.337  -0.171  1.00  0.00     0.198 A 
ATOM     88  C   UNL     1      -6.434 -13.269   1.235  1.00  0.00     0.198 A 
ATOM     89  F   UNL     1      -6.637 -13.028   3.567  1.00  0.00    -0.203 F 
ATOM     90  F   UNL     1      -6.167 -10.792  -1.389  1.00  0.00    -0.200 F 
ATOM     91  C   UNL     1      -6.319 -12.712  -0.029  1.00  0.00     0.200 A 
ATOM     92  F   UNL     1      -6.400 -14.601   1.382  1.00  0.00    -0.200 F 
ATOM     93  F   UNL     1      -6.197 -13.502  -1.105  1.00  0.00    -0.200 F 
ENDBRANCH  60  83
ENDBRANCH  34  35
ENDBRANCH  26  29
ENDBRANCH  24  25
ENDBRANCH  23  24
ENDBRANCH   1  23
TORSDOF 14
