REMARK SMILES C[C@@H]1Oc2c(C(=O)NCCCNC(=O)c3ccc(-c4c5nc(c(-c6c(F)c(F)c(F)c(F)c6F)c6ccc([nH]6)c(-c6c(F)c(F)c(F)c(F)c6F)c6nc(c(-c7c(F)c(F)c(F)c(F)c7F)c7ccc4[nH]7)C=C6)C=C5)cc3)cccc2[C@@H]1C
REMARK SMILES IDX 11 1 10 2 9 3 8 4 6 5 7 6 5 8 1 9 2 10 3 11 82 12 4 13 81 14
REMARK SMILES IDX 83 15 80 16 78 17 79 18 12 19 13 20 14 22 15 23 16 24 77 25
REMARK SMILES IDX 17 26 76 27 18 28 19 29 20 30 70 31 21 32 75 33 69 34 71 35
REMARK SMILES IDX 22 36 74 37 68 38 67 39 23 41 55 42 35 43 54 44 36 45 39 46
REMARK SMILES IDX 53 47 72 48 37 49 38 50 52 52 73 53 40 54 24 55 25 56 33 57
REMARK SMILES IDX 26 58 27 59 31 60 34 61 28 62 29 63 32 64 30 65 56 66 57 67
REMARK SMILES IDX 65 68 58 69 59 70 63 71 66 72 60 73 61 74 64 75 62 76 41 77
REMARK SMILES IDX 42 78 50 79 43 80 44 81 48 82 51 83 45 84 46 85 49 86 47 87
REMARK H PARENT 8 7 12 21 71 40 39 51
REMARK Flexibility Score: inf
ROOT
ATOM      1  C   UNL     1       1.915   9.980   2.448  1.00  0.00     0.118 C 
ENDROOT
BRANCH   1   2
ATOM      2  C   UNL     1       1.696   9.190   1.159  1.00  0.00     0.042 C 
BRANCH   2   3
ATOM      3  C   UNL     1       2.715   8.067   0.972  1.00  0.00     0.118 C 
BRANCH   3   4
ATOM      4  N   UNL     1       2.389   6.939   1.822  1.00  0.00    -0.352 N 
ATOM      5  C   UNL     1       1.684   5.774   1.643  1.00  0.00     0.255 C 
ATOM      6  O   UNL     1       1.569   5.079   2.653  1.00  0.00    -0.269 OA
ATOM      7  H   UNL     1       2.756   7.027   2.732  1.00  0.00     0.163 HD
BRANCH   5   8
ATOM      8  C   UNL     1       1.110   5.328   0.335  1.00  0.00     0.082 A 
ATOM      9  C   UNL     1      -0.297   0.926   1.386  1.00  0.00     0.053 C 
ATOM     10  C   UNL     1       0.559   1.753   0.437  1.00  0.00     0.177 C 
ATOM     11  O   UNL     1       0.883   3.000   1.098  1.00  0.00    -0.489 OA
ATOM     12  C   UNL     1      -0.058   2.057  -0.946  1.00  0.00     0.060 C 
ATOM     13  C   UNL     1       0.796   3.981   0.143  1.00  0.00     0.136 A 
ATOM     14  C   UNL     1       0.294   3.500  -1.063  1.00  0.00     0.001 A 
ATOM     15  C   UNL     1      -1.566   1.859  -1.077  1.00  0.00     0.017 C 
ATOM     16  C   UNL     1       0.102   4.340  -2.146  1.00  0.00     0.008 A 
ATOM     17  C   UNL     1       0.820   6.185  -0.738  1.00  0.00     0.018 A 
ATOM     18  C   UNL     1       0.353   5.695  -1.972  1.00  0.00     0.001 A 
ENDBRANCH   5   8
ENDBRANCH   3   4
ENDBRANCH   2   3
ENDBRANCH   1   2
BRANCH   1  19
ATOM     19  N   UNL     1       3.118  10.805   2.390  1.00  0.00    -0.352 N 
ATOM     20  C   UNL     1       3.272  12.167   2.487  1.00  0.00     0.251 C 
ATOM     21  H   UNL     1       3.955  10.303   2.259  1.00  0.00     0.163 HD
ATOM     22  O   UNL     1       4.345  12.680   2.198  1.00  0.00    -0.269 OA
BRANCH  20  23
ATOM     23  C   UNL     1       2.141  13.019   2.918  1.00  0.00     0.039 A 
ATOM     24  C   UNL     1       1.296  12.620   3.953  1.00  0.00     0.014 A 
ATOM     25  C   UNL     1       1.936  14.248   2.284  1.00  0.00     0.014 A 
ATOM     26  C   UNL     1       0.151  13.357   4.232  1.00  0.00     0.010 A 
ATOM     27  C   UNL     1       0.835  15.036   2.631  1.00  0.00     0.010 A 
ATOM     28  C   UNL     1      -0.096  14.572   3.573  1.00  0.00    -0.014 A 
BRANCH  28  29
ATOM     29  C   UNL     1      -1.339  15.328   3.877  1.00  0.00     0.031 A 
ATOM     30  C   UNL     1      -2.387  15.536   2.817  1.00  0.00     0.074 A 
ATOM     31  C   UNL     1      -1.549  15.775   5.130  1.00  0.00     0.049 A 
ATOM     32  N   UNL     1      -3.541  16.151   2.906  1.00  0.00    -0.248 NA
ATOM     33  C   UNL     1      -2.106  14.988   1.481  1.00  0.00     0.031 C 
ATOM     34  C   UNL     1      -0.613  15.620   6.245  1.00  0.00     0.029 A 
ATOM     35  N   UNL     1      -2.623  16.423   5.686  1.00  0.00    -0.354 N 
ATOM     36  C   UNL     1      -4.113  16.073   1.643  1.00  0.00     0.074 A 
ATOM     37  C   UNL     1      -3.165  15.387   0.792  1.00  0.00     0.031 C 
ATOM     38  C   UNL     1      -1.175  16.104   7.361  1.00  0.00     0.029 A 
ATOM     39  C   UNL     1      -2.480  16.667   7.030  1.00  0.00     0.049 A 
ATOM     40  H   UNL     1      -3.419  16.688   5.171  1.00  0.00     0.167 HD
ATOM     41  C   UNL     1      -5.326  16.516   1.236  1.00  0.00     0.037 A 
ATOM     42  C   UNL     1      -3.302  17.286   7.899  1.00  0.00     0.037 A 
ATOM     43  C   UNL     1      -6.275  17.180   2.093  1.00  0.00     0.049 A 
ATOM     44  C   UNL     1      -4.617  17.821   7.407  1.00  0.00     0.074 A 
ATOM     45  C   UNL     1      -7.537  17.651   1.778  1.00  0.00     0.029 A 
ATOM     46  N   UNL     1      -6.065  17.465   3.434  1.00  0.00    -0.354 N 
ATOM     47  N   UNL     1      -5.149  17.732   6.212  1.00  0.00    -0.248 NA
ATOM     48  C   UNL     1      -5.441  18.551   8.380  1.00  0.00     0.031 C 
ATOM     49  C   UNL     1      -8.071  18.267   2.913  1.00  0.00     0.029 A 
ATOM     50  C   UNL     1      -7.165  18.130   3.953  1.00  0.00     0.049 A 
ATOM     51  H   UNL     1      -5.255  17.230   3.942  1.00  0.00     0.167 HD
ATOM     52  C   UNL     1      -6.374  18.379   6.292  1.00  0.00     0.074 A 
ATOM     53  C   UNL     1      -6.517  18.837   7.658  1.00  0.00     0.031 C 
ATOM     54  C   UNL     1      -7.295  18.578   5.317  1.00  0.00     0.037 A 
BRANCH  41  55
ATOM     55  C   UNL     1      -5.707  16.305  -0.202  1.00  0.00     0.064 A 
ATOM     56  C   UNL     1      -6.012  15.031  -0.704  1.00  0.00     0.173 A 
ATOM     57  C   UNL     1      -5.838  17.400  -1.071  1.00  0.00     0.173 A 
ATOM     58  F   UNL     1      -5.892  13.950   0.081  1.00  0.00    -0.203 F 
ATOM     59  C   UNL     1      -6.417  14.859  -2.026  1.00  0.00     0.198 A 
ATOM     60  C   UNL     1      -6.273  17.227  -2.383  1.00  0.00     0.198 A 
ATOM     61  F   UNL     1      -5.567  18.641  -0.642  1.00  0.00    -0.203 F 
ATOM     62  F   UNL     1      -6.666  13.628  -2.493  1.00  0.00    -0.200 F 
ATOM     63  C   UNL     1      -6.557  15.957  -2.861  1.00  0.00     0.200 A 
ATOM     64  F   UNL     1      -6.422  18.292  -3.184  1.00  0.00    -0.200 F 
ATOM     65  F   UNL     1      -6.963  15.791  -4.127  1.00  0.00    -0.200 F 
ENDBRANCH  41  55
BRANCH  42  66
ATOM     66  C   UNL     1      -2.896  17.420   9.322  1.00  0.00     0.064 A 
ATOM     67  C   UNL     1      -3.567  16.718  10.332  1.00  0.00     0.173 A 
ATOM     68  C   UNL     1      -1.808  18.223   9.698  1.00  0.00     0.173 A 
ATOM     69  F   UNL     1      -4.626  15.954  10.025  1.00  0.00    -0.203 F 
ATOM     70  C   UNL     1      -3.168  16.815  11.663  1.00  0.00     0.198 A 
ATOM     71  C   UNL     1      -1.390  18.295  11.025  1.00  0.00     0.198 A 
ATOM     72  F   UNL     1      -1.131  18.914   8.770  1.00  0.00    -0.203 F 
ATOM     73  F   UNL     1      -3.845  16.156  12.613  1.00  0.00    -0.200 F 
ATOM     74  C   UNL     1      -2.073  17.594  12.007  1.00  0.00     0.200 A 
ATOM     75  F   UNL     1      -0.321  19.034  11.349  1.00  0.00    -0.200 F 
ATOM     76  F   UNL     1      -1.678  17.672  13.285  1.00  0.00    -0.200 F 
ENDBRANCH  42  66
BRANCH  54  77
ATOM     77  C   UNL     1      -8.551  19.311   5.688  1.00  0.00     0.064 A 
ATOM     78  C   UNL     1      -8.546  20.691   5.938  1.00  0.00     0.173 A 
ATOM     79  C   UNL     1      -9.783  18.641   5.719  1.00  0.00     0.173 A 
ATOM     80  F   UNL     1      -7.392  21.374   5.933  1.00  0.00    -0.203 F 
ATOM     81  C   UNL     1      -9.729  21.371   6.218  1.00  0.00     0.198 A 
ATOM     82  C   UNL     1     -10.967  19.329   5.969  1.00  0.00     0.198 A 
ATOM     83  F   UNL     1      -9.842  17.322   5.479  1.00  0.00    -0.203 F 
ATOM     84  F   UNL     1      -9.697  22.683   6.488  1.00  0.00    -0.200 F 
ATOM     85  C   UNL     1     -10.938  20.692   6.223  1.00  0.00     0.200 A 
ATOM     86  F   UNL     1     -12.136  18.675   5.955  1.00  0.00    -0.200 F 
ATOM     87  F   UNL     1     -12.077  21.352   6.473  1.00  0.00    -0.200 F 
ENDBRANCH  54  77
ENDBRANCH  28  29
ENDBRANCH  20  23
ENDBRANCH   1  19
TORSDOF 10
