REMARK SMILES O=C(NCCCNC(=O)c1sccc1S(=O)(=O)N[C@@H]1CONC1=O)c1ccc(-c2c3nc(c(-c4c(F)c(F)c(F)c(F)c4F)c4ccc([nH]4)c(-c4c(F)c(F)c(F)c(F)c4F)c4nc(c(-c5c(F)c(F)c(F)c(F)c5F)c5ccc2[nH]5)C=C4)C=C3)cc1
REMARK SMILES IDX 5 1 4 2 3 3 1 4 2 5 25 7 26 8 87 9 27 10 86 11 28 12 29 13
REMARK SMILES IDX 30 14 80 15 31 16 85 17 79 18 81 19 32 20 84 21 78 22 77 23
REMARK SMILES IDX 33 25 65 26 45 27 64 28 46 29 49 30 63 31 82 32 47 33 48 34
REMARK SMILES IDX 62 36 83 37 50 38 34 39 35 40 43 41 36 42 37 43 41 44 44 45
REMARK SMILES IDX 38 46 39 47 42 48 40 49 66 50 67 51 75 52 68 53 69 54 73 55
REMARK SMILES IDX 76 56 70 57 71 58 74 59 72 60 51 61 52 62 60 63 53 64 54 65
REMARK SMILES IDX 58 66 61 67 55 68 56 69 59 70 57 71 6 72 7 73 8 74 9 76
REMARK SMILES IDX 10 77 11 78 14 79 12 80 13 81 15 82 16 83 17 84 18 85 19 87
REMARK SMILES IDX 20 88 23 89 21 90 22 91 24 92
REMARK H PARENT 3 6 81 24 49 35 7 75 18 86 22 93
REMARK Flexibility Score: inf
ROOT
ATOM      1  C   UNL     1       5.432  -2.116   0.160  1.00  0.00     0.042 C 
ENDROOT
BRANCH   1   2
ATOM      2  C   UNL     1       4.888  -1.030  -0.764  1.00  0.00     0.118 C 
BRANCH   2   3
ATOM      3  N   UNL     1       3.432  -0.926  -0.772  1.00  0.00    -0.352 N 
ATOM      4  O   UNL     1       1.371  -0.206  -0.195  1.00  0.00    -0.269 OA
ATOM      5  C   UNL     1       2.585  -0.031  -0.157  1.00  0.00     0.251 C 
ATOM      6  H   UNL     1       2.977  -1.613  -1.310  1.00  0.00     0.163 HD
BRANCH   5   7
ATOM      7  C   UNL     1       3.138   1.121   0.590  1.00  0.00     0.039 A 
ATOM      8  C   UNL     1       4.202   1.854   0.074  1.00  0.00     0.014 A 
ATOM      9  C   UNL     1       2.606   1.459   1.838  1.00  0.00     0.014 A 
ATOM     10  C   UNL     1       4.899   2.725   0.898  1.00  0.00     0.010 A 
ATOM     11  C   UNL     1       3.227   2.444   2.615  1.00  0.00     0.010 A 
ATOM     12  C   UNL     1       4.426   3.033   2.184  1.00  0.00    -0.014 A 
BRANCH  12  13
ATOM     13  C   UNL     1       5.219   3.958   3.040  1.00  0.00     0.031 A 
ATOM     14  C   UNL     1       5.780   3.507   4.364  1.00  0.00     0.074 A 
ATOM     15  C   UNL     1       5.505   5.192   2.578  1.00  0.00     0.049 A 
ATOM     16  N   UNL     1       6.540   4.166   5.206  1.00  0.00    -0.248 NA
ATOM     17  C   UNL     1       5.440   2.148   4.812  1.00  0.00     0.031 C 
ATOM     18  C   UNL     1       5.019   5.751   1.315  1.00  0.00     0.029 A 
ATOM     19  N   UNL     1       6.306   6.182   3.090  1.00  0.00    -0.354 N 
ATOM     20  C   UNL     1       6.729   3.321   6.294  1.00  0.00     0.074 A 
ATOM     21  C   UNL     1       5.994   2.107   6.016  1.00  0.00     0.031 C 
ATOM     22  C   UNL     1       5.596   6.943   1.109  1.00  0.00     0.029 A 
ATOM     23  C   UNL     1       6.432   7.268   2.258  1.00  0.00     0.049 A 
ATOM     24  H   UNL     1       6.747   6.120   3.967  1.00  0.00     0.167 HD
ATOM     25  C   UNL     1       7.454   3.537   7.418  1.00  0.00     0.037 A 
ATOM     26  C   UNL     1       7.138   8.404   2.402  1.00  0.00     0.037 A 
ATOM     27  C   UNL     1       8.229   4.725   7.672  1.00  0.00     0.049 A 
ATOM     28  C   UNL     1       7.950   8.606   3.648  1.00  0.00     0.074 A 
ATOM     29  C   UNL     1       9.029   5.018   8.764  1.00  0.00     0.029 A 
ATOM     30  N   UNL     1       8.306   5.814   6.817  1.00  0.00    -0.354 N 
ATOM     31  N   UNL     1       8.127   7.793   4.660  1.00  0.00    -0.248 NA
ATOM     32  C   UNL     1       8.653   9.889   3.775  1.00  0.00     0.031 C 
ATOM     33  C   UNL     1       9.561   6.299   8.586  1.00  0.00     0.029 A 
ATOM     34  C   UNL     1       9.129   6.787   7.364  1.00  0.00     0.049 A 
ATOM     35  H   UNL     1       7.845   5.886   5.951  1.00  0.00     0.167 HD
ATOM     36  C   UNL     1       8.975   8.455   5.535  1.00  0.00     0.074 A 
ATOM     37  C   UNL     1       9.293   9.730   4.925  1.00  0.00     0.031 C 
ATOM     38  C   UNL     1       9.443   8.046   6.739  1.00  0.00     0.037 A 
BRANCH  25  39
ATOM     39  C   UNL     1       7.431   2.473   8.479  1.00  0.00     0.064 A 
ATOM     40  C   UNL     1       8.102   1.252   8.322  1.00  0.00     0.173 A 
ATOM     41  C   UNL     1       6.760   2.701   9.691  1.00  0.00     0.173 A 
ATOM     42  F   UNL     1       8.748   0.979   7.179  1.00  0.00    -0.203 F 
ATOM     43  C   UNL     1       8.082   0.288   9.329  1.00  0.00     0.198 A 
ATOM     44  C   UNL     1       6.764   1.747  10.706  1.00  0.00     0.198 A 
ATOM     45  F   UNL     1       6.108   3.855   9.896  1.00  0.00    -0.203 F 
ATOM     46  F   UNL     1       8.695  -0.888   9.140  1.00  0.00    -0.200 F 
ATOM     47  C   UNL     1       7.419   0.539  10.521  1.00  0.00     0.200 A 
ATOM     48  F   UNL     1       6.134   1.997  11.862  1.00  0.00    -0.200 F 
ATOM     49  F   UNL     1       7.408  -0.386  11.491  1.00  0.00    -0.200 F 
ENDBRANCH  25  39
BRANCH  26  50
ATOM     50  C   UNL     1       7.114   9.429   1.327  1.00  0.00     0.064 A 
ATOM     51  C   UNL     1       8.251   9.684   0.550  1.00  0.00     0.173 A 
ATOM     52  C   UNL     1       5.950  10.159   1.044  1.00  0.00     0.173 A 
ATOM     53  F   UNL     1       9.393   9.024   0.797  1.00  0.00    -0.203 F 
ATOM     54  C   UNL     1       8.229  10.638  -0.465  1.00  0.00     0.198 A 
ATOM     55  C   UNL     1       5.920  11.091   0.009  1.00  0.00     0.198 A 
ATOM     56  F   UNL     1       4.834   9.947   1.756  1.00  0.00    -0.203 F 
ATOM     57  F   UNL     1       9.340  10.889  -1.170  1.00  0.00    -0.200 F 
ATOM     58  C   UNL     1       7.061  11.335  -0.739  1.00  0.00     0.200 A 
ATOM     59  F   UNL     1       4.785  11.748  -0.264  1.00  0.00    -0.200 F 
ATOM     60  F   UNL     1       7.037  12.244  -1.723  1.00  0.00    -0.200 F 
ENDBRANCH  26  50
BRANCH  38  61
ATOM     61  C   UNL     1      10.380   8.972   7.455  1.00  0.00     0.064 A 
ATOM     62  C   UNL     1       9.927  10.154   8.059  1.00  0.00     0.173 A 
ATOM     63  C   UNL     1      11.745   8.665   7.549  1.00  0.00     0.173 A 
ATOM     64  F   UNL     1       8.633  10.499   7.980  1.00  0.00    -0.203 F 
ATOM     65  C   UNL     1      10.813  11.010   8.706  1.00  0.00     0.198 A 
ATOM     66  C   UNL     1      12.624   9.510   8.221  1.00  0.00     0.198 A 
ATOM     67  F   UNL     1      12.226   7.543   6.992  1.00  0.00    -0.203 F 
ATOM     68  F   UNL     1      10.367  12.160   9.232  1.00  0.00    -0.200 F 
ATOM     69  C   UNL     1      12.159  10.685   8.791  1.00  0.00     0.200 A 
ATOM     70  F   UNL     1      13.922   9.190   8.310  1.00  0.00    -0.200 F 
ATOM     71  F   UNL     1      13.011  11.511   9.414  1.00  0.00    -0.200 F 
ENDBRANCH  38  61
ENDBRANCH  12  13
ENDBRANCH   5   7
ENDBRANCH   2   3
ENDBRANCH   1   2
BRANCH   1  72
ATOM     72  C   UNL     1       5.142  -3.532  -0.312  1.00  0.00     0.118 C 
BRANCH  72  73
ATOM     73  N   UNL     1       5.664  -3.789  -1.642  1.00  0.00    -0.351 N 
ATOM     74  C   UNL     1       6.174  -4.926  -2.201  1.00  0.00     0.262 C 
ATOM     75  H   UNL     1       5.649  -3.010  -2.244  1.00  0.00     0.163 HD
ATOM     76  O   UNL     1       6.614  -4.838  -3.348  1.00  0.00    -0.268 OA
BRANCH  74  77
ATOM     77  C   UNL     1       6.170  -6.164  -1.465  1.00  0.00     0.112 A 
ATOM     78  S   UNL     1       7.694  -6.934  -1.258  1.00  0.00    -0.137 S 
ATOM     79  C   UNL     1       5.142  -6.934  -0.954  1.00  0.00     0.106 A 
ATOM     80  C   UNL     1       6.995  -8.264  -0.452  1.00  0.00     0.067 A 
ATOM     81  C   UNL     1       5.629  -8.140  -0.350  1.00  0.00     0.034 A 
BRANCH  79  82
ATOM     82  S   UNL     1       3.448  -6.568  -0.975  1.00  0.00     0.243 S 
ATOM     83  O   UNL     1       2.804  -7.785  -1.397  1.00  0.00    -0.207 OA
ATOM     84  O   UNL     1       3.232  -6.012   0.345  1.00  0.00    -0.207 OA
BRANCH  82  85
ATOM     85  N   UNL     1       3.052  -5.369  -2.043  1.00  0.00    -0.196 NA
ATOM     86  H   UNL     1       3.806  -4.686  -1.970  1.00  0.00     0.142 HD
BRANCH  85  87
ATOM     87  C   UNL     1       2.824  -5.543  -3.491  1.00  0.00     0.189 C 
ATOM     88  C   UNL     1       3.288  -6.829  -4.154  1.00  0.00     0.224 C 
ATOM     89  C   UNL     1       3.648  -4.507  -4.209  1.00  0.00     0.264 C 
ATOM     90  O   UNL     1       3.979  -6.483  -5.363  1.00  0.00    -0.271 OA
ATOM     91  N   UNL     1       4.279  -5.111  -5.257  1.00  0.00    -0.233 N 
ATOM     92  O   UNL     1       3.760  -3.331  -3.884  1.00  0.00    -0.271 OA
ATOM     93  H   UNL     1       4.881  -4.638  -5.876  1.00  0.00     0.199 HD
ENDBRANCH  85  87
ENDBRANCH  82  85
ENDBRANCH  79  82
ENDBRANCH  74  77
ENDBRANCH  72  73
ENDBRANCH   1  72
TORSDOF 13
