REMARK SMILES Cc1[nH]c(=O)sc1S(=O)(=O)N[C@@H]1CCCCC[C@@H]1C(=O)NCCCNC(=O)c1ccc(-c2c3nc(c(-c4c(F)c(F)c(F)c(F)c4F)c4ccc([nH]4)c(-c4c(F)c(F)c(F)c(F)c4F)c4nc(c(-c5c(F)c(F)c(F)c(F)c5F)c5ccc2[nH]5)C=C4)C=C3)cc1
REMARK SMILES IDX 22 1 21 2 19 3 20 4 18 6 12 7 11 8 8 10 9 11 10 12 7 13 1 14
REMARK SMILES IDX 2 15 3 16 4 17 6 19 5 20 13 21 14 22 17 24 16 25 15 26 23 28
REMARK SMILES IDX 24 29 25 30 26 31 27 33 28 34 29 35 90 36 30 37 89 38 31 39
REMARK SMILES IDX 32 40 33 41 83 42 34 43 88 44 82 45 84 46 35 47 87 48 81 49
REMARK SMILES IDX 80 50 36 52 68 53 48 54 67 55 49 56 52 57 66 58 85 59 50 60
REMARK SMILES IDX 51 61 65 63 86 64 53 65 37 66 38 67 46 68 39 69 40 70 44 71
REMARK SMILES IDX 47 72 41 73 42 74 45 75 43 76 69 77 70 78 78 79 71 80 72 81
REMARK SMILES IDX 76 82 79 83 73 84 74 85 77 86 75 87 54 88 55 89 63 90 56 91
REMARK SMILES IDX 57 92 61 93 64 94 58 95 59 96 62 97 60 98
REMARK H PARENT 21 5 11 9 3 18 25 32 84 51 52 62
REMARK Flexibility Score: 100.00
ROOT
ATOM      1  C   UNL     1       0.542   2.829   1.395  1.00  0.00     0.117 C 
ENDROOT
BRANCH   1   2
ATOM      2  N   UNL     1       0.451   1.422   0.985  1.00  0.00    -0.356 N 
ATOM      3  C   UNL     1      -0.172   0.777  -0.065  1.00  0.00     0.224 C 
ATOM      4  O   UNL     1       0.494   0.098  -0.845  1.00  0.00    -0.275 OA
ATOM      5  H   UNL     1       0.936   0.810   1.585  1.00  0.00     0.163 HD
BRANCH   3   6
ATOM      6  C   UNL     1      -1.691   0.782  -0.175  1.00  0.00     0.096 C 
BRANCH   6   7
ATOM      7  C   UNL     1      -2.255   1.479   1.024  1.00  0.00     0.082 C 
BRANCH   7   8
ATOM      8  N   UNL     1      -2.078   0.714   2.286  1.00  0.00    -0.207 NA
ATOM      9  H   UNL     1      -1.822   1.450   2.944  1.00  0.00     0.141 HD
BRANCH   8  10
ATOM     10  S   UNL     1      -1.153  -0.605   2.857  1.00  0.00     0.252 S 
ATOM     11  O   UNL     1      -2.265  -1.305   3.493  1.00  0.00    -0.206 OA
ATOM     12  O   UNL     1      -0.182  -0.030   3.769  1.00  0.00    -0.206 OA
BRANCH  10  13
ATOM     13  C   UNL     1      -0.292  -1.870   1.899  1.00  0.00     0.158 A 
ATOM     14  C   UNL     1       2.219  -1.225   0.936  1.00  0.00     0.067 C 
ATOM     15  C   UNL     1       0.959  -1.980   1.330  1.00  0.00     0.046 A 
ATOM     16  N   UNL     1       1.248  -3.302   0.990  1.00  0.00    -0.315 N 
ATOM     17  C   UNL     1       0.398  -4.302   1.339  1.00  0.00     0.305 A 
ATOM     18  H   UNL     1       2.073  -3.511   0.495  1.00  0.00     0.170 HD
ATOM     19  S   UNL     1      -0.991  -3.550   2.052  1.00  0.00    -0.061 S 
ATOM     20  O   UNL     1       0.583  -5.481   1.180  1.00  0.00    -0.257 OA
ENDBRANCH  10  13
ENDBRANCH   8  10
ENDBRANCH   7   8
BRANCH   7  21
ATOM     21  C   UNL     1      -3.711   1.973   0.848  1.00  0.00     0.021 C 
BRANCH  21  22
ATOM     22  C   UNL     1      -4.290   1.897  -0.572  1.00  0.00     0.002 CG0
ATOM     23  G   UNL     1      -4.747   0.488  -0.930  1.00  0.00     0.000 G0
ENDBRANCH  21  22
ENDBRANCH   7  21
ENDBRANCH   6   7
BRANCH   6  24
ATOM     24  C   UNL     1      -2.426  -0.579  -0.322  1.00  0.00     0.015 C 
BRANCH  24  25
ATOM     25  C   UNL     1      -3.651  -0.537  -1.244  1.00  0.00     0.001 C 
BRANCH  25  26
ATOM     26  C   UNL     1      -4.747   0.488  -0.930  1.00  0.00     0.000 CG0
ATOM     27  G   UNL     1      -4.290   1.897  -0.572  1.00  0.00     0.000 G0
ENDBRANCH  25  26
ENDBRANCH  24  25
ENDBRANCH   6  24
ENDBRANCH   3   6
ENDBRANCH   1   2
BRANCH   1  28
ATOM     28  C   UNL     1       0.275   3.060   2.896  1.00  0.00     0.042 C 
BRANCH  28  29
ATOM     29  C   UNL     1       1.318   2.424   3.804  1.00  0.00     0.118 C 
BRANCH  29  30
ATOM     30  N   UNL     1       2.487   3.270   4.017  1.00  0.00    -0.352 N 
ATOM     31  C   UNL     1       3.358   3.264   5.091  1.00  0.00     0.251 C 
ATOM     32  H   UNL     1       2.680   3.926   3.308  1.00  0.00     0.163 HD
ATOM     33  O   UNL     1       4.037   4.256   5.335  1.00  0.00    -0.269 OA
BRANCH  31  34
ATOM     34  C   UNL     1       3.506   2.043   5.913  1.00  0.00     0.039 A 
ATOM     35  C   UNL     1       4.028   2.073   7.211  1.00  0.00     0.014 A 
ATOM     36  C   UNL     1       3.176   0.821   5.337  1.00  0.00     0.014 A 
ATOM     37  C   UNL     1       4.308   0.862   7.843  1.00  0.00     0.010 A 
ATOM     38  C   UNL     1       3.147  -0.316   6.077  1.00  0.00     0.010 A 
ATOM     39  C   UNL     1       3.916  -0.327   7.216  1.00  0.00    -0.014 A 
BRANCH  39  40
ATOM     40  C   UNL     1       4.243  -1.650   7.704  1.00  0.00     0.031 A 
ATOM     41  C   UNL     1       3.533  -1.980   8.955  1.00  0.00     0.074 A 
ATOM     42  C   UNL     1       4.895  -2.556   6.936  1.00  0.00     0.049 A 
ATOM     43  N   UNL     1       4.043  -2.102  10.132  1.00  0.00    -0.248 NA
ATOM     44  C   UNL     1       2.061  -1.973   8.932  1.00  0.00     0.031 C 
ATOM     45  C   UNL     1       5.340  -2.447   5.538  1.00  0.00     0.029 A 
ATOM     46  N   UNL     1       5.229  -3.839   7.244  1.00  0.00    -0.354 N 
ATOM     47  C   UNL     1       2.974  -2.398  10.969  1.00  0.00     0.074 A 
ATOM     48  C   UNL     1       1.782  -2.078  10.232  1.00  0.00     0.031 C 
ATOM     49  C   UNL     1       5.683  -3.670   5.066  1.00  0.00     0.029 A 
ATOM     50  C   UNL     1       5.634  -4.619   6.160  1.00  0.00     0.049 A 
ATOM     51  H   UNL     1       5.189  -4.190   8.162  1.00  0.00     0.167 HD
ATOM     52  C   UNL     1       3.161  -3.140  12.093  1.00  0.00     0.037 A 
ATOM     53  C   UNL     1       5.859  -5.960   6.195  1.00  0.00     0.037 A 
ATOM     54  C   UNL     1       4.564  -3.217  12.424  1.00  0.00     0.049 A 
ATOM     55  C   UNL     1       6.058  -6.320   7.627  1.00  0.00     0.074 A 
ATOM     56  C   UNL     1       5.525  -2.289  12.774  1.00  0.00     0.029 A 
ATOM     57  N   UNL     1       5.253  -4.328  12.000  1.00  0.00    -0.354 N 
ATOM     58  N   UNL     1       7.069  -5.898   8.338  1.00  0.00    -0.248 NA
ATOM     59  C   UNL     1       4.872  -6.697   8.382  1.00  0.00     0.031 C 
ATOM     60  C   UNL     1       6.704  -2.703  12.088  1.00  0.00     0.029 A 
ATOM     61  C   UNL     1       6.428  -3.905  11.433  1.00  0.00     0.049 A 
ATOM     62  H   UNL     1       4.956  -5.263  12.088  1.00  0.00     0.167 HD
ATOM     63  C   UNL     1       6.521  -5.557   9.567  1.00  0.00     0.074 A 
ATOM     64  C   UNL     1       5.167  -6.110   9.546  1.00  0.00     0.031 C 
ATOM     65  C   UNL     1       7.096  -4.603  10.357  1.00  0.00     0.037 A 
BRANCH  52  66
ATOM     66  C   UNL     1       2.151  -4.107  12.657  1.00  0.00     0.064 A 
ATOM     67  C   UNL     1       2.426  -4.724  13.893  1.00  0.00     0.173 A 
ATOM     68  C   UNL     1       1.088  -4.673  11.919  1.00  0.00     0.173 A 
ATOM     69  F   UNL     1       3.419  -4.274  14.675  1.00  0.00    -0.203 F 
ATOM     70  C   UNL     1       1.749  -5.871  14.312  1.00  0.00     0.198 A 
ATOM     71  C   UNL     1       0.379  -5.785  12.366  1.00  0.00     0.198 A 
ATOM     72  F   UNL     1       0.761  -4.257  10.692  1.00  0.00    -0.203 F 
ATOM     73  F   UNL     1       2.134  -6.497  15.432  1.00  0.00    -0.200 F 
ATOM     74  C   UNL     1       0.732  -6.406  13.544  1.00  0.00     0.200 A 
ATOM     75  F   UNL     1      -0.594  -6.297  11.598  1.00  0.00    -0.200 F 
ATOM     76  F   UNL     1       0.125  -7.542  13.911  1.00  0.00    -0.200 F 
ENDBRANCH  52  66
BRANCH  53  77
ATOM     77  C   UNL     1       5.513  -6.978   5.166  1.00  0.00     0.064 A 
ATOM     78  C   UNL     1       6.063  -8.272   5.197  1.00  0.00     0.173 A 
ATOM     79  C   UNL     1       4.412  -6.792   4.307  1.00  0.00     0.173 A 
ATOM     80  F   UNL     1       7.082  -8.550   6.024  1.00  0.00    -0.203 F 
ATOM     81  C   UNL     1       5.531  -9.318   4.431  1.00  0.00     0.198 A 
ATOM     82  C   UNL     1       3.882  -7.836   3.545  1.00  0.00     0.198 A 
ATOM     83  F   UNL     1       3.772  -5.614   4.261  1.00  0.00    -0.203 F 
ATOM     84  F   UNL     1       6.050 -10.551   4.526  1.00  0.00    -0.200 F 
ATOM     85  C   UNL     1       4.433  -9.102   3.615  1.00  0.00     0.200 A 
ATOM     86  F   UNL     1       2.796  -7.622   2.791  1.00  0.00    -0.200 F 
ATOM     87  F   UNL     1       3.886 -10.115   2.928  1.00  0.00    -0.200 F 
ENDBRANCH  53  77
BRANCH  65  88
ATOM     88  C   UNL     1       8.454  -4.084   9.964  1.00  0.00     0.064 A 
ATOM     89  C   UNL     1       8.708  -3.327   8.806  1.00  0.00     0.173 A 
ATOM     90  C   UNL     1       9.496  -4.204  10.891  1.00  0.00     0.173 A 
ATOM     91  F   UNL     1       7.742  -3.089   7.912  1.00  0.00    -0.203 F 
ATOM     92  C   UNL     1       9.954  -2.741   8.580  1.00  0.00     0.198 A 
ATOM     93  C   UNL     1      10.727  -3.591  10.681  1.00  0.00     0.198 A 
ATOM     94  F   UNL     1       9.296  -4.870  12.039  1.00  0.00    -0.203 F 
ATOM     95  F   UNL     1      10.169  -2.020   7.469  1.00  0.00    -0.200 F 
ATOM     96  C   UNL     1      10.959  -2.865   9.524  1.00  0.00     0.200 A 
ATOM     97  F   UNL     1      11.679  -3.673  11.620  1.00  0.00    -0.200 F 
ATOM     98  F   UNL     1      12.141  -2.261   9.333  1.00  0.00    -0.200 F 
ENDBRANCH  65  88
ENDBRANCH  39  40
ENDBRANCH  31  34
ENDBRANCH  29  30
ENDBRANCH  28  29
ENDBRANCH   1  28
TORSDOF 13
