REMARK SMILES Cc1nn(C)cc1-c1cc(C(F)(F)F)nc(N2CCC[C@@H]2C(=O)NCCCNC(=O)c2ccc(-c3c4nc(c(-c5c(F)c(F)c(F)c(F)c5F)c5ccc([nH]5)c(-c5c(F)c(F)c(F)c(F)c5F)c5nc(c(-c6c(F)c(F)c(F)c(F)c6F)c6ccc3[nH]6)C=C5)C=C4)cc2)n1
REMARK SMILES IDX 26 1 25 2 24 3 22 4 23 5 21 7 17 8 18 9 19 10 20 11 16 12
REMARK SMILES IDX 8 13 9 14 94 15 10 16 15 17 7 18 1 19 2 20 3 21 4 22 6 23
REMARK SMILES IDX 5 24 11 25 12 26 13 27 14 28 27 29 28 30 29 31 30 33 31 34
REMARK SMILES IDX 32 35 93 36 33 37 92 38 34 39 35 40 36 41 86 42 37 43 91 44
REMARK SMILES IDX 85 45 87 46 38 47 90 48 84 49 83 50 39 52 71 53 51 54 70 55
REMARK SMILES IDX 52 56 55 57 69 58 88 59 53 60 54 61 68 63 89 64 56 65 40 66
REMARK SMILES IDX 41 67 49 68 42 69 43 70 47 71 50 72 44 73 45 74 48 75 46 76
REMARK SMILES IDX 72 77 73 78 81 79 74 80 75 81 79 82 82 83 76 84 77 85 80 86
REMARK SMILES IDX 78 87 57 88 58 89 66 90 59 91 60 92 64 93 67 94 61 95 62 96
REMARK SMILES IDX 65 97 63 98
REMARK H PARENT 24 6 28 32 87 51 55 62
REMARK Flexibility Score: inf
ROOT
ATOM      1  C   UNL     1      -5.888  -6.803   2.769  1.00  0.00     0.042 C 
ENDROOT
BRANCH   1   2
ATOM      2  C   UNL     1      -5.047  -5.730   2.091  1.00  0.00     0.117 C 
BRANCH   2   3
ATOM      3  N   UNL     1      -4.680  -4.662   3.001  1.00  0.00    -0.354 N 
ATOM      4  C   UNL     1      -3.477  -4.304   3.536  1.00  0.00     0.242 C 
ATOM      5  O   UNL     1      -3.494  -3.336   4.307  1.00  0.00    -0.273 OA
ATOM      6  H   UNL     1      -5.433  -4.093   3.283  1.00  0.00     0.163 HD
BRANCH   4   7
ATOM      7  C   UNL     1      -2.165  -5.085   3.299  1.00  0.00     0.174 C 
ATOM      8  N   UNL     1      -1.929  -5.475   1.919  1.00  0.00    -0.329 N 
ATOM      9  C   UNL     1      -1.590  -6.865   1.750  1.00  0.00     0.120 C 
ATOM     10  C   UNL     1      -2.119  -7.517   3.025  1.00  0.00     0.024 C 
ATOM     11  C   UNL     1      -2.123  -6.408   4.076  1.00  0.00     0.037 C 
BRANCH   8  12
ATOM     12  C   UNL     1      -1.985  -4.583   0.899  1.00  0.00     0.227 A 
ATOM     13  C   UNL     1      -1.557  -2.506   0.042  1.00  0.00     0.080 A 
ATOM     14  C   UNL     1      -2.396  -2.714  -1.028  1.00  0.00     0.062 A 
ATOM     15  N   UNL     1      -1.375  -3.405   1.027  1.00  0.00    -0.213 NA
ATOM     16  C   UNL     1      -3.007  -3.947  -1.081  1.00  0.00     0.150 A 
ATOM     17  N   UNL     1      -2.763  -4.899  -0.145  1.00  0.00    -0.208 NA
BRANCH  13  18
ATOM     18  C   UNL     1      -0.770  -1.295   0.118  1.00  0.00     0.041 A 
ATOM     19  C   UNL     1      -2.480   0.691   0.044  1.00  0.00     0.069 C 
ATOM     20  C   UNL     1      -1.130   0.077   0.075  1.00  0.00     0.069 A 
ATOM     21  N   UNL     1      -0.048   0.870   0.059  1.00  0.00    -0.178 NA
ATOM     22  N   UNL     1       0.987   0.013   0.120  1.00  0.00    -0.275 N 
ATOM     23  C   UNL     1       0.609  -1.294   0.164  1.00  0.00     0.119 A 
ATOM     24  C   UNL     1       2.335   0.524   0.085  1.00  0.00     0.173 C 
ENDBRANCH  13  18
BRANCH  16  25
ATOM     25  C   UNL     1      -4.033  -4.242  -2.158  1.00  0.00     0.433 C 
ATOM     26  F   UNL     1      -3.796  -5.404  -2.829  1.00  0.00    -0.165 F 
ATOM     27  F   UNL     1      -5.297  -4.347  -1.654  1.00  0.00    -0.165 F 
ATOM     28  F   UNL     1      -4.103  -3.272  -3.116  1.00  0.00    -0.165 F 
ENDBRANCH  16  25
ENDBRANCH   8  12
ENDBRANCH   4   7
ENDBRANCH   2   3
ENDBRANCH   1   2
BRANCH   1  29
ATOM     29  C   UNL     1      -7.319  -6.371   3.054  1.00  0.00     0.118 C 
BRANCH  29  30
ATOM     30  N   UNL     1      -8.087  -6.154   1.836  1.00  0.00    -0.352 N 
ATOM     31  C   UNL     1      -9.292  -6.673   1.440  1.00  0.00     0.251 C 
ATOM     32  H   UNL     1      -7.673  -5.535   1.193  1.00  0.00     0.163 HD
ATOM     33  O   UNL     1      -9.677  -6.486   0.287  1.00  0.00    -0.269 OA
BRANCH  31  34
ATOM     34  C   UNL     1     -10.135  -7.458   2.369  1.00  0.00     0.039 A 
ATOM     35  C   UNL     1     -10.865  -8.535   1.855  1.00  0.00     0.014 A 
ATOM     36  C   UNL     1     -10.271  -7.107   3.714  1.00  0.00     0.014 A 
ATOM     37  C   UNL     1     -11.705  -9.273   2.691  1.00  0.00     0.010 A 
ATOM     38  C   UNL     1     -11.049  -7.889   4.565  1.00  0.00     0.010 A 
ATOM     39  C   UNL     1     -11.793  -8.963   4.057  1.00  0.00    -0.014 A 
BRANCH  39  40
ATOM     40  C   UNL     1     -12.702  -9.717   4.955  1.00  0.00     0.031 A 
ATOM     41  C   UNL     1     -13.883  -9.023   5.578  1.00  0.00     0.074 A 
ATOM     42  C   UNL     1     -12.444 -11.006   5.244  1.00  0.00     0.049 A 
ATOM     43  N   UNL     1     -14.760  -9.485   6.433  1.00  0.00    -0.248 NA
ATOM     44  C   UNL     1     -14.088  -7.612   5.212  1.00  0.00     0.031 C 
ATOM     45  C   UNL     1     -11.307 -11.775   4.736  1.00  0.00     0.029 A 
ATOM     46  N   UNL     1     -13.118 -11.894   6.043  1.00  0.00    -0.354 N 
ATOM     47  C   UNL     1     -15.602  -8.418   6.723  1.00  0.00     0.074 A 
ATOM     48  C   UNL     1     -15.104  -7.274   5.992  1.00  0.00     0.031 C 
ATOM     49  C   UNL     1     -11.374 -13.026   5.219  1.00  0.00     0.029 A 
ATOM     50  C   UNL     1     -12.540 -13.139   6.090  1.00  0.00     0.049 A 
ATOM     51  H   UNL     1     -13.938 -11.661   6.536  1.00  0.00     0.167 HD
ATOM     52  C   UNL     1     -16.704  -8.401   7.509  1.00  0.00     0.037 A 
ATOM     53  C   UNL     1     -12.914 -14.245   6.761  1.00  0.00     0.037 A 
ATOM     54  C   UNL     1     -17.221  -9.551   8.203  1.00  0.00     0.049 A 
ATOM     55  C   UNL     1     -14.161 -14.208   7.602  1.00  0.00     0.074 A 
ATOM     56  C   UNL     1     -18.359  -9.651   8.983  1.00  0.00     0.029 A 
ATOM     57  N   UNL     1     -16.631 -10.806   8.191  1.00  0.00    -0.354 N 
ATOM     58  N   UNL     1     -14.979 -13.209   7.825  1.00  0.00    -0.248 NA
ATOM     59  C   UNL     1     -14.543 -15.458   8.273  1.00  0.00     0.031 C 
ATOM     60  C   UNL     1     -18.443 -10.961   9.468  1.00  0.00     0.029 A 
ATOM     61  C   UNL     1     -17.379 -11.686   8.956  1.00  0.00     0.049 A 
ATOM     62  H   UNL     1     -15.804 -11.038   7.710  1.00  0.00     0.167 HD
ATOM     63  C   UNL     1     -15.988 -13.716   8.633  1.00  0.00     0.074 A 
ATOM     64  C   UNL     1     -15.684 -15.114   8.853  1.00  0.00     0.031 C 
ATOM     65  C   UNL     1     -17.069 -13.080   9.147  1.00  0.00     0.037 A 
BRANCH  52  66
ATOM     66  C   UNL     1     -17.430  -7.095   7.655  1.00  0.00     0.064 A 
ATOM     67  C   UNL     1     -18.162  -6.538   6.594  1.00  0.00     0.173 A 
ATOM     68  C   UNL     1     -17.414  -6.403   8.875  1.00  0.00     0.173 A 
ATOM     69  F   UNL     1     -18.197  -7.154   5.403  1.00  0.00    -0.203 F 
ATOM     70  C   UNL     1     -18.825  -5.323   6.741  1.00  0.00     0.198 A 
ATOM     71  C   UNL     1     -18.104  -5.203   9.027  1.00  0.00     0.198 A 
ATOM     72  F   UNL     1     -16.734  -6.893   9.922  1.00  0.00    -0.203 F 
ATOM     73  F   UNL     1     -19.475  -4.787   5.699  1.00  0.00    -0.200 F 
ATOM     74  C   UNL     1     -18.801  -4.660   7.959  1.00  0.00     0.200 A 
ATOM     75  F   UNL     1     -18.089  -4.568  10.207  1.00  0.00    -0.200 F 
ATOM     76  F   UNL     1     -19.444  -3.493   8.100  1.00  0.00    -0.200 F 
ENDBRANCH  52  66
BRANCH  53  77
ATOM     77  C   UNL     1     -12.120 -15.493   6.630  1.00  0.00     0.064 A 
ATOM     78  C   UNL     1     -12.623 -16.590   5.918  1.00  0.00     0.173 A 
ATOM     79  C   UNL     1     -10.848 -15.615   7.208  1.00  0.00     0.173 A 
ATOM     80  F   UNL     1     -13.842 -16.526   5.364  1.00  0.00    -0.203 F 
ATOM     81  C   UNL     1     -11.892 -17.771   5.806  1.00  0.00     0.198 A 
ATOM     82  C   UNL     1     -10.108 -16.788   7.074  1.00  0.00     0.198 A 
ATOM     83  F   UNL     1     -10.321 -14.591   7.894  1.00  0.00    -0.203 F 
ATOM     84  F   UNL     1     -12.414 -18.820   5.155  1.00  0.00    -0.200 F 
ATOM     85  C   UNL     1     -10.633 -17.867   6.379  1.00  0.00     0.200 A 
ATOM     86  F   UNL     1      -8.887 -16.872   7.618  1.00  0.00    -0.200 F 
ATOM     87  F   UNL     1      -9.929 -19.002   6.269  1.00  0.00    -0.200 F 
ENDBRANCH  53  77
BRANCH  65  88
ATOM     88  C   UNL     1     -18.027 -13.902   9.956  1.00  0.00     0.064 A 
ATOM     89  C   UNL     1     -17.712 -14.339  11.250  1.00  0.00     0.173 A 
ATOM     90  C   UNL     1     -19.292 -14.225   9.440  1.00  0.00     0.173 A 
ATOM     91  F   UNL     1     -16.510 -14.067  11.780  1.00  0.00    -0.203 F 
ATOM     92  C   UNL     1     -18.619 -15.093  11.990  1.00  0.00     0.198 A 
ATOM     93  C   UNL     1     -20.206 -14.956  10.193  1.00  0.00     0.198 A 
ATOM     94  F   UNL     1     -19.643 -13.824   8.209  1.00  0.00    -0.203 F 
ATOM     95  F   UNL     1     -18.279 -15.540  13.207  1.00  0.00    -0.200 F 
ATOM     96  C   UNL     1     -19.866 -15.396  11.464  1.00  0.00     0.200 A 
ATOM     97  F   UNL     1     -21.414 -15.238   9.688  1.00  0.00    -0.200 F 
ATOM     98  F   UNL     1     -20.739 -16.119  12.179  1.00  0.00    -0.200 F 
ENDBRANCH  65  88
ENDBRANCH  39  40
ENDBRANCH  31  34
ENDBRANCH  29  30
ENDBRANCH   1  29
TORSDOF 13
