REMARK SMILES O=C(NCCCNC(=O)[C@H](CO)NC(=O)[C@H](CS)NC(=O)[C@H](Cc1c[nH]c2ccccc12)NC(=O)c1ccc(F)cc1)c1ccc(-c2c3nc(c(-c4c(F)c(F)c(F)c(F)c4F)c4ccc([nH]4)c(-c4c(F)c(F)c(F)c(F)c4F)c4nc(c(-c5c(F)c(F)c(F)c(F)c5F)c5ccc2[nH]5)C=C4)C=C3)cc1
REMARK SMILES IDX 7 1 8 2 9 3 6 5 5 6 4 7 3 8 1 9 2 10 43 12 44 13 105 14
REMARK SMILES IDX 45 15 104 16 46 17 47 18 48 19 98 20 49 21 103 22 97 23
REMARK SMILES IDX 99 24 50 25 102 26 96 27 95 28 51 30 83 31 63 32 82 33 64 34
REMARK SMILES IDX 67 35 81 36 100 37 65 38 66 39 80 41 101 42 68 43 52 44
REMARK SMILES IDX 53 45 61 46 54 47 55 48 59 49 62 50 56 51 57 52 60 53 58 54
REMARK SMILES IDX 84 55 85 56 93 57 86 58 87 59 91 60 94 61 88 62 89 63 92 64
REMARK SMILES IDX 90 65 69 66 70 67 78 68 71 69 72 70 76 71 79 72 73 73 74 74
REMARK SMILES IDX 77 75 75 76 10 77 13 78 14 79 15 81 16 82 19 83 20 84 21 86
REMARK SMILES IDX 22 87 33 88 34 89 35 91 36 92 37 93 42 94 38 95 41 96 39 97
REMARK SMILES IDX 40 98 23 99 24 100 25 101 32 102 26 103 27 104 31 105 28 107
REMARK SMILES IDX 30 108 29 109 17 110 18 111 11 113 12 114
REMARK H PARENT 7 4 3 11 99 29 67 40 13 80 19 85 33 90 26 106 18 112 12 115
REMARK Flexibility Score: inf
ROOT
ATOM      1  N   UNL     1       3.306  11.055  -5.228  1.00  0.00    -0.354 N 
ATOM      2  C   UNL     1       3.981  10.762  -6.367  1.00  0.00     0.244 C 
ATOM      3  O   UNL     1       5.091  11.281  -6.510  1.00  0.00    -0.273 OA
ATOM      4  H   UNL     1       3.766  11.697  -4.639  1.00  0.00     0.163 HD
ENDROOT
BRANCH   1   5
ATOM      5  C   UNL     1       2.027  10.591  -4.722  1.00  0.00     0.117 C 
BRANCH   5   6
ATOM      6  C   UNL     1       2.161  10.015  -3.325  1.00  0.00     0.042 C 
BRANCH   6   7
ATOM      7  C   UNL     1       2.684  11.014  -2.306  1.00  0.00     0.118 C 
BRANCH   7   8
ATOM      8  N   UNL     1       1.744  12.095  -2.038  1.00  0.00    -0.352 N 
ATOM      9  O   UNL     1       0.149  13.220  -0.900  1.00  0.00    -0.269 OA
ATOM     10  C   UNL     1       1.034  12.372  -0.893  1.00  0.00     0.251 C 
ATOM     11  H   UNL     1       1.596  12.719  -2.786  1.00  0.00     0.163 HD
BRANCH  10  12
ATOM     12  C   UNL     1       1.336  11.623   0.343  1.00  0.00     0.039 A 
ATOM     13  C   UNL     1       2.661  11.382   0.699  1.00  0.00     0.014 A 
ATOM     14  C   UNL     1       0.294  11.138   1.140  1.00  0.00     0.014 A 
ATOM     15  C   UNL     1       2.943  10.494   1.722  1.00  0.00     0.010 A 
ATOM     16  C   UNL     1       0.587  10.354   2.261  1.00  0.00     0.010 A 
ATOM     17  C   UNL     1       1.914  10.000   2.543  1.00  0.00    -0.014 A 
BRANCH  17  18
ATOM     18  C   UNL     1       2.302   9.199   3.732  1.00  0.00     0.031 A 
ATOM     19  C   UNL     1       1.891   7.764   3.888  1.00  0.00     0.074 A 
ATOM     20  C   UNL     1       3.132   9.774   4.625  1.00  0.00     0.049 A 
ATOM     21  N   UNL     1       2.227   6.916   4.829  1.00  0.00    -0.248 NA
ATOM     22  C   UNL     1       0.984   7.201   2.876  1.00  0.00     0.031 C 
ATOM     23  C   UNL     1       3.582  11.169   4.569  1.00  0.00     0.029 A 
ATOM     24  N   UNL     1       3.798   9.258   5.705  1.00  0.00    -0.354 N 
ATOM     25  C   UNL     1       1.553   5.738   4.542  1.00  0.00     0.074 A 
ATOM     26  C   UNL     1       0.781   5.974   3.341  1.00  0.00     0.031 C 
ATOM     27  C   UNL     1       4.536  11.362   5.488  1.00  0.00     0.029 A 
ATOM     28  C   UNL     1       4.695  10.139   6.262  1.00  0.00     0.049 A 
ATOM     29  H   UNL     1       3.649   8.348   6.049  1.00  0.00     0.167 HD
ATOM     30  C   UNL     1       1.582   4.569   5.225  1.00  0.00     0.037 A 
ATOM     31  C   UNL     1       5.551   9.982   7.288  1.00  0.00     0.037 A 
ATOM     32  C   UNL     1       2.383   4.337   6.401  1.00  0.00     0.049 A 
ATOM     33  C   UNL     1       5.570   8.670   8.011  1.00  0.00     0.074 A 
ATOM     34  C   UNL     1       2.485   3.184   7.160  1.00  0.00     0.029 A 
ATOM     35  N   UNL     1       3.228   5.272   6.980  1.00  0.00    -0.354 N 
ATOM     36  N   UNL     1       4.906   7.573   7.742  1.00  0.00    -0.248 NA
ATOM     37  C   UNL     1       6.431   8.582   9.196  1.00  0.00     0.031 C 
ATOM     38  C   UNL     1       3.368   3.431   8.216  1.00  0.00     0.029 A 
ATOM     39  C   UNL     1       3.845   4.726   8.093  1.00  0.00     0.049 A 
ATOM     40  H   UNL     1       3.368   6.189   6.648  1.00  0.00     0.167 HD
ATOM     41  C   UNL     1       5.253   6.669   8.732  1.00  0.00     0.074 A 
ATOM     42  C   UNL     1       6.223   7.331   9.582  1.00  0.00     0.031 C 
ATOM     43  C   UNL     1       4.795   5.410   8.931  1.00  0.00     0.037 A 
BRANCH  30  44
ATOM     44  C   UNL     1       0.721   3.441   4.740  1.00  0.00     0.064 A 
ATOM     45  C   UNL     1      -0.420   3.060   5.464  1.00  0.00     0.173 A 
ATOM     46  C   UNL     1       1.080   2.670   3.626  1.00  0.00     0.173 A 
ATOM     47  F   UNL     1      -0.802   3.763   6.541  1.00  0.00    -0.203 F 
ATOM     48  C   UNL     1      -1.157   1.936   5.102  1.00  0.00     0.198 A 
ATOM     49  C   UNL     1       0.329   1.557   3.255  1.00  0.00     0.198 A 
ATOM     50  F   UNL     1       2.155   3.000   2.895  1.00  0.00    -0.203 F 
ATOM     51  F   UNL     1      -2.222   1.571   5.829  1.00  0.00    -0.200 F 
ATOM     52  C   UNL     1      -0.781   1.184   3.999  1.00  0.00     0.200 A 
ATOM     53  F   UNL     1       0.682   0.840   2.179  1.00  0.00    -0.200 F 
ATOM     54  F   UNL     1      -1.489   0.099   3.654  1.00  0.00    -0.200 F 
ENDBRANCH  30  44
BRANCH  31  55
ATOM     55  C   UNL     1       6.442  11.103   7.684  1.00  0.00     0.064 A 
ATOM     56  C   UNL     1       5.924  12.291   8.220  1.00  0.00     0.173 A 
ATOM     57  C   UNL     1       7.827  11.023   7.493  1.00  0.00     0.173 A 
ATOM     58  F   UNL     1       4.604  12.420   8.417  1.00  0.00    -0.203 F 
ATOM     59  C   UNL     1       6.754  13.367   8.522  1.00  0.00     0.198 A 
ATOM     60  C   UNL     1       8.661  12.089   7.825  1.00  0.00     0.198 A 
ATOM     61  F   UNL     1       8.372   9.901   6.999  1.00  0.00    -0.203 F 
ATOM     62  F   UNL     1       6.226  14.508   8.987  1.00  0.00    -0.200 F 
ATOM     63  C   UNL     1       8.123  13.264   8.329  1.00  0.00     0.200 A 
ATOM     64  F   UNL     1       9.986  11.977   7.659  1.00  0.00    -0.200 F 
ATOM     65  F   UNL     1       8.923  14.296   8.629  1.00  0.00    -0.200 F 
ENDBRANCH  31  55
BRANCH  43  66
ATOM     66  C   UNL     1       5.327   4.680  10.125  1.00  0.00     0.064 A 
ATOM     67  C   UNL     1       6.246   3.633   9.973  1.00  0.00     0.173 A 
ATOM     68  C   UNL     1       4.895   5.001  11.421  1.00  0.00     0.173 A 
ATOM     69  F   UNL     1       6.683   3.289   8.752  1.00  0.00    -0.203 F 
ATOM     70  C   UNL     1       6.713   2.929  11.078  1.00  0.00     0.198 A 
ATOM     71  C   UNL     1       5.382   4.310  12.525  1.00  0.00     0.198 A 
ATOM     72  F   UNL     1       4.029   6.007  11.614  1.00  0.00    -0.203 F 
ATOM     73  F   UNL     1       7.579   1.920  10.911  1.00  0.00    -0.200 F 
ATOM     74  C   UNL     1       6.285   3.271  12.353  1.00  0.00     0.200 A 
ATOM     75  F   UNL     1       4.989   4.658  13.758  1.00  0.00    -0.200 F 
ATOM     76  F   UNL     1       6.751   2.604  13.418  1.00  0.00    -0.200 F 
ENDBRANCH  43  66
ENDBRANCH  17  18
ENDBRANCH  10  12
ENDBRANCH   7   8
ENDBRANCH   6   7
ENDBRANCH   5   6
ENDBRANCH   1   5
BRANCH   2  77
ATOM     77  C   UNL     1       3.414   9.824  -7.441  1.00  0.00     0.197 C 
BRANCH  77  78
ATOM     78  N   UNL     1       3.372   8.427  -6.995  1.00  0.00    -0.340 N 
ATOM     79  C   UNL     1       3.667   7.273  -7.662  1.00  0.00     0.244 C 
ATOM     80  H   UNL     1       3.083   8.301  -6.063  1.00  0.00     0.164 HD
ATOM     81  O   UNL     1       3.369   6.231  -7.074  1.00  0.00    -0.273 OA
BRANCH  79  82
ATOM     82  C   UNL     1       4.358   7.291  -9.052  1.00  0.00     0.181 C 
BRANCH  82  83
ATOM     83  N   UNL     1       4.726   5.929  -9.476  1.00  0.00    -0.342 N 
ATOM     84  C   UNL     1       5.825   5.506 -10.170  1.00  0.00     0.243 C 
ATOM     85  H   UNL     1       4.089   5.223  -9.223  1.00  0.00     0.164 HD
ATOM     86  O   UNL     1       5.647   4.750 -11.130  1.00  0.00    -0.273 OA
BRANCH  84  87
ATOM     87  C   UNL     1       7.260   5.752  -9.641  1.00  0.00     0.176 C 
BRANCH  87  88
ATOM     88  N   UNL     1       7.454   7.137  -9.222  1.00  0.00    -0.340 N 
ATOM     89  C   UNL     1       7.869   8.210  -9.976  1.00  0.00     0.251 C 
ATOM     90  H   UNL     1       7.262   7.329  -8.275  1.00  0.00     0.164 HD
ATOM     91  O   UNL     1       7.809   9.339  -9.511  1.00  0.00    -0.269 OA
BRANCH  89  92
ATOM     92  C   UNL     1       8.463   8.005 -11.320  1.00  0.00     0.040 A 
ATOM     93  C   UNL     1       7.787   7.358 -12.363  1.00  0.00     0.017 A 
ATOM     94  C   UNL     1       9.760   8.495 -11.525  1.00  0.00     0.017 A 
ATOM     95  C   UNL     1       8.442   7.128 -13.576  1.00  0.00     0.040 A 
ATOM     96  C   UNL     1      10.404   8.278 -12.745  1.00  0.00     0.040 A 
ATOM     97  C   UNL     1       9.745   7.583 -13.753  1.00  0.00     0.123 A 
ATOM     98  F   UNL     1      10.373   7.351 -14.913  1.00  0.00    -0.207 F 
ENDBRANCH  89  92
ENDBRANCH  87  88
BRANCH  87  99
ATOM     99  C   UNL     1       7.710   4.730  -8.567  1.00  0.00     0.072 C 
BRANCH  99 100
ATOM    100  C   UNL     1       6.622   4.106  -7.749  1.00  0.00    -0.020 A 
ATOM    101  C   UNL     1       6.235   4.452  -6.470  1.00  0.00     0.087 A 
ATOM    102  C   UNL     1       5.746   3.048  -8.174  1.00  0.00     0.003 A 
ATOM    103  N   UNL     1       5.126   3.713  -6.145  1.00  0.00    -0.361 N 
ATOM    104  C   UNL     1       4.787   2.874  -7.180  1.00  0.00     0.046 A 
ATOM    105  C   UNL     1       5.637   2.277  -9.351  1.00  0.00     0.010 A 
ATOM    106  H   UNL     1       4.641   3.776  -5.291  1.00  0.00     0.166 HD
ATOM    107  C   UNL     1       3.700   2.002  -7.321  1.00  0.00     0.026 A 
ATOM    108  C   UNL     1       4.549   1.415  -9.519  1.00  0.00     0.001 A 
ATOM    109  C   UNL     1       3.591   1.287  -8.518  1.00  0.00     0.002 A 
ENDBRANCH  99 100
ENDBRANCH  87  99
ENDBRANCH  84  87
ENDBRANCH  82  83
BRANCH  82 110
ATOM    110  C   UNL     1       3.530   7.927 -10.182  1.00  0.00     0.101 C 
BRANCH 110 111
ATOM    111  S   UNL     1       1.898   7.155 -10.450  1.00  0.00    -0.177 SA
ATOM    112  H   UNL     1       2.066   5.859 -10.826  1.00  0.00     0.102 HD
ENDBRANCH 110 111
ENDBRANCH  82 110
ENDBRANCH  79  82
ENDBRANCH  77  78
BRANCH  77 113
ATOM    113  C   UNL     1       2.042  10.316  -7.952  1.00  0.00     0.191 C 
BRANCH 113 114
ATOM    114  O   UNL     1       0.961   9.469  -7.550  1.00  0.00    -0.394 OA
ATOM    115  H   UNL     1       1.089   8.582  -7.920  1.00  0.00     0.210 HD
ENDBRANCH 113 114
ENDBRANCH  77 113
ENDBRANCH   2  77
TORSDOF 22
