REMARK SMILES CC(C)(C)c1cc(-n2cnc(C(=O)NCCCNC(=O)c3ccc(-c4c5nc(c(-c6c(F)c(F)c(F)c(F)c6F)c6ccc([nH]6)c(-c6c(F)c(F)c(F)c(F)c6F)c6nc(c(-c7c(F)c(F)c(F)c(F)c7F)c7ccc4[nH]7)C=C6)C=C5)cc3)c2)nc(Cl)n1
REMARK SMILES IDX 16 1 15 2 14 3 12 4 13 5 11 7 8 8 9 9 84 10 10 11 7 12 5 13
REMARK SMILES IDX 6 14 88 15 86 16 85 17 87 18 2 19 1 20 3 21 4 22 17 23 18 24
REMARK SMILES IDX 19 25 20 27 21 28 22 29 83 30 23 31 82 32 24 33 25 34 26 35
REMARK SMILES IDX 76 36 27 37 81 38 75 39 77 40 28 41 80 42 74 43 73 44 29 46
REMARK SMILES IDX 61 47 41 48 60 49 42 50 45 51 59 52 78 53 43 54 44 55 58 57
REMARK SMILES IDX 79 58 46 59 30 60 31 61 39 62 32 63 33 64 37 65 40 66 34 67
REMARK SMILES IDX 35 68 38 69 36 70 62 71 63 72 71 73 64 74 65 75 69 76 72 77
REMARK SMILES IDX 66 78 67 79 70 80 68 81 47 82 48 83 56 84 49 85 50 86 54 87
REMARK SMILES IDX 57 88 51 89 52 90 55 91 53 92
REMARK H PARENT 14 6 18 26 77 45 45 56
REMARK Flexibility Score: inf
ROOT
ATOM      1  C   UNL     1      -3.812  -6.268  -2.208  1.00  0.00     0.042 C 
ENDROOT
BRANCH   1   2
ATOM      2  C   UNL     1      -3.199  -6.985  -0.997  1.00  0.00     0.118 C 
BRANCH   2   3
ATOM      3  N   UNL     1      -2.617  -8.271  -1.341  1.00  0.00    -0.351 N 
ATOM      4  C   UNL     1      -1.348  -8.653  -1.727  1.00  0.00     0.271 C 
ATOM      5  O   UNL     1      -1.169  -9.864  -1.871  1.00  0.00    -0.267 OA
ATOM      6  H   UNL     1      -3.255  -9.019  -1.290  1.00  0.00     0.163 HD
BRANCH   4   7
ATOM      7  C   UNL     1      -0.273  -7.673  -1.945  1.00  0.00     0.146 A 
ATOM      8  N   UNL     1       0.950  -5.839  -2.134  1.00  0.00    -0.290 N 
ATOM      9  C   UNL     1       1.717  -6.929  -2.428  1.00  0.00     0.206 A 
ATOM     10  C   UNL     1      -0.327  -6.298  -1.925  1.00  0.00     0.128 A 
ATOM     11  N   UNL     1       1.032  -8.045  -2.266  1.00  0.00    -0.231 NA
BRANCH   8  12
ATOM     12  C   UNL     1       1.329  -4.484  -2.064  1.00  0.00     0.143 A 
ATOM     13  C   UNL     1       1.036  -2.374  -1.037  1.00  0.00     0.053 A 
ATOM     14  C   UNL     1       0.763  -3.727  -1.048  1.00  0.00     0.072 A 
ATOM     15  N   UNL     1       1.761  -1.819  -2.028  1.00  0.00    -0.222 NA
ATOM     16  C   UNL     1       2.265  -2.651  -2.956  1.00  0.00     0.224 A 
ATOM     17  N   UNL     1       2.130  -3.982  -3.013  1.00  0.00    -0.200 NA
ATOM     18  Cl  UNL     1       3.057  -1.915  -4.277  1.00  0.00    -0.041 Cl
BRANCH  13  19
ATOM     19  C   UNL     1       0.514  -1.484   0.098  1.00  0.00     0.004 C 
ATOM     20  C   UNL     1       1.003  -0.031  -0.055  1.00  0.00     0.017 C 
ATOM     21  C   UNL     1       1.019  -2.011   1.459  1.00  0.00     0.017 C 
ATOM     22  C   UNL     1      -1.028  -1.479   0.098  1.00  0.00     0.017 C 
ENDBRANCH  13  19
ENDBRANCH   8  12
ENDBRANCH   4   7
ENDBRANCH   2   3
ENDBRANCH   1   2
BRANCH   1  23
ATOM     23  C   UNL     1      -5.229  -6.750  -2.491  1.00  0.00     0.118 C 
BRANCH  23  24
ATOM     24  N   UNL     1      -6.165  -6.333  -1.445  1.00  0.00    -0.352 N 
ATOM     25  C   UNL     1      -7.499  -6.647  -1.283  1.00  0.00     0.251 C 
ATOM     26  H   UNL     1      -5.786  -5.743  -0.755  1.00  0.00     0.163 HD
ATOM     27  O   UNL     1      -8.208  -5.961  -0.565  1.00  0.00    -0.269 OA
BRANCH  25  28
ATOM     28  C   UNL     1      -8.065  -7.807  -1.996  1.00  0.00     0.039 A 
ATOM     29  C   UNL     1      -9.356  -7.744  -2.526  1.00  0.00     0.014 A 
ATOM     30  C   UNL     1      -7.298  -8.962  -2.135  1.00  0.00     0.014 A 
ATOM     31  C   UNL     1      -9.829  -8.817  -3.276  1.00  0.00     0.010 A 
ATOM     32  C   UNL     1      -7.709  -9.964  -2.982  1.00  0.00     0.010 A 
ATOM     33  C   UNL     1      -8.986  -9.912  -3.529  1.00  0.00    -0.014 A 
BRANCH  33  34
ATOM     34  C   UNL     1      -9.375 -10.921  -4.511  1.00  0.00     0.031 A 
ATOM     35  C   UNL     1      -9.712 -10.346  -5.843  1.00  0.00     0.074 A 
ATOM     36  C   UNL     1      -9.246 -12.252  -4.317  1.00  0.00     0.049 A 
ATOM     37  N   UNL     1     -10.869 -10.321  -6.415  1.00  0.00    -0.248 NA
ATOM     38  C   UNL     1      -8.684  -9.566  -6.553  1.00  0.00     0.031 C 
ATOM     39  C   UNL     1      -8.627 -12.941  -3.180  1.00  0.00     0.029 A 
ATOM     40  N   UNL     1      -9.557 -13.284  -5.154  1.00  0.00    -0.354 N 
ATOM     41  C   UNL     1     -10.676  -9.705  -7.649  1.00  0.00     0.074 A 
ATOM     42  C   UNL     1      -9.373  -9.100  -7.596  1.00  0.00     0.031 C 
ATOM     43  C   UNL     1      -8.400 -14.234  -3.500  1.00  0.00     0.029 A 
ATOM     44  C   UNL     1      -9.002 -14.509  -4.791  1.00  0.00     0.049 A 
ATOM     45  H   UNL     1     -10.126 -13.171  -5.950  1.00  0.00     0.167 HD
ATOM     46  C   UNL     1     -11.504  -9.985  -8.694  1.00  0.00     0.037 A 
ATOM     47  C   UNL     1      -9.020 -15.659  -5.512  1.00  0.00     0.037 A 
ATOM     48  C   UNL     1     -12.707 -10.627  -8.224  1.00  0.00     0.049 A 
ATOM     49  C   UNL     1     -10.108 -15.530  -6.507  1.00  0.00     0.074 A 
ATOM     50  C   UNL     1     -13.754 -10.274  -7.397  1.00  0.00     0.029 A 
ATOM     51  N   UNL     1     -12.739 -11.994  -8.324  1.00  0.00    -0.354 N 
ATOM     52  N   UNL     1     -11.375 -15.511  -6.204  1.00  0.00    -0.248 NA
ATOM     53  C   UNL     1      -9.772 -15.012  -7.823  1.00  0.00     0.031 C 
ATOM     54  C   UNL     1     -14.106 -11.472  -6.707  1.00  0.00     0.029 A 
ATOM     55  C   UNL     1     -13.312 -12.511  -7.196  1.00  0.00     0.049 A 
ATOM     56  H   UNL     1     -12.404 -12.518  -9.086  1.00  0.00     0.167 HD
ATOM     57  C   UNL     1     -11.921 -14.576  -7.067  1.00  0.00     0.074 A 
ATOM     58  C   UNL     1     -10.925 -14.410  -8.122  1.00  0.00     0.031 C 
ATOM     59  C   UNL     1     -12.987 -13.819  -6.674  1.00  0.00     0.037 A 
BRANCH  46  60
ATOM     60  C   UNL     1     -11.063 -10.105 -10.140  1.00  0.00     0.064 A 
ATOM     61  C   UNL     1     -12.037 -10.383 -11.124  1.00  0.00     0.173 A 
ATOM     62  C   UNL     1      -9.725 -10.286 -10.552  1.00  0.00     0.173 A 
ATOM     63  F   UNL     1     -13.344 -10.261 -10.846  1.00  0.00    -0.203 F 
ATOM     64  C   UNL     1     -11.700 -10.896 -12.380  1.00  0.00     0.198 A 
ATOM     65  C   UNL     1      -9.390 -10.748 -11.825  1.00  0.00     0.198 A 
ATOM     66  F   UNL     1      -8.690 -10.139  -9.720  1.00  0.00    -0.203 F 
ATOM     67  F   UNL     1     -12.668 -11.277 -13.224  1.00  0.00    -0.200 F 
ATOM     68  C   UNL     1     -10.376 -11.086 -12.726  1.00  0.00     0.200 A 
ATOM     69  F   UNL     1      -8.101 -10.944 -12.135  1.00  0.00    -0.200 F 
ATOM     70  F   UNL     1     -10.051 -11.639 -13.902  1.00  0.00    -0.200 F 
ENDBRANCH  46  60
BRANCH  47  71
ATOM     71  C   UNL     1      -8.026 -16.758  -5.589  1.00  0.00     0.064 A 
ATOM     72  C   UNL     1      -8.355 -17.988  -6.188  1.00  0.00     0.173 A 
ATOM     73  C   UNL     1      -6.657 -16.524  -5.361  1.00  0.00     0.173 A 
ATOM     74  F   UNL     1      -9.632 -18.279  -6.476  1.00  0.00    -0.203 F 
ATOM     75  C   UNL     1      -7.373 -18.905  -6.578  1.00  0.00     0.198 A 
ATOM     76  C   UNL     1      -5.677 -17.443  -5.745  1.00  0.00     0.198 A 
ATOM     77  F   UNL     1      -6.236 -15.356  -4.856  1.00  0.00    -0.203 F 
ATOM     78  F   UNL     1      -7.724 -20.030  -7.216  1.00  0.00    -0.200 F 
ATOM     79  C   UNL     1      -6.034 -18.625  -6.370  1.00  0.00     0.200 A 
ATOM     80  F   UNL     1      -4.382 -17.145  -5.571  1.00  0.00    -0.200 F 
ATOM     81  F   UNL     1      -5.088 -19.468  -6.808  1.00  0.00    -0.200 F 
ENDBRANCH  47  71
BRANCH  59  82
ATOM     82  C   UNL     1     -13.772 -14.287  -5.479  1.00  0.00     0.064 A 
ATOM     83  C   UNL     1     -13.260 -14.406  -4.175  1.00  0.00     0.173 A 
ATOM     84  C   UNL     1     -15.145 -14.509  -5.655  1.00  0.00     0.173 A 
ATOM     85  F   UNL     1     -11.980 -14.123  -3.903  1.00  0.00    -0.203 F 
ATOM     86  C   UNL     1     -14.082 -14.773  -3.110  1.00  0.00     0.198 A 
ATOM     87  C   UNL     1     -15.970 -14.833  -4.584  1.00  0.00     0.198 A 
ATOM     88  F   UNL     1     -15.698 -14.366  -6.870  1.00  0.00    -0.203 F 
ATOM     89  F   UNL     1     -13.569 -14.900  -1.877  1.00  0.00    -0.200 F 
ATOM     90  C   UNL     1     -15.437 -14.977  -3.314  1.00  0.00     0.200 A 
ATOM     91  F   UNL     1     -17.287 -14.980  -4.780  1.00  0.00    -0.200 F 
ATOM     92  F   UNL     1     -16.235 -15.288  -2.283  1.00  0.00    -0.200 F 
ENDBRANCH  59  82
ENDBRANCH  33  34
ENDBRANCH  25  28
ENDBRANCH  23  24
ENDBRANCH   1  23
TORSDOF 12
