REMARK SMILES CCc1cc(/C=C/C(=O)NCCCNC(=O)c2ccc(-c3c4nc(c(-c5c(F)c(F)c(F)c(F)c5F)c5ccc([nH]5)c(-c5c(F)c(F)c(F)c(F)c5F)c5nc(c(-c6c(F)c(F)c(F)c(F)c6F)c6ccc3[nH]6)C=C5)C=C4)cc2)cc(C(=O)c2ccccc2)c1
REMARK SMILES IDX 11 1 10 2 8 3 9 4 7 6 6 7 5 8 3 9 4 10 90 11 81 12 80 13
REMARK SMILES IDX 2 14 1 15 82 16 83 17 84 18 85 19 89 20 86 21 88 22 87 23
REMARK SMILES IDX 12 24 13 25 14 26 15 27 16 29 17 30 18 31 79 32 19 33 78 34
REMARK SMILES IDX 20 35 21 36 22 37 72 38 23 39 77 40 71 41 73 42 24 43 76 44
REMARK SMILES IDX 70 45 69 46 25 48 57 49 37 50 56 51 38 52 41 53 55 54 74 55
REMARK SMILES IDX 39 56 40 57 54 59 75 60 42 61 26 62 27 63 35 64 28 65 29 66
REMARK SMILES IDX 33 67 36 68 30 69 31 70 34 71 32 72 58 73 59 74 67 75 60 76
REMARK SMILES IDX 61 77 65 78 68 79 62 80 63 81 66 82 64 83 43 84 44 85 52 86
REMARK SMILES IDX 45 87 46 88 50 89 53 90 47 91 48 92 51 93 49 94
REMARK H PARENT 10 5 14 28 73 47 41 58
REMARK Flexibility Score: inf
ROOT
ATOM      1  C   UNL     1       0.318  -7.314  -3.070  1.00  0.00     0.118 C 
ENDROOT
BRANCH   1   2
ATOM      2  N   UNL     1      -0.313  -7.178  -1.770  1.00  0.00    -0.352 N 
ATOM      3  C   UNL     1      -0.692  -6.070  -1.082  1.00  0.00     0.244 C 
ATOM      4  O   UNL     1      -1.324  -6.194  -0.035  1.00  0.00    -0.270 OA
ATOM      5  H   UNL     1      -0.498  -8.030  -1.311  1.00  0.00     0.163 HD
BRANCH   3   6
ATOM      6  C   UNL     1      -0.420  -4.712  -1.602  1.00  0.00     0.072 C 
ATOM      7  C   UNL     1       0.764  -4.309  -2.088  1.00  0.00     0.014 C 
BRANCH   7   8
ATOM      8  C   UNL     1       1.061  -2.934  -2.506  1.00  0.00    -0.024 A 
ATOM      9  C   UNL     1       0.956  -0.526  -2.127  1.00  0.00    -0.047 A 
ATOM     10  C   UNL     1       0.578  -1.833  -1.791  1.00  0.00     0.011 A 
ATOM     11  C   UNL     1       1.811  -0.323  -3.218  1.00  0.00     0.016 A 
ATOM     12  C   UNL     1       2.320  -1.415  -3.933  1.00  0.00     0.023 A 
ATOM     13  C   UNL     1       1.937  -2.716  -3.576  1.00  0.00     0.020 A 
BRANCH   9  14
ATOM     14  C   UNL     1       0.473   0.638  -1.297  1.00  0.00     0.032 C 
ATOM     15  C   UNL     1       0.998   0.568   0.133  1.00  0.00     0.009 C 
ENDBRANCH   9  14
BRANCH  12  16
ATOM     16  C   UNL     1       3.251  -1.245  -5.083  1.00  0.00     0.193 C 
ATOM     17  O   UNL     1       3.355  -2.135  -5.923  1.00  0.00    -0.289 OA
BRANCH  16  18
ATOM     18  C   UNL     1       4.055  -0.012  -5.252  1.00  0.00     0.022 A 
ATOM     19  C   UNL     1       4.095   0.591  -6.513  1.00  0.00     0.012 A 
ATOM     20  C   UNL     1       4.781   0.535  -4.187  1.00  0.00     0.012 A 
ATOM     21  C   UNL     1       4.823   1.768  -6.697  1.00  0.00     0.001 A 
ATOM     22  C   UNL     1       5.507   1.712  -4.377  1.00  0.00     0.001 A 
ATOM     23  C   UNL     1       5.521   2.330  -5.628  1.00  0.00     0.000 A 
ENDBRANCH  16  18
ENDBRANCH  12  16
ENDBRANCH   7   8
ENDBRANCH   3   6
ENDBRANCH   1   2
BRANCH   1  24
ATOM     24  C   UNL     1       1.777  -7.747  -2.944  1.00  0.00     0.042 C 
BRANCH  24  25
ATOM     25  C   UNL     1       1.950  -9.193  -2.487  1.00  0.00     0.118 C 
BRANCH  25  26
ATOM     26  N   UNL     1       1.483 -10.143  -3.486  1.00  0.00    -0.352 N 
ATOM     27  C   UNL     1       2.152 -11.151  -4.130  1.00  0.00     0.251 C 
ATOM     28  H   UNL     1       0.537 -10.045  -3.739  1.00  0.00     0.163 HD
ATOM     29  O   UNL     1       1.635 -11.694  -5.101  1.00  0.00    -0.269 OA
BRANCH  27  30
ATOM     30  C   UNL     1       3.486 -11.594  -3.671  1.00  0.00     0.039 A 
ATOM     31  C   UNL     1       4.445 -11.934  -4.631  1.00  0.00     0.014 A 
ATOM     32  C   UNL     1       3.778 -11.741  -2.312  1.00  0.00     0.014 A 
ATOM     33  C   UNL     1       5.705 -12.381  -4.231  1.00  0.00     0.010 A 
ATOM     34  C   UNL     1       5.056 -12.124  -1.912  1.00  0.00     0.010 A 
ATOM     35  C   UNL     1       6.028 -12.459  -2.867  1.00  0.00    -0.014 A 
BRANCH  35  36
ATOM     36  C   UNL     1       7.375 -12.894  -2.422  1.00  0.00     0.031 A 
ATOM     37  C   UNL     1       7.542 -14.172  -1.649  1.00  0.00     0.074 A 
ATOM     38  C   UNL     1       8.437 -12.099  -2.651  1.00  0.00     0.049 A 
ATOM     39  N   UNL     1       8.624 -14.682  -1.115  1.00  0.00    -0.248 NA
ATOM     40  C   UNL     1       6.327 -14.967  -1.418  1.00  0.00     0.031 C 
ATOM     41  C   UNL     1       8.389 -10.806  -3.336  1.00  0.00     0.029 A 
ATOM     42  N   UNL     1       9.758 -12.251  -2.316  1.00  0.00    -0.354 N 
ATOM     43  C   UNL     1       8.215 -15.839  -0.466  1.00  0.00     0.074 A 
ATOM     44  C   UNL     1       6.781 -15.935  -0.636  1.00  0.00     0.031 C 
ATOM     45  C   UNL     1       9.625 -10.286  -3.376  1.00  0.00     0.029 A 
ATOM     46  C   UNL     1      10.545 -11.192  -2.695  1.00  0.00     0.049 A 
ATOM     47  H   UNL     1      10.108 -13.043  -1.848  1.00  0.00     0.167 HD
ATOM     48  C   UNL     1       8.971 -16.748   0.197  1.00  0.00     0.037 A 
ATOM     49  C   UNL     1      11.860 -10.973  -2.508  1.00  0.00     0.037 A 
ATOM     50  C   UNL     1      10.402 -16.665   0.330  1.00  0.00     0.049 A 
ATOM     51  C   UNL     1      12.685 -12.014  -1.805  1.00  0.00     0.074 A 
ATOM     52  C   UNL     1      11.271 -17.580   0.899  1.00  0.00     0.029 A 
ATOM     53  N   UNL     1      11.174 -15.599  -0.108  1.00  0.00    -0.354 N 
ATOM     54  N   UNL     1      12.303 -13.148  -1.270  1.00  0.00    -0.248 NA
ATOM     55  C   UNL     1      14.126 -11.751  -1.691  1.00  0.00     0.031 C 
ATOM     56  C   UNL     1      12.564 -17.047   0.844  1.00  0.00     0.029 A 
ATOM     57  C   UNL     1      12.507 -15.821   0.200  1.00  0.00     0.049 A 
ATOM     58  H   UNL     1      10.827 -14.802  -0.571  1.00  0.00     0.167 HD
ATOM     59  C   UNL     1      13.453 -13.742  -0.771  1.00  0.00     0.074 A 
ATOM     60  C   UNL     1      14.552 -12.851  -1.083  1.00  0.00     0.031 C 
ATOM     61  C   UNL     1      13.587 -14.920  -0.112  1.00  0.00     0.037 A 
BRANCH  48  62
ATOM     62  C   UNL     1       8.261 -17.909   0.833  1.00  0.00     0.064 A 
ATOM     63  C   UNL     1       7.669 -18.924   0.065  1.00  0.00     0.173 A 
ATOM     64  C   UNL     1       8.191 -18.019   2.230  1.00  0.00     0.173 A 
ATOM     65  F   UNL     1       7.700 -18.862  -1.274  1.00  0.00    -0.203 F 
ATOM     66  C   UNL     1       7.002 -19.985   0.672  1.00  0.00     0.198 A 
ATOM     67  C   UNL     1       7.549 -19.097   2.833  1.00  0.00     0.198 A 
ATOM     68  F   UNL     1       8.746 -17.080   3.011  1.00  0.00    -0.203 F 
ATOM     69  F   UNL     1       6.397 -20.913  -0.082  1.00  0.00    -0.200 F 
ATOM     70  C   UNL     1       6.948 -20.074   2.055  1.00  0.00     0.200 A 
ATOM     71  F   UNL     1       7.508 -19.189   4.170  1.00  0.00    -0.200 F 
ATOM     72  F   UNL     1       6.307 -21.097   2.637  1.00  0.00    -0.200 F 
ENDBRANCH  48  62
BRANCH  49  73
ATOM     73  C   UNL     1      12.472  -9.720  -3.019  1.00  0.00     0.064 A 
ATOM     74  C   UNL     1      13.316  -9.734  -4.137  1.00  0.00     0.173 A 
ATOM     75  C   UNL     1      12.199  -8.482  -2.420  1.00  0.00     0.173 A 
ATOM     76  F   UNL     1      13.620 -10.898  -4.731  1.00  0.00    -0.203 F 
ATOM     77  C   UNL     1      13.874  -8.557  -4.631  1.00  0.00     0.198 A 
ATOM     78  C   UNL     1      12.738  -7.303  -2.930  1.00  0.00     0.198 A 
ATOM     79  F   UNL     1      11.391  -8.416  -1.352  1.00  0.00    -0.203 F 
ATOM     80  F   UNL     1      14.704  -8.602  -5.682  1.00  0.00    -0.200 F 
ATOM     81  C   UNL     1      13.579  -7.342  -4.032  1.00  0.00     0.200 A 
ATOM     82  F   UNL     1      12.438  -6.129  -2.357  1.00  0.00    -0.200 F 
ATOM     83  F   UNL     1      14.107  -6.209  -4.514  1.00  0.00    -0.200 F 
ENDBRANCH  49  73
BRANCH  61  84
ATOM     84  C   UNL     1      14.973 -15.318   0.303  1.00  0.00     0.064 A 
ATOM     85  C   UNL     1      15.633 -14.676   1.361  1.00  0.00     0.173 A 
ATOM     86  C   UNL     1      15.631 -16.378  -0.339  1.00  0.00     0.173 A 
ATOM     87  F   UNL     1      15.052 -13.647   1.995  1.00  0.00    -0.203 F 
ATOM     88  C   UNL     1      16.913 -15.067   1.746  1.00  0.00     0.198 A 
ATOM     89  C   UNL     1      16.899 -16.783   0.067  1.00  0.00     0.198 A 
ATOM     90  F   UNL     1      15.039 -17.027  -1.353  1.00  0.00    -0.203 F 
ATOM     91  F   UNL     1      17.544 -14.412   2.731  1.00  0.00    -0.200 F 
ATOM     92  C   UNL     1      17.541 -16.124   1.104  1.00  0.00     0.200 A 
ATOM     93  F   UNL     1      17.500 -17.812  -0.546  1.00  0.00    -0.200 F 
ATOM     94  F   UNL     1      18.770 -16.503   1.481  1.00  0.00    -0.200 F 
ENDBRANCH  61  84
ENDBRANCH  35  36
ENDBRANCH  27  30
ENDBRANCH  25  26
ENDBRANCH  24  25
ENDBRANCH   1  24
TORSDOF 14
