REMARK SMILES Cc1ccc(C(=O)C[C@@H](C(=O)NCCCNC(=O)c2ccc(-c3c4nc(c(-c5c(F)c(F)c(F)c(F)c5F)c5ccc([nH]5)c(-c5c(F)c(F)c(F)c(F)c5F)c5nc(c(-c6c(F)c(F)c(F)c(F)c6F)c6ccc3[nH]6)C=C5)C=C4)cc2)[NH+]2CC[NH+](Cc3ccccc3)CC2)cc1
REMARK SMILES IDX 13 1 12 2 10 3 11 4 9 6 8 7 6 8 7 9 5 10 1 11 2 12 3 13
REMARK SMILES IDX 96 14 4 15 95 16 82 17 83 18 94 19 84 21 93 22 85 23 86 25
REMARK SMILES IDX 87 26 88 27 92 28 89 29 91 30 90 31 14 32 15 33 16 34 17 35
REMARK SMILES IDX 18 37 19 38 20 39 81 40 21 41 80 42 22 43 23 44 24 45 74 46
REMARK SMILES IDX 25 47 79 48 73 49 75 50 26 51 78 52 72 53 71 54 27 56 59 57
REMARK SMILES IDX 39 58 58 59 40 60 43 61 57 62 76 63 41 64 42 65 56 67 77 68
REMARK SMILES IDX 44 69 28 70 29 71 37 72 30 73 31 74 35 75 38 76 32 77 33 78
REMARK SMILES IDX 36 79 34 80 60 81 61 82 69 83 62 84 63 85 67 86 70 87 64 88
REMARK SMILES IDX 65 89 68 90 66 91 45 92 46 93 54 94 47 95 48 96 52 97 55 98
REMARK SMILES IDX 49 99 50 100 53 101 51 102
REMARK H PARENT 12 5 82 20 85 24 16 36 75 55 43 66
REMARK Flexibility Score: inf
ROOT
ATOM      1  C   UNL     1      -1.632  -0.213   2.444  1.00  0.00     0.118 C 
ENDROOT
BRANCH   1   2
ATOM      2  N   UNL     1      -1.304   1.041   1.795  1.00  0.00    -0.351 N 
ATOM      3  C   UNL     1      -2.091   1.931   1.123  1.00  0.00     0.278 C 
ATOM      4  O   UNL     1      -1.503   2.892   0.614  1.00  0.00    -0.268 OA
ATOM      5  H   UNL     1      -0.353   1.292   1.848  1.00  0.00     0.163 HD
BRANCH   3   6
ATOM      6  C   UNL     1      -3.642   1.785   1.069  1.00  0.00     0.282 C 
BRANCH   6   7
ATOM      7  C   UNL     1      -4.243   1.833  -0.347  1.00  0.00     0.156 C 
BRANCH   7   8
ATOM      8  C   UNL     1      -3.774   0.688  -1.224  1.00  0.00     0.169 C 
ATOM      9  O   UNL     1      -4.354  -0.396  -1.234  1.00  0.00    -0.294 OA
BRANCH   8  10
ATOM     10  C   UNL     1      -2.483   0.838  -1.943  1.00  0.00     0.018 A 
ATOM     11  C   UNL     1       1.685   1.296  -1.840  1.00  0.00     0.044 C 
ATOM     12  C   UNL     1       0.243   1.118  -2.168  1.00  0.00    -0.051 A 
ATOM     13  C   UNL     1      -0.322  -0.161  -2.210  1.00  0.00     0.004 A 
ATOM     14  C   UNL     1      -0.569   2.243  -2.280  1.00  0.00     0.004 A 
ATOM     15  C   UNL     1      -1.697  -0.306  -2.093  1.00  0.00     0.012 A 
ATOM     16  C   UNL     1      -1.945   2.101  -2.189  1.00  0.00     0.012 A 
ENDBRANCH   8  10
ENDBRANCH   7   8
ENDBRANCH   6   7
BRANCH   6  17
ATOM     17  N   UNL     1      -4.299   2.870   1.847  1.00  0.00    -0.315 N 
ATOM     18  C   UNL     1      -4.752   2.467   3.176  1.00  0.00     0.325 C 
ATOM     19  C   UNL     1      -3.700   4.211   1.794  1.00  0.00     0.325 C 
ATOM     20  H   UNL     1      -5.145   3.014   1.297  1.00  0.00     0.349 HD
ATOM     21  C   UNL     1      -5.036   3.632   4.149  1.00  0.00     0.324 C 
ATOM     22  C   UNL     1      -4.518   5.334   2.492  1.00  0.00     0.324 C 
ATOM     23  N   UNL     1      -5.432   4.898   3.543  1.00  0.00    -0.322 N 
ATOM     24  H   UNL     1      -5.304   5.578   4.292  1.00  0.00     0.348 HD
BRANCH  23  25
ATOM     25  C   UNL     1      -6.859   5.111   3.308  1.00  0.00     0.299 C 
BRANCH  25  26
ATOM     26  C   UNL     1      -7.621   4.322   2.257  1.00  0.00     0.006 A 
ATOM     27  C   UNL     1      -8.949   3.947   2.532  1.00  0.00     0.009 A 
ATOM     28  C   UNL     1      -7.144   4.071   0.965  1.00  0.00     0.009 A 
ATOM     29  C   UNL     1      -9.741   3.307   1.572  1.00  0.00     0.001 A 
ATOM     30  C   UNL     1      -7.920   3.407   0.010  1.00  0.00     0.001 A 
ATOM     31  C   UNL     1      -9.220   3.024   0.314  1.00  0.00     0.000 A 
ENDBRANCH  25  26
ENDBRANCH  23  25
ENDBRANCH   6  17
ENDBRANCH   3   6
ENDBRANCH   1   2
BRANCH   1  32
ATOM     32  C   UNL     1      -1.358  -1.427   1.554  1.00  0.00     0.042 C 
BRANCH  32  33
ATOM     33  C   UNL     1       0.125  -1.813   1.466  1.00  0.00     0.118 C 
BRANCH  33  34
ATOM     34  N   UNL     1       0.311  -3.265   1.558  1.00  0.00    -0.352 N 
ATOM     35  C   UNL     1       1.382  -4.050   1.175  1.00  0.00     0.251 C 
ATOM     36  H   UNL     1      -0.445  -3.757   1.954  1.00  0.00     0.163 HD
ATOM     37  O   UNL     1       1.460  -5.223   1.485  1.00  0.00    -0.269 OA
BRANCH  35  38
ATOM     38  C   UNL     1       2.471  -3.404   0.424  1.00  0.00     0.039 A 
ATOM     39  C   UNL     1       3.683  -3.170   1.072  1.00  0.00     0.014 A 
ATOM     40  C   UNL     1       2.204  -2.866  -0.830  1.00  0.00     0.014 A 
ATOM     41  C   UNL     1       4.532  -2.186   0.573  1.00  0.00     0.010 A 
ATOM     42  C   UNL     1       3.053  -1.888  -1.326  1.00  0.00     0.010 A 
ATOM     43  C   UNL     1       4.152  -1.466  -0.565  1.00  0.00    -0.014 A 
BRANCH  43  44
ATOM     44  C   UNL     1       4.692  -0.126  -0.818  1.00  0.00     0.031 A 
ATOM     45  C   UNL     1       5.579   0.187  -1.953  1.00  0.00     0.074 A 
ATOM     46  C   UNL     1       4.324   0.893  -0.003  1.00  0.00     0.049 A 
ATOM     47  N   UNL     1       6.512   1.080  -1.892  1.00  0.00    -0.248 NA
ATOM     48  C   UNL     1       5.488  -0.461  -3.250  1.00  0.00     0.031 C 
ATOM     49  C   UNL     1       4.568   2.322  -0.204  1.00  0.00     0.029 A 
ATOM     50  N   UNL     1       3.701   0.826   1.255  1.00  0.00    -0.354 N 
ATOM     51  C   UNL     1       6.967   1.313  -3.169  1.00  0.00     0.074 A 
ATOM     52  C   UNL     1       6.342   0.280  -3.969  1.00  0.00     0.031 C 
ATOM     53  C   UNL     1       4.380   2.965   0.958  1.00  0.00     0.029 A 
ATOM     54  C   UNL     1       4.121   1.964   1.975  1.00  0.00     0.049 A 
ATOM     55  H   UNL     1       3.090   0.122   1.572  1.00  0.00     0.167 HD
ATOM     56  C   UNL     1       7.723   2.425  -3.420  1.00  0.00     0.037 A 
ATOM     57  C   UNL     1       4.800   1.842   3.149  1.00  0.00     0.037 A 
ATOM     58  C   UNL     1       7.873   3.249  -2.218  1.00  0.00     0.049 A 
ATOM     59  C   UNL     1       6.207   2.384   3.098  1.00  0.00     0.074 A 
ATOM     60  C   UNL     1       7.252   4.418  -1.805  1.00  0.00     0.029 A 
ATOM     61  N   UNL     1       8.570   2.766  -1.116  1.00  0.00    -0.354 N 
ATOM     62  N   UNL     1       6.811   2.733   1.997  1.00  0.00    -0.248 NA
ATOM     63  C   UNL     1       7.067   2.517   4.270  1.00  0.00     0.031 C 
ATOM     64  C   UNL     1       7.570   4.631  -0.442  1.00  0.00     0.029 A 
ATOM     65  C   UNL     1       8.384   3.592  -0.023  1.00  0.00     0.049 A 
ATOM     66  H   UNL     1       9.120   1.950  -1.114  1.00  0.00     0.167 HD
ATOM     67  C   UNL     1       8.119   3.039   2.268  1.00  0.00     0.074 A 
ATOM     68  C   UNL     1       8.214   2.939   3.711  1.00  0.00     0.031 C 
ATOM     69  C   UNL     1       9.007   3.304   1.263  1.00  0.00     0.037 A 
BRANCH  56  70
ATOM     70  C   UNL     1       8.122   2.932  -4.798  1.00  0.00     0.064 A 
ATOM     71  C   UNL     1       8.451   4.293  -5.012  1.00  0.00     0.173 A 
ATOM     72  C   UNL     1       8.197   2.134  -5.954  1.00  0.00     0.173 A 
ATOM     73  F   UNL     1       8.560   5.160  -3.997  1.00  0.00    -0.203 F 
ATOM     74  C   UNL     1       8.699   4.823  -6.283  1.00  0.00     0.198 A 
ATOM     75  C   UNL     1       8.396   2.671  -7.232  1.00  0.00     0.198 A 
ATOM     76  F   UNL     1       8.157   0.799  -5.882  1.00  0.00    -0.203 F 
ATOM     77  F   UNL     1       8.998   6.123  -6.415  1.00  0.00    -0.200 F 
ATOM     78  C   UNL     1       8.633   4.019  -7.399  1.00  0.00     0.200 A 
ATOM     79  F   UNL     1       8.366   1.863  -8.302  1.00  0.00    -0.200 F 
ATOM     80  F   UNL     1       8.832   4.530  -8.621  1.00  0.00    -0.200 F 
ENDBRANCH  56  70
BRANCH  57  81
ATOM     81  C   UNL     1       4.355   0.680   3.957  1.00  0.00     0.064 A 
ATOM     82  C   UNL     1       3.042   0.698   4.466  1.00  0.00     0.173 A 
ATOM     83  C   UNL     1       5.018  -0.551   3.915  1.00  0.00     0.173 A 
ATOM     84  F   UNL     1       2.357   1.852   4.514  1.00  0.00    -0.203 F 
ATOM     85  C   UNL     1       2.381  -0.479   4.807  1.00  0.00     0.198 A 
ATOM     86  C   UNL     1       4.358  -1.727   4.277  1.00  0.00     0.198 A 
ATOM     87  F   UNL     1       6.257  -0.636   3.411  1.00  0.00    -0.203 F 
ATOM     88  F   UNL     1       1.089  -0.440   5.161  1.00  0.00    -0.200 F 
ATOM     89  C   UNL     1       3.032  -1.694   4.685  1.00  0.00     0.200 A 
ATOM     90  F   UNL     1       4.978  -2.908   4.139  1.00  0.00    -0.200 F 
ATOM     91  F   UNL     1       2.364  -2.834   4.911  1.00  0.00    -0.200 F 
ENDBRANCH  57  81
BRANCH  69  92
ATOM     92  C   UNL     1      10.511   3.409   1.398  1.00  0.00     0.064 A 
ATOM     93  C   UNL     1      11.259   2.811   2.426  1.00  0.00     0.173 A 
ATOM     94  C   UNL     1      11.279   4.038   0.385  1.00  0.00     0.173 A 
ATOM     95  F   UNL     1      10.678   2.062   3.371  1.00  0.00    -0.203 F 
ATOM     96  C   UNL     1      12.653   2.907   2.485  1.00  0.00     0.198 A 
ATOM     97  C   UNL     1      12.673   4.076   0.413  1.00  0.00     0.198 A 
ATOM     98  F   UNL     1      10.701   4.613  -0.680  1.00  0.00    -0.203 F 
ATOM     99  F   UNL     1      13.311   2.362   3.518  1.00  0.00    -0.200 F 
ATOM    100  C   UNL     1      13.361   3.530   1.475  1.00  0.00     0.200 A 
ATOM    101  F   UNL     1      13.345   4.630  -0.607  1.00  0.00    -0.200 F 
ATOM    102  F   UNL     1      14.699   3.580   1.514  1.00  0.00    -0.200 F 
ENDBRANCH  69  92
ENDBRANCH  43  44
ENDBRANCH  35  38
ENDBRANCH  33  34
ENDBRANCH  32  33
ENDBRANCH   1  32
TORSDOF 16
