REMARK SMILES O=C1O[C@@H](c2ccc(O)c(O)c2)[C@H](C(=O)NCCCNC(=O)c2ccc(-c3c4nc(c(-c5c(F)c(F)c(F)c(F)c5F)c5ccc([nH]5)c(-c5c(F)c(F)c(F)c(F)c5F)c5nc(c(-c6c(F)c(F)c(F)c(F)c6F)c6ccc3[nH]6)C=C5)C=C4)cc2)/C1=C\c1ccc(O)c(O)c1
REMARK SMILES IDX 18 1 17 2 16 3 14 4 15 5 13 7 1 8 2 9 3 10 86 11 4 12 87 13
REMARK SMILES IDX 5 14 6 15 12 16 7 17 10 18 8 19 11 20 9 22 88 24 89 25 95 26
REMARK SMILES IDX 90 27 93 28 91 29 94 30 92 32 19 34 20 35 21 36 22 38 23 39
REMARK SMILES IDX 24 40 85 41 25 42 84 43 26 44 27 45 28 46 78 47 29 48 83 49
REMARK SMILES IDX 77 50 79 51 30 52 82 53 76 54 75 55 31 57 63 58 43 59 62 60
REMARK SMILES IDX 44 61 47 62 61 63 80 64 45 65 46 66 60 68 81 69 48 70 32 71
REMARK SMILES IDX 33 72 41 73 34 74 35 75 39 76 42 77 36 78 37 79 40 80 38 81
REMARK SMILES IDX 64 82 65 83 73 84 66 85 67 86 71 87 74 88 68 89 69 90 72 91
REMARK SMILES IDX 70 92 49 93 50 94 58 95 51 96 52 97 56 98 59 99 53 100
REMARK SMILES IDX 54 101 57 102 55 103
REMARK H PARENT 16 6 11 21 9 23 94 31 92 33 20 37 79 56 47 67
REMARK Flexibility Score: inf
ROOT
ATOM      1  C   UNL     1       5.181   1.406   1.500  1.00  0.00     0.042 C 
ENDROOT
BRANCH   1   2
ATOM      2  C   UNL     1       4.031   0.417   1.555  1.00  0.00     0.117 C 
BRANCH   2   3
ATOM      3  N   UNL     1       2.825   0.956   2.156  1.00  0.00    -0.355 N 
ATOM      4  C   UNL     1       1.550   1.093   1.685  1.00  0.00     0.231 C 
ATOM      5  O   UNL     1       0.709   1.459   2.509  1.00  0.00    -0.274 OA
ATOM      6  H   UNL     1       2.948   1.284   3.076  1.00  0.00     0.163 HD
BRANCH   4   7
ATOM      7  C   UNL     1       1.224   0.917   0.198  1.00  0.00     0.161 C 
ATOM      8  O   UNL     1      -1.904  -0.790  -0.108  1.00  0.00    -0.247 OA
ATOM      9  C   UNL     1      -0.743  -0.424  -0.135  1.00  0.00     0.335 C 
ATOM     10  O   UNL     1       0.329  -1.236  -0.286  1.00  0.00    -0.453 OA
ATOM     11  C   UNL     1      -0.250   0.960  -0.039  1.00  0.00     0.054 C 
ATOM     12  C   UNL     1       1.548  -0.476  -0.335  1.00  0.00     0.224 C 
ATOM     13  C   UNL     1      -1.109   1.978  -0.203  1.00  0.00     0.020 C 
BRANCH  12  14
ATOM     14  C   UNL     1       2.173  -0.486  -1.733  1.00  0.00    -0.002 A 
ATOM     15  C   UNL     1       3.241   0.381  -2.066  1.00  0.00     0.012 A 
ATOM     16  C   UNL     1       1.762  -1.417  -2.698  1.00  0.00     0.057 A 
ATOM     17  C   UNL     1       3.878   0.322  -3.310  1.00  0.00     0.050 A 
ATOM     18  C   UNL     1       2.391  -1.460  -3.938  1.00  0.00     0.157 A 
ATOM     19  C   UNL     1       3.444  -0.604  -4.243  1.00  0.00     0.157 A 
BRANCH  18  20
ATOM     20  O   UNL     1       1.967  -2.369  -4.864  1.00  0.00    -0.504 OA
ATOM     21  H   UNL     1       2.381  -2.410  -5.704  1.00  0.00     0.293 HD
ENDBRANCH  18  20
BRANCH  19  22
ATOM     22  O   UNL     1       4.026  -0.717  -5.474  1.00  0.00    -0.504 OA
ATOM     23  H   UNL     1       4.738  -0.155  -5.709  1.00  0.00     0.293 HD
ENDBRANCH  19  22
ENDBRANCH  12  14
BRANCH  13  24
ATOM     24  C   UNL     1      -0.746   3.392  -0.159  1.00  0.00    -0.021 A 
ATOM     25  C   UNL     1       0.114   3.950  -1.118  1.00  0.00     0.012 A 
ATOM     26  C   UNL     1      -1.310   4.209   0.826  1.00  0.00     0.058 A 
ATOM     27  C   UNL     1       0.433   5.311  -1.079  1.00  0.00     0.051 A 
ATOM     28  C   UNL     1      -0.994   5.560   0.853  1.00  0.00     0.157 A 
ATOM     29  C   UNL     1      -0.125   6.108  -0.087  1.00  0.00     0.157 A 
BRANCH  28  30
ATOM     30  O   UNL     1      -1.552   6.356   1.812  1.00  0.00    -0.504 OA
ATOM     31  H   UNL     1      -1.346   7.270   1.840  1.00  0.00     0.293 HD
ENDBRANCH  28  30
BRANCH  29  32
ATOM     32  O   UNL     1       0.145   7.445   0.002  1.00  0.00    -0.504 OA
ATOM     33  H   UNL     1       0.726   7.848  -0.614  1.00  0.00     0.293 HD
ENDBRANCH  29  32
ENDBRANCH  13  24
ENDBRANCH   4   7
ENDBRANCH   2   3
ENDBRANCH   1   2
BRANCH   1  34
ATOM     34  C   UNL     1       5.725   1.792   2.866  1.00  0.00     0.118 C 
BRANCH  34  35
ATOM     35  N   UNL     1       6.239   0.648   3.610  1.00  0.00    -0.352 N 
ATOM     36  C   UNL     1       7.517   0.330   3.997  1.00  0.00     0.251 C 
ATOM     37  H   UNL     1       5.554  -0.006   3.880  1.00  0.00     0.163 HD
ATOM     38  O   UNL     1       7.755  -0.790   4.438  1.00  0.00    -0.269 OA
BRANCH  36  39
ATOM     39  C   UNL     1       8.610   1.315   3.864  1.00  0.00     0.039 A 
ATOM     40  C   UNL     1       9.872   0.874   3.454  1.00  0.00     0.014 A 
ATOM     41  C   UNL     1       8.405   2.664   4.157  1.00  0.00     0.014 A 
ATOM     42  C   UNL     1      10.899   1.799   3.259  1.00  0.00     0.010 A 
ATOM     43  C   UNL     1       9.395   3.595   3.863  1.00  0.00     0.010 A 
ATOM     44  C   UNL     1      10.654   3.174   3.414  1.00  0.00    -0.014 A 
BRANCH  44  45
ATOM     45  C   UNL     1      11.697   4.184   3.103  1.00  0.00     0.031 A 
ATOM     46  C   UNL     1      12.194   5.114   4.176  1.00  0.00     0.074 A 
ATOM     47  C   UNL     1      12.136   4.316   1.835  1.00  0.00     0.049 A 
ATOM     48  N   UNL     1      13.035   6.113   4.079  1.00  0.00    -0.248 NA
ATOM     49  C   UNL     1      11.652   4.918   5.530  1.00  0.00     0.031 C 
ATOM     50  C   UNL     1      11.685   3.512   0.697  1.00  0.00     0.029 A 
ATOM     51  N   UNL     1      13.046   5.184   1.286  1.00  0.00    -0.354 N 
ATOM     52  C   UNL     1      13.104   6.673   5.348  1.00  0.00     0.074 A 
ATOM     53  C   UNL     1      12.185   5.938   6.188  1.00  0.00     0.031 C 
ATOM     54  C   UNL     1      12.333   3.911  -0.409  1.00  0.00     0.029 A 
ATOM     55  C   UNL     1      13.208   5.028  -0.070  1.00  0.00     0.049 A 
ATOM     56  H   UNL     1      13.537   5.855   1.813  1.00  0.00     0.167 HD
ATOM     57  C   UNL     1      13.882   7.695   5.777  1.00  0.00     0.037 A 
ATOM     58  C   UNL     1      13.963   5.720  -0.945  1.00  0.00     0.037 A 
ATOM     59  C   UNL     1      14.821   8.399   4.944  1.00  0.00     0.049 A 
ATOM     60  C   UNL     1      14.821   6.848  -0.437  1.00  0.00     0.074 A 
ATOM     61  C   UNL     1      15.719   9.388   5.306  1.00  0.00     0.029 A 
ATOM     62  N   UNL     1      14.978   8.195   3.582  1.00  0.00    -0.354 N 
ATOM     63  N   UNL     1      14.946   7.307   0.785  1.00  0.00    -0.248 NA
ATOM     64  C   UNL     1      15.647   7.551  -1.428  1.00  0.00     0.031 C 
ATOM     65  C   UNL     1      16.370   9.830   4.151  1.00  0.00     0.029 A 
ATOM     66  C   UNL     1      15.931   9.068   3.081  1.00  0.00     0.049 A 
ATOM     67  H   UNL     1      14.486   7.529   3.049  1.00  0.00     0.167 HD
ATOM     68  C   UNL     1      15.883   8.330   0.714  1.00  0.00     0.074 A 
ATOM     69  C   UNL     1      16.309   8.410  -0.666  1.00  0.00     0.031 C 
ATOM     70  C   UNL     1      16.348   9.132   1.704  1.00  0.00     0.037 A 
BRANCH  57  71
ATOM     71  C   UNL     1      13.755   8.124   7.211  1.00  0.00     0.064 A 
ATOM     72  C   UNL     1      14.205   7.319   8.268  1.00  0.00     0.173 A 
ATOM     73  C   UNL     1      13.239   9.391   7.526  1.00  0.00     0.173 A 
ATOM     74  F   UNL     1      14.698   6.096   8.024  1.00  0.00    -0.203 F 
ATOM     75  C   UNL     1      14.124   7.758   9.588  1.00  0.00     0.198 A 
ATOM     76  C   UNL     1      13.189   9.839   8.843  1.00  0.00     0.198 A 
ATOM     77  F   UNL     1      12.798  10.203   6.553  1.00  0.00    -0.203 F 
ATOM     78  F   UNL     1      14.522   6.955  10.584  1.00  0.00    -0.200 F 
ATOM     79  C   UNL     1      13.626   9.020   9.873  1.00  0.00     0.200 A 
ATOM     80  F   UNL     1      12.723  11.066   9.115  1.00  0.00    -0.200 F 
ATOM     81  F   UNL     1      13.566   9.448  11.142  1.00  0.00    -0.200 F 
ENDBRANCH  57  71
BRANCH  58  82
ATOM     82  C   UNL     1      13.942   5.371  -2.391  1.00  0.00     0.064 A 
ATOM     83  C   UNL     1      15.076   4.850  -3.029  1.00  0.00     0.173 A 
ATOM     84  C   UNL     1      12.794   5.575  -3.172  1.00  0.00     0.173 A 
ATOM     85  F   UNL     1      16.205   4.652  -2.332  1.00  0.00    -0.203 F 
ATOM     86  C   UNL     1      15.075   4.579  -4.396  1.00  0.00     0.198 A 
ATOM     87  C   UNL     1      12.782   5.269  -4.531  1.00  0.00     0.198 A 
ATOM     88  F   UNL     1      11.676   6.061  -2.612  1.00  0.00    -0.203 F 
ATOM     89  F   UNL     1      16.192   4.140  -4.991  1.00  0.00    -0.200 F 
ATOM     90  C   UNL     1      13.926   4.784  -5.145  1.00  0.00     0.200 A 
ATOM     91  F   UNL     1      11.662   5.449  -5.245  1.00  0.00    -0.200 F 
ATOM     92  F   UNL     1      13.924   4.522  -6.459  1.00  0.00    -0.200 F 
ENDBRANCH  58  82
BRANCH  70  93
ATOM     93  C   UNL     1      17.395  10.144   1.337  1.00  0.00     0.064 A 
ATOM     94  C   UNL     1      17.097  11.263   0.547  1.00  0.00     0.173 A 
ATOM     95  C   UNL     1      18.707  10.012   1.820  1.00  0.00     0.173 A 
ATOM     96  F   UNL     1      15.862  11.428   0.048  1.00  0.00    -0.203 F 
ATOM     97  C   UNL     1      18.079  12.197   0.229  1.00  0.00     0.198 A 
ATOM     98  C   UNL     1      19.677  10.967   1.531  1.00  0.00     0.198 A 
ATOM     99  F   UNL     1      19.044   8.964   2.587  1.00  0.00    -0.203 F 
ATOM    100  F   UNL     1      17.784  13.230  -0.573  1.00  0.00    -0.200 F 
ATOM    101  C   UNL     1      19.365  12.054   0.728  1.00  0.00     0.200 A 
ATOM    102  F   UNL     1      20.914  10.835   2.029  1.00  0.00    -0.200 F 
ATOM    103  F   UNL     1      20.306  12.959   0.430  1.00  0.00    -0.200 F 
ENDBRANCH  70  93
ENDBRANCH  44  45
ENDBRANCH  36  39
ENDBRANCH  34  35
ENDBRANCH   1  34
TORSDOF 16
