REMARK SMILES C[C@](NC(=O)CSCc1cccs1)(C(=O)NCCCNC(=O)c1ccc(-c2c3nc(c(-c4c(F)c(F)c(F)c(F)c4F)c4ccc([nH]4)c(-c4c(F)c(F)c(F)c(F)c4F)c4nc(c(-c5c(F)c(F)c(F)c(F)c5F)c5ccc2[nH]5)C=C4)C=C3)cc1)C(F)(F)F
REMARK SMILES IDX 14 1 15 2 16 3 2 5 1 6 86 7 87 8 88 9 89 10 3 11 4 12 5 14
REMARK SMILES IDX 6 15 7 16 8 17 9 18 10 19 13 20 11 21 12 22 17 23 18 24
REMARK SMILES IDX 19 25 20 26 21 27 22 29 23 30 24 31 85 32 25 33 84 34 26 35
REMARK SMILES IDX 27 36 28 37 78 38 29 39 83 40 77 41 79 42 30 43 82 44 76 45
REMARK SMILES IDX 75 46 31 48 63 49 43 50 62 51 44 52 47 53 61 54 80 55 45 56
REMARK SMILES IDX 46 57 60 59 81 60 48 61 32 62 33 63 41 64 34 65 35 66 39 67
REMARK SMILES IDX 42 68 36 69 37 70 40 71 38 72 64 73 65 74 73 75 66 76 67 77
REMARK SMILES IDX 71 78 74 79 68 80 69 81 72 82 70 83 49 84 50 85 58 86 51 87
REMARK SMILES IDX 52 88 56 89 59 90 53 91 54 92 57 93 55 94
REMARK H PARENT 16 4 3 13 20 28 79 47 47 58
REMARK Flexibility Score: inf
ROOT
ATOM      1  C   UNL     1      -1.023   0.748  -1.205  1.00  0.00     0.254 C 
ATOM      2  O   UNL     1      -1.685   1.785  -1.229  1.00  0.00    -0.272 OA
ATOM      3  N   UNL     1      -1.736  -0.419  -1.066  1.00  0.00    -0.354 N 
ATOM      4  H   UNL     1      -2.694  -0.295  -0.874  1.00  0.00     0.163 HD
ENDROOT
BRANCH   1   5
ATOM      5  C   UNL     1       0.502   0.714  -1.458  1.00  0.00     0.212 C 
ATOM      6  C   UNL     1       0.711   0.279  -2.913  1.00  0.00     0.056 C 
BRANCH   5   7
ATOM      7  C   UNL     1       1.034   2.151  -1.296  1.00  0.00     0.420 C 
ATOM      8  F   UNL     1       0.791   2.648  -0.062  1.00  0.00    -0.168 F 
ATOM      9  F   UNL     1       2.385   2.157  -1.456  1.00  0.00    -0.168 F 
ATOM     10  F   UNL     1       0.536   3.010  -2.211  1.00  0.00    -0.168 F 
ENDBRANCH   5   7
BRANCH   5  11
ATOM     11  N   UNL     1       1.055  -0.204  -0.405  1.00  0.00    -0.334 N 
ATOM     12  C   UNL     1       2.171  -0.950  -0.236  1.00  0.00     0.231 C 
ATOM     13  H   UNL     1       0.445  -0.283   0.364  1.00  0.00     0.164 HD
ATOM     14  O   UNL     1       2.299  -1.478   0.874  1.00  0.00    -0.274 OA
BRANCH  12  15
ATOM     15  C   UNL     1       3.180  -1.211  -1.330  1.00  0.00     0.169 C 
BRANCH  15  16
ATOM     16  S   UNL     1       2.655  -2.489  -2.527  1.00  0.00    -0.146 SA
BRANCH  16  17
ATOM     17  C   UNL     1       1.970  -3.779  -1.448  1.00  0.00     0.116 C 
BRANCH  17  18
ATOM     18  C   UNL     1       2.877  -4.869  -0.959  1.00  0.00     0.014 A 
ATOM     19  C   UNL     1       2.451  -6.064  -0.401  1.00  0.00     0.016 A 
ATOM     20  S   UNL     1       4.586  -4.784  -0.978  1.00  0.00    -0.148 S 
ATOM     21  C   UNL     1       3.527  -6.906  -0.005  1.00  0.00     0.012 A 
ATOM     22  C   UNL     1       4.747  -6.331  -0.273  1.00  0.00     0.065 A 
ENDBRANCH  17  18
ENDBRANCH  16  17
ENDBRANCH  15  16
ENDBRANCH  12  15
ENDBRANCH   5  11
ENDBRANCH   1   5
BRANCH   3  23
ATOM     23  C   UNL     1      -1.310  -1.808  -1.156  1.00  0.00     0.117 C 
BRANCH  23  24
ATOM     24  C   UNL     1      -1.457  -2.550   0.166  1.00  0.00     0.042 C 
BRANCH  24  25
ATOM     25  C   UNL     1      -2.896  -2.928   0.485  1.00  0.00     0.118 C 
BRANCH  25  26
ATOM     26  N   UNL     1      -3.439  -3.881  -0.473  1.00  0.00    -0.352 N 
ATOM     27  C   UNL     1      -4.037  -5.100  -0.276  1.00  0.00     0.251 C 
ATOM     28  H   UNL     1      -3.365  -3.607  -1.416  1.00  0.00     0.163 HD
ATOM     29  O   UNL     1      -4.246  -5.828  -1.241  1.00  0.00    -0.269 OA
BRANCH  27  30
ATOM     30  C   UNL     1      -4.416  -5.548   1.081  1.00  0.00     0.039 A 
ATOM     31  C   UNL     1      -4.290  -6.904   1.396  1.00  0.00     0.014 A 
ATOM     32  C   UNL     1      -4.930  -4.658   2.027  1.00  0.00     0.014 A 
ATOM     33  C   UNL     1      -4.636  -7.356   2.671  1.00  0.00     0.010 A 
ATOM     34  C   UNL     1      -5.185  -5.091   3.324  1.00  0.00     0.010 A 
ATOM     35  C   UNL     1      -5.059  -6.448   3.654  1.00  0.00    -0.014 A 
BRANCH  35  36
ATOM     36  C   UNL     1      -5.396  -6.907   5.024  1.00  0.00     0.031 A 
ATOM     37  C   UNL     1      -6.797  -6.752   5.551  1.00  0.00     0.074 A 
ATOM     38  C   UNL     1      -4.431  -7.419   5.810  1.00  0.00     0.049 A 
ATOM     39  N   UNL     1      -7.279  -7.058   6.729  1.00  0.00    -0.248 NA
ATOM     40  C   UNL     1      -7.783  -6.143   4.643  1.00  0.00     0.031 C 
ATOM     41  C   UNL     1      -3.024  -7.567   5.434  1.00  0.00     0.029 A 
ATOM     42  N   UNL     1      -4.484  -7.907   7.091  1.00  0.00    -0.354 N 
ATOM     43  C   UNL     1      -8.611  -6.667   6.707  1.00  0.00     0.074 A 
ATOM     44  C   UNL     1      -8.848  -6.045   5.424  1.00  0.00     0.031 C 
ATOM     45  C   UNL     1      -2.355  -8.138   6.448  1.00  0.00     0.029 A 
ATOM     46  C   UNL     1      -3.276  -8.364   7.557  1.00  0.00     0.049 A 
ATOM     47  H   UNL     1      -5.311  -7.928   7.626  1.00  0.00     0.167 HD
ATOM     48  C   UNL     1      -9.559  -6.838   7.659  1.00  0.00     0.037 A 
ATOM     49  C   UNL     1      -2.950  -8.905   8.746  1.00  0.00     0.037 A 
ATOM     50  C   UNL     1      -9.325  -7.483   8.925  1.00  0.00     0.049 A 
ATOM     51  C   UNL     1      -4.026  -9.096   9.781  1.00  0.00     0.074 A 
ATOM     52  C   UNL     1     -10.228  -7.754   9.937  1.00  0.00     0.029 A 
ATOM     53  N   UNL     1      -8.092  -7.958   9.351  1.00  0.00    -0.354 N 
ATOM     54  N   UNL     1      -5.298  -8.788   9.722  1.00  0.00    -0.248 NA
ATOM     55  C   UNL     1      -3.619  -9.726  11.044  1.00  0.00     0.031 C 
ATOM     56  C   UNL     1      -9.534  -8.353  10.994  1.00  0.00     0.029 A 
ATOM     57  C   UNL     1      -8.209  -8.507  10.618  1.00  0.00     0.049 A 
ATOM     58  H   UNL     1      -7.258  -7.912   8.830  1.00  0.00     0.167 HD
ATOM     59  C   UNL     1      -5.851  -9.214  10.922  1.00  0.00     0.074 A 
ATOM     60  C   UNL     1      -4.777  -9.819  11.682  1.00  0.00     0.031 C 
ATOM     61  C   UNL     1      -7.131  -9.114  11.357  1.00  0.00     0.037 A 
BRANCH  48  62
ATOM     62  C   UNL     1     -10.940  -6.325   7.364  1.00  0.00     0.064 A 
ATOM     63  C   UNL     1     -11.753  -6.918   6.386  1.00  0.00     0.173 A 
ATOM     64  C   UNL     1     -11.469  -5.244   8.085  1.00  0.00     0.173 A 
ATOM     65  F   UNL     1     -11.292  -7.946   5.657  1.00  0.00    -0.203 F 
ATOM     66  C   UNL     1     -13.029  -6.429   6.119  1.00  0.00     0.198 A 
ATOM     67  C   UNL     1     -12.758  -4.779   7.839  1.00  0.00     0.198 A 
ATOM     68  F   UNL     1     -10.737  -4.641   9.035  1.00  0.00    -0.203 F 
ATOM     69  F   UNL     1     -13.765  -6.978   5.142  1.00  0.00    -0.200 F 
ATOM     70  C   UNL     1     -13.534  -5.365   6.851  1.00  0.00     0.200 A 
ATOM     71  F   UNL     1     -13.249  -3.759   8.557  1.00  0.00    -0.200 F 
ATOM     72  F   UNL     1     -14.765  -4.900   6.598  1.00  0.00    -0.200 F 
ENDBRANCH  48  62
BRANCH  49  73
ATOM     73  C   UNL     1      -1.554  -9.341   9.007  1.00  0.00     0.064 A 
ATOM     74  C   UNL     1      -1.235 -10.702   9.122  1.00  0.00     0.173 A 
ATOM     75  C   UNL     1      -0.513  -8.413   9.153  1.00  0.00     0.173 A 
ATOM     76  F   UNL     1      -2.199 -11.627   9.007  1.00  0.00    -0.203 F 
ATOM     77  C   UNL     1       0.066 -11.116   9.400  1.00  0.00     0.198 A 
ATOM     78  C   UNL     1       0.793  -8.829   9.401  1.00  0.00     0.198 A 
ATOM     79  F   UNL     1      -0.764  -7.100   9.043  1.00  0.00    -0.203 F 
ATOM     80  F   UNL     1       0.332 -12.420   9.556  1.00  0.00    -0.200 F 
ATOM     81  C   UNL     1       1.080 -10.180   9.534  1.00  0.00     0.200 A 
ATOM     82  F   UNL     1       1.773  -7.923   9.514  1.00  0.00    -0.200 F 
ATOM     83  F   UNL     1       2.331 -10.578   9.799  1.00  0.00    -0.200 F 
ENDBRANCH  49  73
BRANCH  61  84
ATOM     84  C   UNL     1      -7.448  -9.713  12.697  1.00  0.00     0.064 A 
ATOM     85  C   UNL     1      -6.977  -9.148  13.891  1.00  0.00     0.173 A 
ATOM     86  C   UNL     1      -8.248 -10.863  12.786  1.00  0.00     0.173 A 
ATOM     87  F   UNL     1      -6.196  -8.057  13.860  1.00  0.00    -0.203 F 
ATOM     88  C   UNL     1      -7.263  -9.733  15.121  1.00  0.00     0.198 A 
ATOM     89  C   UNL     1      -8.561 -11.425  14.020  1.00  0.00     0.198 A 
ATOM     90  F   UNL     1      -8.732 -11.438  11.675  1.00  0.00    -0.203 F 
ATOM     91  F   UNL     1      -6.750  -9.211  16.244  1.00  0.00    -0.200 F 
ATOM     92  C   UNL     1      -8.059 -10.867  15.185  1.00  0.00     0.200 A 
ATOM     93  F   UNL     1      -9.343 -12.512  14.080  1.00  0.00    -0.200 F 
ATOM     94  F   UNL     1      -8.334 -11.428  16.371  1.00  0.00    -0.200 F 
ENDBRANCH  61  84
ENDBRANCH  35  36
ENDBRANCH  27  30
ENDBRANCH  25  26
ENDBRANCH  24  25
ENDBRANCH  23  24
ENDBRANCH   3  23
TORSDOF 16
