REMARK SMILES Cc1c(CCC(=O)N[C@@H](C)C(=O)NCCCNC(=O)c2ccc(-c3c4nc(c(-c5c(F)c(F)c(F)c(F)c5F)c5ccc([nH]5)c(-c5c(F)c(F)c(F)c(F)c5F)c5nc(c(-c6c(F)c(F)c(F)c(F)c6F)c6ccc3[nH]6)C=C5)C=C4)cc2)c(=O)oc2cc3oc4c(c3cc12)CCCC4
REMARK SMILES IDX 14 1 13 2 11 3 12 4 9 6 10 7 8 8 6 9 7 10 5 12 4 13 3 14
REMARK SMILES IDX 1 15 2 16 94 17 83 18 86 19 93 20 84 21 85 22 87 23 92 24
REMARK SMILES IDX 88 25 91 26 89 27 90 28 95 29 98 30 96 31 97 32 15 33 16 34
REMARK SMILES IDX 17 35 18 36 19 38 20 39 21 40 82 41 22 42 81 43 23 44 24 45
REMARK SMILES IDX 25 46 75 47 26 48 80 49 74 50 76 51 27 52 79 53 73 54 72 55
REMARK SMILES IDX 28 57 60 58 40 59 59 60 41 61 44 62 58 63 77 64 42 65 43 66
REMARK SMILES IDX 57 68 78 69 45 70 29 71 30 72 38 73 31 74 32 75 36 76 39 77
REMARK SMILES IDX 33 78 34 79 37 80 35 81 61 82 62 83 70 84 63 85 64 86 68 87
REMARK SMILES IDX 71 88 65 89 66 90 69 91 67 92 46 93 47 94 55 95 48 96 49 97
REMARK SMILES IDX 53 98 56 99 50 100 51 101 54 102 52 103
REMARK H PARENT 13 5 8 11 17 37 76 56 44 67
REMARK Flexibility Score: inf
ROOT
ATOM      1  C   UNL     1      -1.277  -3.496   1.797  1.00  0.00     0.117 C 
ENDROOT
BRANCH   1   2
ATOM      2  N   UNL     1      -2.509  -3.010   1.161  1.00  0.00    -0.354 N 
ATOM      3  C   UNL     1      -2.909  -1.781   0.703  1.00  0.00     0.242 C 
ATOM      4  O   UNL     1      -4.128  -1.573   0.718  1.00  0.00    -0.273 OA
ATOM      5  H   UNL     1      -3.188  -3.712   1.039  1.00  0.00     0.163 HD
BRANCH   3   6
ATOM      6  C   UNL     1      -1.950  -0.753   0.047  1.00  0.00     0.168 C 
ATOM      7  C   UNL     1      -0.508  -1.000   0.370  1.00  0.00     0.041 C 
BRANCH   6   8
ATOM      8  N   UNL     1      -2.182   0.660   0.351  1.00  0.00    -0.345 N 
ATOM      9  C   UNL     1      -1.598   1.685  -0.362  1.00  0.00     0.220 C 
ATOM     10  O   UNL     1      -1.114   2.637   0.248  1.00  0.00    -0.275 OA
ATOM     11  H   UNL     1      -2.782   0.888   1.098  1.00  0.00     0.164 HD
BRANCH   9  12
ATOM     12  C   UNL     1      -1.620   1.635  -1.888  1.00  0.00     0.105 C 
BRANCH  12  13
ATOM     13  C   UNL     1      -0.255   1.618  -2.608  1.00  0.00     0.053 C 
BRANCH  13  14
ATOM     14  C   UNL     1       0.385   0.247  -2.735  1.00  0.00     0.042 A 
ATOM     15  C   UNL     1       2.413   0.775  -1.289  1.00  0.00     0.046 C 
ATOM     16  C   UNL     1       1.495  -0.129  -2.071  1.00  0.00    -0.030 A 
ATOM     17  C   UNL     1       1.693  -1.575  -1.926  1.00  0.00     0.022 A 
ATOM     18  C   UNL     1      -0.273  -0.712  -3.681  1.00  0.00     0.339 A 
ATOM     19  C   UNL     1       1.168  -2.458  -2.866  1.00  0.00     0.142 A 
ATOM     20  C   UNL     1       2.193  -2.089  -0.726  1.00  0.00     0.024 A 
ATOM     21  O   UNL     1      -1.277  -0.395  -4.310  1.00  0.00    -0.246 OA
ATOM     22  O   UNL     1       0.342  -1.948  -3.881  1.00  0.00    -0.422 OA
ATOM     23  C   UNL     1       1.349  -3.852  -2.796  1.00  0.00     0.095 A 
ATOM     24  C   UNL     1       2.181  -3.468  -0.531  1.00  0.00     0.025 A 
ATOM     25  C   UNL     1       1.935  -4.301  -1.615  1.00  0.00     0.138 A 
ATOM     26  C   UNL     1       2.483  -4.303   0.558  1.00  0.00     0.001 A 
ATOM     27  O   UNL     1       2.459  -5.541  -1.336  1.00  0.00    -0.461 OA
ATOM     28  C   UNL     1       2.958  -5.430  -0.072  1.00  0.00     0.108 A 
ATOM     29  C   UNL     1       2.925  -3.967   1.929  1.00  0.00     0.040 C 
ATOM     30  C   UNL     1       4.283  -5.998   0.314  1.00  0.00     0.076 C 
ATOM     31  C   UNL     1       4.459  -3.918   1.937  1.00  0.00     0.005 C 
ATOM     32  C   UNL     1       5.131  -4.780   0.822  1.00  0.00     0.008 C 
ENDBRANCH  13  14
ENDBRANCH  12  13
ENDBRANCH   9  12
ENDBRANCH   6   8
ENDBRANCH   3   6
ENDBRANCH   1   2
BRANCH   1  33
ATOM     33  C   UNL     1      -1.242  -3.076   3.263  1.00  0.00     0.042 C 
BRANCH  33  34
ATOM     34  C   UNL     1      -2.142  -3.999   4.078  1.00  0.00     0.118 C 
BRANCH  34  35
ATOM     35  N   UNL     1      -1.425  -5.165   4.575  1.00  0.00    -0.352 N 
ATOM     36  C   UNL     1      -0.532  -5.280   5.622  1.00  0.00     0.251 C 
ATOM     37  H   UNL     1      -1.605  -6.002   4.089  1.00  0.00     0.163 HD
ATOM     38  O   UNL     1       0.107  -6.301   5.778  1.00  0.00    -0.269 OA
BRANCH  36  39
ATOM     39  C   UNL     1      -0.317  -4.122   6.516  1.00  0.00     0.039 A 
ATOM     40  C   UNL     1      -1.401  -3.398   7.011  1.00  0.00     0.014 A 
ATOM     41  C   UNL     1       0.992  -3.762   6.859  1.00  0.00     0.014 A 
ATOM     42  C   UNL     1      -1.184  -2.215   7.692  1.00  0.00     0.010 A 
ATOM     43  C   UNL     1       1.212  -2.614   7.618  1.00  0.00     0.010 A 
ATOM     44  C   UNL     1       0.122  -1.821   7.992  1.00  0.00    -0.014 A 
BRANCH  44  45
ATOM     45  C   UNL     1       0.234  -0.635   8.840  1.00  0.00     0.031 A 
ATOM     46  C   UNL     1       0.586  -0.959  10.252  1.00  0.00     0.074 A 
ATOM     47  C   UNL     1       0.541   0.577   8.341  1.00  0.00     0.049 A 
ATOM     48  N   UNL     1       1.812  -1.148  10.642  1.00  0.00    -0.248 NA
ATOM     49  C   UNL     1      -0.422  -1.385  11.222  1.00  0.00     0.031 C 
ATOM     50  C   UNL     1       1.479   0.809   7.239  1.00  0.00     0.029 A 
ATOM     51  N   UNL     1       0.283   1.827   8.847  1.00  0.00    -0.354 N 
ATOM     52  C   UNL     1       1.750  -1.774  11.872  1.00  0.00     0.074 A 
ATOM     53  C   UNL     1       0.346  -1.890  12.199  1.00  0.00     0.031 C 
ATOM     54  C   UNL     1       1.868   2.099   7.276  1.00  0.00     0.029 A 
ATOM     55  C   UNL     1       1.100   2.808   8.296  1.00  0.00     0.049 A 
ATOM     56  H   UNL     1      -0.407   2.010   9.526  1.00  0.00     0.167 HD
ATOM     57  C   UNL     1       2.855  -2.181  12.548  1.00  0.00     0.037 A 
ATOM     58  C   UNL     1       1.525   3.907   8.975  1.00  0.00     0.037 A 
ATOM     59  C   UNL     1       4.111  -1.886  11.931  1.00  0.00     0.049 A 
ATOM     60  C   UNL     1       2.537   3.280   9.907  1.00  0.00     0.074 A 
ATOM     61  C   UNL     1       5.034  -2.545  11.150  1.00  0.00     0.029 A 
ATOM     62  N   UNL     1       4.587  -0.600  12.036  1.00  0.00    -0.354 N 
ATOM     63  N   UNL     1       3.759   2.932   9.594  1.00  0.00    -0.248 NA
ATOM     64  C   UNL     1       2.040   2.689  11.153  1.00  0.00     0.031 C 
ATOM     65  C   UNL     1       5.760  -1.516  10.470  1.00  0.00     0.029 A 
ATOM     66  C   UNL     1       5.193  -0.299  10.844  1.00  0.00     0.049 A 
ATOM     67  H   UNL     1       4.507  -0.009  12.819  1.00  0.00     0.167 HD
ATOM     68  C   UNL     1       4.076   1.878  10.455  1.00  0.00     0.074 A 
ATOM     69  C   UNL     1       2.993   1.806  11.412  1.00  0.00     0.031 C 
ATOM     70  C   UNL     1       5.099   1.005  10.229  1.00  0.00     0.037 A 
BRANCH  57  71
ATOM     71  C   UNL     1       2.834  -2.729  13.914  1.00  0.00     0.064 A 
ATOM     72  C   UNL     1       3.134  -1.860  14.971  1.00  0.00     0.173 A 
ATOM     73  C   UNL     1       2.729  -4.096  14.182  1.00  0.00     0.173 A 
ATOM     74  F   UNL     1       3.250  -0.541  14.739  1.00  0.00    -0.203 F 
ATOM     75  C   UNL     1       3.366  -2.344  16.251  1.00  0.00     0.198 A 
ATOM     76  C   UNL     1       2.955  -4.579  15.470  1.00  0.00     0.198 A 
ATOM     77  F   UNL     1       2.454  -4.962  13.196  1.00  0.00    -0.203 F 
ATOM     78  F   UNL     1       3.697  -1.494  17.233  1.00  0.00    -0.200 F 
ATOM     79  C   UNL     1       3.287  -3.705  16.498  1.00  0.00     0.200 A 
ATOM     80  F   UNL     1       2.882  -5.895  15.714  1.00  0.00    -0.200 F 
ATOM     81  F   UNL     1       3.544  -4.176  17.727  1.00  0.00    -0.200 F 
ENDBRANCH  57  71
BRANCH  58  82
ATOM     82  C   UNL     1       0.424   4.827   9.415  1.00  0.00     0.064 A 
ATOM     83  C   UNL     1      -0.537   5.229   8.458  1.00  0.00     0.173 A 
ATOM     84  C   UNL     1       0.240   5.325  10.711  1.00  0.00     0.173 A 
ATOM     85  F   UNL     1      -0.382   4.896   7.167  1.00  0.00    -0.203 F 
ATOM     86  C   UNL     1      -1.673   5.958   8.807  1.00  0.00     0.198 A 
ATOM     87  C   UNL     1      -0.911   6.035  11.068  1.00  0.00     0.198 A 
ATOM     88  F   UNL     1       1.156   5.122  11.667  1.00  0.00    -0.203 F 
ATOM     89  F   UNL     1      -2.581   6.272   7.873  1.00  0.00    -0.200 F 
ATOM     90  C   UNL     1      -1.876   6.333  10.121  1.00  0.00     0.200 A 
ATOM     91  F   UNL     1      -1.093   6.405  12.343  1.00  0.00    -0.200 F 
ATOM     92  F   UNL     1      -2.994   6.980  10.476  1.00  0.00    -0.200 F 
ENDBRANCH  58  82
BRANCH  70  93
ATOM     93  C   UNL     1       6.003   1.356   9.102  1.00  0.00     0.064 A 
ATOM     94  C   UNL     1       6.903   2.421   9.231  1.00  0.00     0.173 A 
ATOM     95  C   UNL     1       6.016   0.618   7.908  1.00  0.00     0.173 A 
ATOM     96  F   UNL     1       6.933   3.149  10.358  1.00  0.00    -0.203 F 
ATOM     97  C   UNL     1       7.801   2.721   8.213  1.00  0.00     0.198 A 
ATOM     98  C   UNL     1       6.934   0.904   6.904  1.00  0.00     0.198 A 
ATOM     99  F   UNL     1       5.159  -0.398   7.718  1.00  0.00    -0.203 F 
ATOM    100  F   UNL     1       8.661   3.739   8.358  1.00  0.00    -0.200 F 
ATOM    101  C   UNL     1       7.826   1.954   7.057  1.00  0.00     0.200 A 
ATOM    102  F   UNL     1       6.969   0.151   5.795  1.00  0.00    -0.200 F 
ATOM    103  F   UNL     1       8.720   2.219   6.094  1.00  0.00    -0.200 F 
ENDBRANCH  70  93
ENDBRANCH  44  45
ENDBRANCH  36  39
ENDBRANCH  34  35
ENDBRANCH  33  34
ENDBRANCH   1  33
TORSDOF 14
