REMARK SMILES O=C(NCCCNC(=O)c1ccc(-c2c3nc(c(-c4c(F)c(F)c(F)c(F)c4F)c4ccc([nH]4)c(-c4c(F)c(F)c(F)c(F)c4F)c4nc(c(-c5c(F)c(F)c(F)c(F)c5F)c5ccc2[nH]5)C=C4)C=C3)cc1)c1ccc(OCc2cc(Cl)ccc2[N+](=O)[O-])cc1
REMARK SMILES IDX 4 1 3 2 1 3 2 4 73 6 74 7 90 8 75 9 89 10 76 11 77 12 78 13
REMARK SMILES IDX 79 14 80 15 85 16 81 17 84 18 82 19 83 20 86 21 87 22 88 23
REMARK SMILES IDX 5 24 6 25 7 26 8 27 9 29 10 30 11 31 72 32 12 33 71 34 13 35
REMARK SMILES IDX 14 36 15 37 65 38 16 39 70 40 64 41 66 42 17 43 69 44 63 45
REMARK SMILES IDX 62 46 18 48 50 49 30 50 49 51 31 52 34 53 48 54 67 55 32 56
REMARK SMILES IDX 33 57 47 59 68 60 35 61 19 62 20 63 28 64 21 65 22 66 26 67
REMARK SMILES IDX 29 68 23 69 24 70 27 71 25 72 51 73 52 74 60 75 53 76 54 77
REMARK SMILES IDX 58 78 61 79 55 80 56 81 59 82 57 83 36 84 37 85 45 86 38 87
REMARK SMILES IDX 39 88 43 89 46 90 40 91 41 92 44 93 42 94
REMARK H PARENT 3 5 7 28 66 47 34 58
REMARK Flexibility Score: inf
ROOT
ATOM      1  C   UNL     1       4.711   1.070   0.837  1.00  0.00     0.118 C 
ENDROOT
BRANCH   1   2
ATOM      2  N   UNL     1       3.273   0.860   0.828  1.00  0.00    -0.352 N 
ATOM      3  O   UNL     1       1.352  -0.050   0.056  1.00  0.00    -0.269 OA
ATOM      4  C   UNL     1       2.568  -0.112   0.167  1.00  0.00     0.251 C 
ATOM      5  H   UNL     1       2.741   1.493   1.361  1.00  0.00     0.163 HD
BRANCH   4   6
ATOM      6  C   UNL     1       3.307  -1.242  -0.417  1.00  0.00     0.040 A 
ATOM      7  C   UNL     1       3.947  -2.159   0.419  1.00  0.00     0.017 A 
ATOM      8  C   UNL     1       3.342  -1.390  -1.803  1.00  0.00     0.017 A 
ATOM      9  C   UNL     1       4.610  -3.248  -0.142  1.00  0.00     0.047 A 
ATOM     10  C   UNL     1       4.027  -2.472  -2.359  1.00  0.00     0.047 A 
ATOM     11  C   UNL     1       4.612  -3.433  -1.528  1.00  0.00     0.119 A 
BRANCH  11  12
ATOM     12  O   UNL     1       5.193  -4.595  -1.953  1.00  0.00    -0.489 OA
BRANCH  12  13
ATOM     13  C   UNL     1       4.641  -5.237  -3.112  1.00  0.00     0.272 C 
BRANCH  13  14
ATOM     14  C   UNL     1       3.380  -6.020  -2.791  1.00  0.00     0.068 A 
ATOM     15  C   UNL     1       2.176  -5.310  -2.591  1.00  0.00     0.035 A 
ATOM     16  C   UNL     1       3.319  -7.419  -2.638  1.00  0.00     0.276 A 
ATOM     17  C   UNL     1       0.995  -5.952  -2.213  1.00  0.00     0.041 A 
ATOM     18  C   UNL     1       2.127  -8.071  -2.267  1.00  0.00     0.087 A 
ATOM     19  Cl  UNL     1      -0.430  -5.025  -1.953  1.00  0.00    -0.084 Cl
ATOM     20  C   UNL     1       0.966  -7.330  -2.045  1.00  0.00     0.027 A 
BRANCH  16  21
ATOM     21  N   UNL     1       4.468  -8.277  -2.907  1.00  0.00     0.063 N 
ATOM     22  O   UNL     1       4.734  -9.147  -2.067  1.00  0.00    -0.258 OA
ATOM     23  O   UNL     1       5.059  -8.116  -3.983  1.00  0.00    -0.258 OA
ENDBRANCH  16  21
ENDBRANCH  13  14
ENDBRANCH  12  13
ENDBRANCH  11  12
ENDBRANCH   4   6
ENDBRANCH   1   2
BRANCH   1  24
ATOM     24  C   UNL     1       5.122   2.151  -0.155  1.00  0.00     0.042 C 
BRANCH  24  25
ATOM     25  C   UNL     1       4.561   3.527   0.182  1.00  0.00     0.118 C 
BRANCH  25  26
ATOM     26  N   UNL     1       5.038   4.028   1.467  1.00  0.00    -0.352 N 
ATOM     27  C   UNL     1       5.821   5.119   1.752  1.00  0.00     0.251 C 
ATOM     28  H   UNL     1       4.754   3.502   2.249  1.00  0.00     0.163 HD
ATOM     29  O   UNL     1       6.282   5.271   2.878  1.00  0.00    -0.269 OA
BRANCH  27  30
ATOM     30  C   UNL     1       6.123   6.099   0.692  1.00  0.00     0.039 A 
ATOM     31  C   UNL     1       7.436   6.550   0.532  1.00  0.00     0.014 A 
ATOM     32  C   UNL     1       5.109   6.562  -0.149  1.00  0.00     0.014 A 
ATOM     33  C   UNL     1       7.749   7.399  -0.532  1.00  0.00     0.010 A 
ATOM     34  C   UNL     1       5.436   7.340  -1.253  1.00  0.00     0.010 A 
ATOM     35  C   UNL     1       6.759   7.760  -1.459  1.00  0.00    -0.014 A 
BRANCH  35  36
ATOM     36  C   UNL     1       7.061   8.578  -2.659  1.00  0.00     0.031 A 
ATOM     37  C   UNL     1       6.397   9.914  -2.830  1.00  0.00     0.074 A 
ATOM     38  C   UNL     1       7.831   8.072  -3.640  1.00  0.00     0.049 A 
ATOM     39  N   UNL     1       6.357  10.694  -3.880  1.00  0.00    -0.248 NA
ATOM     40  C   UNL     1       5.646  10.424  -1.672  1.00  0.00     0.031 C 
ATOM     41  C   UNL     1       8.511   6.776  -3.603  1.00  0.00     0.029 A 
ATOM     42  N   UNL     1       8.151   8.579  -4.875  1.00  0.00    -0.354 N 
ATOM     43  C   UNL     1       5.554  11.767  -3.519  1.00  0.00     0.074 A 
ATOM     44  C   UNL     1       5.092  11.518  -2.171  1.00  0.00     0.031 C 
ATOM     45  C   UNL     1       9.179   6.597  -4.754  1.00  0.00     0.029 A 
ATOM     46  C   UNL     1       8.931   7.738  -5.629  1.00  0.00     0.049 A 
ATOM     47  H   UNL     1       7.850   9.462  -5.189  1.00  0.00     0.167 HD
ATOM     48  C   UNL     1       5.245  12.870  -4.242  1.00  0.00     0.037 A 
ATOM     49  C   UNL     1       9.378   7.865  -6.893  1.00  0.00     0.037 A 
ATOM     50  C   UNL     1       5.734  13.126  -5.571  1.00  0.00     0.049 A 
ATOM     51  C   UNL     1       9.005   9.089  -7.684  1.00  0.00     0.074 A 
ATOM     52  C   UNL     1       5.517  14.232  -6.373  1.00  0.00     0.029 A 
ATOM     53  N   UNL     1       6.545  12.260  -6.291  1.00  0.00    -0.354 N 
ATOM     54  N   UNL     1       8.272  10.114  -7.324  1.00  0.00    -0.248 NA
ATOM     55  C   UNL     1       9.520   9.172  -9.058  1.00  0.00     0.031 C 
ATOM     56  C   UNL     1       6.169  14.021  -7.593  1.00  0.00     0.029 A 
ATOM     57  C   UNL     1       6.829  12.803  -7.534  1.00  0.00     0.049 A 
ATOM     58  H   UNL     1       6.871  11.390  -5.967  1.00  0.00     0.167 HD
ATOM     59  C   UNL     1       8.266  10.979  -8.410  1.00  0.00     0.074 A 
ATOM     60  C   UNL     1       9.071  10.359  -9.442  1.00  0.00     0.031 C 
ATOM     61  C   UNL     1       7.652  12.181  -8.538  1.00  0.00     0.037 A 
BRANCH  48  62
ATOM     62  C   UNL     1       4.335  13.878  -3.606  1.00  0.00     0.064 A 
ATOM     63  C   UNL     1       4.754  14.668  -2.525  1.00  0.00     0.173 A 
ATOM     64  C   UNL     1       3.032  14.068  -4.090  1.00  0.00     0.173 A 
ATOM     65  F   UNL     1       5.986  14.516  -2.015  1.00  0.00    -0.203 F 
ATOM     66  C   UNL     1       3.891  15.584  -1.929  1.00  0.00     0.198 A 
ATOM     67  C   UNL     1       2.182  15.007  -3.513  1.00  0.00     0.198 A 
ATOM     68  F   UNL     1       2.582  13.342  -5.125  1.00  0.00    -0.203 F 
ATOM     69  F   UNL     1       4.295  16.286  -0.861  1.00  0.00    -0.200 F 
ATOM     70  C   UNL     1       2.608  15.757  -2.427  1.00  0.00     0.200 A 
ATOM     71  F   UNL     1       0.946  15.182  -4.002  1.00  0.00    -0.200 F 
ATOM     72  F   UNL     1       1.780  16.640  -1.853  1.00  0.00    -0.200 F 
ENDBRANCH  48  62
BRANCH  49  73
ATOM     73  C   UNL     1      10.247   6.814  -7.482  1.00  0.00     0.064 A 
ATOM     74  C   UNL     1      11.606   7.064  -7.718  1.00  0.00     0.173 A 
ATOM     75  C   UNL     1       9.748   5.548  -7.817  1.00  0.00     0.173 A 
ATOM     76  F   UNL     1      12.124   8.268  -7.433  1.00  0.00    -0.203 F 
ATOM     77  C   UNL     1      12.430   6.092  -8.281  1.00  0.00     0.198 A 
ATOM     78  C   UNL     1      10.579   4.567  -8.357  1.00  0.00     0.198 A 
ATOM     79  F   UNL     1       8.456   5.257  -7.607  1.00  0.00    -0.203 F 
ATOM     80  F   UNL     1      13.716   6.371  -8.532  1.00  0.00    -0.200 F 
ATOM     81  C   UNL     1      11.917   4.843  -8.595  1.00  0.00     0.200 A 
ATOM     82  F   UNL     1      10.082   3.357  -8.647  1.00  0.00    -0.200 F 
ATOM     83  F   UNL     1      12.710   3.906  -9.132  1.00  0.00    -0.200 F 
ENDBRANCH  49  73
BRANCH  61  84
ATOM     84  C   UNL     1       7.872  12.934  -9.816  1.00  0.00     0.064 A 
ATOM     85  C   UNL     1       7.247  12.555 -11.012  1.00  0.00     0.173 A 
ATOM     86  C   UNL     1       8.674  14.085  -9.826  1.00  0.00     0.173 A 
ATOM     87  F   UNL     1       6.484  11.453 -11.056  1.00  0.00    -0.203 F 
ATOM     88  C   UNL     1       7.429  13.295 -12.177  1.00  0.00     0.198 A 
ATOM     89  C   UNL     1       8.833  14.837 -10.986  1.00  0.00     0.198 A 
ATOM     90  F   UNL     1       9.289  14.490  -8.704  1.00  0.00    -0.203 F 
ATOM     91  F   UNL     1       6.851  12.897 -13.319  1.00  0.00    -0.200 F 
ATOM     92  C   UNL     1       8.214  14.440 -12.161  1.00  0.00     0.200 A 
ATOM     93  F   UNL     1       9.582  15.948 -10.965  1.00  0.00    -0.200 F 
ATOM     94  F   UNL     1       8.378  15.157 -13.281  1.00  0.00    -0.200 F 
ENDBRANCH  61  84
ENDBRANCH  35  36
ENDBRANCH  27  30
ENDBRANCH  25  26
ENDBRANCH  24  25
ENDBRANCH   1  24
TORSDOF 14
