REMARK SMILES O=C(NCCCNC(=O)[C@H]1CC[C@@H](C[NH2+][C@H]2CCC[C@H](C3CC3)C2)CC1)c1ccc(-c2c3nc(c(-c4c(F)c(F)c(F)c(F)c4F)c4ccc([nH]4)c(-c4c(F)c(F)c(F)c(F)c4F)c4nc(c(-c5c(F)c(F)c(F)c(F)c5F)c5ccc2[nH]5)C=C4)C=C3)cc1
REMARK SMILES IDX 6 1 5 2 4 3 3 4 1 5 2 6 27 8 28 9 89 10 29 11 88 12 30 13
REMARK SMILES IDX 31 14 32 15 82 16 33 17 87 18 81 19 83 20 34 21 86 22 80 23
REMARK SMILES IDX 79 24 35 26 67 27 47 28 66 29 48 30 51 31 65 32 84 33 49 34
REMARK SMILES IDX 50 35 64 37 85 38 52 39 36 40 37 41 45 42 38 43 39 44 43 45
REMARK SMILES IDX 46 46 40 47 41 48 44 49 42 50 68 51 69 52 77 53 70 54 71 55
REMARK SMILES IDX 75 56 78 57 72 58 73 59 76 60 74 61 53 62 54 63 62 64 55 65
REMARK SMILES IDX 56 66 60 67 63 68 57 69 58 70 61 71 59 72 7 73 8 74 9 76
REMARK SMILES IDX 10 77 26 78 11 79 25 80 12 81 13 82 14 83 15 84 16 87 17 88
REMARK SMILES IDX 24 89 18 90 20 91 19 92 21 93 22 94 23 95
REMARK H PARENT 3 7 83 25 51 36 7 75 15 85 15 86
REMARK Flexibility Score: inf
ROOT
ATOM      1  C   UNL     1       4.155  -3.857  -5.036  1.00  0.00     0.117 C 
ENDROOT
BRANCH   1   2
ATOM      2  C   UNL     1       4.576  -2.757  -5.994  1.00  0.00     0.042 C 
BRANCH   2   3
ATOM      3  C   UNL     1       3.907  -1.431  -5.661  1.00  0.00     0.118 C 
BRANCH   3   4
ATOM      4  N   UNL     1       4.337  -0.912  -4.363  1.00  0.00    -0.352 N 
ATOM      5  O   UNL     1       5.663   0.172  -2.901  1.00  0.00    -0.269 OA
ATOM      6  C   UNL     1       5.237   0.077  -4.046  1.00  0.00     0.251 C 
ATOM      7  H   UNL     1       3.911  -1.343  -3.587  1.00  0.00     0.163 HD
BRANCH   6   8
ATOM      8  C   UNL     1       5.698   1.017  -5.088  1.00  0.00     0.039 A 
ATOM      9  C   UNL     1       4.808   1.484  -6.052  1.00  0.00     0.014 A 
ATOM     10  C   UNL     1       7.025   1.456  -5.090  1.00  0.00     0.014 A 
ATOM     11  C   UNL     1       5.282   2.211  -7.131  1.00  0.00     0.010 A 
ATOM     12  C   UNL     1       7.472   2.303  -6.108  1.00  0.00     0.010 A 
ATOM     13  C   UNL     1       6.614   2.649  -7.163  1.00  0.00    -0.014 A 
BRANCH  13  14
ATOM     14  C   UNL     1       7.057   3.500  -8.297  1.00  0.00     0.031 A 
ATOM     15  C   UNL     1       8.144   3.046  -9.230  1.00  0.00     0.074 A 
ATOM     16  C   UNL     1       6.422   4.669  -8.510  1.00  0.00     0.049 A 
ATOM     17  N   UNL     1       8.620   3.644 -10.294  1.00  0.00    -0.248 NA
ATOM     18  C   UNL     1       8.791   1.761  -8.927  1.00  0.00     0.031 C 
ATOM     19  C   UNL     1       5.353   5.211  -7.666  1.00  0.00     0.029 A 
ATOM     20  N   UNL     1       6.553   5.596  -9.511  1.00  0.00    -0.354 N 
ATOM     21  C   UNL     1       9.639   2.827 -10.767  1.00  0.00     0.074 A 
ATOM     22  C   UNL     1       9.731   1.703  -9.860  1.00  0.00     0.031 C 
ATOM     23  C   UNL     1       4.878   6.334  -8.222  1.00  0.00     0.029 A 
ATOM     24  C   UNL     1       5.661   6.636  -9.413  1.00  0.00     0.049 A 
ATOM     25  H   UNL     1       7.222   5.523 -10.230  1.00  0.00     0.167 HD
ATOM     26  C   UNL     1      10.419   3.000 -11.861  1.00  0.00     0.037 A 
ATOM     27  C   UNL     1       5.500   7.721 -10.190  1.00  0.00     0.037 A 
ATOM     28  C   UNL     1      10.302   4.113 -12.769  1.00  0.00     0.049 A 
ATOM     29  C   UNL     1       6.394   7.896 -11.382  1.00  0.00     0.074 A 
ATOM     30  C   UNL     1      11.016   4.362 -13.928  1.00  0.00     0.029 A 
ATOM     31  N   UNL     1       9.413   5.169 -12.615  1.00  0.00    -0.354 N 
ATOM     32  N   UNL     1       7.332   7.101 -11.837  1.00  0.00    -0.248 NA
ATOM     33  C   UNL     1       6.209   9.121 -12.168  1.00  0.00     0.031 C 
ATOM     34  C   UNL     1      10.602   5.596 -14.442  1.00  0.00     0.029 A 
ATOM     35  C   UNL     1       9.581   6.084 -13.644  1.00  0.00     0.049 A 
ATOM     36  H   UNL     1       8.760   5.255 -11.884  1.00  0.00     0.167 HD
ATOM     37  C   UNL     1       7.826   7.711 -12.980  1.00  0.00     0.074 A 
ATOM     38  C   UNL     1       7.073   8.937 -13.155  1.00  0.00     0.031 C 
ATOM     39  C   UNL     1       8.814   7.294 -13.810  1.00  0.00     0.037 A 
BRANCH  26  40
ATOM     40  C   UNL     1      11.495   1.982 -12.119  1.00  0.00     0.064 A 
ATOM     41  C   UNL     1      11.201   0.666 -12.509  1.00  0.00     0.173 A 
ATOM     42  C   UNL     1      12.848   2.339 -12.002  1.00  0.00     0.173 A 
ATOM     43  F   UNL     1       9.925   0.266 -12.626  1.00  0.00    -0.203 F 
ATOM     44  C   UNL     1      12.217  -0.260 -12.737  1.00  0.00     0.198 A 
ATOM     45  C   UNL     1      13.862   1.420 -12.263  1.00  0.00     0.198 A 
ATOM     46  F   UNL     1      13.190   3.585 -11.639  1.00  0.00    -0.203 F 
ATOM     47  F   UNL     1      11.908  -1.526 -13.053  1.00  0.00    -0.200 F 
ATOM     48  C   UNL     1      13.545   0.119 -12.621  1.00  0.00     0.200 A 
ATOM     49  F   UNL     1      15.145   1.794 -12.165  1.00  0.00    -0.200 F 
ATOM     50  F   UNL     1      14.521  -0.772 -12.845  1.00  0.00    -0.200 F 
ENDBRANCH  26  40
BRANCH  27  51
ATOM     51  C   UNL     1       4.445   8.716  -9.863  1.00  0.00     0.064 A 
ATOM     52  C   UNL     1       3.339   8.896 -10.704  1.00  0.00     0.173 A 
ATOM     53  C   UNL     1       4.516   9.500  -8.701  1.00  0.00     0.173 A 
ATOM     54  F   UNL     1       3.234   8.182 -11.834  1.00  0.00    -0.203 F 
ATOM     55  C   UNL     1       2.354   9.835 -10.406  1.00  0.00     0.198 A 
ATOM     56  C   UNL     1       3.514  10.414  -8.387  1.00  0.00     0.198 A 
ATOM     57  F   UNL     1       5.550   9.360  -7.858  1.00  0.00    -0.203 F 
ATOM     58  F   UNL     1       1.330  10.020 -11.251  1.00  0.00    -0.200 F 
ATOM     59  C   UNL     1       2.438  10.588  -9.244  1.00  0.00     0.200 A 
ATOM     60  F   UNL     1       3.589  11.123  -7.253  1.00  0.00    -0.200 F 
ATOM     61  F   UNL     1       1.487  11.485  -8.954  1.00  0.00    -0.200 F 
ENDBRANCH  27  51
BRANCH  39  62
ATOM     62  C   UNL     1       9.092   8.142 -15.018  1.00  0.00     0.064 A 
ATOM     63  C   UNL     1       9.682   9.411 -14.916  1.00  0.00     0.173 A 
ATOM     64  C   UNL     1       8.774   7.667 -16.300  1.00  0.00     0.173 A 
ATOM     65  F   UNL     1       9.989   9.918 -13.713  1.00  0.00    -0.203 F 
ATOM     66  C   UNL     1       9.907  10.188 -16.050  1.00  0.00     0.198 A 
ATOM     67  C   UNL     1       9.035   8.431 -17.433  1.00  0.00     0.198 A 
ATOM     68  F   UNL     1       8.215   6.457 -16.454  1.00  0.00    -0.203 F 
ATOM     69  F   UNL     1      10.411  11.423 -15.923  1.00  0.00    -0.200 F 
ATOM     70  C   UNL     1       9.590   9.695 -17.307  1.00  0.00     0.200 A 
ATOM     71  F   UNL     1       8.742   7.946 -18.648  1.00  0.00    -0.200 F 
ATOM     72  F   UNL     1       9.810  10.443 -18.396  1.00  0.00    -0.200 F 
ENDBRANCH  39  62
ENDBRANCH  13  14
ENDBRANCH   6   8
ENDBRANCH   3   4
ENDBRANCH   2   3
ENDBRANCH   1   2
BRANCH   1  73
ATOM     73  N   UNL     1       2.798  -4.301  -5.299  1.00  0.00    -0.356 N 
ATOM     74  C   UNL     1       2.238  -5.370  -5.907  1.00  0.00     0.223 C 
ATOM     75  H   UNL     1       2.124  -3.673  -4.952  1.00  0.00     0.163 HD
ATOM     76  O   UNL     1       1.002  -5.323  -5.989  1.00  0.00    -0.275 OA
BRANCH  74  77
ATOM     77  C   UNL     1       3.002  -6.558  -6.521  1.00  0.00     0.078 C 
ATOM     78  C   UNL     1       4.439  -6.774  -6.043  1.00  0.00     0.014 C 
ATOM     79  C   UNL     1       2.114  -7.806  -6.298  1.00  0.00     0.014 C 
ATOM     80  C   UNL     1       5.038  -8.146  -6.332  1.00  0.00     0.010 C 
ATOM     81  C   UNL     1       2.799  -9.136  -6.593  1.00  0.00     0.010 C 
ATOM     82  C   UNL     1       4.134  -9.283  -5.850  1.00  0.00     0.044 C 
BRANCH  82  83
ATOM     83  C   UNL     1       4.013  -9.272  -4.305  1.00  0.00     0.264 C 
BRANCH  83  84
ATOM     84  N   UNL     1       3.211 -10.386  -3.810  1.00  0.00    -0.344 N 
ATOM     85  H   UNL     1       3.733 -11.250  -3.958  1.00  0.00     0.346 HD
ATOM     86  H   UNL     1       2.330 -10.373  -4.325  1.00  0.00     0.346 HD
BRANCH  84  87
ATOM     87  C   UNL     1       2.877 -10.283  -2.380  1.00  0.00     0.182 C 
ATOM     88  C   UNL     1       1.879  -9.159  -2.049  1.00  0.00     0.065 C 
ATOM     89  C   UNL     1       2.278 -11.624  -1.923  1.00  0.00     0.069 C 
ATOM     90  C   UNL     1       0.513  -9.387  -2.688  1.00  0.00     0.006 C 
ATOM     91  C   UNL     1       0.878 -11.916  -2.512  1.00  0.00    -0.002 C 
ATOM     92  C   UNL     1      -0.074 -10.732  -2.270  1.00  0.00     0.004 C 
BRANCH  91  93
ATOM     93  C   UNL     1       0.361 -13.237  -1.966  1.00  0.00    -0.008 C 
ATOM     94  C   UNL     1      -0.956 -13.400  -1.240  1.00  0.00     0.004 C 
ATOM     95  C   UNL     1      -0.805 -13.920  -2.640  1.00  0.00     0.004 C 
ENDBRANCH  91  93
ENDBRANCH  84  87
ENDBRANCH  83  84
ENDBRANCH  82  83
ENDBRANCH  74  77
ENDBRANCH   1  73
TORSDOF 14
