REMARK SMILES O=C(NCCCNC(=O)c1ccc(-n2cc(CSc3nc4ccccc4c(=O)n3-c3ccc(Br)cc3)nn2)cc1)c1ccc(-c2c3nc(c(-c4c(F)c(F)c(F)c(F)c4F)c4ccc([nH]4)c(-c4c(F)c(F)c(F)c(F)c4F)c4nc(c(-c5c(F)c(F)c(F)c(F)c5F)c5ccc2[nH]5)C=C4)C=C3)cc1
REMARK SMILES IDX 7 1 8 2 9 3 6 5 5 6 4 7 3 8 1 9 2 10 41 12 42 13 103 14
REMARK SMILES IDX 43 15 102 16 44 17 45 18 46 19 96 20 47 21 101 22 95 23
REMARK SMILES IDX 97 24 48 25 100 26 94 27 93 28 49 30 81 31 61 32 80 33 62 34
REMARK SMILES IDX 65 35 79 36 98 37 63 38 64 39 78 41 99 42 66 43 50 44 51 45
REMARK SMILES IDX 59 46 52 47 53 48 57 49 60 50 54 51 55 52 58 53 56 54 82 55
REMARK SMILES IDX 83 56 91 57 84 58 85 59 89 60 92 61 86 62 87 63 90 64 88 65
REMARK SMILES IDX 67 66 68 67 76 68 69 69 70 70 74 71 77 72 71 73 72 74 75 75
REMARK SMILES IDX 73 76 10 77 11 78 40 79 12 80 39 81 13 82 14 83 15 84 38 85
REMARK SMILES IDX 16 86 37 87 17 88 18 89 19 90 20 91 29 92 21 93 27 94 22 95
REMARK SMILES IDX 26 96 28 97 23 98 25 99 24 100 30 101 31 102 36 103 32 104
REMARK SMILES IDX 35 105 33 106 34 107
REMARK H PARENT 7 4 3 11 97 29 65 40
REMARK Flexibility Score: inf
ROOT
ATOM      1  N   UNL     1       5.003  -2.626   3.129  1.00  0.00    -0.352 N 
ATOM      2  C   UNL     1       5.862  -3.316   3.949  1.00  0.00     0.251 C 
ATOM      3  O   UNL     1       6.251  -4.428   3.617  1.00  0.00    -0.269 OA
ATOM      4  H   UNL     1       4.676  -3.141   2.356  1.00  0.00     0.163 HD
ENDROOT
BRANCH   1   5
ATOM      5  C   UNL     1       4.494  -1.267   3.206  1.00  0.00     0.118 C 
BRANCH   5   6
ATOM      6  C   UNL     1       5.034  -0.356   2.105  1.00  0.00     0.042 C 
BRANCH   6   7
ATOM      7  C   UNL     1       4.718  -0.805   0.681  1.00  0.00     0.118 C 
BRANCH   7   8
ATOM      8  N   UNL     1       3.312  -0.984   0.382  1.00  0.00    -0.352 N 
ATOM      9  O   UNL     1       1.256  -0.720  -0.377  1.00  0.00    -0.269 OA
ATOM     10  C   UNL     1       2.291  -0.162  -0.003  1.00  0.00     0.251 C 
ATOM     11  H   UNL     1       3.024  -1.921   0.478  1.00  0.00     0.163 HD
BRANCH  10  12
ATOM     12  C   UNL     1       2.303   1.322   0.082  1.00  0.00     0.039 A 
ATOM     13  C   UNL     1       3.431   2.135   0.200  1.00  0.00     0.014 A 
ATOM     14  C   UNL     1       1.032   1.931   0.062  1.00  0.00     0.014 A 
ATOM     15  C   UNL     1       3.288   3.511   0.389  1.00  0.00     0.010 A 
ATOM     16  C   UNL     1       0.884   3.299   0.242  1.00  0.00     0.010 A 
ATOM     17  C   UNL     1       2.013   4.086   0.442  1.00  0.00    -0.014 A 
BRANCH  17  18
ATOM     18  C   UNL     1       1.887   5.539   0.542  1.00  0.00     0.031 A 
ATOM     19  C   UNL     1       2.331   6.283  -0.675  1.00  0.00     0.074 A 
ATOM     20  C   UNL     1       1.249   6.160   1.557  1.00  0.00     0.049 A 
ATOM     21  N   UNL     1       3.245   7.194  -0.768  1.00  0.00    -0.248 NA
ATOM     22  C   UNL     1       1.746   5.896  -1.971  1.00  0.00     0.031 C 
ATOM     23  C   UNL     1       0.496   5.547   2.654  1.00  0.00     0.029 A 
ATOM     24  N   UNL     1       1.052   7.495   1.768  1.00  0.00    -0.354 N 
ATOM     25  C   UNL     1       3.245   7.611  -2.100  1.00  0.00     0.074 A 
ATOM     26  C   UNL     1       2.403   6.691  -2.816  1.00  0.00     0.031 C 
ATOM     27  C   UNL     1      -0.251   6.492   3.270  1.00  0.00     0.029 A 
ATOM     28  C   UNL     1       0.063   7.792   2.700  1.00  0.00     0.049 A 
ATOM     29  H   UNL     1       1.568   8.190   1.298  1.00  0.00     0.167 HD
ATOM     30  C   UNL     1       3.777   8.809  -2.473  1.00  0.00     0.037 A 
ATOM     31  C   UNL     1      -0.498   9.006   2.938  1.00  0.00     0.037 A 
ATOM     32  C   UNL     1       4.654   9.330  -1.461  1.00  0.00     0.049 A 
ATOM     33  C   UNL     1       0.410  10.037   2.380  1.00  0.00     0.074 A 
ATOM     34  C   UNL     1       5.840   8.915  -0.888  1.00  0.00     0.029 A 
ATOM     35  N   UNL     1       4.165  10.309  -0.634  1.00  0.00    -0.354 N 
ATOM     36  N   UNL     1       1.584  10.316   2.869  1.00  0.00    -0.248 NA
ATOM     37  C   UNL     1       0.188  10.454   1.004  1.00  0.00     0.031 C 
ATOM     38  C   UNL     1       5.743   9.305   0.479  1.00  0.00     0.029 A 
ATOM     39  C   UNL     1       4.536   9.985   0.643  1.00  0.00     0.049 A 
ATOM     40  H   UNL     1       3.645  11.098  -0.909  1.00  0.00     0.167 HD
ATOM     41  C   UNL     1       2.383  10.523   1.755  1.00  0.00     0.074 A 
ATOM     42  C   UNL     1       1.452  10.682   0.641  1.00  0.00     0.031 C 
ATOM     43  C   UNL     1       3.721  10.262   1.798  1.00  0.00     0.037 A 
BRANCH  30  44
ATOM     44  C   UNL     1       3.231   9.688  -3.573  1.00  0.00     0.064 A 
ATOM     45  C   UNL     1       3.945  10.848  -3.943  1.00  0.00     0.173 A 
ATOM     46  C   UNL     1       1.900   9.621  -4.036  1.00  0.00     0.173 A 
ATOM     47  F   UNL     1       5.215  11.025  -3.548  1.00  0.00    -0.203 F 
ATOM     48  C   UNL     1       3.340  11.898  -4.639  1.00  0.00     0.198 A 
ATOM     49  C   UNL     1       1.316  10.649  -4.776  1.00  0.00     0.198 A 
ATOM     50  F   UNL     1       1.077   8.623  -3.694  1.00  0.00    -0.203 F 
ATOM     51  F   UNL     1       4.016  13.036  -4.847  1.00  0.00    -0.200 F 
ATOM     52  C   UNL     1       2.022  11.801  -5.047  1.00  0.00     0.200 A 
ATOM     53  F   UNL     1       0.031  10.544  -5.146  1.00  0.00    -0.200 F 
ATOM     54  F   UNL     1       1.418  12.832  -5.651  1.00  0.00    -0.200 F 
ENDBRANCH  30  44
BRANCH  31  55
ATOM     55  C   UNL     1      -1.896   9.331   3.321  1.00  0.00     0.064 A 
ATOM     56  C   UNL     1      -2.242  10.601   3.817  1.00  0.00     0.173 A 
ATOM     57  C   UNL     1      -2.967   8.504   2.932  1.00  0.00     0.173 A 
ATOM     58  F   UNL     1      -1.284  11.474   4.165  1.00  0.00    -0.203 F 
ATOM     59  C   UNL     1      -3.574  11.025   3.894  1.00  0.00     0.198 A 
ATOM     60  C   UNL     1      -4.296   8.925   3.015  1.00  0.00     0.198 A 
ATOM     61  F   UNL     1      -2.741   7.308   2.370  1.00  0.00    -0.203 F 
ATOM     62  F   UNL     1      -3.860  12.266   4.312  1.00  0.00    -0.200 F 
ATOM     63  C   UNL     1      -4.599  10.190   3.482  1.00  0.00     0.200 A 
ATOM     64  F   UNL     1      -5.275   8.121   2.576  1.00  0.00    -0.200 F 
ATOM     65  F   UNL     1      -5.870  10.616   3.495  1.00  0.00    -0.200 F 
ENDBRANCH  31  55
BRANCH  43  66
ATOM     66  C   UNL     1       4.344  10.015   3.142  1.00  0.00     0.064 A 
ATOM     67  C   UNL     1       4.011   8.937   3.981  1.00  0.00     0.173 A 
ATOM     68  C   UNL     1       5.422  10.823   3.526  1.00  0.00     0.173 A 
ATOM     69  F   UNL     1       3.060   8.060   3.636  1.00  0.00    -0.203 F 
ATOM     70  C   UNL     1       4.700   8.710   5.171  1.00  0.00     0.198 A 
ATOM     71  C   UNL     1       6.133  10.571   4.694  1.00  0.00     0.198 A 
ATOM     72  F   UNL     1       5.819  11.832   2.735  1.00  0.00    -0.203 F 
ATOM     73  F   UNL     1       4.356   7.682   5.961  1.00  0.00    -0.200 F 
ATOM     74  C   UNL     1       5.765   9.522   5.522  1.00  0.00     0.200 A 
ATOM     75  F   UNL     1       7.195  11.328   5.003  1.00  0.00    -0.200 F 
ATOM     76  F   UNL     1       6.457   9.278   6.644  1.00  0.00    -0.200 F 
ENDBRANCH  43  66
ENDBRANCH  17  18
ENDBRANCH  10  12
ENDBRANCH   7   8
ENDBRANCH   6   7
ENDBRANCH   5   6
ENDBRANCH   1   5
BRANCH   2  77
ATOM     77  C   UNL     1       6.341  -2.727   5.218  1.00  0.00     0.039 A 
ATOM     78  C   UNL     1       7.710  -2.784   5.500  1.00  0.00     0.016 A 
ATOM     79  C   UNL     1       5.453  -2.208   6.165  1.00  0.00     0.016 A 
ATOM     80  C   UNL     1       8.203  -2.270   6.701  1.00  0.00     0.029 A 
ATOM     81  C   UNL     1       5.939  -1.706   7.375  1.00  0.00     0.029 A 
ATOM     82  C   UNL     1       7.316  -1.746   7.649  1.00  0.00     0.066 A 
BRANCH  82  83
ATOM     83  N   UNL     1       7.814  -1.349   8.913  1.00  0.00    -0.220 N 
ATOM     84  C   UNL     1       7.104  -1.192  10.075  1.00  0.00     0.141 A 
ATOM     85  N   UNL     1       9.125  -1.120   9.161  1.00  0.00    -0.062 NA
ATOM     86  C   UNL     1       8.051  -1.008  11.059  1.00  0.00     0.093 A 
ATOM     87  N   UNL     1       9.275  -0.897  10.463  1.00  0.00    -0.134 NA
BRANCH  86  88
ATOM     88  C   UNL     1       7.841  -0.759  12.499  1.00  0.00     0.138 C 
BRANCH  88  89
ATOM     89  S   UNL     1       8.122  -2.028  13.736  1.00  0.00    -0.081 SA
BRANCH  89  90
ATOM     90  C   UNL     1       8.111  -3.651  13.092  1.00  0.00     0.176 A 
ATOM     91  N   UNL     1       8.957  -4.418  13.718  1.00  0.00    -0.223 NA
ATOM     92  N   UNL     1       7.309  -4.142  12.069  1.00  0.00    -0.255 N 
ATOM     93  C   UNL     1       9.134  -5.731  13.273  1.00  0.00     0.079 A 
ATOM     94  C   UNL     1       7.928  -5.115  11.267  1.00  0.00     0.266 A 
ATOM     95  C   UNL     1       9.751  -6.688  14.080  1.00  0.00     0.029 A 
ATOM     96  C   UNL     1       8.781  -6.079  11.979  1.00  0.00     0.066 A 
ATOM     97  O   UNL     1       7.815  -5.228  10.049  1.00  0.00    -0.268 OA
ATOM     98  C   UNL     1      10.066  -7.951  13.563  1.00  0.00     0.002 A 
ATOM     99  C   UNL     1       9.138  -7.315  11.428  1.00  0.00     0.016 A 
ATOM    100  C   UNL     1       9.793  -8.251  12.227  1.00  0.00     0.001 A 
BRANCH  92 101
ATOM    101  C   UNL     1       5.941  -3.768  11.761  1.00  0.00     0.051 A 
ATOM    102  C   UNL     1       5.207  -4.487  10.793  1.00  0.00     0.028 A 
ATOM    103  C   UNL     1       5.237  -2.744  12.405  1.00  0.00     0.028 A 
ATOM    104  C   UNL     1       3.957  -4.064  10.329  1.00  0.00     0.018 A 
ATOM    105  C   UNL     1       4.015  -2.264  11.905  1.00  0.00     0.018 A 
ATOM    106  C   UNL     1       3.402  -2.904  10.837  1.00  0.00     0.018 A 
ATOM    107  Br  UNL     1       1.837  -2.187  10.068  1.00  0.00    -0.051 Br
ENDBRANCH  92 101
ENDBRANCH  89  90
ENDBRANCH  88  89
ENDBRANCH  86  88
ENDBRANCH  82  83
ENDBRANCH   2  77
TORSDOF 15
