REMARK SMILES O=C(NCCCNC(=O)c1ccc(-c2c3nc(c(-c4c(F)c(F)c(F)c(F)c4F)c4ccc([nH]4)c(-c4c(F)c(F)c(F)c(F)c4F)c4nc(c(-c5c(F)c(F)c(F)c(F)c5F)c5ccc2[nH]5)C=C4)C=C3)cc1)C1=Cc2cc(Cl)cc(-c3ccccc3)c2O[C@@H]1C(F)(F)F
REMARK SMILES IDX 5 1 4 2 3 3 1 4 2 5 73 7 74 8 89 9 75 10 88 11 76 12 87 13
REMARK SMILES IDX 77 14 80 15 78 16 79 17 90 18 91 19 92 20 93 21 81 22 82 23
REMARK SMILES IDX 86 24 83 25 85 26 84 27 6 28 7 29 8 30 9 32 10 33 11 34
REMARK SMILES IDX 72 35 12 36 71 37 13 38 14 39 15 40 65 41 16 42 70 43 64 44
REMARK SMILES IDX 66 45 17 46 69 47 63 48 62 49 18 51 50 52 30 53 49 54 31 55
REMARK SMILES IDX 34 56 48 57 67 58 32 59 33 60 47 62 68 63 35 64 19 65 20 66
REMARK SMILES IDX 28 67 21 68 22 69 26 70 29 71 23 72 24 73 27 74 25 75 51 76
REMARK SMILES IDX 52 77 60 78 53 79 54 80 58 81 61 82 55 83 56 84 59 85 57 86
REMARK SMILES IDX 36 87 37 88 45 89 38 90 39 91 43 92 46 93 40 94 41 95 44 96
REMARK SMILES IDX 42 97
REMARK H PARENT 3 6 7 31 66 50 34 61
REMARK Flexibility Score: inf
ROOT
ATOM      1  C   UNL     1       4.046   0.238   2.784  1.00  0.00     0.042 C 
ENDROOT
BRANCH   1   2
ATOM      2  C   UNL     1       3.043  -0.400   1.822  1.00  0.00     0.118 C 
BRANCH   2   3
ATOM      3  N   UNL     1       2.188   0.590   1.161  1.00  0.00    -0.352 N 
ATOM      4  O   UNL     1       1.261   1.695  -0.590  1.00  0.00    -0.270 OA
ATOM      5  C   UNL     1       2.174   1.015  -0.143  1.00  0.00     0.251 C 
ATOM      6  H   UNL     1       1.520   1.017   1.744  1.00  0.00     0.163 HD
BRANCH   5   7
ATOM      7  C   UNL     1       3.276   0.555  -0.998  1.00  0.00     0.067 C 
ATOM      8  C   UNL     1       4.512   0.957  -0.686  1.00  0.00     0.025 C 
ATOM      9  C   UNL     1       3.007  -0.593  -1.915  1.00  0.00     0.314 C 
ATOM     10  C   UNL     1       5.537  -0.081  -0.833  1.00  0.00     0.019 A 
ATOM     11  O   UNL     1       3.889  -1.705  -1.628  1.00  0.00    -0.475 OA
ATOM     12  C   UNL     1       6.796   0.175  -0.286  1.00  0.00     0.032 A 
ATOM     13  C   UNL     1       5.129  -1.408  -1.104  1.00  0.00     0.135 A 
ATOM     14  C   UNL     1       7.599  -0.891   0.099  1.00  0.00     0.042 A 
ATOM     15  C   UNL     1       5.914  -2.489  -0.662  1.00  0.00     0.026 A 
ATOM     16  Cl  UNL     1       9.072  -0.578   0.931  1.00  0.00    -0.084 Cl
ATOM     17  C   UNL     1       7.156  -2.204  -0.060  1.00  0.00     0.033 A 
BRANCH   9  18
ATOM     18  C   UNL     1       3.060  -0.168  -3.393  1.00  0.00     0.429 C 
ATOM     19  F   UNL     1       2.709  -1.190  -4.211  1.00  0.00    -0.167 F 
ATOM     20  F   UNL     1       2.202   0.849  -3.652  1.00  0.00    -0.167 F 
ATOM     21  F   UNL     1       4.293   0.243  -3.773  1.00  0.00    -0.167 F 
ENDBRANCH   9  18
BRANCH  15  22
ATOM     22  C   UNL     1       5.402  -3.873  -0.619  1.00  0.00    -0.015 A 
ATOM     23  C   UNL     1       5.080  -4.458   0.619  1.00  0.00     0.009 A 
ATOM     24  C   UNL     1       5.239  -4.654  -1.766  1.00  0.00     0.009 A 
ATOM     25  C   UNL     1       4.666  -5.784   0.727  1.00  0.00     0.001 A 
ATOM     26  C   UNL     1       4.815  -5.986  -1.665  1.00  0.00     0.001 A 
ATOM     27  C   UNL     1       4.541  -6.553  -0.420  1.00  0.00     0.000 A 
ENDBRANCH  15  22
ENDBRANCH   5   7
ENDBRANCH   2   3
ENDBRANCH   1   2
BRANCH   1  28
ATOM     28  C   UNL     1       4.540  -0.745   3.842  1.00  0.00     0.118 C 
BRANCH  28  29
ATOM     29  N   UNL     1       5.324  -1.857   3.334  1.00  0.00    -0.352 N 
ATOM     30  C   UNL     1       6.035  -2.823   4.017  1.00  0.00     0.251 C 
ATOM     31  H   UNL     1       5.352  -1.934   2.353  1.00  0.00     0.163 HD
ATOM     32  O   UNL     1       6.649  -3.679   3.381  1.00  0.00    -0.269 OA
BRANCH  30  33
ATOM     33  C   UNL     1       6.177  -2.794   5.493  1.00  0.00     0.039 A 
ATOM     34  C   UNL     1       7.392  -3.233   6.036  1.00  0.00     0.014 A 
ATOM     35  C   UNL     1       5.202  -2.275   6.340  1.00  0.00     0.014 A 
ATOM     36  C   UNL     1       7.678  -3.011   7.382  1.00  0.00     0.010 A 
ATOM     37  C   UNL     1       5.527  -1.942   7.647  1.00  0.00     0.010 A 
ATOM     38  C   UNL     1       6.779  -2.283   8.172  1.00  0.00    -0.014 A 
BRANCH  38  39
ATOM     39  C   UNL     1       7.148  -1.816   9.527  1.00  0.00     0.031 A 
ATOM     40  C   UNL     1       6.338  -2.240  10.716  1.00  0.00     0.074 A 
ATOM     41  C   UNL     1       8.148  -0.921   9.652  1.00  0.00     0.049 A 
ATOM     42  N   UNL     1       6.443  -1.867  11.965  1.00  0.00    -0.248 NA
ATOM     43  C   UNL     1       5.224  -3.167  10.459  1.00  0.00     0.031 C 
ATOM     44  C   UNL     1       8.928  -0.363   8.542  1.00  0.00     0.029 A 
ATOM     45  N   UNL     1       8.677  -0.315  10.761  1.00  0.00    -0.354 N 
ATOM     46  C   UNL     1       5.393  -2.484  12.630  1.00  0.00     0.074 A 
ATOM     47  C   UNL     1       4.625  -3.204  11.639  1.00  0.00     0.031 C 
ATOM     48  C   UNL     1       9.864   0.465   9.031  1.00  0.00     0.029 A 
ATOM     49  C   UNL     1       9.730   0.523  10.481  1.00  0.00     0.049 A 
ATOM     50  H   UNL     1       8.336  -0.465  11.672  1.00  0.00     0.167 HD
ATOM     51  C   UNL     1       5.115  -2.473  13.955  1.00  0.00     0.037 A 
ATOM     52  C   UNL     1      10.505   1.245  11.310  1.00  0.00     0.037 A 
ATOM     53  C   UNL     1       5.926  -1.792  14.929  1.00  0.00     0.049 A 
ATOM     54  C   UNL     1      10.241   1.158  12.787  1.00  0.00     0.074 A 
ATOM     55  C   UNL     1       5.793  -1.767  16.305  1.00  0.00     0.029 A 
ATOM     56  N   UNL     1       7.041  -1.023  14.619  1.00  0.00    -0.354 N 
ATOM     57  N   UNL     1       9.291   0.509  13.417  1.00  0.00    -0.248 NA
ATOM     58  C   UNL     1      11.162   1.885  13.668  1.00  0.00     0.031 C 
ATOM     59  C   UNL     1       6.813  -0.962  16.825  1.00  0.00     0.029 A 
ATOM     60  C   UNL     1       7.605  -0.518  15.777  1.00  0.00     0.049 A 
ATOM     61  H   UNL     1       7.380  -0.861  13.709  1.00  0.00     0.167 HD
ATOM     62  C   UNL     1       9.509   0.731  14.768  1.00  0.00     0.074 A 
ATOM     63  C   UNL     1      10.697   1.557  14.865  1.00  0.00     0.031 C 
ATOM     64  C   UNL     1       8.793   0.297  15.834  1.00  0.00     0.037 A 
BRANCH  51  65
ATOM     65  C   UNL     1       3.899  -3.227  14.412  1.00  0.00     0.064 A 
ATOM     66  C   UNL     1       3.831  -4.628  14.343  1.00  0.00     0.173 A 
ATOM     67  C   UNL     1       2.780  -2.543  14.910  1.00  0.00     0.173 A 
ATOM     68  F   UNL     1       4.867  -5.330  13.858  1.00  0.00    -0.203 F 
ATOM     69  C   UNL     1       2.675  -5.311  14.710  1.00  0.00     0.198 A 
ATOM     70  C   UNL     1       1.637  -3.232  15.309  1.00  0.00     0.198 A 
ATOM     71  F   UNL     1       2.789  -1.205  15.000  1.00  0.00    -0.203 F 
ATOM     72  F   UNL     1       2.611  -6.641  14.566  1.00  0.00    -0.200 F 
ATOM     73  C   UNL     1       1.580  -4.613  15.197  1.00  0.00     0.200 A 
ATOM     74  F   UNL     1       0.582  -2.557  15.787  1.00  0.00    -0.200 F 
ATOM     75  F   UNL     1       0.465  -5.271  15.544  1.00  0.00    -0.200 F 
ENDBRANCH  51  65
BRANCH  52  76
ATOM     76  C   UNL     1      11.633   2.045  10.765  1.00  0.00     0.064 A 
ATOM     77  C   UNL     1      12.961   1.642  10.969  1.00  0.00     0.173 A 
ATOM     78  C   UNL     1      11.414   3.205  10.009  1.00  0.00     0.173 A 
ATOM     79  F   UNL     1      13.223   0.545  11.695  1.00  0.00    -0.203 F 
ATOM     80  C   UNL     1      14.026   2.380  10.456  1.00  0.00     0.198 A 
ATOM     81  C   UNL     1      12.479   3.929   9.475  1.00  0.00     0.198 A 
ATOM     82  F   UNL     1      10.163   3.626   9.773  1.00  0.00    -0.203 F 
ATOM     83  F   UNL     1      15.286   1.992  10.699  1.00  0.00    -0.200 F 
ATOM     84  C   UNL     1      13.784   3.519   9.704  1.00  0.00     0.200 A 
ATOM     85  F   UNL     1      12.241   5.020   8.734  1.00  0.00    -0.200 F 
ATOM     86  F   UNL     1      14.808   4.225   9.204  1.00  0.00    -0.200 F 
ENDBRANCH  52  76
BRANCH  64  87
ATOM     87  C   UNL     1       9.295   0.690  17.190  1.00  0.00     0.064 A 
ATOM     88  C   UNL     1       9.165   2.002  17.667  1.00  0.00     0.173 A 
ATOM     89  C   UNL     1       9.883  -0.266  18.031  1.00  0.00     0.173 A 
ATOM     90  F   UNL     1       8.624   2.952  16.890  1.00  0.00    -0.203 F 
ATOM     91  C   UNL     1       9.631   2.349  18.931  1.00  0.00     0.198 A 
ATOM     92  C   UNL     1      10.322   0.079  19.305  1.00  0.00     0.198 A 
ATOM     93  F   UNL     1      10.023  -1.535  17.619  1.00  0.00    -0.203 F 
ATOM     94  F   UNL     1       9.540   3.619  19.350  1.00  0.00    -0.200 F 
ATOM     95  C   UNL     1      10.202   1.387  19.751  1.00  0.00     0.200 A 
ATOM     96  F   UNL     1      10.863  -0.854  20.101  1.00  0.00    -0.200 F 
ATOM     97  F   UNL     1      10.646   1.723  20.970  1.00  0.00    -0.200 F 
ENDBRANCH  64  87
ENDBRANCH  38  39
ENDBRANCH  30  33
ENDBRANCH  28  29
ENDBRANCH   1  28
TORSDOF 12
