REMARK SMILES CC(C)(O)CC[C@]1(C(=O)NCCCNC(=O)c2ccc(-c3c4nc(c(-c5c(F)c(F)c(F)c(F)c5F)c5ccc([nH]5)c(-c5c(F)c(F)c(F)c(F)c5F)c5nc(c(-c6c(F)c(F)c(F)c(F)c6F)c6ccc3[nH]6)C=C5)C=C4)cc2)CCOc2ccccc21
REMARK SMILES IDX 11 1 10 2 8 3 9 4 7 6 80 7 88 8 81 9 83 10 87 11 82 12 84 13
REMARK SMILES IDX 86 14 85 15 6 16 5 17 2 18 1 19 3 20 4 21 12 23 13 24 14 25
REMARK SMILES IDX 15 26 16 28 17 29 18 30 79 31 19 32 78 33 20 34 21 35 22 36
REMARK SMILES IDX 72 37 23 38 77 39 71 40 73 41 24 42 76 43 70 44 69 45 25 47
REMARK SMILES IDX 57 48 37 49 56 50 38 51 41 52 55 53 74 54 39 55 40 56 54 58
REMARK SMILES IDX 75 59 42 60 26 61 27 62 35 63 28 64 29 65 33 66 36 67 30 68
REMARK SMILES IDX 31 69 34 70 32 71 58 72 59 73 67 74 60 75 61 76 65 77 68 78
REMARK SMILES IDX 62 79 63 80 66 81 64 82 43 83 44 84 52 85 45 86 46 87 50 88
REMARK SMILES IDX 53 89 47 90 48 91 51 92 49 93
REMARK H PARENT 10 5 4 22 14 27 73 46 41 57
REMARK Flexibility Score: inf
ROOT
ATOM      1  C   UNL     1       2.811  -2.693  -2.938  1.00  0.00     0.117 C 
ENDROOT
BRANCH   1   2
ATOM      2  N   UNL     1       3.076  -2.423  -1.545  1.00  0.00    -0.355 N 
ATOM      3  C   UNL     1       2.326  -2.404  -0.423  1.00  0.00     0.230 C 
ATOM      4  O   UNL     1       3.026  -2.287   0.594  1.00  0.00    -0.274 OA
ATOM      5  H   UNL     1       4.020  -2.203  -1.374  1.00  0.00     0.163 HD
BRANCH   3   6
ATOM      6  C   UNL     1       0.773  -2.592  -0.332  1.00  0.00     0.081 C 
ATOM      7  C   UNL     1      -0.139  -1.623  -1.115  1.00  0.00     0.063 C 
ATOM      8  C   UNL     1       0.453  -4.025  -0.797  1.00  0.00     0.010 A 
ATOM      9  C   UNL     1      -0.478  -1.987  -2.540  1.00  0.00     0.231 C 
ATOM     10  C   UNL     1      -0.289  -4.274  -1.961  1.00  0.00     0.123 A 
ATOM     11  C   UNL     1       0.991  -5.139  -0.119  1.00  0.00     0.008 A 
ATOM     12  O   UNL     1      -0.890  -3.326  -2.733  1.00  0.00    -0.493 OA
ATOM     13  C   UNL     1      -0.465  -5.579  -2.436  1.00  0.00     0.047 A 
ATOM     14  C   UNL     1       0.802  -6.442  -0.590  1.00  0.00     0.001 A 
ATOM     15  C   UNL     1       0.084  -6.662  -1.758  1.00  0.00     0.004 A 
BRANCH   6  16
ATOM     16  C   UNL     1       0.390  -2.390   1.201  1.00  0.00     0.025 C 
BRANCH  16  17
ATOM     17  C   UNL     1       0.873  -1.153   2.028  1.00  0.00     0.036 C 
BRANCH  17  18
ATOM     18  C   UNL     1       0.662   0.303   1.558  1.00  0.00     0.059 C 
ATOM     19  C   UNL     1       1.702   0.804   0.546  1.00  0.00     0.042 C 
ATOM     20  C   UNL     1       0.751   1.247   2.773  1.00  0.00     0.042 C 
BRANCH  18  21
ATOM     21  O   UNL     1      -0.647   0.420   1.008  1.00  0.00    -0.390 OA
ATOM     22  H   UNL     1      -0.791   1.331   0.709  1.00  0.00     0.211 HD
ENDBRANCH  18  21
ENDBRANCH  17  18
ENDBRANCH  16  17
ENDBRANCH   6  16
ENDBRANCH   3   6
ENDBRANCH   1   2
BRANCH   1  23
ATOM     23  C   UNL     1       2.927  -1.417  -3.763  1.00  0.00     0.042 C 
BRANCH  23  24
ATOM     24  C   UNL     1       4.352  -0.877  -3.833  1.00  0.00     0.118 C 
BRANCH  24  25
ATOM     25  N   UNL     1       5.232  -1.742  -4.607  1.00  0.00    -0.352 N 
ATOM     26  C   UNL     1       5.774  -1.564  -5.851  1.00  0.00     0.251 C 
ATOM     27  H   UNL     1       5.476  -2.588  -4.166  1.00  0.00     0.163 HD
ATOM     28  O   UNL     1       6.294  -2.521  -6.433  1.00  0.00    -0.269 OA
BRANCH  26  29
ATOM     29  C   UNL     1       5.740  -0.244  -6.513  1.00  0.00     0.039 A 
ATOM     30  C   UNL     1       5.487  -0.180  -7.886  1.00  0.00     0.014 A 
ATOM     31  C   UNL     1       6.004   0.928  -5.798  1.00  0.00     0.014 A 
ATOM     32  C   UNL     1       5.446   1.059  -8.530  1.00  0.00     0.010 A 
ATOM     33  C   UNL     1       5.879   2.166  -6.421  1.00  0.00     0.010 A 
ATOM     34  C   UNL     1       5.611   2.244  -7.796  1.00  0.00    -0.014 A 
BRANCH  34  35
ATOM     35  C   UNL     1       5.530   3.576  -8.448  1.00  0.00     0.031 A 
ATOM     36  C   UNL     1       6.734   4.477  -8.471  1.00  0.00     0.074 A 
ATOM     37  C   UNL     1       4.357   4.000  -8.956  1.00  0.00     0.049 A 
ATOM     38  N   UNL     1       6.840   5.708  -8.904  1.00  0.00    -0.248 NA
ATOM     39  C   UNL     1       7.977   3.932  -7.902  1.00  0.00     0.031 C 
ATOM     40  C   UNL     1       3.108   3.237  -8.953  1.00  0.00     0.029 A 
ATOM     41  N   UNL     1       4.021   5.185  -9.561  1.00  0.00    -0.354 N 
ATOM     42  C   UNL     1       8.150   6.089  -8.641  1.00  0.00     0.074 A 
ATOM     43  C   UNL     1       8.786   4.979  -7.965  1.00  0.00     0.031 C 
ATOM     44  C   UNL     1       2.148   3.964  -9.545  1.00  0.00     0.029 A 
ATOM     45  C   UNL     1       2.701   5.257  -9.935  1.00  0.00     0.049 A 
ATOM     46  H   UNL     1       4.665   5.915  -9.712  1.00  0.00     0.167 HD
ATOM     47  C   UNL     1       8.771   7.250  -8.955  1.00  0.00     0.037 A 
ATOM     48  C   UNL     1       2.014   6.258 -10.518  1.00  0.00     0.037 A 
ATOM     49  C   UNL     1       8.145   8.337  -9.660  1.00  0.00     0.049 A 
ATOM     50  C   UNL     1       2.730   7.535 -10.863  1.00  0.00     0.074 A 
ATOM     51  C   UNL     1       8.706   9.528 -10.087  1.00  0.00     0.029 A 
ATOM     52  N   UNL     1       6.812   8.363 -10.045  1.00  0.00    -0.354 N 
ATOM     53  N   UNL     1       3.984   7.860 -10.665  1.00  0.00    -0.248 NA
ATOM     54  C   UNL     1       1.935   8.583 -11.517  1.00  0.00     0.031 C 
ATOM     55  C   UNL     1       7.703  10.292 -10.693  1.00  0.00     0.029 A 
ATOM     56  C   UNL     1       6.528   9.558 -10.685  1.00  0.00     0.049 A 
ATOM     57  H   UNL     1       6.164   7.639  -9.886  1.00  0.00     0.167 HD
ATOM     58  C   UNL     1       4.136   9.136 -11.190  1.00  0.00     0.074 A 
ATOM     59  C   UNL     1       2.848   9.520 -11.730  1.00  0.00     0.031 C 
ATOM     60  C   UNL     1       5.241   9.921 -11.220  1.00  0.00     0.037 A 
BRANCH  47  61
ATOM     61  C   UNL     1      10.207   7.404  -8.543  1.00  0.00     0.064 A 
ATOM     62  C   UNL     1      11.232   6.666  -9.155  1.00  0.00     0.173 A 
ATOM     63  C   UNL     1      10.568   8.323  -7.546  1.00  0.00     0.173 A 
ATOM     64  F   UNL     1      10.940   5.765 -10.105  1.00  0.00    -0.203 F 
ATOM     65  C   UNL     1      12.559   6.821  -8.765  1.00  0.00     0.198 A 
ATOM     66  C   UNL     1      11.900   8.498  -7.179  1.00  0.00     0.198 A 
ATOM     67  F   UNL     1       9.628   9.058  -6.932  1.00  0.00    -0.203 F 
ATOM     68  F   UNL     1      13.514   6.069  -9.329  1.00  0.00    -0.200 F 
ATOM     69  C   UNL     1      12.893   7.741  -7.782  1.00  0.00     0.200 A 
ATOM     70  F   UNL     1      12.222   9.396  -6.239  1.00  0.00    -0.200 F 
ATOM     71  F   UNL     1      14.172   7.894  -7.412  1.00  0.00    -0.200 F 
ENDBRANCH  47  61
BRANCH  48  72
ATOM     72  C   UNL     1       0.573   6.081 -10.833  1.00  0.00     0.064 A 
ATOM     73  C   UNL     1       0.138   5.963 -12.160  1.00  0.00     0.173 A 
ATOM     74  C   UNL     1      -0.395   6.026  -9.821  1.00  0.00     0.173 A 
ATOM     75  F   UNL     1       1.026   6.031 -13.164  1.00  0.00    -0.203 F 
ATOM     76  C   UNL     1      -1.213   5.815 -12.464  1.00  0.00     0.198 A 
ATOM     77  C   UNL     1      -1.744   5.850 -10.124  1.00  0.00     0.198 A 
ATOM     78  F   UNL     1      -0.030   6.128  -8.534  1.00  0.00    -0.203 F 
ATOM     79  F   UNL     1      -1.606   5.748 -13.744  1.00  0.00    -0.200 F 
ATOM     80  C   UNL     1      -2.153   5.753 -11.446  1.00  0.00     0.200 A 
ATOM     81  F   UNL     1      -2.647   5.776  -9.137  1.00  0.00    -0.200 F 
ATOM     82  F   UNL     1      -3.452   5.606 -11.739  1.00  0.00    -0.200 F 
ENDBRANCH  48  72
BRANCH  60  83
ATOM     83  C   UNL     1       5.112  11.260 -11.883  1.00  0.00     0.064 A 
ATOM     84  C   UNL     1       4.407  12.313 -11.282  1.00  0.00     0.173 A 
ATOM     85  C   UNL     1       5.735  11.505 -13.117  1.00  0.00     0.173 A 
ATOM     86  F   UNL     1       3.781  12.123 -10.110  1.00  0.00    -0.203 F 
ATOM     87  C   UNL     1       4.310  13.555 -11.903  1.00  0.00     0.198 A 
ATOM     88  C   UNL     1       5.660  12.756 -13.721  1.00  0.00     0.198 A 
ATOM     89  F   UNL     1       6.426  10.533 -13.730  1.00  0.00    -0.203 F 
ATOM     90  F   UNL     1       3.592  14.532 -11.332  1.00  0.00    -0.200 F 
ATOM     91  C   UNL     1       4.942  13.778 -13.117  1.00  0.00     0.200 A 
ATOM     92  F   UNL     1       6.281  12.974 -14.888  1.00  0.00    -0.200 F 
ATOM     93  F   UNL     1       4.852  14.976 -13.710  1.00  0.00    -0.200 F 
ENDBRANCH  60  83
ENDBRANCH  34  35
ENDBRANCH  26  29
ENDBRANCH  24  25
ENDBRANCH  23  24
ENDBRANCH   1  23
TORSDOF 14
