REMARK SMILES C[C@H](C[NH3+])CS/C=C/C(=O)NCCCNC(=O)c1ccc(-c2c3nc(c(-c4c(F)c(F)c(F)c(F)c4F)c4ccc([nH]4)c(-c4c(F)c(F)c(F)c(F)c4F)c4nc(c(-c5c(F)c(F)c(F)c(F)c5F)c5ccc2[nH]5)C=C4)C=C3)cc1
REMARK SMILES IDX 9 1 10 2 11 3 8 5 7 6 6 7 5 8 2 9 1 10 3 11 4 12 12 16 13 17
REMARK SMILES IDX 14 18 15 19 16 20 17 22 18 23 19 24 80 25 20 26 79 27 21 28
REMARK SMILES IDX 22 29 23 30 73 31 24 32 78 33 72 34 74 35 25 36 77 37 71 38
REMARK SMILES IDX 70 39 26 41 58 42 38 43 57 44 39 45 42 46 56 47 75 48 40 49
REMARK SMILES IDX 41 50 55 52 76 53 43 54 27 55 28 56 36 57 29 58 30 59 34 60
REMARK SMILES IDX 37 61 31 62 32 63 35 64 33 65 59 66 60 67 68 68 61 69 62 70
REMARK SMILES IDX 66 71 69 72 63 73 64 74 67 75 65 76 44 77 45 78 53 79 46 80
REMARK SMILES IDX 47 81 51 82 54 83 48 84 49 85 52 86 50 87
REMARK H PARENT 11 4 4 13 4 14 4 15 15 21 74 40 42 51
REMARK Flexibility Score: inf
ROOT
ATOM      1  C   UNL     1      -0.236   0.469   2.950  1.00  0.00     0.244 C 
ATOM      2  O   UNL     1       0.279  -0.601   3.264  1.00  0.00    -0.270 OA
ATOM      3  N   UNL     1       0.030   1.592   3.665  1.00  0.00    -0.352 N 
ATOM      4  H   UNL     1       0.780   1.517   4.298  1.00  0.00     0.163 HD
ENDROOT
BRANCH   1   5
ATOM      5  C   UNL     1      -1.148   0.514   1.791  1.00  0.00     0.078 C 
ATOM      6  C   UNL     1      -0.889   1.351   0.779  1.00  0.00     0.046 C 
BRANCH   6   7
ATOM      7  S   UNL     1      -1.654   1.231  -0.757  1.00  0.00    -0.133 SA
BRANCH   7   8
ATOM      8  C   UNL     1      -0.856  -0.275  -1.435  1.00  0.00     0.083 C 
BRANCH   8   9
ATOM      9  C   UNL     1       0.677  -0.208  -1.629  1.00  0.00     0.051 C 
ATOM     10  C   UNL     1       1.088  -1.215  -2.713  1.00  0.00     0.014 C 
BRANCH   9  11
ATOM     11  C   UNL     1       1.527  -0.452  -0.362  1.00  0.00     0.262 C 
BRANCH  11  12
ATOM     12  N   UNL     1       1.271  -1.726   0.301  1.00  0.00    -0.357 N 
ATOM     13  H   UNL     1       0.303  -1.753   0.624  1.00  0.00     0.344 HD
ATOM     14  H   UNL     1       1.898  -1.827   1.099  1.00  0.00     0.344 HD
ATOM     15  H   UNL     1       1.431  -2.490  -0.356  1.00  0.00     0.344 HD
ENDBRANCH  11  12
ENDBRANCH   9  11
ENDBRANCH   8   9
ENDBRANCH   7   8
ENDBRANCH   6   7
ENDBRANCH   1   5
BRANCH   3  16
ATOM     16  C   UNL     1      -0.627   2.889   3.636  1.00  0.00     0.118 C 
BRANCH  16  17
ATOM     17  C   UNL     1      -1.916   2.887   4.448  1.00  0.00     0.042 C 
BRANCH  17  18
ATOM     18  C   UNL     1      -1.680   2.686   5.941  1.00  0.00     0.118 C 
BRANCH  18  19
ATOM     19  N   UNL     1      -0.985   3.817   6.542  1.00  0.00    -0.352 N 
ATOM     20  C   UNL     1      -1.445   4.779   7.404  1.00  0.00     0.251 C 
ATOM     21  H   UNL     1      -0.038   3.904   6.290  1.00  0.00     0.163 HD
ATOM     22  O   UNL     1      -0.778   5.795   7.594  1.00  0.00    -0.269 OA
BRANCH  20  23
ATOM     23  C   UNL     1      -2.734   4.608   8.105  1.00  0.00     0.039 A 
ATOM     24  C   UNL     1      -3.576   5.714   8.257  1.00  0.00     0.014 A 
ATOM     25  C   UNL     1      -3.090   3.377   8.662  1.00  0.00     0.014 A 
ATOM     26  C   UNL     1      -4.796   5.572   8.922  1.00  0.00     0.010 A 
ATOM     27  C   UNL     1      -4.337   3.218   9.256  1.00  0.00     0.010 A 
ATOM     28  C   UNL     1      -5.197   4.316   9.404  1.00  0.00    -0.014 A 
BRANCH  28  29
ATOM     29  C   UNL     1      -6.498   4.130  10.091  1.00  0.00     0.031 A 
ATOM     30  C   UNL     1      -6.532   3.729  11.539  1.00  0.00     0.074 A 
ATOM     31  C   UNL     1      -7.643   4.247   9.392  1.00  0.00     0.049 A 
ATOM     32  N   UNL     1      -7.559   3.424  12.292  1.00  0.00    -0.248 NA
ATOM     33  C   UNL     1      -5.235   3.628  12.225  1.00  0.00     0.031 C 
ATOM     34  C   UNL     1      -7.736   4.585   7.971  1.00  0.00     0.029 A 
ATOM     35  N   UNL     1      -8.948   4.081   9.781  1.00  0.00    -0.354 N 
ATOM     36  C   UNL     1      -7.030   3.072  13.526  1.00  0.00     0.074 A 
ATOM     37  C   UNL     1      -5.590   3.155  13.410  1.00  0.00     0.031 C 
ATOM     38  C   UNL     1      -9.029   4.619   7.612  1.00  0.00     0.029 A 
ATOM     39  C   UNL     1      -9.853   4.274   8.767  1.00  0.00     0.049 A 
ATOM     40  H   UNL     1      -9.211   3.845  10.701  1.00  0.00     0.167 HD
ATOM     41  C   UNL     1      -7.687   2.730  14.660  1.00  0.00     0.037 A 
ATOM     42  C   UNL     1     -11.196   4.177   8.769  1.00  0.00     0.037 A 
ATOM     43  C   UNL     1      -9.120   2.684  14.781  1.00  0.00     0.049 A 
ATOM     44  C   UNL     1     -11.903   3.816  10.046  1.00  0.00     0.074 A 
ATOM     45  C   UNL     1      -9.886   2.414  15.902  1.00  0.00     0.029 A 
ATOM     46  N   UNL     1     -10.005   2.919  13.739  1.00  0.00    -0.354 N 
ATOM     47  N   UNL     1     -11.396   3.542  11.223  1.00  0.00    -0.248 NA
ATOM     48  C   UNL     1     -13.370   3.756   9.995  1.00  0.00     0.031 C 
ATOM     49  C   UNL     1     -11.234   2.453  15.530  1.00  0.00     0.029 A 
ATOM     50  C   UNL     1     -11.310   2.786  14.187  1.00  0.00     0.049 A 
ATOM     51  H   UNL     1      -9.745   3.147  12.817  1.00  0.00     0.167 HD
ATOM     52  C   UNL     1     -12.478   3.303  12.059  1.00  0.00     0.074 A 
ATOM     53  C   UNL     1     -13.671   3.476  11.256  1.00  0.00     0.031 C 
ATOM     54  C   UNL     1     -12.483   2.970  13.373  1.00  0.00     0.037 A 
BRANCH  41  55
ATOM     55  C   UNL     1      -6.857   2.382  15.862  1.00  0.00     0.064 A 
ATOM     56  C   UNL     1      -6.126   3.357  16.558  1.00  0.00     0.173 A 
ATOM     57  C   UNL     1      -6.809   1.063  16.337  1.00  0.00     0.173 A 
ATOM     58  F   UNL     1      -6.128   4.631  16.137  1.00  0.00    -0.203 F 
ATOM     59  C   UNL     1      -5.350   3.018  17.663  1.00  0.00     0.198 A 
ATOM     60  C   UNL     1      -6.055   0.733  17.461  1.00  0.00     0.198 A 
ATOM     61  F   UNL     1      -7.494   0.093  15.713  1.00  0.00    -0.203 F 
ATOM     62  F   UNL     1      -4.617   3.957  18.278  1.00  0.00    -0.200 F 
ATOM     63  C   UNL     1      -5.320   1.708  18.117  1.00  0.00     0.200 A 
ATOM     64  F   UNL     1      -6.035  -0.531  17.905  1.00  0.00    -0.200 F 
ATOM     65  F   UNL     1      -4.574   1.385  19.183  1.00  0.00    -0.200 F 
ENDBRANCH  41  55
BRANCH  42  66
ATOM     66  C   UNL     1     -11.957   4.465   7.528  1.00  0.00     0.064 A 
ATOM     67  C   UNL     1     -12.716   5.638   7.410  1.00  0.00     0.173 A 
ATOM     68  C   UNL     1     -11.932   3.590   6.433  1.00  0.00     0.173 A 
ATOM     69  F   UNL     1     -12.785   6.495   8.439  1.00  0.00    -0.203 F 
ATOM     70  C   UNL     1     -13.433   5.918   6.249  1.00  0.00     0.198 A 
ATOM     71  C   UNL     1     -12.630   3.882   5.263  1.00  0.00     0.198 A 
ATOM     72  F   UNL     1     -11.216   2.458   6.495  1.00  0.00    -0.203 F 
ATOM     73  F   UNL     1     -14.178   7.029   6.176  1.00  0.00    -0.200 F 
ATOM     74  C   UNL     1     -13.384   5.043   5.174  1.00  0.00     0.200 A 
ATOM     75  F   UNL     1     -12.570   3.042   4.221  1.00  0.00    -0.200 F 
ATOM     76  F   UNL     1     -14.068   5.316   4.054  1.00  0.00    -0.200 F 
ENDBRANCH  42  66
BRANCH  54  77
ATOM     77  C   UNL     1     -13.820   2.802  14.030  1.00  0.00     0.064 A 
ATOM     78  C   UNL     1     -14.623   1.679  13.784  1.00  0.00     0.173 A 
ATOM     79  C   UNL     1     -14.284   3.756  14.948  1.00  0.00     0.173 A 
ATOM     80  F   UNL     1     -14.229   0.748  12.902  1.00  0.00    -0.203 F 
ATOM     81  C   UNL     1     -15.854   1.529  14.417  1.00  0.00     0.198 A 
ATOM     82  C   UNL     1     -15.503   3.590  15.598  1.00  0.00     0.198 A 
ATOM     83  F   UNL     1     -13.549   4.845  15.221  1.00  0.00    -0.203 F 
ATOM     84  F   UNL     1     -16.625   0.470  14.135  1.00  0.00    -0.200 F 
ATOM     85  C   UNL     1     -16.290   2.480  15.328  1.00  0.00     0.200 A 
ATOM     86  F   UNL     1     -15.918   4.504  16.486  1.00  0.00    -0.200 F 
ATOM     87  F   UNL     1     -17.472   2.331  15.941  1.00  0.00    -0.200 F 
ENDBRANCH  54  77
ENDBRANCH  28  29
ENDBRANCH  20  23
ENDBRANCH  18  19
ENDBRANCH  17  18
ENDBRANCH  16  17
ENDBRANCH   3  16
TORSDOF 15
