REMARK SMILES O=C(NCCCNC(=O)[C@H]1Cc2c([nH]c3ccccc23)[C@@H](c2ccc(OC(F)(F)F)cc2)[NH2+]1)c1ccc(-c2c3nc(c(-c4c(F)c(F)c(F)c(F)c4F)c4ccc([nH]4)c(-c4c(F)c(F)c(F)c(F)c4F)c4nc(c(-c5c(F)c(F)c(F)c(F)c5F)c5ccc2[nH]5)C=C4)C=C3)cc1
REMARK SMILES IDX 5 1 4 2 3 3 1 4 2 5 34 7 35 8 96 9 36 10 95 11 37 12 38 13
REMARK SMILES IDX 39 14 89 15 40 16 94 17 88 18 90 19 41 20 93 21 87 22 86 23
REMARK SMILES IDX 42 25 74 26 54 27 73 28 55 29 58 30 72 31 91 32 56 33 57 34
REMARK SMILES IDX 71 36 92 37 59 38 43 39 44 40 52 41 45 42 46 43 50 44 53 45
REMARK SMILES IDX 47 46 48 47 51 48 49 49 75 50 76 51 84 52 77 53 78 54 82 55
REMARK SMILES IDX 85 56 79 57 80 58 83 59 81 60 60 61 61 62 69 63 62 64 63 65
REMARK SMILES IDX 67 66 70 67 64 68 65 69 68 70 66 71 6 72 7 73 8 74 9 76
REMARK SMILES IDX 10 77 11 78 33 79 12 80 21 81 13 84 20 85 14 86 15 87 19 88
REMARK SMILES IDX 16 90 18 91 17 92 22 93 23 94 32 95 24 96 31 97 25 98 26 99
REMARK SMILES IDX 27 100 28 101 29 102 30 103
REMARK H PARENT 3 6 90 24 58 35 7 75 33 82 33 83 14 89
REMARK Flexibility Score: inf
ROOT
ATOM      1  C   UNL     1       4.554   2.123   1.050  1.00  0.00     0.042 C 
ENDROOT
BRANCH   1   2
ATOM      2  C   UNL     1       4.339   0.621   1.140  1.00  0.00     0.118 C 
BRANCH   2   3
ATOM      3  N   UNL     1       2.925   0.286   1.000  1.00  0.00    -0.352 N 
ATOM      4  O   UNL     1       1.047  -0.228  -0.128  1.00  0.00    -0.269 OA
ATOM      5  C   UNL     1       2.266  -0.313  -0.041  1.00  0.00     0.251 C 
ATOM      6  H   UNL     1       2.359   0.528   1.769  1.00  0.00     0.163 HD
BRANCH   5   7
ATOM      7  C   UNL     1       3.030  -1.084  -1.040  1.00  0.00     0.039 A 
ATOM      8  C   UNL     1       4.107  -1.876  -0.635  1.00  0.00     0.014 A 
ATOM      9  C   UNL     1       2.617  -1.080  -2.375  1.00  0.00     0.014 A 
ATOM     10  C   UNL     1       4.842  -2.577  -1.574  1.00  0.00     0.010 A 
ATOM     11  C   UNL     1       3.292  -1.873  -3.304  1.00  0.00     0.010 A 
ATOM     12  C   UNL     1       4.405  -2.628  -2.905  1.00  0.00    -0.014 A 
BRANCH  12  13
ATOM     13  C   UNL     1       5.034  -3.609  -3.815  1.00  0.00     0.031 A 
ATOM     14  C   UNL     1       5.812  -3.170  -5.014  1.00  0.00     0.074 A 
ATOM     15  C   UNL     1       4.878  -4.916  -3.522  1.00  0.00     0.049 A 
ATOM     16  N   UNL     1       6.397  -3.907  -5.923  1.00  0.00    -0.248 NA
ATOM     17  C   UNL     1       5.948  -1.722  -5.234  1.00  0.00     0.031 C 
ATOM     18  C   UNL     1       4.117  -5.437  -2.380  1.00  0.00     0.029 A 
ATOM     19  N   UNL     1       5.348  -6.042  -4.144  1.00  0.00    -0.354 N 
ATOM     20  C   UNL     1       6.949  -3.018  -6.833  1.00  0.00     0.074 A 
ATOM     21  C   UNL     1       6.623  -1.684  -6.376  1.00  0.00     0.031 C 
ATOM     22  C   UNL     1       4.197  -6.773  -2.367  1.00  0.00     0.029 A 
ATOM     23  C   UNL     1       4.945  -7.207  -3.539  1.00  0.00     0.049 A 
ATOM     24  H   UNL     1       5.918  -6.019  -4.946  1.00  0.00     0.167 HD
ATOM     25  C   UNL     1       7.660  -3.306  -7.948  1.00  0.00     0.037 A 
ATOM     26  C   UNL     1       5.120  -8.487  -3.911  1.00  0.00     0.037 A 
ATOM     27  C   UNL     1       7.995  -4.643  -8.366  1.00  0.00     0.049 A 
ATOM     28  C   UNL     1       5.888  -8.764  -5.170  1.00  0.00     0.074 A 
ATOM     29  C   UNL     1       8.786  -5.039  -9.430  1.00  0.00     0.029 A 
ATOM     30  N   UNL     1       7.546  -5.801  -7.747  1.00  0.00    -0.354 N 
ATOM     31  N   UNL     1       6.465  -7.916  -5.986  1.00  0.00    -0.248 NA
ATOM     32  C   UNL     1       6.019 -10.170  -5.569  1.00  0.00     0.031 C 
ATOM     33  C   UNL     1       8.765  -6.436  -9.492  1.00  0.00     0.029 A 
ATOM     34  C   UNL     1       8.003  -6.912  -8.437  1.00  0.00     0.049 A 
ATOM     35  H   UNL     1       6.985  -5.829  -6.938  1.00  0.00     0.167 HD
ATOM     36  C   UNL     1       7.029  -8.683  -6.992  1.00  0.00     0.074 A 
ATOM     37  C   UNL     1       6.754 -10.068  -6.666  1.00  0.00     0.031 C 
ATOM     38  C   UNL     1       7.705  -8.279  -8.095  1.00  0.00     0.037 A 
BRANCH  25  39
ATOM     39  C   UNL     1       8.113  -2.171  -8.816  1.00  0.00     0.064 A 
ATOM     40  C   UNL     1       9.171  -1.330  -8.445  1.00  0.00     0.173 A 
ATOM     41  C   UNL     1       7.541  -1.986 -10.085  1.00  0.00     0.173 A 
ATOM     42  F   UNL     1       9.745  -1.459  -7.240  1.00  0.00    -0.203 F 
ATOM     43  C   UNL     1       9.638  -0.343  -9.311  1.00  0.00     0.198 A 
ATOM     44  C   UNL     1       8.025  -1.014 -10.956  1.00  0.00     0.198 A 
ATOM     45  F   UNL     1       6.528  -2.767 -10.489  1.00  0.00    -0.203 F 
ATOM     46  F   UNL     1      10.639   0.462  -8.929  1.00  0.00    -0.200 F 
ATOM     47  C   UNL     1       9.073  -0.194 -10.569  1.00  0.00     0.200 A 
ATOM     48  F   UNL     1       7.485  -0.880 -12.176  1.00  0.00    -0.200 F 
ATOM     49  F   UNL     1       9.539   0.741 -11.408  1.00  0.00    -0.200 F 
ENDBRANCH  25  39
BRANCH  26  50
ATOM     50  C   UNL     1       4.509  -9.584  -3.116  1.00  0.00     0.064 A 
ATOM     51  C   UNL     1       5.302 -10.513  -2.431  1.00  0.00     0.173 A 
ATOM     52  C   UNL     1       3.115  -9.727  -3.031  1.00  0.00     0.173 A 
ATOM     53  F   UNL     1       6.639 -10.428  -2.494  1.00  0.00    -0.203 F 
ATOM     54  C   UNL     1       4.724 -11.557  -1.711  1.00  0.00     0.198 A 
ATOM     55  C   UNL     1       2.539 -10.749  -2.283  1.00  0.00     0.198 A 
ATOM     56  F   UNL     1       2.310  -8.860  -3.664  1.00  0.00    -0.203 F 
ATOM     57  F   UNL     1       5.506 -12.462  -1.107  1.00  0.00    -0.200 F 
ATOM     58  C   UNL     1       3.344 -11.671  -1.632  1.00  0.00     0.200 A 
ATOM     59  F   UNL     1       1.205 -10.842  -2.194  1.00  0.00    -0.200 F 
ATOM     60  F   UNL     1       2.791 -12.673  -0.937  1.00  0.00    -0.200 F 
ENDBRANCH  26  50
BRANCH  38  61
ATOM     61  C   UNL     1       8.186  -9.351  -9.024  1.00  0.00     0.064 A 
ATOM     62  C   UNL     1       7.293 -10.056  -9.845  1.00  0.00     0.173 A 
ATOM     63  C   UNL     1       9.552  -9.652  -9.121  1.00  0.00     0.173 A 
ATOM     64  F   UNL     1       5.975  -9.816  -9.771  1.00  0.00    -0.203 F 
ATOM     65  C   UNL     1       7.750 -11.038 -10.718  1.00  0.00     0.198 A 
ATOM     66  C   UNL     1      10.008 -10.614 -10.017  1.00  0.00     0.198 A 
ATOM     67  F   UNL     1      10.444  -9.003  -8.358  1.00  0.00    -0.203 F 
ATOM     68  F   UNL     1       6.877 -11.731 -11.461  1.00  0.00    -0.200 F 
ATOM     69  C   UNL     1       9.108 -11.310 -10.809  1.00  0.00     0.200 A 
ATOM     70  F   UNL     1      11.321 -10.867 -10.113  1.00  0.00    -0.200 F 
ATOM     71  F   UNL     1       9.547 -12.249 -11.658  1.00  0.00    -0.200 F 
ENDBRANCH  38  61
ENDBRANCH  12  13
ENDBRANCH   5   7
ENDBRANCH   2   3
ENDBRANCH   1   2
BRANCH   1  72
ATOM     72  C   UNL     1       3.950   2.830   2.255  1.00  0.00     0.118 C 
BRANCH  72  73
ATOM     73  N   UNL     1       4.857   2.808   3.387  1.00  0.00    -0.351 N 
ATOM     74  C   UNL     1       5.774   3.671   3.888  1.00  0.00     0.278 C 
ATOM     75  H   UNL     1       4.791   1.977   3.911  1.00  0.00     0.163 HD
ATOM     76  O   UNL     1       6.411   3.252   4.868  1.00  0.00    -0.268 OA
BRANCH  74  77
ATOM     77  C   UNL     1       6.028   5.118   3.407  1.00  0.00     0.277 C 
ATOM     78  C   UNL     1       5.424   5.521   2.064  1.00  0.00     0.114 C 
ATOM     79  N   UNL     1       5.559   6.020   4.493  1.00  0.00    -0.325 N 
ATOM     80  C   UNL     1       5.647   6.955   1.804  1.00  0.00    -0.006 A 
ATOM     81  C   UNL     1       5.872   7.456   4.314  1.00  0.00     0.262 C 
ATOM     82  H   UNL     1       5.989   5.711   5.364  1.00  0.00     0.347 HD
ATOM     83  H   UNL     1       4.541   5.954   4.489  1.00  0.00     0.347 HD
ATOM     84  C   UNL     1       5.839   7.829   2.852  1.00  0.00     0.083 A 
ATOM     85  C   UNL     1       5.480   7.693   0.615  1.00  0.00     0.003 A 
ATOM     86  N   UNL     1       5.943   9.086   2.308  1.00  0.00    -0.353 N 
ATOM     87  C   UNL     1       5.631   9.036   0.959  1.00  0.00     0.046 A 
ATOM     88  C   UNL     1       5.135   7.345  -0.705  1.00  0.00     0.010 A 
ATOM     89  H   UNL     1       6.201   9.899   2.801  1.00  0.00     0.166 HD
ATOM     90  C   UNL     1       5.435  10.062   0.026  1.00  0.00     0.026 A 
ATOM     91  C   UNL     1       4.925   8.358  -1.641  1.00  0.00     0.001 A 
ATOM     92  C   UNL     1       5.068   9.695  -1.276  1.00  0.00     0.002 A 
BRANCH  81  93
ATOM     93  C   UNL     1       4.888   8.228   5.197  1.00  0.00     0.016 A 
ATOM     94  C   UNL     1       3.766   8.898   4.686  1.00  0.00     0.014 A 
ATOM     95  C   UNL     1       5.030   8.173   6.596  1.00  0.00     0.014 A 
ATOM     96  C   UNL     1       2.856   9.530   5.537  1.00  0.00     0.047 A 
ATOM     97  C   UNL     1       4.096   8.776   7.450  1.00  0.00     0.047 A 
ATOM     98  C   UNL     1       3.008   9.467   6.923  1.00  0.00     0.129 A 
BRANCH  98  99
ATOM     99  O   UNL     1       2.032  10.114   7.624  1.00  0.00    -0.406 OA
BRANCH  99 100
ATOM    100  C   UNL     1       2.020   9.964   9.032  1.00  0.00     0.573 C 
ATOM    101  F   UNL     1       1.869   8.670   9.384  1.00  0.00    -0.132 F 
ATOM    102  F   UNL     1       3.149  10.455   9.587  1.00  0.00    -0.132 F 
ATOM    103  F   UNL     1       0.974  10.661   9.530  1.00  0.00    -0.132 F 
ENDBRANCH  99 100
ENDBRANCH  98  99
ENDBRANCH  81  93
ENDBRANCH  74  77
ENDBRANCH  72  73
ENDBRANCH   1  72
TORSDOF 13
