REMARK SMILES O=C(Cc1c(C(=O)c2cc3c(cn2)CCCC3)[nH]c2cc(Cl)ccc12)NCCCNC(=O)c1ccc(-c2c3nc(c(-c4c(F)c(F)c(F)c(F)c4F)c4ccc([nH]4)c(-c4c(F)c(F)c(F)c(F)c4F)c4nc(c(-c5c(F)c(F)c(F)c(F)c5F)c5ccc2[nH]5)C=C4)C=C3)cc1
REMARK SMILES IDX 27 1 26 2 1 3 2 4 3 6 4 7 5 8 25 9 18 10 19 11 24 12 20 14
REMARK SMILES IDX 23 15 21 16 22 17 6 18 7 19 8 20 9 21 13 22 10 23 12 24
REMARK SMILES IDX 11 25 17 26 14 27 16 28 15 29 28 30 29 31 30 32 31 33 32 35
REMARK SMILES IDX 33 36 34 37 95 38 35 39 94 40 36 41 37 42 38 43 88 44 39 45
REMARK SMILES IDX 93 46 87 47 89 48 40 49 92 50 86 51 85 52 41 54 73 55 53 56
REMARK SMILES IDX 72 57 54 58 57 59 71 60 90 61 55 62 56 63 70 65 91 66 58 67
REMARK SMILES IDX 42 68 43 69 51 70 44 71 45 72 49 73 52 74 46 75 47 76 50 77
REMARK SMILES IDX 48 78 74 79 75 80 83 81 76 82 77 83 81 84 84 85 78 86 79 87
REMARK SMILES IDX 82 88 80 89 59 90 60 91 68 92 61 93 62 94 66 95 69 96 63 97
REMARK SMILES IDX 64 98 67 99 65 100
REMARK H PARENT 26 5 18 13 30 34 89 53 57 64
REMARK Flexibility Score: inf
ROOT
ATOM      1  C   UNL     1       1.998   2.064  -1.368  1.00  0.00     0.117 C 
ENDROOT
BRANCH   1   2
ATOM      2  N   UNL     1       2.663   1.131  -0.487  1.00  0.00    -0.356 N 
ATOM      3  O   UNL     1       1.100  -0.543  -0.665  1.00  0.00    -0.275 OA
ATOM      4  C   UNL     1       2.189  -0.145  -0.261  1.00  0.00     0.224 C 
ATOM      5  H   UNL     1       3.487   1.417  -0.031  1.00  0.00     0.163 HD
BRANCH   4   6
ATOM      6  C   UNL     1       3.167  -1.042   0.488  1.00  0.00     0.138 C 
BRANCH   6   7
ATOM      7  C   UNL     1       4.036  -1.813  -0.469  1.00  0.00    -0.002 A 
ATOM      8  C   UNL     1       5.065  -1.307  -1.269  1.00  0.00     0.093 A 
ATOM      9  C   UNL     1       3.950  -3.221  -0.719  1.00  0.00     0.004 A 
ATOM     10  N   UNL     1       5.568  -2.370  -1.988  1.00  0.00    -0.351 N 
ATOM     11  C   UNL     1       4.909  -3.534  -1.678  1.00  0.00     0.048 A 
ATOM     12  C   UNL     1       3.143  -4.262  -0.210  1.00  0.00     0.012 A 
ATOM     13  H   UNL     1       6.303  -2.303  -2.639  1.00  0.00     0.167 HD
ATOM     14  C   UNL     1       5.100  -4.834  -2.166  1.00  0.00     0.047 A 
ATOM     15  C   UNL     1       3.329  -5.571  -0.673  1.00  0.00     0.021 A 
ATOM     16  C   UNL     1       4.292  -5.845  -1.638  1.00  0.00     0.043 A 
ATOM     17  Cl  UNL     1       4.500  -7.462  -2.194  1.00  0.00    -0.084 Cl
BRANCH   8  18
ATOM     18  C   UNL     1       5.571   0.061  -1.332  1.00  0.00     0.227 C 
ATOM     19  O   UNL     1       5.348   0.888  -0.446  1.00  0.00    -0.285 OA
BRANCH  18  20
ATOM     20  C   UNL     1       6.345   0.508  -2.527  1.00  0.00     0.113 A 
ATOM     21  C   UNL     1       5.877   0.258  -3.814  1.00  0.00     0.036 A 
ATOM     22  N   UNL     1       7.487   1.187  -2.262  1.00  0.00    -0.252 NA
ATOM     23  C   UNL     1       6.635   0.706  -4.901  1.00  0.00    -0.041 A 
ATOM     24  C   UNL     1       8.195   1.619  -3.326  1.00  0.00     0.115 A 
ATOM     25  C   UNL     1       7.838   1.385  -4.651  1.00  0.00    -0.026 A 
ATOM     26  C   UNL     1       6.178   0.407  -6.308  1.00  0.00     0.036 C 
ATOM     27  C   UNL     1       8.700   1.915  -5.764  1.00  0.00     0.037 C 
ATOM     28  C   UNL     1       6.922   1.209  -7.377  1.00  0.00     0.005 C 
ATOM     29  C   UNL     1       8.420   1.227  -7.098  1.00  0.00     0.005 C 
ENDBRANCH  18  20
ENDBRANCH   8  18
ENDBRANCH   6   7
ENDBRANCH   4   6
ENDBRANCH   1   2
BRANCH   1  30
ATOM     30  C   UNL     1       2.208   3.518  -0.968  1.00  0.00     0.042 C 
BRANCH  30  31
ATOM     31  C   UNL     1       3.656   3.998  -0.970  1.00  0.00     0.118 C 
BRANCH  31  32
ATOM     32  N   UNL     1       4.276   4.055  -2.287  1.00  0.00    -0.352 N 
ATOM     33  C   UNL     1       5.169   4.986  -2.778  1.00  0.00     0.251 C 
ATOM     34  H   UNL     1       4.025   3.334  -2.909  1.00  0.00     0.163 HD
ATOM     35  O   UNL     1       5.564   4.921  -3.935  1.00  0.00    -0.269 OA
BRANCH  33  36
ATOM     36  C   UNL     1       5.598   6.110  -1.910  1.00  0.00     0.039 A 
ATOM     37  C   UNL     1       6.014   5.883  -0.598  1.00  0.00     0.014 A 
ATOM     38  C   UNL     1       5.529   7.416  -2.405  1.00  0.00     0.014 A 
ATOM     39  C   UNL     1       6.176   6.961   0.269  1.00  0.00     0.010 A 
ATOM     40  C   UNL     1       5.773   8.499  -1.552  1.00  0.00     0.010 A 
ATOM     41  C   UNL     1       6.038   8.282  -0.191  1.00  0.00    -0.014 A 
BRANCH  41  42
ATOM     42  C   UNL     1       6.144   9.406   0.781  1.00  0.00     0.031 A 
ATOM     43  C   UNL     1       4.950  10.269   1.099  1.00  0.00     0.074 A 
ATOM     44  C   UNL     1       7.300   9.601   1.443  1.00  0.00     0.049 A 
ATOM     45  N   UNL     1       4.840  11.236   1.978  1.00  0.00    -0.248 NA
ATOM     46  C   UNL     1       3.718  10.020   0.334  1.00  0.00     0.031 C 
ATOM     47  C   UNL     1       8.528   8.835   1.231  1.00  0.00     0.029 A 
ATOM     48  N   UNL     1       7.623  10.474   2.453  1.00  0.00    -0.354 N 
ATOM     49  C   UNL     1       3.541  11.713   1.863  1.00  0.00     0.074 A 
ATOM     50  C   UNL     1       2.907  10.957   0.806  1.00  0.00     0.031 C 
ATOM     51  C   UNL     1       9.448   9.224   2.125  1.00  0.00     0.029 A 
ATOM     52  C   UNL     1       8.895  10.302   2.941  1.00  0.00     0.049 A 
ATOM     53  H   UNL     1       7.002  11.158   2.793  1.00  0.00     0.167 HD
ATOM     54  C   UNL     1       2.926  12.680   2.586  1.00  0.00     0.037 A 
ATOM     55  C   UNL     1       9.545  10.934   3.936  1.00  0.00     0.037 A 
ATOM     56  C   UNL     1       3.541  13.415   3.661  1.00  0.00     0.049 A 
ATOM     57  C   UNL     1       8.849  12.024   4.701  1.00  0.00     0.074 A 
ATOM     58  C   UNL     1       2.980  14.388   4.471  1.00  0.00     0.029 A 
ATOM     59  N   UNL     1       4.853  13.255   4.078  1.00  0.00    -0.354 N 
ATOM     60  N   UNL     1       7.615  12.450   4.592  1.00  0.00    -0.248 NA
ATOM     61  C   UNL     1       9.640  12.729   5.720  1.00  0.00     0.031 C 
ATOM     62  C   UNL     1       3.964  14.845   5.353  1.00  0.00     0.029 A 
ATOM     63  C   UNL     1       5.126  14.128   5.119  1.00  0.00     0.049 A 
ATOM     64  H   UNL     1       5.495  12.616   3.693  1.00  0.00     0.167 HD
ATOM     65  C   UNL     1       7.478  13.464   5.529  1.00  0.00     0.074 A 
ATOM     66  C   UNL     1       8.748  13.577   6.215  1.00  0.00     0.031 C 
ATOM     67  C   UNL     1       6.396  14.236   5.791  1.00  0.00     0.037 A 
BRANCH  54  68
ATOM     68  C   UNL     1       1.500  13.008   2.249  1.00  0.00     0.064 A 
ATOM     69  C   UNL     1       0.449  12.151   2.604  1.00  0.00     0.173 A 
ATOM     70  C   UNL     1       1.176  14.229   1.638  1.00  0.00     0.173 A 
ATOM     71  F   UNL     1       0.707  10.969   3.183  1.00  0.00    -0.203 F 
ATOM     72  C   UNL     1      -0.875  12.499   2.347  1.00  0.00     0.198 A 
ATOM     73  C   UNL     1      -0.150  14.584   1.405  1.00  0.00     0.198 A 
ATOM     74  F   UNL     1       2.145  15.088   1.288  1.00  0.00    -0.203 F 
ATOM     75  F   UNL     1      -1.863  11.653   2.670  1.00  0.00    -0.200 F 
ATOM     76  C   UNL     1      -1.174  13.718   1.756  1.00  0.00     0.200 A 
ATOM     77  F   UNL     1      -0.438  15.768   0.846  1.00  0.00    -0.200 F 
ATOM     78  F   UNL     1      -2.450  14.057   1.525  1.00  0.00    -0.200 F 
ENDBRANCH  54  68
BRANCH  55  79
ATOM     79  C   UNL     1      10.933  10.530   4.274  1.00  0.00     0.064 A 
ATOM     80  C   UNL     1      11.212   9.849   5.466  1.00  0.00     0.173 A 
ATOM     81  C   UNL     1      12.000  10.787   3.401  1.00  0.00     0.173 A 
ATOM     82  F   UNL     1      10.227   9.600   6.342  1.00  0.00    -0.203 F 
ATOM     83  C   UNL     1      12.508   9.440   5.773  1.00  0.00     0.198 A 
ATOM     84  C   UNL     1      13.290  10.356   3.697  1.00  0.00     0.198 A 
ATOM     85  F   UNL     1      11.782  11.436   2.248  1.00  0.00    -0.203 F 
ATOM     86  F   UNL     1      12.754   8.813   6.931  1.00  0.00    -0.200 F 
ATOM     87  C   UNL     1      13.544   9.685   4.884  1.00  0.00     0.200 A 
ATOM     88  F   UNL     1      14.285  10.583   2.829  1.00  0.00    -0.200 F 
ATOM     89  F   UNL     1      14.787   9.279   5.173  1.00  0.00    -0.200 F 
ENDBRANCH  55  79
BRANCH  67  90
ATOM     90  C   UNL     1       6.528  15.277   6.861  1.00  0.00     0.064 A 
ATOM     91  C   UNL     1       7.242  16.463   6.636  1.00  0.00     0.173 A 
ATOM     92  C   UNL     1       5.878  15.121   8.094  1.00  0.00     0.173 A 
ATOM     93  F   UNL     1       7.891  16.650   5.478  1.00  0.00    -0.203 F 
ATOM     94  C   UNL     1       7.306  17.453   7.613  1.00  0.00     0.198 A 
ATOM     95  C   UNL     1       5.925  16.124   9.059  1.00  0.00     0.198 A 
ATOM     96  F   UNL     1       5.178  14.007   8.354  1.00  0.00    -0.203 F 
ATOM     97  F   UNL     1       8.015  18.568   7.388  1.00  0.00    -0.200 F 
ATOM     98  C   UNL     1       6.641  17.287   8.818  1.00  0.00     0.200 A 
ATOM     99  F   UNL     1       5.272  15.968  10.219  1.00  0.00    -0.200 F 
ATOM    100  F   UNL     1       6.692  18.249   9.751  1.00  0.00    -0.200 F 
ENDBRANCH  67  90
ENDBRANCH  41  42
ENDBRANCH  33  36
ENDBRANCH  31  32
ENDBRANCH  30  31
ENDBRANCH   1  30
TORSDOF 13
