REMARK SMILES CCN(CC)c1ccc(NC(=O)[C@@H]2CC=CC[C@@H]2C(=O)NCCCNC(=O)c2ccc(-c3c4nc(c(-c5c(F)c(F)c(F)c(F)c5F)c5ccc([nH]5)c(-c5c(F)c(F)c(F)c(F)c5F)c5nc(c(-c6c(F)c(F)c(F)c(F)c6F)c6ccc3[nH]6)C=C5)C=C4)cc2)cc1
REMARK SMILES IDX 22 1 21 2 19 3 20 4 18 6 13 7 14 8 15 9 17 10 16 11 11 12
REMARK SMILES IDX 10 13 12 15 9 16 6 17 7 18 92 19 8 20 91 21 3 22 2 23 1 24
REMARK SMILES IDX 4 25 5 26 23 27 24 28 25 29 26 30 27 32 28 33 29 34 90 35
REMARK SMILES IDX 30 36 89 37 31 38 32 39 33 40 83 41 34 42 88 43 82 44 84 45
REMARK SMILES IDX 35 46 87 47 81 48 80 49 36 51 68 52 48 53 67 54 49 55 52 56
REMARK SMILES IDX 66 57 85 58 50 59 51 60 65 62 86 63 53 64 37 65 38 66 46 67
REMARK SMILES IDX 39 68 40 69 44 70 47 71 41 72 42 73 45 74 43 75 69 76 70 77
REMARK SMILES IDX 78 78 71 79 72 80 76 81 79 82 73 83 74 84 77 85 75 86 54 87
REMARK SMILES IDX 55 88 63 89 56 90 57 91 61 92 64 93 58 94 59 95 62 96 60 97
REMARK H PARENT 21 5 10 14 25 31 84 50 52 61
REMARK Flexibility Score: inf
ROOT
ATOM      1  C   UNL     1       4.891  -9.239  -0.538  1.00  0.00     0.117 C 
ENDROOT
BRANCH   1   2
ATOM      2  N   UNL     1       3.981  -8.108  -0.595  1.00  0.00    -0.356 N 
ATOM      3  C   UNL     1       4.205  -6.766  -0.623  1.00  0.00     0.224 C 
ATOM      4  O   UNL     1       3.219  -6.031  -0.684  1.00  0.00    -0.275 OA
ATOM      5  H   UNL     1       3.029  -8.358  -0.617  1.00  0.00     0.163 HD
BRANCH   3   6
ATOM      6  C   UNL     1       5.628  -6.227  -0.622  1.00  0.00     0.095 C 
ATOM      7  C   UNL     1       6.081  -5.657   0.730  1.00  0.00     0.095 C 
ATOM      8  C   UNL     1       5.265  -4.422   1.138  1.00  0.00     0.041 C 
ATOM      9  C   UNL     1       5.238  -3.405   0.037  1.00  0.00    -0.030 C 
ATOM     10  C   UNL     1       5.775  -5.128  -1.707  1.00  0.00     0.041 C 
ATOM     11  C   UNL     1       5.491  -3.723  -1.241  1.00  0.00    -0.030 C 
BRANCH   7  12
ATOM     12  C   UNL     1       6.125  -6.625   1.896  1.00  0.00     0.228 C 
ATOM     13  N   UNL     1       7.250  -6.768   2.666  1.00  0.00    -0.326 N 
ATOM     14  H   UNL     1       7.213  -7.541   3.275  1.00  0.00     0.169 HD
ATOM     15  O   UNL     1       5.146  -7.317   2.186  1.00  0.00    -0.274 OA
BRANCH  13  16
ATOM     16  C   UNL     1       8.448  -6.033   2.763  1.00  0.00     0.041 A 
ATOM     17  C   UNL     1      10.932  -4.644   3.053  1.00  0.00     0.037 A 
ATOM     18  C   UNL     1       9.854  -4.102   2.363  1.00  0.00     0.028 A 
ATOM     19  C   UNL     1      10.740  -5.920   3.591  1.00  0.00     0.028 A 
ATOM     20  C   UNL     1       8.629  -4.756   2.258  1.00  0.00     0.028 A 
ATOM     21  C   UNL     1       9.517  -6.606   3.455  1.00  0.00     0.028 A 
BRANCH  17  22
ATOM     22  N   UNL     1      12.093  -3.914   3.217  1.00  0.00    -0.372 N 
BRANCH  22  23
ATOM     23  C   UNL     1      13.408  -4.482   2.920  1.00  0.00     0.113 C 
ATOM     24  C   UNL     1      14.009  -5.221   4.106  1.00  0.00     0.027 C 
ENDBRANCH  22  23
BRANCH  22  25
ATOM     25  C   UNL     1      12.025  -2.537   3.730  1.00  0.00     0.113 C 
ATOM     26  C   UNL     1      11.743  -1.499   2.649  1.00  0.00     0.027 C 
ENDBRANCH  22  25
ENDBRANCH  17  22
ENDBRANCH  13  16
ENDBRANCH   7  12
ENDBRANCH   3   6
ENDBRANCH   1   2
BRANCH   1  27
ATOM     27  C   UNL     1       4.706 -10.105   0.704  1.00  0.00     0.042 C 
BRANCH  27  28
ATOM     28  C   UNL     1       3.272 -10.539   0.968  1.00  0.00     0.118 C 
BRANCH  28  29
ATOM     29  N   UNL     1       2.785 -11.466  -0.042  1.00  0.00    -0.352 N 
ATOM     30  C   UNL     1       2.366 -12.766   0.100  1.00  0.00     0.251 C 
ATOM     31  H   UNL     1       2.751 -11.111  -0.959  1.00  0.00     0.163 HD
ATOM     32  O   UNL     1       2.196 -13.469  -0.890  1.00  0.00    -0.269 OA
BRANCH  30  33
ATOM     33  C   UNL     1       2.137 -13.329   1.450  1.00  0.00     0.039 A 
ATOM     34  C   UNL     1       2.587 -14.623   1.725  1.00  0.00     0.014 A 
ATOM     35  C   UNL     1       1.464 -12.597   2.432  1.00  0.00     0.014 A 
ATOM     36  C   UNL     1       2.410 -15.161   3.002  1.00  0.00     0.010 A 
ATOM     37  C   UNL     1       1.358 -13.104   3.725  1.00  0.00     0.010 A 
ATOM     38  C   UNL     1       1.820 -14.394   4.021  1.00  0.00    -0.014 A 
BRANCH  38  39
ATOM     39  C   UNL     1       1.658 -14.935   5.394  1.00  0.00     0.031 A 
ATOM     40  C   UNL     1       0.282 -15.155   5.959  1.00  0.00     0.074 A 
ATOM     41  C   UNL     1       2.745 -15.179   6.151  1.00  0.00     0.049 A 
ATOM     42  N   UNL     1      -0.069 -15.558   7.155  1.00  0.00    -0.248 NA
ATOM     43  C   UNL     1      -0.853 -14.860   5.069  1.00  0.00     0.031 C 
ATOM     44  C   UNL     1       4.132 -14.967   5.734  1.00  0.00     0.029 A 
ATOM     45  N   UNL     1       2.853 -15.652   7.435  1.00  0.00    -0.354 N 
ATOM     46  C   UNL     1      -1.458 -15.551   7.163  1.00  0.00     0.074 A 
ATOM     47  C   UNL     1      -1.887 -15.053   5.874  1.00  0.00     0.031 C 
ATOM     48  C   UNL     1       4.952 -15.330   6.733  1.00  0.00     0.029 A 
ATOM     49  C   UNL     1       4.150 -15.767   7.872  1.00  0.00     0.049 A 
ATOM     50  H   UNL     1       2.075 -15.887   7.990  1.00  0.00     0.167 HD
ATOM     51  C   UNL     1      -2.300 -15.950   8.145  1.00  0.00     0.037 A 
ATOM     52  C   UNL     1       4.636 -16.175   9.060  1.00  0.00     0.037 A 
ATOM     53  C   UNL     1      -1.874 -16.469   9.418  1.00  0.00     0.049 A 
ATOM     54  C   UNL     1       3.677 -16.605  10.138  1.00  0.00     0.074 A 
ATOM     55  C   UNL     1      -2.649 -16.939  10.463  1.00  0.00     0.029 A 
ATOM     56  N   UNL     1      -0.551 -16.588   9.816  1.00  0.00    -0.354 N 
ATOM     57  N   UNL     1       2.368 -16.650  10.112  1.00  0.00    -0.248 NA
ATOM     58  C   UNL     1       4.267 -17.050  11.408  1.00  0.00     0.031 C 
ATOM     59  C   UNL     1      -1.796 -17.311  11.508  1.00  0.00     0.029 A 
ATOM     60  C   UNL     1      -0.488 -17.112  11.097  1.00  0.00     0.049 A 
ATOM     61  H   UNL     1       0.229 -16.336   9.270  1.00  0.00     0.167 HD
ATOM     62  C   UNL     1       1.979 -17.153  11.346  1.00  0.00     0.074 A 
ATOM     63  C   UNL     1       3.192 -17.413  12.092  1.00  0.00     0.031 C 
ATOM     64  C   UNL     1       0.729 -17.379  11.819  1.00  0.00     0.037 A 
BRANCH  51  65
ATOM     65  C   UNL     1      -3.773 -15.853   7.875  1.00  0.00     0.064 A 
ATOM     66  C   UNL     1      -4.408 -16.709   6.961  1.00  0.00     0.173 A 
ATOM     67  C   UNL     1      -4.566 -14.919   8.558  1.00  0.00     0.173 A 
ATOM     68  F   UNL     1      -3.692 -17.611   6.273  1.00  0.00    -0.203 F 
ATOM     69  C   UNL     1      -5.776 -16.615   6.722  1.00  0.00     0.198 A 
ATOM     70  C   UNL     1      -5.939 -14.848   8.338  1.00  0.00     0.198 A 
ATOM     71  F   UNL     1      -4.011 -14.081   9.447  1.00  0.00    -0.203 F 
ATOM     72  F   UNL     1      -6.351 -17.412   5.810  1.00  0.00    -0.200 F 
ATOM     73  C   UNL     1      -6.542 -15.690   7.415  1.00  0.00     0.200 A 
ATOM     74  F   UNL     1      -6.681 -13.962   9.017  1.00  0.00    -0.200 F 
ATOM     75  F   UNL     1      -7.860 -15.606   7.189  1.00  0.00    -0.200 F 
ENDBRANCH  51  65
BRANCH  52  76
ATOM     76  C   UNL     1       6.103 -16.224   9.288  1.00  0.00     0.064 A 
ATOM     77  C   UNL     1       6.769 -17.452   9.410  1.00  0.00     0.173 A 
ATOM     78  C   UNL     1       6.866 -15.054   9.404  1.00  0.00     0.173 A 
ATOM     79  F   UNL     1       6.078 -18.599   9.328  1.00  0.00    -0.203 F 
ATOM     80  C   UNL     1       8.138 -17.507   9.664  1.00  0.00     0.198 A 
ATOM     81  C   UNL     1       8.240 -15.110   9.630  1.00  0.00     0.198 A 
ATOM     82  F   UNL     1       6.277 -13.854   9.290  1.00  0.00    -0.203 F 
ATOM     83  F   UNL     1       8.740 -18.693   9.825  1.00  0.00    -0.200 F 
ATOM     84  C   UNL     1       8.873 -16.336   9.768  1.00  0.00     0.200 A 
ATOM     85  F   UNL     1       8.949 -13.977   9.718  1.00  0.00    -0.200 F 
ATOM     86  F   UNL     1      10.189 -16.389  10.012  1.00  0.00    -0.200 F 
ENDBRANCH  52  76
BRANCH  64  87
ATOM     87  C   UNL     1       0.612 -17.974  13.191  1.00  0.00     0.064 A 
ATOM     88  C   UNL     1       0.885 -17.223  14.344  1.00  0.00     0.173 A 
ATOM     89  C   UNL     1       0.187 -19.301  13.354  1.00  0.00     0.173 A 
ATOM     90  F   UNL     1       1.310 -15.955  14.239  1.00  0.00    -0.203 F 
ATOM     91  C   UNL     1       0.762 -17.789  15.610  1.00  0.00     0.198 A 
ATOM     92  C   UNL     1       0.038 -19.854  14.623  1.00  0.00     0.198 A 
ATOM     93  F   UNL     1      -0.092 -20.058  12.283  1.00  0.00    -0.203 F 
ATOM     94  F   UNL     1       1.073 -17.068  16.697  1.00  0.00    -0.200 F 
ATOM     95  C   UNL     1       0.332 -19.100  15.749  1.00  0.00     0.200 A 
ATOM     96  F   UNL     1      -0.388 -21.118  14.755  1.00  0.00    -0.200 F 
ATOM     97  F   UNL     1       0.209 -19.641  16.969  1.00  0.00    -0.200 F 
ENDBRANCH  64  87
ENDBRANCH  38  39
ENDBRANCH  30  33
ENDBRANCH  28  29
ENDBRANCH  27  28
ENDBRANCH   1  27
TORSDOF 15
