REMARK SMILES Cc1ccccc1C(=O)Nc1cc(C(=O)NCCCNC(=O)c2ccc(-c3c4nc(c(-c5c(F)c(F)c(F)c(F)c5F)c5ccc([nH]5)c(-c5c(F)c(F)c(F)c(F)c5F)c5nc(c(-c6c(F)c(F)c(F)c(F)c6F)c6ccc3[nH]6)C=C5)C=C4)cc2)ccc1N1CC[NH+](CC(=O)Nc2ccc(F)cc2)CC1
REMARK SMILES IDX 17 1 16 2 14 3 15 4 13 6 11 7 12 8 88 9 87 10 86 11 10 12
REMARK SMILES IDX 8 13 9 14 7 16 1 17 2 18 3 19 4 20 6 21 5 22 89 23 90 24
REMARK SMILES IDX 105 25 91 26 104 27 92 28 93 30 94 31 95 32 96 33 97 35
REMARK SMILES IDX 98 36 103 37 99 38 102 39 100 40 101 41 18 42 19 43 20 44
REMARK SMILES IDX 21 45 22 47 23 48 24 49 85 50 25 51 84 52 26 53 27 54 28 55
REMARK SMILES IDX 78 56 29 57 83 58 77 59 79 60 30 61 82 62 76 63 75 64 31 66
REMARK SMILES IDX 63 67 43 68 62 69 44 70 47 71 61 72 80 73 45 74 46 75 60 77
REMARK SMILES IDX 81 78 48 79 32 80 33 81 41 82 34 83 35 84 39 85 42 86 36 87
REMARK SMILES IDX 37 88 40 89 38 90 64 91 65 92 73 93 66 94 67 95 71 96 74 97
REMARK SMILES IDX 68 98 69 99 72 100 70 101 49 102 50 103 58 104 51 105 52 106
REMARK SMILES IDX 56 107 59 108 53 109 54 110 57 111 55 112
REMARK H PARENT 16 5 10 15 92 29 96 34 20 46 79 65 47 76
REMARK Flexibility Score: inf
ROOT
ATOM      1  C   UNL     1       1.097  -1.089  -2.905  1.00  0.00     0.118 C 
ENDROOT
BRANCH   1   2
ATOM      2  N   UNL     1       2.290  -1.939  -2.973  1.00  0.00    -0.352 N 
ATOM      3  C   UNL     1       3.526  -1.903  -2.351  1.00  0.00     0.251 C 
ATOM      4  O   UNL     1       4.260  -2.880  -2.502  1.00  0.00    -0.269 OA
ATOM      5  H   UNL     1       2.191  -2.697  -3.594  1.00  0.00     0.163 HD
BRANCH   3   6
ATOM      6  C   UNL     1       4.018  -0.770  -1.514  1.00  0.00     0.042 A 
ATOM      7  C   UNL     1       3.689   1.418  -0.527  1.00  0.00     0.065 A 
ATOM      8  C   UNL     1       3.301   0.395  -1.368  1.00  0.00     0.042 A 
ATOM      9  C   UNL     1       4.936   1.400   0.140  1.00  0.00     0.061 A 
ATOM     10  C   UNL     1       5.693   0.229  -0.027  1.00  0.00     0.029 A 
ATOM     11  C   UNL     1       5.229  -0.852  -0.815  1.00  0.00     0.016 A 
BRANCH   7  12
ATOM     12  N   UNL     1       2.783   2.478  -0.384  1.00  0.00    -0.320 N 
ATOM     13  C   UNL     1       1.444   2.468  -0.024  1.00  0.00     0.255 C 
ATOM     14  O   UNL     1       0.924   3.570   0.185  1.00  0.00    -0.269 OA
ATOM     15  H   UNL     1       3.155   3.370  -0.569  1.00  0.00     0.170 HD
BRANCH  13  16
ATOM     16  C   UNL     1       0.572   1.251   0.134  1.00  0.00     0.043 A 
ATOM     17  C   UNL     1       2.097  -0.313   1.550  1.00  0.00     0.045 C 
ATOM     18  C   UNL     1       0.854   0.025   0.778  1.00  0.00    -0.038 A 
ATOM     19  C   UNL     1      -0.115  -1.009   0.739  1.00  0.00     0.004 A 
ATOM     20  C   UNL     1      -1.374  -0.810   0.180  1.00  0.00     0.000 A 
ATOM     21  C   UNL     1      -0.729   1.437  -0.386  1.00  0.00     0.014 A 
ATOM     22  C   UNL     1      -1.693   0.426  -0.357  1.00  0.00     0.001 A 
ENDBRANCH  13  16
ENDBRANCH   7  12
BRANCH   9  23
ATOM     23  N   UNL     1       5.341   2.437   0.966  1.00  0.00    -0.359 N 
ATOM     24  C   UNL     1       6.723   2.648   1.468  1.00  0.00     0.178 C 
ATOM     25  C   UNL     1       4.356   3.040   1.855  1.00  0.00     0.178 C 
ATOM     26  C   UNL     1       6.935   4.104   2.064  1.00  0.00     0.284 C 
ATOM     27  C   UNL     1       4.610   4.549   1.831  1.00  0.00     0.284 C 
ATOM     28  N   UNL     1       5.785   4.849   2.632  1.00  0.00    -0.324 N 
ATOM     29  H   UNL     1       6.076   5.824   2.566  1.00  0.00     0.348 HD
BRANCH  28  30
ATOM     30  C   UNL     1       5.510   4.817   4.089  1.00  0.00     0.364 C 
BRANCH  30  31
ATOM     31  C   UNL     1       5.206   3.481   4.771  1.00  0.00     0.279 C 
ATOM     32  O   UNL     1       6.150   2.713   5.019  1.00  0.00    -0.268 OA
ATOM     33  N   UNL     1       3.982   3.048   5.213  1.00  0.00    -0.321 N 
ATOM     34  H   UNL     1       4.107   2.357   5.903  1.00  0.00     0.170 HD
BRANCH  33  35
ATOM     35  C   UNL     1       2.596   3.265   5.007  1.00  0.00     0.041 A 
ATOM     36  C   UNL     1       1.733   2.519   5.834  1.00  0.00     0.029 A 
ATOM     37  C   UNL     1       1.993   4.024   4.009  1.00  0.00     0.029 A 
ATOM     38  C   UNL     1       0.342   2.509   5.646  1.00  0.00     0.041 A 
ATOM     39  C   UNL     1       0.606   3.966   3.765  1.00  0.00     0.041 A 
ATOM     40  C   UNL     1      -0.210   3.214   4.592  1.00  0.00     0.123 A 
ATOM     41  F   UNL     1      -1.532   3.175   4.379  1.00  0.00    -0.207 F 
ENDBRANCH  33  35
ENDBRANCH  30  31
ENDBRANCH  28  30
ENDBRANCH   9  23
ENDBRANCH   3   6
ENDBRANCH   1   2
BRANCH   1  42
ATOM     42  C   UNL     1       1.190   0.185  -3.758  1.00  0.00     0.042 C 
BRANCH  42  43
ATOM     43  C   UNL     1       0.474   0.086  -5.082  1.00  0.00     0.118 C 
BRANCH  43  44
ATOM     44  N   UNL     1      -0.760   0.864  -5.185  1.00  0.00    -0.352 N 
ATOM     45  C   UNL     1      -1.609   0.956  -6.280  1.00  0.00     0.251 C 
ATOM     46  H   UNL     1      -1.017   1.382  -4.388  1.00  0.00     0.163 HD
ATOM     47  O   UNL     1      -2.622   1.644  -6.252  1.00  0.00    -0.269 OA
BRANCH  45  48
ATOM     48  C   UNL     1      -1.332   0.068  -7.435  1.00  0.00     0.039 A 
ATOM     49  C   UNL     1      -2.258  -0.957  -7.646  1.00  0.00     0.014 A 
ATOM     50  C   UNL     1      -0.021  -0.047  -7.881  1.00  0.00     0.014 A 
ATOM     51  C   UNL     1      -1.788  -2.220  -7.978  1.00  0.00     0.010 A 
ATOM     52  C   UNL     1       0.466  -1.323  -8.071  1.00  0.00     0.010 A 
ATOM     53  C   UNL     1      -0.410  -2.417  -8.033  1.00  0.00    -0.014 A 
BRANCH  53  54
ATOM     54  C   UNL     1       0.205  -3.734  -8.072  1.00  0.00     0.031 A 
ATOM     55  C   UNL     1       0.681  -4.221  -9.376  1.00  0.00     0.074 A 
ATOM     56  C   UNL     1       0.367  -4.485  -6.961  1.00  0.00     0.049 A 
ATOM     57  N   UNL     1       0.823  -5.463  -9.685  1.00  0.00    -0.248 NA
ATOM     58  C   UNL     1       0.952  -3.314 -10.482  1.00  0.00     0.031 C 
ATOM     59  C   UNL     1       1.163  -5.704  -6.830  1.00  0.00     0.029 A 
ATOM     60  N   UNL     1      -0.319  -4.390  -5.740  1.00  0.00    -0.354 N 
ATOM     61  C   UNL     1       1.456  -5.517 -10.905  1.00  0.00     0.074 A 
ATOM     62  C   UNL     1       1.406  -4.165 -11.402  1.00  0.00     0.031 C 
ATOM     63  C   UNL     1       0.724  -6.401  -5.770  1.00  0.00     0.029 A 
ATOM     64  C   UNL     1      -0.451  -5.723  -5.263  1.00  0.00     0.049 A 
ATOM     65  H   UNL     1      -0.641  -3.568  -5.303  1.00  0.00     0.167 HD
ATOM     66  C   UNL     1       2.063  -6.682 -11.272  1.00  0.00     0.037 A 
ATOM     67  C   UNL     1      -1.685  -6.287  -5.101  1.00  0.00     0.037 A 
ATOM     68  C   UNL     1       1.738  -7.756 -10.320  1.00  0.00     0.049 A 
ATOM     69  C   UNL     1      -1.962  -7.441  -6.041  1.00  0.00     0.074 A 
ATOM     70  C   UNL     1       2.407  -8.343  -9.257  1.00  0.00     0.029 A 
ATOM     71  N   UNL     1       0.415  -8.155 -10.192  1.00  0.00    -0.354 N 
ATOM     72  N   UNL     1      -1.118  -7.895  -6.927  1.00  0.00    -0.248 NA
ATOM     73  C   UNL     1      -3.270  -8.087  -6.133  1.00  0.00     0.031 C 
ATOM     74  C   UNL     1       1.462  -9.084  -8.486  1.00  0.00     0.029 A 
ATOM     75  C   UNL     1       0.223  -8.970  -9.091  1.00  0.00     0.049 A 
ATOM     76  H   UNL     1      -0.301  -7.889 -10.812  1.00  0.00     0.167 HD
ATOM     77  C   UNL     1      -1.746  -8.815  -7.725  1.00  0.00     0.074 A 
ATOM     78  C   UNL     1      -3.100  -8.880  -7.203  1.00  0.00     0.031 C 
ATOM     79  C   UNL     1      -1.125  -9.430  -8.777  1.00  0.00     0.037 A 
BRANCH  66  80
ATOM     80  C   UNL     1       3.161  -6.783 -12.320  1.00  0.00     0.064 A 
ATOM     81  C   UNL     1       4.054  -7.876 -12.308  1.00  0.00     0.173 A 
ATOM     82  C   UNL     1       3.457  -5.817 -13.305  1.00  0.00     0.173 A 
ATOM     83  F   UNL     1       3.848  -8.937 -11.517  1.00  0.00    -0.203 F 
ATOM     84  C   UNL     1       5.200  -7.926 -13.111  1.00  0.00     0.198 A 
ATOM     85  C   UNL     1       4.624  -5.840 -14.074  1.00  0.00     0.198 A 
ATOM     86  F   UNL     1       2.604  -4.844 -13.626  1.00  0.00    -0.203 F 
ATOM     87  F   UNL     1       6.016  -8.987 -13.038  1.00  0.00    -0.200 F 
ATOM     88  C   UNL     1       5.506  -6.890 -13.967  1.00  0.00     0.200 A 
ATOM     89  F   UNL     1       4.876  -4.835 -14.925  1.00  0.00    -0.200 F 
ATOM     90  F   UNL     1       6.621  -6.917 -14.708  1.00  0.00    -0.200 F 
ENDBRANCH  66  80
BRANCH  67  91
ATOM     91  C   UNL     1      -2.689  -5.279  -4.656  1.00  0.00     0.064 A 
ATOM     92  C   UNL     1      -2.409  -4.603  -3.452  1.00  0.00     0.173 A 
ATOM     93  C   UNL     1      -3.514  -4.642  -5.588  1.00  0.00     0.173 A 
ATOM     94  F   UNL     1      -1.665  -5.196  -2.504  1.00  0.00    -0.203 F 
ATOM     95  C   UNL     1      -2.709  -3.253  -3.315  1.00  0.00     0.198 A 
ATOM     96  C   UNL     1      -3.862  -3.305  -5.416  1.00  0.00     0.198 A 
ATOM     97  F   UNL     1      -3.854  -5.253  -6.731  1.00  0.00    -0.203 F 
ATOM     98  F   UNL     1      -2.230  -2.569  -2.267  1.00  0.00    -0.200 F 
ATOM     99  C   UNL     1      -3.391  -2.593  -4.322  1.00  0.00     0.200 A 
ATOM    100  F   UNL     1      -4.555  -2.675  -6.374  1.00  0.00    -0.200 F 
ATOM    101  F   UNL     1      -3.544  -1.263  -4.263  1.00  0.00    -0.200 F 
ENDBRANCH  67  91
BRANCH  79 102
ATOM    102  C   UNL     1      -1.777 -10.509  -9.611  1.00  0.00     0.064 A 
ATOM    103  C   UNL     1      -2.665 -11.456  -9.069  1.00  0.00     0.173 A 
ATOM    104  C   UNL     1      -1.462 -10.691 -10.976  1.00  0.00     0.173 A 
ATOM    105  F   UNL     1      -2.921 -11.493  -7.754  1.00  0.00    -0.203 F 
ATOM    106  C   UNL     1      -3.294 -12.420  -9.860  1.00  0.00     0.198 A 
ATOM    107  C   UNL     1      -2.042 -11.696 -11.750  1.00  0.00     0.198 A 
ATOM    108  F   UNL     1      -0.595  -9.896 -11.616  1.00  0.00    -0.203 F 
ATOM    109  F   UNL     1      -4.202 -13.239  -9.310  1.00  0.00    -0.200 F 
ATOM    110  C   UNL     1      -2.983 -12.540 -11.200  1.00  0.00     0.200 A 
ATOM    111  F   UNL     1      -1.687 -11.830 -13.035  1.00  0.00    -0.200 F 
ATOM    112  F   UNL     1      -3.579 -13.471 -11.956  1.00  0.00    -0.200 F 
ENDBRANCH  79 102
ENDBRANCH  53  54
ENDBRANCH  45  48
ENDBRANCH  43  44
ENDBRANCH  42  43
ENDBRANCH   1  42
TORSDOF 16
