REMARK SMILES Cc1csc(C[C@@H](Cc2ccc(Br)cc2)C(=O)NCCCNC(=O)c2ccc(-c3c4nc(c(-c5c(F)c(F)c(F)c(F)c5F)c5ccc([nH]5)c(-c5c(F)c(F)c(F)c(F)c5F)c5nc(c(-c6c(F)c(F)c(F)c(F)c6F)c6ccc3[nH]6)C=C5)C=C4)cc2)n1
REMARK SMILES IDX 20 1 19 2 18 3 16 4 17 5 7 7 6 8 5 9 1 10 2 11 3 12 88 13
REMARK SMILES IDX 4 14 8 15 9 16 10 17 15 18 11 19 14 20 12 21 13 22 21 23
REMARK SMILES IDX 22 24 23 25 24 27 25 28 26 29 87 30 27 31 86 32 28 33 29 34
REMARK SMILES IDX 30 35 80 36 31 37 85 38 79 39 81 40 32 41 84 42 78 43 77 44
REMARK SMILES IDX 33 46 65 47 45 48 64 49 46 50 49 51 63 52 82 53 47 54 48 55
REMARK SMILES IDX 62 57 83 58 50 59 34 60 35 61 43 62 36 63 37 64 41 65 44 66
REMARK SMILES IDX 38 67 39 68 42 69 40 70 66 71 67 72 75 73 68 74 69 75 73 76
REMARK SMILES IDX 76 77 70 78 71 79 74 80 72 81 51 82 52 83 60 84 53 85 54 86
REMARK SMILES IDX 58 87 61 88 55 89 56 90 59 91 57 92
REMARK H PARENT 18 6 22 26 81 45 49 56
REMARK Flexibility Score: inf
ROOT
ATOM      1  C   UNL     1       2.229   5.407   2.298  1.00  0.00     0.042 C 
ENDROOT
BRANCH   1   2
ATOM      2  C   UNL     1       1.399   5.295   1.041  1.00  0.00     0.117 C 
BRANCH   2   3
ATOM      3  N   UNL     1       2.142   5.154  -0.190  1.00  0.00    -0.356 N 
ATOM      4  C   UNL     1       1.825   4.409  -1.287  1.00  0.00     0.223 C 
ATOM      5  O   UNL     1       2.424   4.672  -2.334  1.00  0.00    -0.275 OA
ATOM      6  H   UNL     1       2.985   5.660  -0.243  1.00  0.00     0.163 HD
BRANCH   4   7
ATOM      7  C   UNL     1       0.821   3.254  -1.243  1.00  0.00     0.089 C 
BRANCH   7   8
ATOM      8  C   UNL     1       1.270   2.213  -0.204  1.00  0.00     0.081 C 
BRANCH   8   9
ATOM      9  C   UNL     1       0.537   0.910  -0.269  1.00  0.00     0.094 A 
ATOM     10  C   UNL     1      -2.608  -0.805  -0.057  1.00  0.00     0.067 C 
ATOM     11  C   UNL     1      -1.156  -0.515  -0.149  1.00  0.00     0.048 A 
ATOM     12  C   UNL     1      -0.112  -1.416  -0.148  1.00  0.00     0.090 A 
ATOM     13  N   UNL     1      -0.771   0.807  -0.225  1.00  0.00    -0.247 NA
ATOM     14  S   UNL     1       1.384  -0.584  -0.252  1.00  0.00    -0.127 S 
ENDBRANCH   8   9
ENDBRANCH   7   8
BRANCH   7  15
ATOM     15  C   UNL     1      -0.666   3.700  -1.335  1.00  0.00     0.049 C 
BRANCH  15  16
ATOM     16  C   UNL     1      -1.326   4.417  -0.177  1.00  0.00    -0.047 A 
ATOM     17  C   UNL     1      -1.687   3.734   0.995  1.00  0.00     0.005 A 
ATOM     18  C   UNL     1      -1.551   5.803  -0.238  1.00  0.00     0.005 A 
ATOM     19  C   UNL     1      -2.142   4.429   2.118  1.00  0.00     0.016 A 
ATOM     20  C   UNL     1      -2.017   6.500   0.884  1.00  0.00     0.016 A 
ATOM     21  C   UNL     1      -2.281   5.813   2.065  1.00  0.00     0.017 A 
ATOM     22  Br  UNL     1      -2.786   6.763   3.619  1.00  0.00    -0.051 Br
ENDBRANCH  15  16
ENDBRANCH   7  15
ENDBRANCH   4   7
ENDBRANCH   2   3
ENDBRANCH   1   2
BRANCH   1  23
ATOM     23  C   UNL     1       2.794   6.799   2.508  1.00  0.00     0.118 C 
BRANCH  23  24
ATOM     24  N   UNL     1       1.765   7.828   2.656  1.00  0.00    -0.352 N 
ATOM     25  C   UNL     1       1.392   8.598   3.734  1.00  0.00     0.251 C 
ATOM     26  H   UNL     1       1.246   8.002   1.837  1.00  0.00     0.163 HD
ATOM     27  O   UNL     1       0.401   9.310   3.663  1.00  0.00    -0.269 OA
BRANCH  25  28
ATOM     28  C   UNL     1       2.176   8.547   4.985  1.00  0.00     0.039 A 
ATOM     29  C   UNL     1       1.511   8.556   6.214  1.00  0.00     0.014 A 
ATOM     30  C   UNL     1       3.567   8.482   4.947  1.00  0.00     0.014 A 
ATOM     31  C   UNL     1       2.241   8.402   7.396  1.00  0.00     0.010 A 
ATOM     32  C   UNL     1       4.275   8.196   6.103  1.00  0.00     0.010 A 
ATOM     33  C   UNL     1       3.624   8.169   7.344  1.00  0.00    -0.014 A 
BRANCH  33  34
ATOM     34  C   UNL     1       4.434   7.924   8.563  1.00  0.00     0.031 A 
ATOM     35  C   UNL     1       5.593   8.833   8.877  1.00  0.00     0.074 A 
ATOM     36  C   UNL     1       4.203   6.832   9.317  1.00  0.00     0.049 A 
ATOM     37  N   UNL     1       6.523   8.709   9.789  1.00  0.00    -0.248 NA
ATOM     38  C   UNL     1       5.757  10.015   8.014  1.00  0.00     0.031 C 
ATOM     39  C   UNL     1       3.154   5.839   9.076  1.00  0.00     0.029 A 
ATOM     40  N   UNL     1       4.852   6.363  10.432  1.00  0.00    -0.354 N 
ATOM     41  C   UNL     1       7.398   9.766   9.579  1.00  0.00     0.074 A 
ATOM     42  C   UNL     1       6.926  10.487   8.419  1.00  0.00     0.031 C 
ATOM     43  C   UNL     1       3.216   4.892  10.026  1.00  0.00     0.029 A 
ATOM     44  C   UNL     1       4.333   5.188  10.918  1.00  0.00     0.049 A 
ATOM     45  H   UNL     1       5.617   6.825  10.844  1.00  0.00     0.167 HD
ATOM     46  C   UNL     1       8.483  10.122  10.306  1.00  0.00     0.037 A 
ATOM     47  C   UNL     1       4.723   4.431  11.961  1.00  0.00     0.037 A 
ATOM     48  C   UNL     1       8.908   9.438  11.498  1.00  0.00     0.049 A 
ATOM     49  C   UNL     1       5.901   4.876  12.784  1.00  0.00     0.074 A 
ATOM     50  C   UNL     1       9.935   9.768  12.363  1.00  0.00     0.029 A 
ATOM     51  N   UNL     1       8.317   8.286  11.996  1.00  0.00    -0.354 N 
ATOM     52  N   UNL     1       6.679   5.919  12.620  1.00  0.00    -0.248 NA
ATOM     53  C   UNL     1       6.251   4.044  13.944  1.00  0.00     0.031 C 
ATOM     54  C   UNL     1       9.991   8.794  13.364  1.00  0.00     0.029 A 
ATOM     55  C   UNL     1       8.968   7.884  13.150  1.00  0.00     0.049 A 
ATOM     56  H   UNL     1       7.548   7.824  11.589  1.00  0.00     0.167 HD
ATOM     57  C   UNL     1       7.590   5.884  13.667  1.00  0.00     0.074 A 
ATOM     58  C   UNL     1       7.258   4.726  14.470  1.00  0.00     0.031 C 
ATOM     59  C   UNL     1       8.611   6.733  13.939  1.00  0.00     0.037 A 
BRANCH  46  60
ATOM     60  C   UNL     1       9.273  11.312   9.844  1.00  0.00     0.064 A 
ATOM     61  C   UNL     1       8.753  12.614   9.907  1.00  0.00     0.173 A 
ATOM     62  C   UNL     1      10.578  11.152   9.354  1.00  0.00     0.173 A 
ATOM     63  F   UNL     1       7.505  12.822  10.354  1.00  0.00    -0.203 F 
ATOM     64  C   UNL     1       9.496  13.706   9.467  1.00  0.00     0.198 A 
ATOM     65  C   UNL     1      11.331  12.250   8.946  1.00  0.00     0.198 A 
ATOM     66  F   UNL     1      11.126   9.930   9.275  1.00  0.00    -0.203 F 
ATOM     67  F   UNL     1       8.956  14.933   9.486  1.00  0.00    -0.200 F 
ATOM     68  C   UNL     1      10.787  13.524   8.995  1.00  0.00     0.200 A 
ATOM     69  F   UNL     1      12.583  12.074   8.502  1.00  0.00    -0.200 F 
ATOM     70  F   UNL     1      11.504  14.577   8.579  1.00  0.00    -0.200 F 
ENDBRANCH  46  60
BRANCH  47  71
ATOM     71  C   UNL     1       3.974   3.194  12.304  1.00  0.00     0.064 A 
ATOM     72  C   UNL     1       3.192   3.128  13.466  1.00  0.00     0.173 A 
ATOM     73  C   UNL     1       4.025   2.055  11.487  1.00  0.00     0.173 A 
ATOM     74  F   UNL     1       3.126   4.185  14.289  1.00  0.00    -0.203 F 
ATOM     75  C   UNL     1       2.507   1.964  13.809  1.00  0.00     0.198 A 
ATOM     76  C   UNL     1       3.318   0.900  11.817  1.00  0.00     0.198 A 
ATOM     77  F   UNL     1       4.753   2.068  10.361  1.00  0.00    -0.203 F 
ATOM     78  F   UNL     1       1.805   1.914  14.949  1.00  0.00    -0.200 F 
ATOM     79  C   UNL     1       2.567   0.853  12.982  1.00  0.00     0.200 A 
ATOM     80  F   UNL     1       3.365  -0.166  11.008  1.00  0.00    -0.200 F 
ATOM     81  F   UNL     1       1.907  -0.266  13.311  1.00  0.00    -0.200 F 
ENDBRANCH  47  71
BRANCH  59  82
ATOM     82  C   UNL     1       9.419   6.462  15.174  1.00  0.00     0.064 A 
ATOM     83  C   UNL     1      10.319   5.389  15.243  1.00  0.00     0.173 A 
ATOM     84  C   UNL     1       9.322   7.314  16.284  1.00  0.00     0.173 A 
ATOM     85  F   UNL     1      10.436   4.539  14.212  1.00  0.00    -0.203 F 
ATOM     86  C   UNL     1      11.075   5.165  16.389  1.00  0.00     0.198 A 
ATOM     87  C   UNL     1      10.101   7.104  17.417  1.00  0.00     0.198 A 
ATOM     88  F   UNL     1       8.481   8.359  16.264  1.00  0.00    -0.203 F 
ATOM     89  F   UNL     1      11.895   4.107  16.452  1.00  0.00    -0.200 F 
ATOM     90  C   UNL     1      10.971   6.026  17.472  1.00  0.00     0.200 A 
ATOM     91  F   UNL     1      10.011   7.946  18.456  1.00  0.00    -0.200 F 
ATOM     92  F   UNL     1      11.707   5.813  18.572  1.00  0.00    -0.200 F 
ENDBRANCH  59  82
ENDBRANCH  33  34
ENDBRANCH  25  28
ENDBRANCH  23  24
ENDBRANCH   1  23
TORSDOF 14
