REMARK SMILES NC(=O)CC[C@H](NC(=O)CC1CC1)C(=O)NCCCNC(=O)c1ccc(-c2c3nc(c(-c4c(F)c(F)c(F)c(F)c4F)c4ccc([nH]4)c(-c4c(F)c(F)c(F)c(F)c4F)c4nc(c(-c5c(F)c(F)c(F)c(F)c5F)c5ccc2[nH]5)C=C4)C=C3)cc1
REMARK SMILES IDX 17 1 16 2 14 3 15 4 6 6 5 7 4 8 2 9 1 10 3 13 7 14 8 15 9 17
REMARK SMILES IDX 10 18 11 19 12 20 13 21 18 22 19 23 20 24 21 25 22 27 23 28
REMARK SMILES IDX 24 29 85 30 25 31 84 32 26 33 27 34 28 35 78 36 29 37 83 38
REMARK SMILES IDX 77 39 79 40 30 41 82 42 76 43 75 44 31 46 63 47 43 48 62 49
REMARK SMILES IDX 44 50 47 51 61 52 80 53 45 54 46 55 60 57 81 58 48 59 32 60
REMARK SMILES IDX 33 61 41 62 34 63 35 64 39 65 42 66 36 67 37 68 40 69 38 70
REMARK SMILES IDX 64 71 65 72 73 73 66 74 67 75 71 76 74 77 68 78 69 79 72 80
REMARK SMILES IDX 70 81 49 82 50 83 58 84 51 85 52 86 56 87 59 88 53 89 54 90
REMARK SMILES IDX 57 91 55 92
REMARK H PARENT 16 5 1 11 1 12 7 16 20 26 79 45 47 56
REMARK Flexibility Score: inf
ROOT
ATOM      1  C   UNL     1       3.731   4.767  -1.193  1.00  0.00     0.117 C 
ENDROOT
BRANCH   1   2
ATOM      2  N   UNL     1       3.629   4.369   0.199  1.00  0.00    -0.354 N 
ATOM      3  C   UNL     1       3.522   3.139   0.762  1.00  0.00     0.242 C 
ATOM      4  O   UNL     1       4.006   3.025   1.895  1.00  0.00    -0.273 OA
ATOM      5  H   UNL     1       3.640   5.115   0.842  1.00  0.00     0.163 HD
BRANCH   3   6
ATOM      6  C   UNL     1       3.039   1.885   0.014  1.00  0.00     0.171 C 
BRANCH   6   7
ATOM      7  C   UNL     1       4.166   1.018  -0.568  1.00  0.00     0.045 C 
BRANCH   7   8
ATOM      8  C   UNL     1       4.996   1.615  -1.696  1.00  0.00     0.102 C 
BRANCH   8   9
ATOM      9  C   UNL     1       6.355   2.188  -1.327  1.00  0.00     0.217 C 
ATOM     10  N   UNL     1       6.546   2.705  -0.087  1.00  0.00    -0.370 N 
ATOM     11  H   UNL     1       7.422   3.078   0.161  1.00  0.00     0.159 HD
ATOM     12  H   UNL     1       5.807   2.707   0.564  1.00  0.00     0.159 HD
ATOM     13  O   UNL     1       7.261   2.259  -2.153  1.00  0.00    -0.275 OA
ENDBRANCH   8   9
ENDBRANCH   7   8
ENDBRANCH   6   7
BRANCH   6  14
ATOM     14  N   UNL     1       1.941   2.122  -0.918  1.00  0.00    -0.344 N 
ATOM     15  C   UNL     1       0.608   1.881  -0.725  1.00  0.00     0.220 C 
ATOM     16  H   UNL     1       2.190   2.501  -1.792  1.00  0.00     0.164 HD
ATOM     17  O   UNL     1      -0.200   2.400  -1.494  1.00  0.00    -0.275 OA
BRANCH  15  18
ATOM     18  C   UNL     1       0.174   0.941   0.389  1.00  0.00     0.103 C 
BRANCH  18  19
ATOM     19  C   UNL     1       0.569  -0.482   0.093  1.00  0.00    -0.002 C 
ATOM     20  C   UNL     1       0.072  -1.614   0.951  1.00  0.00     0.004 C 
ATOM     21  C   UNL     1      -0.441  -1.454  -0.455  1.00  0.00     0.004 C 
ENDBRANCH  18  19
ENDBRANCH  15  18
ENDBRANCH   6  14
ENDBRANCH   3   6
ENDBRANCH   1   2
BRANCH   1  22
ATOM     22  C   UNL     1       3.720   6.271  -1.391  1.00  0.00     0.042 C 
BRANCH  22  23
ATOM     23  C   UNL     1       4.859   6.995  -0.690  1.00  0.00     0.118 C 
BRANCH  23  24
ATOM     24  N   UNL     1       6.182   6.705  -1.229  1.00  0.00    -0.352 N 
ATOM     25  C   UNL     1       7.097   7.549  -1.824  1.00  0.00     0.251 C 
ATOM     26  H   UNL     1       6.465   5.765  -1.159  1.00  0.00     0.163 HD
ATOM     27  O   UNL     1       8.150   7.116  -2.272  1.00  0.00    -0.269 OA
BRANCH  25  28
ATOM     28  C   UNL     1       6.767   8.981  -1.973  1.00  0.00     0.039 A 
ATOM     29  C   UNL     1       6.895   9.578  -3.229  1.00  0.00     0.014 A 
ATOM     30  C   UNL     1       6.238   9.699  -0.902  1.00  0.00     0.014 A 
ATOM     31  C   UNL     1       6.368  10.854  -3.438  1.00  0.00     0.010 A 
ATOM     32  C   UNL     1       5.600  10.907  -1.145  1.00  0.00     0.010 A 
ATOM     33  C   UNL     1       5.649  11.496  -2.417  1.00  0.00    -0.014 A 
BRANCH  33  34
ATOM     34  C   UNL     1       4.922  12.772  -2.651  1.00  0.00     0.031 A 
ATOM     35  C   UNL     1       5.221  13.973  -1.796  1.00  0.00     0.074 A 
ATOM     36  C   UNL     1       3.915  12.817  -3.546  1.00  0.00     0.049 A 
ATOM     37  N   UNL     1       4.602  15.125  -1.738  1.00  0.00    -0.248 NA
ATOM     38  C   UNL     1       6.329  13.841  -0.838  1.00  0.00     0.031 C 
ATOM     39  C   UNL     1       3.463  11.698  -4.376  1.00  0.00     0.029 A 
ATOM     40  N   UNL     1       3.076  13.846  -3.896  1.00  0.00    -0.354 N 
ATOM     41  C   UNL     1       5.212  15.827  -0.708  1.00  0.00     0.074 A 
ATOM     42  C   UNL     1       6.210  14.954  -0.131  1.00  0.00     0.031 C 
ATOM     43  C   UNL     1       2.454  12.110  -5.161  1.00  0.00     0.029 A 
ATOM     44  C   UNL     1       2.162  13.508  -4.864  1.00  0.00     0.049 A 
ATOM     45  H   UNL     1       3.124  14.742  -3.491  1.00  0.00     0.167 HD
ATOM     46  C   UNL     1       4.983  17.096  -0.297  1.00  0.00     0.037 A 
ATOM     47  C   UNL     1       1.195  14.242  -5.446  1.00  0.00     0.037 A 
ATOM     48  C   UNL     1       4.045  17.988  -0.924  1.00  0.00     0.049 A 
ATOM     49  C   UNL     1       1.015  15.676  -5.034  1.00  0.00     0.074 A 
ATOM     50  C   UNL     1       3.817  19.326  -0.660  1.00  0.00     0.029 A 
ATOM     51  N   UNL     1       3.188  17.630  -1.954  1.00  0.00    -0.354 N 
ATOM     52  N   UNL     1       1.652  16.355  -4.111  1.00  0.00    -0.248 NA
ATOM     53  C   UNL     1      -0.012  16.448  -5.747  1.00  0.00     0.031 C 
ATOM     54  C   UNL     1       2.800  19.772  -1.511  1.00  0.00     0.029 A 
ATOM     55  C   UNL     1       2.420  18.720  -2.329  1.00  0.00     0.049 A 
ATOM     56  H   UNL     1       3.133  16.734  -2.358  1.00  0.00     0.167 HD
ATOM     57  C   UNL     1       1.119  17.636  -4.144  1.00  0.00     0.074 A 
ATOM     58  C   UNL     1       0.116  17.644  -5.190  1.00  0.00     0.031 C 
ATOM     59  C   UNL     1       1.431  18.708  -3.376  1.00  0.00     0.037 A 
BRANCH  46  60
ATOM     60  C   UNL     1       5.775  17.595   0.876  1.00  0.00     0.064 A 
ATOM     61  C   UNL     1       7.155  17.833   0.787  1.00  0.00     0.173 A 
ATOM     62  C   UNL     1       5.145  17.840   2.105  1.00  0.00     0.173 A 
ATOM     63  F   UNL     1       7.807  17.600  -0.362  1.00  0.00    -0.203 F 
ATOM     64  C   UNL     1       7.883  18.256   1.895  1.00  0.00     0.198 A 
ATOM     65  C   UNL     1       5.871  18.295   3.203  1.00  0.00     0.198 A 
ATOM     66  F   UNL     1       3.827  17.634   2.244  1.00  0.00    -0.203 F 
ATOM     67  F   UNL     1       9.210  18.413   1.802  1.00  0.00    -0.200 F 
ATOM     68  C   UNL     1       7.240  18.492   3.101  1.00  0.00     0.200 A 
ATOM     69  F   UNL     1       5.247  18.532   4.366  1.00  0.00    -0.200 F 
ATOM     70  F   UNL     1       7.942  18.897   4.168  1.00  0.00    -0.200 F 
ENDBRANCH  46  60
BRANCH  47  71
ATOM     71  C   UNL     1       0.356  13.642  -6.515  1.00  0.00     0.064 A 
ATOM     72  C   UNL     1       0.541  14.004  -7.856  1.00  0.00     0.173 A 
ATOM     73  C   UNL     1      -0.627  12.686  -6.225  1.00  0.00     0.173 A 
ATOM     74  F   UNL     1       1.457  14.929  -8.179  1.00  0.00    -0.203 F 
ATOM     75  C   UNL     1      -0.233  13.440  -8.868  1.00  0.00     0.198 A 
ATOM     76  C   UNL     1      -1.386  12.106  -7.240  1.00  0.00     0.198 A 
ATOM     77  F   UNL     1      -0.837  12.302  -4.957  1.00  0.00    -0.203 F 
ATOM     78  F   UNL     1      -0.057  13.827 -10.138  1.00  0.00    -0.200 F 
ATOM     79  C   UNL     1      -1.192  12.487  -8.559  1.00  0.00     0.200 A 
ATOM     80  F   UNL     1      -2.303  11.176  -6.940  1.00  0.00    -0.200 F 
ATOM     81  F   UNL     1      -1.932  11.938  -9.533  1.00  0.00    -0.200 F 
ENDBRANCH  47  71
BRANCH  59  82
ATOM     82  C   UNL     1       0.698  19.986  -3.652  1.00  0.00     0.064 A 
ATOM     83  C   UNL     1      -0.637  20.162  -3.262  1.00  0.00     0.173 A 
ATOM     84  C   UNL     1       1.353  21.061  -4.269  1.00  0.00     0.173 A 
ATOM     85  F   UNL     1      -1.309  19.155  -2.682  1.00  0.00    -0.203 F 
ATOM     86  C   UNL     1      -1.296  21.366  -3.495  1.00  0.00     0.198 A 
ATOM     87  C   UNL     1       0.699  22.272  -4.478  1.00  0.00     0.198 A 
ATOM     88  F   UNL     1       2.632  20.942  -4.655  1.00  0.00    -0.203 F 
ATOM     89  F   UNL     1      -2.583  21.501  -3.147  1.00  0.00    -0.200 F 
ATOM     90  C   UNL     1      -0.625  22.421  -4.096  1.00  0.00     0.200 A 
ATOM     91  F   UNL     1       1.351  23.294  -5.049  1.00  0.00    -0.200 F 
ATOM     92  F   UNL     1      -1.259  23.582  -4.312  1.00  0.00    -0.200 F 
ENDBRANCH  59  82
ENDBRANCH  33  34
ENDBRANCH  25  28
ENDBRANCH  23  24
ENDBRANCH  22  23
ENDBRANCH   1  22
TORSDOF 16
