REMARK SMILES COc1ccc([C@H]2CC(c3ccccc3)=NN2C(=O)CCCC(=O)NCCCNC(=O)c2ccc(-c3c4nc(c(-c5c(F)c(F)c(F)c(F)c5F)c5ccc([nH]5)c(-c5c(F)c(F)c(F)c(F)c5F)c5nc(c(-c6c(F)c(F)c(F)c(F)c6F)c6ccc3[nH]6)C=C5)C=C4)cc2)cc1
REMARK SMILES IDX 23 1 24 2 25 3 22 5 21 6 20 7 18 8 19 9 17 10 7 11 8 12 9 13
REMARK SMILES IDX 16 14 6 15 3 16 4 17 96 18 5 19 95 20 2 21 1 22 10 23 11 24
REMARK SMILES IDX 15 25 12 26 14 27 13 28 26 29 27 30 28 31 29 32 30 33 31 35
REMARK SMILES IDX 32 36 33 37 94 38 34 39 93 40 35 41 36 42 37 43 87 44 38 45
REMARK SMILES IDX 92 46 86 47 88 48 39 49 91 50 85 51 84 52 40 54 72 55 52 56
REMARK SMILES IDX 71 57 53 58 56 59 70 60 89 61 54 62 55 63 69 65 90 66 57 67
REMARK SMILES IDX 41 68 42 69 50 70 43 71 44 72 48 73 51 74 45 75 46 76 49 77
REMARK SMILES IDX 47 78 73 79 74 80 82 81 75 82 76 83 80 84 83 85 77 86 78 87
REMARK SMILES IDX 81 88 79 89 58 90 59 91 67 92 60 93 61 94 65 95 68 96 62 97
REMARK SMILES IDX 63 98 66 99 64 100
REMARK H PARENT 25 4 29 34 88 53 56 64
REMARK Flexibility Score: inf
ROOT
ATOM      1  C   UNL     1      -0.594   4.756   4.423  1.00  0.00     0.220 C 
ATOM      2  O   UNL     1      -1.798   4.619   4.187  1.00  0.00    -0.275 OA
ATOM      3  N   UNL     1      -0.267   4.944   5.724  1.00  0.00    -0.356 N 
ATOM      4  H   UNL     1      -0.949   4.632   6.362  1.00  0.00     0.163 HD
ENDROOT
BRANCH   1   5
ATOM      5  C   UNL     1       0.426   4.480   3.337  1.00  0.00     0.100 C 
BRANCH   5   6
ATOM      6  C   UNL     1       1.523   5.377   2.834  1.00  0.00     0.020 C 
BRANCH   6   7
ATOM      7  C   UNL     1       2.774   5.625   3.660  1.00  0.00     0.103 C 
BRANCH   7   8
ATOM      8  C   UNL     1       3.837   4.621   4.159  1.00  0.00     0.243 C 
ATOM      9  O   UNL     1       5.008   4.954   3.886  1.00  0.00    -0.273 OA
BRANCH   8  10
ATOM     10  N   UNL     1       3.628   3.569   5.045  1.00  0.00    -0.225 N 
ATOM     11  C   UNL     1       2.542   2.572   5.307  1.00  0.00     0.147 C 
ATOM     12  C   UNL     1       3.054   1.707   6.457  1.00  0.00     0.091 C 
ATOM     13  C   UNL     1       4.386   2.339   6.675  1.00  0.00     0.071 C 
ATOM     14  N   UNL     1       4.682   3.346   5.921  1.00  0.00    -0.174 NA
BRANCH  11  15
ATOM     15  C   UNL     1       2.150   1.702   4.125  1.00  0.00    -0.023 A 
ATOM     16  C   UNL     1       1.166   0.804   1.675  1.00  0.00     0.118 A 
ATOM     17  C   UNL     1       0.306   0.899   2.765  1.00  0.00     0.047 A 
ATOM     18  C   UNL     1       2.534   1.030   1.835  1.00  0.00     0.047 A 
ATOM     19  C   UNL     1       0.804   1.290   4.006  1.00  0.00     0.010 A 
ATOM     20  C   UNL     1       3.029   1.468   3.064  1.00  0.00     0.010 A 
BRANCH  16  21
ATOM     21  O   UNL     1       0.577   0.660   0.450  1.00  0.00    -0.497 OA
ATOM     22  C   UNL     1       1.088  -0.435  -0.296  1.00  0.00     0.278 C 
ENDBRANCH  16  21
ENDBRANCH  11  15
BRANCH  13  23
ATOM     23  C   UNL     1       5.305   1.827   7.691  1.00  0.00    -0.002 A 
ATOM     24  C   UNL     1       5.724   2.662   8.729  1.00  0.00     0.010 A 
ATOM     25  C   UNL     1       5.819   0.538   7.550  1.00  0.00     0.010 A 
ATOM     26  C   UNL     1       6.669   2.194   9.642  1.00  0.00     0.001 A 
ATOM     27  C   UNL     1       6.777   0.084   8.455  1.00  0.00     0.001 A 
ATOM     28  C   UNL     1       7.200   0.910   9.498  1.00  0.00     0.000 A 
ENDBRANCH  13  23
ENDBRANCH   8  10
ENDBRANCH   7   8
ENDBRANCH   6   7
ENDBRANCH   5   6
ENDBRANCH   1   5
BRANCH   3  29
ATOM     29  C   UNL     1       0.904   5.521   6.344  1.00  0.00     0.117 C 
BRANCH  29  30
ATOM     30  C   UNL     1       0.831   7.034   6.294  1.00  0.00     0.042 C 
BRANCH  30  31
ATOM     31  C   UNL     1      -0.288   7.541   7.181  1.00  0.00     0.118 C 
BRANCH  31  32
ATOM     32  N   UNL     1       0.041   7.383   8.593  1.00  0.00    -0.352 N 
ATOM     33  C   UNL     1       0.236   8.364   9.536  1.00  0.00     0.251 C 
ATOM     34  H   UNL     1       0.134   6.457   8.912  1.00  0.00     0.163 HD
ATOM     35  O   UNL     1       0.762   8.112  10.607  1.00  0.00    -0.269 OA
BRANCH  33  36
ATOM     36  C   UNL     1      -0.191   9.736   9.202  1.00  0.00     0.039 A 
ATOM     37  C   UNL     1       0.677  10.801   9.432  1.00  0.00     0.014 A 
ATOM     38  C   UNL     1      -1.425   9.936   8.578  1.00  0.00     0.014 A 
ATOM     39  C   UNL     1       0.330  12.068   8.966  1.00  0.00     0.010 A 
ATOM     40  C   UNL     1      -1.705  11.164   8.004  1.00  0.00     0.010 A 
ATOM     41  C   UNL     1      -0.841  12.247   8.209  1.00  0.00    -0.014 A 
BRANCH  41  42
ATOM     42  C   UNL     1      -1.198  13.565   7.635  1.00  0.00     0.031 A 
ATOM     43  C   UNL     1      -2.490  14.222   8.036  1.00  0.00     0.074 A 
ATOM     44  C   UNL     1      -0.401  14.125   6.706  1.00  0.00     0.049 A 
ATOM     45  N   UNL     1      -3.025  15.332   7.598  1.00  0.00    -0.248 NA
ATOM     46  C   UNL     1      -3.312  13.516   9.034  1.00  0.00     0.031 C 
ATOM     47  C   UNL     1       0.841  13.544   6.193  1.00  0.00     0.029 A 
ATOM     48  N   UNL     1      -0.520  15.307   6.020  1.00  0.00    -0.354 N 
ATOM     49  C   UNL     1      -4.244  15.444   8.253  1.00  0.00     0.074 A 
ATOM     50  C   UNL     1      -4.409  14.256   9.059  1.00  0.00     0.031 C 
ATOM     51  C   UNL     1       1.388  14.387   5.303  1.00  0.00     0.029 A 
ATOM     52  C   UNL     1       0.513  15.544   5.147  1.00  0.00     0.049 A 
ATOM     53  H   UNL     1      -1.275  15.927   6.143  1.00  0.00     0.167 HD
ATOM     54  C   UNL     1      -5.131  16.465   8.212  1.00  0.00     0.037 A 
ATOM     55  C   UNL     1       0.723  16.577   4.310  1.00  0.00     0.037 A 
ATOM     56  C   UNL     1      -4.941  17.656   7.430  1.00  0.00     0.049 A 
ATOM     57  C   UNL     1      -0.285  17.695   4.276  1.00  0.00     0.074 A 
ATOM     58  C   UNL     1      -5.735  18.785   7.371  1.00  0.00     0.029 A 
ATOM     59  N   UNL     1      -3.877  17.865   6.563  1.00  0.00    -0.354 N 
ATOM     60  N   UNL     1      -1.390  17.835   4.968  1.00  0.00    -0.248 NA
ATOM     61  C   UNL     1      -0.016  18.799   3.345  1.00  0.00     0.031 C 
ATOM     62  C   UNL     1      -5.184  19.654   6.424  1.00  0.00     0.029 A 
ATOM     63  C   UNL     1      -4.015  19.092   5.936  1.00  0.00     0.049 A 
ATOM     64  H   UNL     1      -3.135  17.236   6.416  1.00  0.00     0.167 HD
ATOM     65  C   UNL     1      -1.940  19.045   4.570  1.00  0.00     0.074 A 
ATOM     66  C   UNL     1      -1.030  19.614   3.597  1.00  0.00     0.031 C 
ATOM     67  C   UNL     1      -3.096  19.632   4.966  1.00  0.00     0.037 A 
BRANCH  54  68
ATOM     68  C   UNL     1      -6.378  16.338   9.040  1.00  0.00     0.064 A 
ATOM     69  C   UNL     1      -6.337  16.353  10.444  1.00  0.00     0.173 A 
ATOM     70  C   UNL     1      -7.633  16.227   8.424  1.00  0.00     0.173 A 
ATOM     71  F   UNL     1      -5.162  16.441  11.085  1.00  0.00    -0.203 F 
ATOM     72  C   UNL     1      -7.502  16.228  11.197  1.00  0.00     0.198 A 
ATOM     73  C   UNL     1      -8.799  16.139   9.181  1.00  0.00     0.198 A 
ATOM     74  F   UNL     1      -7.732  16.210   7.086  1.00  0.00    -0.203 F 
ATOM     75  F   UNL     1      -7.430  16.187  12.535  1.00  0.00    -0.200 F 
ATOM     76  C   UNL     1      -8.732  16.130  10.566  1.00  0.00     0.200 A 
ATOM     77  F   UNL     1      -9.989  16.057   8.569  1.00  0.00    -0.200 F 
ATOM     78  F   UNL     1      -9.852  16.020  11.292  1.00  0.00    -0.200 F 
ENDBRANCH  54  68
BRANCH  55  79
ATOM     79  C   UNL     1       1.937  16.610   3.453  1.00  0.00     0.064 A 
ATOM     80  C   UNL     1       2.943  17.564   3.664  1.00  0.00     0.173 A 
ATOM     81  C   UNL     1       2.119  15.694   2.406  1.00  0.00     0.173 A 
ATOM     82  F   UNL     1       2.808  18.473   4.641  1.00  0.00    -0.203 F 
ATOM     83  C   UNL     1       4.071  17.615   2.848  1.00  0.00     0.198 A 
ATOM     84  C   UNL     1       3.263  15.726   1.610  1.00  0.00     0.198 A 
ATOM     85  F   UNL     1       1.191  14.757   2.163  1.00  0.00    -0.203 F 
ATOM     86  F   UNL     1       4.992  18.569   3.041  1.00  0.00    -0.200 F 
ATOM     87  C   UNL     1       4.233  16.693   1.825  1.00  0.00     0.200 A 
ATOM     88  F   UNL     1       3.423  14.822   0.634  1.00  0.00    -0.200 F 
ATOM     89  F   UNL     1       5.320  16.740   1.043  1.00  0.00    -0.200 F 
ENDBRANCH  55  79
BRANCH  67  90
ATOM     90  C   UNL     1      -3.436  20.959   4.352  1.00  0.00     0.064 A 
ATOM     91  C   UNL     1      -3.826  21.066   3.009  1.00  0.00     0.173 A 
ATOM     92  C   UNL     1      -3.416  22.129   5.126  1.00  0.00     0.173 A 
ATOM     93  F   UNL     1      -3.847  19.978   2.223  1.00  0.00    -0.203 F 
ATOM     94  C   UNL     1      -4.159  22.299   2.457  1.00  0.00     0.198 A 
ATOM     95  C   UNL     1      -3.784  23.355   4.580  1.00  0.00     0.198 A 
ATOM     96  F   UNL     1      -3.059  22.079   6.418  1.00  0.00    -0.203 F 
ATOM     97  F   UNL     1      -4.480  22.385   1.159  1.00  0.00    -0.200 F 
ATOM     98  C   UNL     1      -4.147  23.440   3.245  1.00  0.00     0.200 A 
ATOM     99  F   UNL     1      -3.789  24.453   5.348  1.00  0.00    -0.200 F 
ATOM    100  F   UNL     1      -4.479  24.625   2.715  1.00  0.00    -0.200 F 
ENDBRANCH  67  90
ENDBRANCH  41  42
ENDBRANCH  33  36
ENDBRANCH  31  32
ENDBRANCH  30  31
ENDBRANCH  29  30
ENDBRANCH   3  29
TORSDOF 17
