REMARK SMILES COc1ncccc1C[N@@H+]1CCC[C@H]1C(=O)NCCCNC(=O)c1ccc(-c2c3nc(c(-c4c(F)c(F)c(F)c(F)c4F)c4ccc([nH]4)c(-c4c(F)c(F)c(F)c(F)c4F)c4nc(c(-c5c(F)c(F)c(F)c(F)c5F)c5ccc2[nH]5)C=C4)C=C3)cc1
REMARK SMILES IDX 18 1 17 2 15 3 16 4 14 6 10 7 11 8 12 10 13 11 9 12 8 13
REMARK SMILES IDX 3 14 4 15 5 16 7 17 6 18 2 19 1 20 19 21 20 22 21 23 22 24
REMARK SMILES IDX 23 26 24 27 25 28 86 29 26 30 85 31 27 32 28 33 29 34 79 35
REMARK SMILES IDX 30 36 84 37 78 38 80 39 31 40 83 41 77 42 76 43 32 45 64 46
REMARK SMILES IDX 44 47 63 48 45 49 48 50 62 51 81 52 46 53 47 54 61 56 82 57
REMARK SMILES IDX 49 58 33 59 34 60 42 61 35 62 36 63 40 64 43 65 37 66 38 67
REMARK SMILES IDX 41 68 39 69 65 70 66 71 74 72 67 73 68 74 72 75 75 76 69 77
REMARK SMILES IDX 70 78 73 79 71 80 50 81 51 82 59 83 52 84 53 85 57 86 60 87
REMARK SMILES IDX 54 88 55 89 58 90 56 91
REMARK H PARENT 17 5 10 9 21 25 80 44 48 55
REMARK Flexibility Score: inf
ROOT
ATOM      1  C   UNL     1       5.794   1.945   2.514  1.00  0.00     0.118 C 
ENDROOT
BRANCH   1   2
ATOM      2  N   UNL     1       4.965   1.023   3.263  1.00  0.00    -0.351 N 
ATOM      3  C   UNL     1       3.602   0.920   3.271  1.00  0.00     0.278 C 
ATOM      4  O   UNL     1       3.082   0.213   4.135  1.00  0.00    -0.268 OA
ATOM      5  H   UNL     1       5.446   0.388   3.841  1.00  0.00     0.163 HD
BRANCH   3   6
ATOM      6  C   UNL     1       2.801   1.641   2.159  1.00  0.00     0.274 C 
ATOM      7  N   UNL     1       2.846   0.763   0.974  1.00  0.00    -0.321 N 
ATOM      8  C   UNL     1       1.721  -0.155   1.144  1.00  0.00     0.263 C 
ATOM      9  H   UNL     1       3.735   0.263   0.950  1.00  0.00     0.349 HD
ATOM     10  C   UNL     1       0.607   0.672   1.756  1.00  0.00     0.068 C 
ATOM     11  C   UNL     1       1.321   1.770   2.532  1.00  0.00     0.081 C 
BRANCH   7  12
ATOM     12  C   UNL     1       2.994   1.388  -0.347  1.00  0.00     0.305 C 
BRANCH  12  13
ATOM     13  C   UNL     1       2.026   2.469  -0.752  1.00  0.00     0.068 A 
ATOM     14  C   UNL     1       0.977   2.249  -1.646  1.00  0.00     0.221 A 
ATOM     15  N   UNL     1       0.063   3.186  -1.989  1.00  0.00    -0.222 NA
ATOM     16  C   UNL     1       0.223   4.418  -1.459  1.00  0.00     0.115 A 
ATOM     17  C   UNL     1       2.187   3.782  -0.285  1.00  0.00     0.017 A 
ATOM     18  C   UNL     1       1.278   4.771  -0.638  1.00  0.00     0.021 A 
BRANCH  14  19
ATOM     19  O   UNL     1       1.015   1.149  -2.466  1.00  0.00    -0.481 OA
ATOM     20  C   UNL     1       0.180   0.098  -2.008  1.00  0.00     0.280 C 
ENDBRANCH  14  19
ENDBRANCH  12  13
ENDBRANCH   7  12
ENDBRANCH   3   6
ENDBRANCH   1   2
BRANCH   1  21
ATOM     21  C   UNL     1       6.122   3.176   3.352  1.00  0.00     0.042 C 
BRANCH  21  22
ATOM     22  C   UNL     1       6.841   2.849   4.659  1.00  0.00     0.118 C 
BRANCH  22  23
ATOM     23  N   UNL     1       8.114   2.175   4.444  1.00  0.00    -0.352 N 
ATOM     24  C   UNL     1       9.368   2.499   4.888  1.00  0.00     0.251 C 
ATOM     25  H   UNL     1       8.066   1.360   3.894  1.00  0.00     0.163 HD
ATOM     26  O   UNL     1      10.348   1.898   4.446  1.00  0.00    -0.269 OA
BRANCH  24  27
ATOM     27  C   UNL     1       9.556   3.580   5.875  1.00  0.00     0.039 A 
ATOM     28  C   UNL     1      10.605   4.484   5.688  1.00  0.00     0.014 A 
ATOM     29  C   UNL     1       8.719   3.697   6.989  1.00  0.00     0.014 A 
ATOM     30  C   UNL     1      10.775   5.542   6.581  1.00  0.00     0.010 A 
ATOM     31  C   UNL     1       8.843   4.795   7.837  1.00  0.00     0.010 A 
ATOM     32  C   UNL     1       9.872   5.728   7.641  1.00  0.00    -0.014 A 
BRANCH  32  33
ATOM     33  C   UNL     1       9.984   6.904   8.540  1.00  0.00     0.031 A 
ATOM     34  C   UNL     1      10.283   6.721  10.001  1.00  0.00     0.074 A 
ATOM     35  C   UNL     1       9.760   8.137   8.046  1.00  0.00     0.049 A 
ATOM     36  N   UNL     1      10.373   7.622  10.947  1.00  0.00    -0.248 NA
ATOM     37  C   UNL     1      10.483   5.340  10.468  1.00  0.00     0.031 C 
ATOM     38  C   UNL     1       9.415   8.439   6.656  1.00  0.00     0.029 A 
ATOM     39  N   UNL     1       9.783   9.366   8.656  1.00  0.00    -0.354 N 
ATOM     40  C   UNL     1      10.631   6.919  12.116  1.00  0.00     0.074 A 
ATOM     41  C   UNL     1      10.627   5.513  11.774  1.00  0.00     0.031 C 
ATOM     42  C   UNL     1       9.284   9.767   6.514  1.00  0.00     0.029 A 
ATOM     43  C   UNL     1       9.496  10.407   7.808  1.00  0.00     0.049 A 
ATOM     44  H   UNL     1       9.985   9.489   9.612  1.00  0.00     0.167 HD
ATOM     45  C   UNL     1      10.873   7.404  13.358  1.00  0.00     0.037 A 
ATOM     46  C   UNL     1       9.407  11.729   8.049  1.00  0.00     0.037 A 
ATOM     47  C   UNL     1      10.893   8.805  13.690  1.00  0.00     0.049 A 
ATOM     48  C   UNL     1       9.665  12.239   9.440  1.00  0.00     0.074 A 
ATOM     49  C   UNL     1      11.183   9.400  14.906  1.00  0.00     0.029 A 
ATOM     50  N   UNL     1      10.604   9.832  12.803  1.00  0.00    -0.354 N 
ATOM     51  N   UNL     1       9.979  11.570  10.523  1.00  0.00    -0.248 NA
ATOM     52  C   UNL     1       9.562  13.691   9.641  1.00  0.00     0.031 C 
ATOM     53  C   UNL     1      11.019  10.782  14.768  1.00  0.00     0.029 A 
ATOM     54  C   UNL     1      10.683  11.054  13.451  1.00  0.00     0.049 A 
ATOM     55  H   UNL     1      10.376   9.710  11.853  1.00  0.00     0.167 HD
ATOM     56  C   UNL     1      10.139  12.518  11.524  1.00  0.00     0.074 A 
ATOM     57  C   UNL     1       9.904  13.811  10.916  1.00  0.00     0.031 C 
ATOM     58  C   UNL     1      10.451  12.334  12.831  1.00  0.00     0.037 A 
BRANCH  45  59
ATOM     59  C   UNL     1      11.140   6.410  14.452  1.00  0.00     0.064 A 
ATOM     60  C   UNL     1      12.318   5.648  14.484  1.00  0.00     0.173 A 
ATOM     61  C   UNL     1      10.226   6.246  15.505  1.00  0.00     0.173 A 
ATOM     62  F   UNL     1      13.220   5.759  13.497  1.00  0.00    -0.203 F 
ATOM     63  C   UNL     1      12.557   4.738  15.510  1.00  0.00     0.198 A 
ATOM     64  C   UNL     1      10.484   5.358  16.546  1.00  0.00     0.198 A 
ATOM     65  F   UNL     1       9.087   6.954  15.529  1.00  0.00    -0.203 F 
ATOM     66  F   UNL     1      13.666   3.985  15.491  1.00  0.00    -0.200 F 
ATOM     67  C   UNL     1      11.644   4.599  16.544  1.00  0.00     0.200 A 
ATOM     68  F   UNL     1       9.607   5.237  17.553  1.00  0.00    -0.200 F 
ATOM     69  F   UNL     1      11.880   3.729  17.536  1.00  0.00    -0.200 F 
ENDBRANCH  45  59
BRANCH  46  70
ATOM     70  C   UNL     1       9.080  12.665   6.942  1.00  0.00     0.064 A 
ATOM     71  C   UNL     1      10.036  13.570   6.458  1.00  0.00     0.173 A 
ATOM     72  C   UNL     1       7.809  12.682   6.349  1.00  0.00     0.173 A 
ATOM     73  F   UNL     1      11.260  13.606   7.005  1.00  0.00    -0.203 F 
ATOM     74  C   UNL     1       9.726  14.469   5.440  1.00  0.00     0.198 A 
ATOM     75  C   UNL     1       7.510  13.561   5.311  1.00  0.00     0.198 A 
ATOM     76  F   UNL     1       6.860  11.833   6.770  1.00  0.00    -0.203 F 
ATOM     77  F   UNL     1      10.644  15.355   5.031  1.00  0.00    -0.200 F 
ATOM     78  C   UNL     1       8.466  14.460   4.863  1.00  0.00     0.200 A 
ATOM     79  F   UNL     1       6.295  13.537   4.744  1.00  0.00    -0.200 F 
ATOM     80  F   UNL     1       8.169  15.323   3.881  1.00  0.00    -0.200 F 
ENDBRANCH  46  70
BRANCH  58  81
ATOM     81  C   UNL     1      10.589  13.562  13.684  1.00  0.00     0.064 A 
ATOM     82  C   UNL     1       9.477  14.335  14.050  1.00  0.00     0.173 A 
ATOM     83  C   UNL     1      11.848  13.953  14.167  1.00  0.00     0.173 A 
ATOM     84  F   UNL     1       8.254  14.014  13.601  1.00  0.00    -0.203 F 
ATOM     85  C   UNL     1       9.624  15.470  14.844  1.00  0.00     0.198 A 
ATOM     86  C   UNL     1      11.986  15.068  14.988  1.00  0.00     0.198 A 
ATOM     87  F   UNL     1      12.943  13.244  13.852  1.00  0.00    -0.203 F 
ATOM     88  F   UNL     1       8.555  16.224  15.136  1.00  0.00    -0.200 F 
ATOM     89  C   UNL     1      10.877  15.831  15.318  1.00  0.00     0.200 A 
ATOM     90  F   UNL     1      13.195  15.407  15.457  1.00  0.00    -0.200 F 
ATOM     91  F   UNL     1      11.015  16.919  16.087  1.00  0.00    -0.200 F 
ENDBRANCH  58  81
ENDBRANCH  32  33
ENDBRANCH  24  27
ENDBRANCH  22  23
ENDBRANCH  21  22
ENDBRANCH   1  21
TORSDOF 13
