REMARK SMILES CCOC(=O)N1CCN(c2ccc(NS(=O)(=O)c3ccc4c(c3)CCCC4)cc2C(=O)NCCCNC(=O)c2ccc(-c3c4nc(c(-c5c(F)c(F)c(F)c(F)c5F)c5ccc([nH]5)c(-c5c(F)c(F)c(F)c(F)c5F)c5nc(c(-c6c(F)c(F)c(F)c(F)c6F)c6ccc3[nH]6)C=C5)C=C4)cc2)CC1
REMARK SMILES IDX 33 1 32 2 30 3 31 4 29 6 10 7 11 8 12 9 28 10 13 11 9 12
REMARK SMILES IDX 4 13 5 14 6 15 7 16 103 17 8 18 102 19 3 20 2 21 1 22 14 23
REMARK SMILES IDX 15 25 16 26 17 27 18 28 19 29 23 30 20 31 22 32 21 33 24 34
REMARK SMILES IDX 27 35 25 36 26 37 34 38 35 39 36 40 37 41 38 43 39 44 40 45
REMARK SMILES IDX 101 46 41 47 100 48 42 49 43 50 44 51 94 52 45 53 99 54
REMARK SMILES IDX 93 55 95 56 46 57 98 58 92 59 91 60 47 62 79 63 59 64 78 65
REMARK SMILES IDX 60 66 63 67 77 68 96 69 61 70 62 71 76 73 97 74 64 75 48 76
REMARK SMILES IDX 49 77 57 78 50 79 51 80 55 81 58 82 52 83 53 84 56 85 54 86
REMARK SMILES IDX 80 87 81 88 89 89 82 90 83 91 87 92 90 93 84 94 85 95 88 96
REMARK SMILES IDX 86 97 65 98 66 99 74 100 67 101 68 102 72 103 75 104 69 105
REMARK SMILES IDX 70 106 73 107 71 108
REMARK H PARENT 32 5 14 24 36 42 95 61 63 72
REMARK Flexibility Score: inf
ROOT
ATOM      1  C   UNL     1       3.133   1.131  -6.619  1.00  0.00     0.118 C 
ENDROOT
BRANCH   1   2
ATOM      2  N   UNL     1       3.701   0.883  -7.913  1.00  0.00    -0.352 N 
ATOM      3  C   UNL     1       3.978  -0.182  -8.710  1.00  0.00     0.253 C 
ATOM      4  O   UNL     1       4.392   0.200  -9.818  1.00  0.00    -0.269 OA
ATOM      5  H   UNL     1       3.966   1.726  -8.348  1.00  0.00     0.163 HD
BRANCH   3   6
ATOM      6  C   UNL     1       3.946  -1.677  -8.455  1.00  0.00     0.065 A 
ATOM      7  C   UNL     1       3.852  -2.446  -7.263  1.00  0.00     0.050 A 
ATOM      8  C   UNL     1       4.366  -3.772  -7.348  1.00  0.00     0.029 A 
ATOM      9  C   UNL     1       4.883  -4.343  -8.508  1.00  0.00     0.029 A 
ATOM     10  C   UNL     1       4.293  -2.372  -9.672  1.00  0.00     0.042 A 
ATOM     11  C   UNL     1       4.738  -3.689  -9.705  1.00  0.00     0.050 A 
BRANCH   7  12
ATOM     12  N   UNL     1       3.305  -2.057  -6.020  1.00  0.00    -0.367 N 
ATOM     13  C   UNL     1       1.714  -1.083  -2.189  1.00  0.00     0.409 C 
ATOM     14  O   UNL     1       2.506  -0.934  -1.256  1.00  0.00    -0.224 OA
ATOM     15  N   UNL     1       2.098  -1.614  -3.410  1.00  0.00    -0.305 N 
ATOM     16  C   UNL     1       3.491  -2.018  -3.518  1.00  0.00     0.144 C 
ATOM     17  C   UNL     1       1.340  -1.313  -4.634  1.00  0.00     0.144 C 
ATOM     18  C   UNL     1       3.850  -2.740  -4.810  1.00  0.00     0.138 C 
ATOM     19  C   UNL     1       1.822  -2.003  -5.943  1.00  0.00     0.138 C 
BRANCH  13  20
ATOM     20  O   UNL     1       0.402  -0.763  -2.147  1.00  0.00    -0.450 OA
BRANCH  20  21
ATOM     21  C   UNL     1      -0.135  -0.097  -0.989  1.00  0.00     0.231 C 
ATOM     22  C   UNL     1       0.219  -0.711   0.358  1.00  0.00     0.049 C 
ENDBRANCH  20  21
ENDBRANCH  13  20
ENDBRANCH   7  12
BRANCH  11  23
ATOM     23  N   UNL     1       5.152  -4.326 -10.921  1.00  0.00    -0.280 N 
ATOM     24  H   UNL     1       5.981  -4.033 -11.364  1.00  0.00     0.180 HD
BRANCH  23  25
ATOM     25  S   UNL     1       4.222  -5.589 -11.613  1.00  0.00     0.261 S 
ATOM     26  O   UNL     1       2.977  -5.011 -12.069  1.00  0.00    -0.201 OA
ATOM     27  O   UNL     1       5.115  -6.239 -12.553  1.00  0.00    -0.201 OA
BRANCH  25  28
ATOM     28  C   UNL     1       3.835  -6.765 -10.336  1.00  0.00     0.088 A 
ATOM     29  C   UNL     1       2.936  -6.408  -9.324  1.00  0.00     0.022 A 
ATOM     30  C   UNL     1       4.413  -8.038 -10.343  1.00  0.00     0.026 A 
ATOM     31  C   UNL     1       2.834  -7.199  -8.179  1.00  0.00     0.005 A 
ATOM     32  C   UNL     1       4.224  -8.875  -9.240  1.00  0.00    -0.043 A 
ATOM     33  C   UNL     1       3.540  -8.400  -8.107  1.00  0.00    -0.045 A 
ATOM     34  C   UNL     1       4.704 -10.300  -9.203  1.00  0.00     0.036 C 
ATOM     35  C   UNL     1       3.616  -9.219  -6.841  1.00  0.00     0.036 C 
ATOM     36  C   UNL     1       5.522 -10.571  -7.942  1.00  0.00     0.005 C 
ATOM     37  C   UNL     1       5.023  -9.820  -6.697  1.00  0.00     0.005 C 
ENDBRANCH  25  28
ENDBRANCH  23  25
ENDBRANCH  11  23
ENDBRANCH   3   6
ENDBRANCH   1   2
BRANCH   1  38
ATOM     38  C   UNL     1       4.152   0.990  -5.514  1.00  0.00     0.042 C 
BRANCH  38  39
ATOM     39  C   UNL     1       4.027   1.961  -4.352  1.00  0.00     0.118 C 
BRANCH  39  40
ATOM     40  N   UNL     1       2.691   2.281  -3.884  1.00  0.00    -0.352 N 
ATOM     41  C   UNL     1       2.268   2.664  -2.629  1.00  0.00     0.251 C 
ATOM     42  H   UNL     1       1.981   2.214  -4.563  1.00  0.00     0.163 HD
ATOM     43  O   UNL     1       1.094   3.001  -2.481  1.00  0.00    -0.269 OA
BRANCH  41  44
ATOM     44  C   UNL     1       3.169   2.615  -1.446  1.00  0.00     0.039 A 
ATOM     45  C   UNL     1       2.608   2.293  -0.203  1.00  0.00     0.014 A 
ATOM     46  C   UNL     1       4.539   2.868  -1.521  1.00  0.00     0.014 A 
ATOM     47  C   UNL     1       3.415   2.096   0.917  1.00  0.00     0.010 A 
ATOM     48  C   UNL     1       5.359   2.617  -0.427  1.00  0.00     0.010 A 
ATOM     49  C   UNL     1       4.798   2.235   0.799  1.00  0.00    -0.014 A 
BRANCH  49  50
ATOM     50  C   UNL     1       5.670   2.185   1.986  1.00  0.00     0.031 A 
ATOM     51  C   UNL     1       6.187   3.486   2.520  1.00  0.00     0.074 A 
ATOM     52  C   UNL     1       6.026   1.010   2.532  1.00  0.00     0.049 A 
ATOM     53  N   UNL     1       7.072   3.712   3.453  1.00  0.00    -0.248 NA
ATOM     54  C   UNL     1       5.645   4.705   1.892  1.00  0.00     0.031 C 
ATOM     55  C   UNL     1       5.559  -0.305   2.095  1.00  0.00     0.029 A 
ATOM     56  N   UNL     1       6.885   0.738   3.565  1.00  0.00    -0.354 N 
ATOM     57  C   UNL     1       7.201   5.092   3.512  1.00  0.00     0.074 A 
ATOM     58  C   UNL     1       6.346   5.652   2.491  1.00  0.00     0.031 C 
ATOM     59  C   UNL     1       6.147  -1.248   2.852  1.00  0.00     0.029 A 
ATOM     60  C   UNL     1       7.058  -0.604   3.796  1.00  0.00     0.049 A 
ATOM     61  H   UNL     1       7.335   1.438   4.091  1.00  0.00     0.167 HD
ATOM     62  C   UNL     1       7.958   5.825   4.359  1.00  0.00     0.037 A 
ATOM     63  C   UNL     1       7.882  -1.228   4.660  1.00  0.00     0.037 A 
ATOM     64  C   UNL     1       8.804   5.249   5.367  1.00  0.00     0.049 A 
ATOM     65  C   UNL     1       8.763  -0.389   5.553  1.00  0.00     0.074 A 
ATOM     66  C   UNL     1       9.608   5.889   6.290  1.00  0.00     0.029 A 
ATOM     67  N   UNL     1       8.955   3.884   5.576  1.00  0.00    -0.354 N 
ATOM     68  N   UNL     1       8.864   0.918   5.630  1.00  0.00    -0.248 NA
ATOM     69  C   UNL     1       9.643  -1.110   6.481  1.00  0.00     0.031 C 
ATOM     70  C   UNL     1      10.291   4.911   7.020  1.00  0.00     0.029 A 
ATOM     71  C   UNL     1       9.861   3.662   6.598  1.00  0.00     0.049 A 
ATOM     72  H   UNL     1       8.488   3.179   5.072  1.00  0.00     0.167 HD
ATOM     73  C   UNL     1       9.789   1.175   6.634  1.00  0.00     0.074 A 
ATOM     74  C   UNL     1      10.210  -0.114   7.146  1.00  0.00     0.031 C 
ATOM     75  C   UNL     1      10.250   2.365   7.094  1.00  0.00     0.037 A 
BRANCH  62  76
ATOM     76  C   UNL     1       7.918   7.316   4.200  1.00  0.00     0.064 A 
ATOM     77  C   UNL     1       6.766   8.061   4.500  1.00  0.00     0.173 A 
ATOM     78  C   UNL     1       9.043   8.009   3.731  1.00  0.00     0.173 A 
ATOM     79  F   UNL     1       5.654   7.444   4.929  1.00  0.00    -0.203 F 
ATOM     80  C   UNL     1       6.733   9.439   4.303  1.00  0.00     0.198 A 
ATOM     81  C   UNL     1       9.017   9.392   3.569  1.00  0.00     0.198 A 
ATOM     82  F   UNL     1      10.168   7.346   3.425  1.00  0.00    -0.203 F 
ATOM     83  F   UNL     1       5.602  10.120   4.533  1.00  0.00    -0.200 F 
ATOM     84  C   UNL     1       7.860  10.104   3.844  1.00  0.00     0.200 A 
ATOM     85  F   UNL     1      10.110  10.033   3.134  1.00  0.00    -0.200 F 
ATOM     86  F   UNL     1       7.827  11.430   3.656  1.00  0.00    -0.200 F 
ENDBRANCH  62  76
BRANCH  63  87
ATOM     87  C   UNL     1       7.920  -2.714   4.724  1.00  0.00     0.064 A 
ATOM     88  C   UNL     1       7.480  -3.400   5.865  1.00  0.00     0.173 A 
ATOM     89  C   UNL     1       8.418  -3.479   3.659  1.00  0.00     0.173 A 
ATOM     90  F   UNL     1       7.017  -2.715   6.921  1.00  0.00    -0.203 F 
ATOM     91  C   UNL     1       7.561  -4.789   5.948  1.00  0.00     0.198 A 
ATOM     92  C   UNL     1       8.469  -4.870   3.731  1.00  0.00     0.198 A 
ATOM     93  F   UNL     1       8.854  -2.876   2.543  1.00  0.00    -0.203 F 
ATOM     94  F   UNL     1       7.185  -5.414   7.073  1.00  0.00    -0.200 F 
ATOM     95  C   UNL     1       8.050  -5.524   4.879  1.00  0.00     0.200 A 
ATOM     96  F   UNL     1       8.931  -5.577   2.690  1.00  0.00    -0.200 F 
ATOM     97  F   UNL     1       8.128  -6.859   4.960  1.00  0.00    -0.200 F 
ENDBRANCH  63  87
BRANCH  75  98
ATOM     98  C   UNL     1      11.223   2.332   8.237  1.00  0.00     0.064 A 
ATOM     99  C   UNL     1      12.543   1.887   8.073  1.00  0.00     0.173 A 
ATOM    100  C   UNL     1      10.843   2.809   9.501  1.00  0.00     0.173 A 
ATOM    101  F   UNL     1      12.953   1.410   6.888  1.00  0.00    -0.203 F 
ATOM    102  C   UNL     1      13.438   1.895   9.139  1.00  0.00     0.198 A 
ATOM    103  C   UNL     1      11.750   2.851  10.555  1.00  0.00     0.198 A 
ATOM    104  F   UNL     1       9.595   3.257   9.708  1.00  0.00    -0.203 F 
ATOM    105  F   UNL     1      14.679   1.419   8.973  1.00  0.00    -0.200 F 
ATOM    106  C   UNL     1      13.044   2.386  10.376  1.00  0.00     0.200 A 
ATOM    107  F   UNL     1      11.373   3.344  11.742  1.00  0.00    -0.200 F 
ATOM    108  F   UNL     1      13.911   2.407  11.397  1.00  0.00    -0.200 F 
ENDBRANCH  75  98
ENDBRANCH  49  50
ENDBRANCH  41  44
ENDBRANCH  39  40
ENDBRANCH  38  39
ENDBRANCH   1  38
TORSDOF 16
