REMARK SMILES CC(C)COC(=O)c1ccc(NC(=O)[C@H]2[C@@H](C(=O)NCCCNC(=O)c3ccc(-c4c5nc(c(-c6c(F)c(F)c(F)c(F)c6F)c6ccc([nH]6)c(-c6c(F)c(F)c(F)c(F)c6F)c6nc(c(-c7c(F)c(F)c(F)c(F)c7F)c7ccc4[nH]7)C=C6)C=C5)cc3)[C@@H]3C=C[C@H]2C3)cc1
REMARK SMILES IDX 17 1 18 2 19 3 16 5 15 6 92 7 89 8 91 9 93 10 90 11 13 12
REMARK SMILES IDX 12 13 14 15 11 16 8 17 9 18 95 19 10 20 94 21 6 22 7 23 5 24
REMARK SMILES IDX 4 25 2 26 1 27 3 28 20 29 21 30 22 31 23 32 24 33 25 35
REMARK SMILES IDX 26 36 27 37 88 38 28 39 87 40 29 41 30 42 31 43 81 44 32 45
REMARK SMILES IDX 86 46 80 47 82 48 33 49 85 50 79 51 78 52 34 54 66 55 46 56
REMARK SMILES IDX 65 57 47 58 50 59 64 60 83 61 48 62 49 63 63 65 84 66 51 67
REMARK SMILES IDX 35 68 36 69 44 70 37 71 38 72 42 73 45 74 39 75 40 76 43 77
REMARK SMILES IDX 41 78 67 79 68 80 76 81 69 82 70 83 74 84 77 85 71 86 72 87
REMARK SMILES IDX 75 88 73 89 52 90 53 91 61 92 54 93 55 94 59 95 62 96 56 97
REMARK SMILES IDX 57 98 60 99 58 100
REMARK H PARENT 19 4 12 14 23 34 82 53 50 64
REMARK Flexibility Score: inf
ROOT
ATOM      1  C   UNL     1      -1.086  -6.816   0.145  1.00  0.00     0.224 C 
ATOM      2  O   UNL     1      -0.691  -7.132  -0.980  1.00  0.00    -0.275 OA
ATOM      3  N   UNL     1      -1.252  -5.485   0.383  1.00  0.00    -0.356 N 
ATOM      4  H   UNL     1      -0.703  -4.893  -0.180  1.00  0.00     0.163 HD
ENDROOT
BRANCH   1   5
ATOM      5  C   UNL     1      -1.475  -7.866   1.173  1.00  0.00     0.098 C 
ATOM      6  C   UNL     1      -1.045  -7.750   2.646  1.00  0.00     0.099 C 
ATOM      7  C   UNL     1      -0.867  -9.229   3.098  1.00  0.00     0.025 C 
ATOM      8  C   UNL     1      -1.100  -9.368   0.875  1.00  0.00     0.025 C 
ATOM      9  C   UNL     1      -2.124 -10.041   2.818  1.00  0.00    -0.027 C 
ATOM     10  C   UNL     1      -0.059  -9.780   1.940  1.00  0.00     0.017 C 
ATOM     11  C   UNL     1      -2.231 -10.173   1.484  1.00  0.00    -0.027 C 
BRANCH   6  12
ATOM     12  C   UNL     1       0.082  -6.843   3.142  1.00  0.00     0.228 C 
ATOM     13  N   UNL     1       1.346  -6.620   2.712  1.00  0.00    -0.326 N 
ATOM     14  H   UNL     1       1.763  -5.917   3.260  1.00  0.00     0.169 HD
ATOM     15  O   UNL     1      -0.154  -6.253   4.218  1.00  0.00    -0.274 OA
BRANCH  13  16
ATOM     16  C   UNL     1       2.258  -7.064   1.737  1.00  0.00     0.041 A 
ATOM     17  C   UNL     1       4.248  -8.339   0.205  1.00  0.00     0.060 A 
ATOM     18  C   UNL     1       2.922  -8.398  -0.188  1.00  0.00     0.018 A 
ATOM     19  C   UNL     1       4.615  -7.524   1.275  1.00  0.00     0.018 A 
ATOM     20  C   UNL     1       1.952  -7.753   0.577  1.00  0.00     0.027 A 
ATOM     21  C   UNL     1       3.620  -6.866   2.018  1.00  0.00     0.027 A 
BRANCH  17  22
ATOM     22  C   UNL     1       5.190  -9.223  -0.504  1.00  0.00     0.338 C 
ATOM     23  O   UNL     1       5.226  -9.333  -1.713  1.00  0.00    -0.246 OA
BRANCH  22  24
ATOM     24  O   UNL     1       5.826  -9.990   0.419  1.00  0.00    -0.462 OA
BRANCH  24  25
ATOM     25  C   UNL     1       6.633 -11.050  -0.115  1.00  0.00     0.236 C 
BRANCH  25  26
ATOM     26  C   UNL     1       5.972 -12.428   0.072  1.00  0.00     0.021 C 
ATOM     27  C   UNL     1       4.553 -12.503  -0.496  1.00  0.00     0.011 C 
ATOM     28  C   UNL     1       6.848 -13.504  -0.573  1.00  0.00     0.011 C 
ENDBRANCH  25  26
ENDBRANCH  24  25
ENDBRANCH  22  24
ENDBRANCH  17  22
ENDBRANCH  13  16
ENDBRANCH   6  12
ENDBRANCH   1   5
BRANCH   3  29
ATOM     29  C   UNL     1      -2.110  -4.798   1.337  1.00  0.00     0.117 C 
BRANCH  29  30
ATOM     30  C   UNL     1      -1.360  -3.872   2.292  1.00  0.00     0.042 C 
BRANCH  30  31
ATOM     31  C   UNL     1      -0.535  -2.772   1.637  1.00  0.00     0.118 C 
BRANCH  31  32
ATOM     32  N   UNL     1      -1.337  -1.607   1.313  1.00  0.00    -0.352 N 
ATOM     33  C   UNL     1      -1.492  -0.420   1.987  1.00  0.00     0.251 C 
ATOM     34  H   UNL     1      -1.852  -1.678   0.477  1.00  0.00     0.163 HD
ATOM     35  O   UNL     1      -2.431   0.313   1.684  1.00  0.00    -0.269 OA
BRANCH  33  36
ATOM     36  C   UNL     1      -0.566   0.003   3.070  1.00  0.00     0.039 A 
ATOM     37  C   UNL     1      -1.091   0.725   4.148  1.00  0.00     0.014 A 
ATOM     38  C   UNL     1       0.815  -0.199   2.996  1.00  0.00     0.014 A 
ATOM     39  C   UNL     1      -0.246   1.213   5.152  1.00  0.00     0.010 A 
ATOM     40  C   UNL     1       1.648   0.216   4.040  1.00  0.00     0.010 A 
ATOM     41  C   UNL     1       1.132   0.947   5.120  1.00  0.00    -0.014 A 
BRANCH  41  42
ATOM     42  C   UNL     1       2.034   1.456   6.193  1.00  0.00     0.031 A 
ATOM     43  C   UNL     1       3.124   2.449   5.874  1.00  0.00     0.074 A 
ATOM     44  C   UNL     1       1.894   1.009   7.456  1.00  0.00     0.049 A 
ATOM     45  N   UNL     1       4.016   2.987   6.670  1.00  0.00    -0.248 NA
ATOM     46  C   UNL     1       3.242   2.877   4.472  1.00  0.00     0.031 C 
ATOM     47  C   UNL     1       0.910   0.020   7.896  1.00  0.00     0.029 A 
ATOM     48  N   UNL     1       2.581   1.325   8.604  1.00  0.00    -0.354 N 
ATOM     49  C   UNL     1       4.803   3.803   5.865  1.00  0.00     0.074 A 
ATOM     50  C   UNL     1       4.320   3.646   4.510  1.00  0.00     0.031 C 
ATOM     51  C   UNL     1       1.036  -0.169   9.219  1.00  0.00     0.029 A 
ATOM     52  C   UNL     1       2.134   0.654   9.717  1.00  0.00     0.049 A 
ATOM     53  H   UNL     1       3.324   1.971   8.626  1.00  0.00     0.167 HD
ATOM     54  C   UNL     1       5.818   4.627   6.223  1.00  0.00     0.037 A 
ATOM     55  C   UNL     1       2.563   0.693  10.993  1.00  0.00     0.037 A 
ATOM     56  C   UNL     1       6.285   4.802   7.575  1.00  0.00     0.049 A 
ATOM     57  C   UNL     1       3.700   1.607  11.363  1.00  0.00     0.074 A 
ATOM     58  C   UNL     1       7.269   5.655   8.045  1.00  0.00     0.029 A 
ATOM     59  N   UNL     1       5.803   4.107   8.675  1.00  0.00    -0.354 N 
ATOM     60  N   UNL     1       4.389   2.423  10.604  1.00  0.00    -0.248 NA
ATOM     61  C   UNL     1       4.114   1.610  12.774  1.00  0.00     0.031 C 
ATOM     62  C   UNL     1       7.421   5.436   9.418  1.00  0.00     0.029 A 
ATOM     63  C   UNL     1       6.489   4.492   9.817  1.00  0.00     0.049 A 
ATOM     64  H   UNL     1       5.081   3.438   8.649  1.00  0.00     0.167 HD
ATOM     65  C   UNL     1       5.295   3.056  11.445  1.00  0.00     0.074 A 
ATOM     66  C   UNL     1       5.054   2.544  12.777  1.00  0.00     0.031 C 
ATOM     67  C   UNL     1       6.240   3.979  11.140  1.00  0.00     0.037 A 
BRANCH  54  68
ATOM     68  C   UNL     1       6.500   5.409   5.135  1.00  0.00     0.064 A 
ATOM     69  C   UNL     1       5.849   6.449   4.454  1.00  0.00     0.173 A 
ATOM     70  C   UNL     1       7.837   5.144   4.798  1.00  0.00     0.173 A 
ATOM     71  F   UNL     1       4.569   6.740   4.731  1.00  0.00    -0.203 F 
ATOM     72  C   UNL     1       6.499   7.173   3.457  1.00  0.00     0.198 A 
ATOM     73  C   UNL     1       8.494   5.892   3.824  1.00  0.00     0.198 A 
ATOM     74  F   UNL     1       8.512   4.168   5.422  1.00  0.00    -0.203 F 
ATOM     75  F   UNL     1       5.839   8.127   2.785  1.00  0.00    -0.200 F 
ATOM     76  C   UNL     1       7.822   6.899   3.148  1.00  0.00     0.200 A 
ATOM     77  F   UNL     1       9.779   5.637   3.538  1.00  0.00    -0.200 F 
ATOM     78  F   UNL     1       8.449   7.602   2.194  1.00  0.00    -0.200 F 
ENDBRANCH  54  68
BRANCH  55  79
ATOM     79  C   UNL     1       1.899  -0.148  12.025  1.00  0.00     0.064 A 
ATOM     80  C   UNL     1       1.142   0.433  13.053  1.00  0.00     0.173 A 
ATOM     81  C   UNL     1       2.017  -1.546  12.014  1.00  0.00     0.173 A 
ATOM     82  F   UNL     1       1.018   1.767  13.121  1.00  0.00    -0.203 F 
ATOM     83  C   UNL     1       0.548  -0.349  14.041  1.00  0.00     0.198 A 
ATOM     84  C   UNL     1       1.395  -2.329  12.985  1.00  0.00     0.198 A 
ATOM     85  F   UNL     1       2.728  -2.152  11.052  1.00  0.00    -0.203 F 
ATOM     86  F   UNL     1      -0.125   0.236  15.041  1.00  0.00    -0.200 F 
ATOM     87  C   UNL     1       0.670  -1.730  14.003  1.00  0.00     0.200 A 
ATOM     88  F   UNL     1       1.504  -3.664  12.935  1.00  0.00    -0.200 F 
ATOM     89  F   UNL     1       0.096  -2.482  14.952  1.00  0.00    -0.200 F 
ENDBRANCH  55  79
BRANCH  67  90
ATOM     90  C   UNL     1       7.063   4.524  12.274  1.00  0.00     0.064 A 
ATOM     91  C   UNL     1       8.017   3.740  12.939  1.00  0.00     0.173 A 
ATOM     92  C   UNL     1       6.914   5.859  12.681  1.00  0.00     0.173 A 
ATOM     93  F   UNL     1       8.189   2.453  12.599  1.00  0.00    -0.203 F 
ATOM     94  C   UNL     1       8.767   4.261  13.990  1.00  0.00     0.198 A 
ATOM     95  C   UNL     1       7.690   6.387  13.709  1.00  0.00     0.198 A 
ATOM     96  F   UNL     1       6.022   6.657  12.073  1.00  0.00    -0.203 F 
ATOM     97  F   UNL     1       9.631   3.476  14.648  1.00  0.00    -0.200 F 
ATOM     98  C   UNL     1       8.608   5.586  14.369  1.00  0.00     0.200 A 
ATOM     99  F   UNL     1       7.546   7.672  14.063  1.00  0.00    -0.200 F 
ATOM    100  F   UNL     1       9.334   6.087  15.378  1.00  0.00    -0.200 F 
ENDBRANCH  67  90
ENDBRANCH  41  42
ENDBRANCH  33  36
ENDBRANCH  31  32
ENDBRANCH  30  31
ENDBRANCH  29  30
ENDBRANCH   3  29
TORSDOF 16
