REMARK SMILES COc1cc([C@@H]2CC[NH2+][C@@H]2C(=O)NCCCNC(=O)c2ccc(-c3c4nc(c(-c5c(F)c(F)c(F)c(F)c5F)c5ccc([nH]5)c(-c5c(F)c(F)c(F)c(F)c5F)c5nc(c(-c6c(F)c(F)c(F)c(F)c6F)c6ccc3[nH]6)C=C5)C=C4)cc2)cc(OC)c1OC
REMARK SMILES IDX 15 1 14 2 13 3 11 4 12 5 10 7 6 8 7 9 8 10 9 11 5 14 3 15
REMARK SMILES IDX 4 16 87 17 84 18 83 19 2 20 1 21 88 22 89 23 85 24 86 25
REMARK SMILES IDX 16 26 17 27 18 28 19 30 20 31 21 32 82 33 22 34 81 35 23 36
REMARK SMILES IDX 24 37 25 38 75 39 26 40 80 41 74 42 76 43 27 44 79 45 73 46
REMARK SMILES IDX 72 47 28 49 60 50 40 51 59 52 41 53 44 54 58 55 77 56 42 57
REMARK SMILES IDX 43 58 57 60 78 61 45 62 29 63 30 64 38 65 31 66 32 67 36 68
REMARK SMILES IDX 39 69 33 70 34 71 37 72 35 73 61 74 62 75 70 76 63 77 64 78
REMARK SMILES IDX 68 79 71 80 65 81 66 82 69 83 67 84 46 85 47 86 55 87 48 88
REMARK SMILES IDX 49 89 53 90 56 91 50 92 51 93 54 94 52 95
REMARK H PARENT 13 6 9 12 9 13 17 29 76 48 44 59
REMARK Flexibility Score: inf
ROOT
ATOM      1  C   UNL     1       1.958  -8.378   4.860  1.00  0.00     0.042 C 
ENDROOT
BRANCH   1   2
ATOM      2  C   UNL     1       2.022  -6.893   4.529  1.00  0.00     0.118 C 
BRANCH   2   3
ATOM      3  N   UNL     1       1.025  -6.527   3.537  1.00  0.00    -0.351 N 
ATOM      4  C   UNL     1      -0.099  -5.766   3.590  1.00  0.00     0.278 C 
ATOM      5  O   UNL     1      -0.774  -5.727   2.550  1.00  0.00    -0.268 OA
ATOM      6  H   UNL     1       1.200  -6.908   2.646  1.00  0.00     0.163 HD
BRANCH   4   7
ATOM      7  C   UNL     1      -0.545  -4.928   4.797  1.00  0.00     0.280 C 
ATOM      8  C   UNL     1      -0.348  -3.398   4.663  1.00  0.00     0.093 C 
ATOM      9  C   UNL     1       0.039  -2.983   6.087  1.00  0.00     0.076 C 
ATOM     10  C   UNL     1       0.715  -4.208   6.666  1.00  0.00     0.262 C 
ATOM     11  N   UNL     1      -0.026  -5.354   6.127  1.00  0.00    -0.335 N 
ATOM     12  H   UNL     1      -0.800  -5.597   6.746  1.00  0.00     0.346 HD
ATOM     13  H   UNL     1       0.571  -6.176   6.045  1.00  0.00     0.346 HD
BRANCH   8  14
ATOM     14  C   UNL     1       0.638  -2.841   3.647  1.00  0.00    -0.031 A 
ATOM     15  C   UNL     1       1.230  -1.136   1.991  1.00  0.00     0.164 A 
ATOM     16  C   UNL     1       0.300  -1.724   2.871  1.00  0.00     0.055 A 
ATOM     17  C   UNL     1       2.535  -1.648   1.860  1.00  0.00     0.203 A 
ATOM     18  C   UNL     1       2.873  -2.779   2.627  1.00  0.00     0.164 A 
ATOM     19  C   UNL     1       1.933  -3.342   3.507  1.00  0.00     0.055 A 
BRANCH  15  20
ATOM     20  O   UNL     1       0.860   0.046   1.398  1.00  0.00    -0.493 OA
ATOM     21  C   UNL     1      -0.007  -0.156   0.282  1.00  0.00     0.278 C 
ENDBRANCH  15  20
BRANCH  17  22
ATOM     22  O   UNL     1       3.532  -1.119   1.089  1.00  0.00    -0.490 OA
ATOM     23  C   UNL     1       3.245  -0.167   0.082  1.00  0.00     0.278 C 
ENDBRANCH  17  22
BRANCH  18  24
ATOM     24  O   UNL     1       4.059  -3.473   2.667  1.00  0.00    -0.493 OA
ATOM     25  C   UNL     1       5.192  -2.950   1.995  1.00  0.00     0.278 C 
ENDBRANCH  18  24
ENDBRANCH   8  14
ENDBRANCH   4   7
ENDBRANCH   2   3
ENDBRANCH   1   2
BRANCH   1  26
ATOM     26  C   UNL     1       2.427  -9.264   3.711  1.00  0.00     0.118 C 
BRANCH  26  27
ATOM     27  N   UNL     1       3.848  -9.099   3.423  1.00  0.00    -0.352 N 
ATOM     28  C   UNL     1       4.863 -10.019   3.446  1.00  0.00     0.251 C 
ATOM     29  H   UNL     1       4.119  -8.186   3.174  1.00  0.00     0.163 HD
ATOM     30  O   UNL     1       6.034  -9.646   3.369  1.00  0.00    -0.269 OA
BRANCH  28  31
ATOM     31  C   UNL     1       4.562 -11.458   3.579  1.00  0.00     0.039 A 
ATOM     32  C   UNL     1       5.357 -12.242   4.419  1.00  0.00     0.014 A 
ATOM     33  C   UNL     1       3.509 -12.039   2.868  1.00  0.00     0.014 A 
ATOM     34  C   UNL     1       5.052 -13.592   4.599  1.00  0.00     0.010 A 
ATOM     35  C   UNL     1       3.153 -13.361   3.115  1.00  0.00     0.010 A 
ATOM     36  C   UNL     1       3.923 -14.152   3.979  1.00  0.00    -0.014 A 
BRANCH  36  37
ATOM     37  C   UNL     1       3.529 -15.562   4.224  1.00  0.00     0.031 A 
ATOM     38  C   UNL     1       3.509 -16.549   3.090  1.00  0.00     0.074 A 
ATOM     39  C   UNL     1       3.121 -15.934   5.453  1.00  0.00     0.049 A 
ATOM     40  N   UNL     1       3.123 -17.800   3.087  1.00  0.00    -0.248 NA
ATOM     41  C   UNL     1       3.955 -16.057   1.777  1.00  0.00     0.031 C 
ATOM     42  C   UNL     1       3.049 -15.055   6.621  1.00  0.00     0.029 A 
ATOM     43  N   UNL     1       2.680 -17.146   5.922  1.00  0.00    -0.354 N 
ATOM     44  C   UNL     1       3.265 -18.236   1.776  1.00  0.00     0.074 A 
ATOM     45  C   UNL     1       3.717 -17.103   1.000  1.00  0.00     0.031 C 
ATOM     46  C   UNL     1       2.614 -15.761   7.677  1.00  0.00     0.029 A 
ATOM     47  C   UNL     1       2.336 -17.130   7.252  1.00  0.00     0.049 A 
ATOM     48  H   UNL     1       2.616 -17.951   5.359  1.00  0.00     0.167 HD
ATOM     49  C   UNL     1       3.060 -19.476   1.272  1.00  0.00     0.037 A 
ATOM     50  C   UNL     1       1.843 -18.106   8.037  1.00  0.00     0.037 A 
ATOM     51  C   UNL     1       2.631 -20.605   2.055  1.00  0.00     0.049 A 
ATOM     52  C   UNL     1       1.615 -19.472   7.448  1.00  0.00     0.074 A 
ATOM     53  C   UNL     1       2.452 -21.917   1.652  1.00  0.00     0.029 A 
ATOM     54  N   UNL     1       2.309 -20.554   3.404  1.00  0.00    -0.354 N 
ATOM     55  N   UNL     1       1.821 -19.892   6.224  1.00  0.00    -0.248 NA
ATOM     56  C   UNL     1       1.091 -20.503   8.355  1.00  0.00     0.031 C 
ATOM     57  C   UNL     1       1.971 -22.648   2.743  1.00  0.00     0.029 A 
ATOM     58  C   UNL     1       1.907 -21.806   3.842  1.00  0.00     0.049 A 
ATOM     59  H   UNL     1       2.358 -19.748   3.966  1.00  0.00     0.167 HD
ATOM     60  C   UNL     1       1.483 -21.238   6.219  1.00  0.00     0.074 A 
ATOM     61  C   UNL     1       1.072 -21.569   7.568  1.00  0.00     0.031 C 
ATOM     62  C   UNL     1       1.510 -22.121   5.191  1.00  0.00     0.037 A 
BRANCH  49  63
ATOM     63  C   UNL     1       3.300 -19.678  -0.197  1.00  0.00     0.064 A 
ATOM     64  C   UNL     1       4.590 -19.623  -0.748  1.00  0.00     0.173 A 
ATOM     65  C   UNL     1       2.232 -19.967  -1.061  1.00  0.00     0.173 A 
ATOM     66  F   UNL     1       5.645 -19.340   0.031  1.00  0.00    -0.203 F 
ATOM     67  C   UNL     1       4.798 -19.817  -2.111  1.00  0.00     0.198 A 
ATOM     68  C   UNL     1       2.448 -20.194  -2.418  1.00  0.00     0.198 A 
ATOM     69  F   UNL     1       0.979 -20.038  -0.587  1.00  0.00    -0.203 F 
ATOM     70  F   UNL     1       6.032 -19.707  -2.621  1.00  0.00    -0.200 F 
ATOM     71  C   UNL     1       3.728 -20.110  -2.943  1.00  0.00     0.200 A 
ATOM     72  F   UNL     1       1.415 -20.492  -3.218  1.00  0.00    -0.200 F 
ATOM     73  F   UNL     1       3.930 -20.306  -4.253  1.00  0.00    -0.200 F 
ENDBRANCH  49  63
BRANCH  50  74
ATOM     74  C   UNL     1       1.553 -17.833   9.469  1.00  0.00     0.064 A 
ATOM     75  C   UNL     1       2.320 -18.423  10.483  1.00  0.00     0.173 A 
ATOM     76  C   UNL     1       0.504 -16.986   9.854  1.00  0.00     0.173 A 
ATOM     77  F   UNL     1       3.322 -19.257  10.166  1.00  0.00    -0.203 F 
ATOM     78  C   UNL     1       2.035 -18.194  11.828  1.00  0.00     0.198 A 
ATOM     79  C   UNL     1       0.240 -16.733  11.199  1.00  0.00     0.198 A 
ATOM     80  F   UNL     1      -0.257 -16.392   8.924  1.00  0.00    -0.203 F 
ATOM     81  F   UNL     1       2.753 -18.810  12.777  1.00  0.00    -0.200 F 
ATOM     82  C   UNL     1       0.999 -17.345  12.185  1.00  0.00     0.200 A 
ATOM     83  F   UNL     1      -0.752 -15.899  11.539  1.00  0.00    -0.200 F 
ATOM     84  F   UNL     1       0.727 -17.122  13.478  1.00  0.00    -0.200 F 
ENDBRANCH  50  74
BRANCH  62  85
ATOM     85  C   UNL     1       1.122 -23.541   5.491  1.00  0.00     0.064 A 
ATOM     86  C   UNL     1      -0.204 -23.901   5.769  1.00  0.00     0.173 A 
ATOM     87  C   UNL     1       2.087 -24.559   5.461  1.00  0.00     0.173 A 
ATOM     88  F   UNL     1      -1.162 -22.963   5.825  1.00  0.00    -0.203 F 
ATOM     89  C   UNL     1      -0.545 -25.225   6.034  1.00  0.00     0.198 A 
ATOM     90  C   UNL     1       1.737 -25.886   5.692  1.00  0.00     0.198 A 
ATOM     91  F   UNL     1       3.369 -24.269   5.192  1.00  0.00    -0.203 F 
ATOM     92  F   UNL     1      -1.809 -25.539   6.348  1.00  0.00    -0.200 F 
ATOM     93  C   UNL     1       0.424 -26.217   5.987  1.00  0.00     0.200 A 
ATOM     94  F   UNL     1       2.672 -26.845   5.630  1.00  0.00    -0.200 F 
ATOM     95  F   UNL     1       0.092 -27.492   6.233  1.00  0.00    -0.200 F 
ENDBRANCH  62  85
ENDBRANCH  36  37
ENDBRANCH  28  31
ENDBRANCH  26  27
ENDBRANCH   1  26
TORSDOF 14
