REMARK SMILES CC[N@@H+]1CCC[C@@H]1C[N@@H+](C)C[C@H]([NH3+])C(=O)NCCCNC(=O)c1ccc(-c2c3nc(c(-c4c(F)c(F)c(F)c(F)c4F)c4ccc([nH]4)c(-c4c(F)c(F)c(F)c(F)c4F)c4nc(c(-c5c(F)c(F)c(F)c(F)c5F)c5ccc2[nH]5)C=C4)C=C3)cc1
REMARK SMILES IDX 14 1 15 2 16 3 12 5 11 6 9 7 10 8 8 10 7 11 3 12 4 13 5 15
REMARK SMILES IDX 6 16 2 17 1 18 13 19 17 23 18 24 19 25 20 26 21 27 22 29
REMARK SMILES IDX 23 30 24 31 85 32 25 33 84 34 26 35 27 36 28 37 78 38 29 39
REMARK SMILES IDX 83 40 77 41 79 42 30 43 82 44 76 45 75 46 31 48 63 49 43 50
REMARK SMILES IDX 62 51 44 52 47 53 61 54 80 55 45 56 46 57 60 59 81 60 48 61
REMARK SMILES IDX 32 62 33 63 41 64 34 65 35 66 39 67 42 68 36 69 37 70 40 71
REMARK SMILES IDX 38 72 64 73 65 74 73 75 66 76 67 77 71 78 74 79 68 80 69 81
REMARK SMILES IDX 72 82 70 83 49 84 50 85 58 86 51 87 52 88 56 89 59 90 53 91
REMARK SMILES IDX 54 92 57 93 55 94
REMARK H PARENT 16 4 9 9 3 14 13 20 13 21 13 22 20 28 79 47 47 58
REMARK Flexibility Score: inf
ROOT
ATOM      1  C   UNL     1       2.218  -3.729   2.971  1.00  0.00     0.284 C 
ATOM      2  O   UNL     1       2.029  -3.726   4.194  1.00  0.00    -0.268 OA
ATOM      3  N   UNL     1       2.243  -4.958   2.361  1.00  0.00    -0.351 N 
ATOM      4  H   UNL     1       2.266  -5.743   2.954  1.00  0.00     0.163 HD
ENDROOT
BRANCH   1   5
ATOM      5  C   UNL     1       2.435  -2.381   2.217  1.00  0.00     0.326 C 
BRANCH   5   6
ATOM      6  C   UNL     1       1.212  -1.642   1.571  1.00  0.00     0.338 C 
BRANCH   6   7
ATOM      7  N   UNL     1       0.354  -2.126   0.463  1.00  0.00    -0.327 N 
ATOM      8  C   UNL     1      -0.684  -3.006   1.016  1.00  0.00     0.333 C 
ATOM      9  H   UNL     1      -0.041  -1.274   0.064  1.00  0.00     0.348 HD
BRANCH   7  10
ATOM     10  C   UNL     1       0.991  -2.692  -0.737  1.00  0.00     0.327 C 
BRANCH  10  11
ATOM     11  C   UNL     1       1.533  -1.816  -1.905  1.00  0.00     0.239 C 
ATOM     12  N   UNL     1       2.289  -2.520  -2.985  1.00  0.00    -0.328 N 
ATOM     13  C   UNL     1       3.238  -1.560  -3.549  1.00  0.00     0.262 C 
ATOM     14  H   UNL     1       1.571  -2.816  -3.647  1.00  0.00     0.348 HD
ATOM     15  C   UNL     1       3.647  -0.700  -2.374  1.00  0.00     0.068 C 
ATOM     16  C   UNL     1       2.385  -0.598  -1.538  1.00  0.00     0.077 C 
BRANCH  12  17
ATOM     17  C   UNL     1       2.858  -3.853  -2.761  1.00  0.00     0.259 C 
ATOM     18  C   UNL     1       4.170  -3.959  -1.984  1.00  0.00     0.071 C 
ENDBRANCH  12  17
ENDBRANCH  10  11
ENDBRANCH   7  10
ENDBRANCH   6   7
ENDBRANCH   5   6
BRANCH   5  19
ATOM     19  N   UNL     1       3.679  -2.385   1.411  1.00  0.00    -0.343 N 
ATOM     20  H   UNL     1       3.574  -3.029   0.627  1.00  0.00     0.345 HD
ATOM     21  H   UNL     1       4.461  -2.684   1.994  1.00  0.00     0.345 HD
ATOM     22  H   UNL     1       3.858  -1.445   1.058  1.00  0.00     0.345 HD
ENDBRANCH   5  19
ENDBRANCH   1   5
BRANCH   3  23
ATOM     23  C   UNL     1       2.239  -5.224   0.946  1.00  0.00     0.118 C 
BRANCH  23  24
ATOM     24  C   UNL     1       2.803  -6.545   0.458  1.00  0.00     0.042 C 
BRANCH  24  25
ATOM     25  C   UNL     1       1.891  -7.731   0.714  1.00  0.00     0.118 C 
BRANCH  25  26
ATOM     26  N   UNL     1       0.761  -7.820  -0.208  1.00  0.00    -0.352 N 
ATOM     27  C   UNL     1       0.548  -8.408  -1.437  1.00  0.00     0.251 C 
ATOM     28  H   UNL     1      -0.036  -7.349   0.127  1.00  0.00     0.163 HD
ATOM     29  O   UNL     1      -0.542  -8.230  -1.969  1.00  0.00    -0.269 OA
BRANCH  27  30
ATOM     30  C   UNL     1       1.578  -9.197  -2.170  1.00  0.00     0.039 A 
ATOM     31  C   UNL     1       1.484  -9.282  -3.569  1.00  0.00     0.014 A 
ATOM     32  C   UNL     1       2.603  -9.893  -1.542  1.00  0.00     0.014 A 
ATOM     33  C   UNL     1       2.443  -9.986  -4.312  1.00  0.00     0.010 A 
ATOM     34  C   UNL     1       3.630 -10.474  -2.282  1.00  0.00     0.010 A 
ATOM     35  C   UNL     1       3.562 -10.544  -3.678  1.00  0.00    -0.014 A 
BRANCH  35  36
ATOM     36  C   UNL     1       4.662 -11.216  -4.427  1.00  0.00     0.031 A 
ATOM     37  C   UNL     1       5.072 -12.626  -4.080  1.00  0.00     0.074 A 
ATOM     38  C   UNL     1       5.375 -10.524  -5.339  1.00  0.00     0.049 A 
ATOM     39  N   UNL     1       6.103 -13.322  -4.496  1.00  0.00    -0.248 NA
ATOM     40  C   UNL     1       4.238 -13.332  -3.095  1.00  0.00     0.031 C 
ATOM     41  C   UNL     1       5.135  -9.133  -5.721  1.00  0.00     0.029 A 
ATOM     42  N   UNL     1       6.464 -10.891  -6.092  1.00  0.00    -0.354 N 
ATOM     43  C   UNL     1       6.057 -14.522  -3.797  1.00  0.00     0.074 A 
ATOM     44  C   UNL     1       4.944 -14.431  -2.879  1.00  0.00     0.031 C 
ATOM     45  C   UNL     1       6.032  -8.769  -6.650  1.00  0.00     0.029 A 
ATOM     46  C   UNL     1       6.944  -9.883  -6.891  1.00  0.00     0.049 A 
ATOM     47  H   UNL     1       6.862 -11.791  -6.062  1.00  0.00     0.167 HD
ATOM     48  C   UNL     1       6.848 -15.616  -3.929  1.00  0.00     0.037 A 
ATOM     49  C   UNL     1       8.011  -9.847  -7.713  1.00  0.00     0.037 A 
ATOM     50  C   UNL     1       7.931 -15.718  -4.872  1.00  0.00     0.049 A 
ATOM     51  C   UNL     1       8.868 -11.074  -7.860  1.00  0.00     0.074 A 
ATOM     52  C   UNL     1       8.741 -16.806  -5.144  1.00  0.00     0.029 A 
ATOM     53  N   UNL     1       8.357 -14.687  -5.699  1.00  0.00    -0.354 N 
ATOM     54  N   UNL     1       8.768 -12.229  -7.250  1.00  0.00    -0.248 NA
ATOM     55  C   UNL     1       9.981 -10.994  -8.816  1.00  0.00     0.031 C 
ATOM     56  C   UNL     1       9.691 -16.418  -6.095  1.00  0.00     0.029 A 
ATOM     57  C   UNL     1       9.437 -15.106  -6.460  1.00  0.00     0.049 A 
ATOM     58  H   UNL     1       7.952 -13.791  -5.738  1.00  0.00     0.167 HD
ATOM     59  C   UNL     1       9.792 -13.019  -7.756  1.00  0.00     0.074 A 
ATOM     60  C   UNL     1      10.488 -12.217  -8.741  1.00  0.00     0.031 C 
ATOM     61  C   UNL     1      10.126 -14.293  -7.431  1.00  0.00     0.037 A 
BRANCH  48  62
ATOM     62  C   UNL     1       6.563 -16.790  -3.030  1.00  0.00     0.064 A 
ATOM     63  C   UNL     1       5.371 -17.527  -3.131  1.00  0.00     0.173 A 
ATOM     64  C   UNL     1       7.492 -17.186  -2.056  1.00  0.00     0.173 A 
ATOM     65  F   UNL     1       4.443 -17.190  -4.040  1.00  0.00    -0.203 F 
ATOM     66  C   UNL     1       5.097 -18.575  -2.256  1.00  0.00     0.198 A 
ATOM     67  C   UNL     1       7.232 -18.261  -1.209  1.00  0.00     0.198 A 
ATOM     68  F   UNL     1       8.653 -16.528  -1.920  1.00  0.00    -0.203 F 
ATOM     69  F   UNL     1       3.918 -19.210  -2.323  1.00  0.00    -0.200 F 
ATOM     70  C   UNL     1       6.029 -18.945  -1.299  1.00  0.00     0.200 A 
ATOM     71  F   UNL     1       8.141 -18.629  -0.296  1.00  0.00    -0.200 F 
ATOM     72  F   UNL     1       5.763 -19.952  -0.456  1.00  0.00    -0.200 F 
ENDBRANCH  48  62
BRANCH  49  73
ATOM     73  C   UNL     1       8.310  -8.602  -8.469  1.00  0.00     0.064 A 
ATOM     74  C   UNL     1       8.115  -8.535  -9.855  1.00  0.00     0.173 A 
ATOM     75  C   UNL     1       8.759  -7.444  -7.816  1.00  0.00     0.173 A 
ATOM     76  F   UNL     1       7.705  -9.621 -10.526  1.00  0.00    -0.203 F 
ATOM     77  C   UNL     1       8.368  -7.361 -10.562  1.00  0.00     0.198 A 
ATOM     78  C   UNL     1       8.983  -6.262  -8.520  1.00  0.00     0.198 A 
ATOM     79  F   UNL     1       8.954  -7.452  -6.489  1.00  0.00    -0.203 F 
ATOM     80  F   UNL     1       8.206  -7.334 -11.892  1.00  0.00    -0.200 F 
ATOM     81  C   UNL     1       8.792  -6.222  -9.892  1.00  0.00     0.200 A 
ATOM     82  F   UNL     1       9.374  -5.159  -7.866  1.00  0.00    -0.200 F 
ATOM     83  F   UNL     1       9.018  -5.089 -10.570  1.00  0.00    -0.200 F 
ENDBRANCH  49  73
BRANCH  61  84
ATOM     84  C   UNL     1      11.288 -14.907  -8.159  1.00  0.00     0.064 A 
ATOM     85  C   UNL     1      12.607 -14.496  -7.917  1.00  0.00     0.173 A 
ATOM     86  C   UNL     1      11.082 -15.950  -9.075  1.00  0.00     0.173 A 
ATOM     87  F   UNL     1      12.856 -13.493  -7.062  1.00  0.00    -0.203 F 
ATOM     88  C   UNL     1      13.675 -15.091  -8.584  1.00  0.00     0.198 A 
ATOM     89  C   UNL     1      12.155 -16.564  -9.716  1.00  0.00     0.198 A 
ATOM     90  F   UNL     1       9.841 -16.385  -9.338  1.00  0.00    -0.203 F 
ATOM     91  F   UNL     1      14.923 -14.650  -8.373  1.00  0.00    -0.200 F 
ATOM     92  C   UNL     1      13.450 -16.129  -9.476  1.00  0.00     0.200 A 
ATOM     93  F   UNL     1      11.936 -17.577 -10.565  1.00  0.00    -0.200 F 
ATOM     94  F   UNL     1      14.480 -16.707 -10.108  1.00  0.00    -0.200 F 
ENDBRANCH  61  84
ENDBRANCH  35  36
ENDBRANCH  27  30
ENDBRANCH  25  26
ENDBRANCH  24  25
ENDBRANCH  23  24
ENDBRANCH   3  23
TORSDOF 16
