REMARK SMILES O=C(NCCCNC(=O)c1nnn(-c2ccccc2C(F)(F)F)c1-c1cccc(Cl)c1)c1ccc(-c2c3nc(c(-c4c(F)c(F)c(F)c(F)c4F)c4ccc([nH]4)c(-c4c(F)c(F)c(F)c(F)c4F)c4nc(c(-c5c(F)c(F)c(F)c(F)c5F)c5ccc2[nH]5)C=C4)C=C3)cc1
REMARK SMILES IDX 5 1 4 2 3 3 1 4 2 5 32 7 33 8 94 9 34 10 93 11 35 12 36 13
REMARK SMILES IDX 37 14 87 15 38 16 92 17 86 18 88 19 39 20 91 21 85 22 84 23
REMARK SMILES IDX 40 25 72 26 52 27 71 28 53 29 56 30 70 31 89 32 54 33 55 34
REMARK SMILES IDX 69 36 90 37 57 38 41 39 42 40 50 41 43 42 44 43 48 44 51 45
REMARK SMILES IDX 45 46 46 47 49 48 47 49 73 50 74 51 82 52 75 53 76 54 80 55
REMARK SMILES IDX 83 56 77 57 78 58 81 59 79 60 58 61 59 62 67 63 60 64 61 65
REMARK SMILES IDX 65 66 68 67 62 68 63 69 66 70 64 71 6 72 7 73 8 74 9 76
REMARK SMILES IDX 10 77 11 78 24 79 12 80 13 81 25 82 26 83 31 84 27 85 29 86
REMARK SMILES IDX 28 87 30 88 14 89 15 90 19 91 16 92 18 93 17 94 20 95 21 96
REMARK SMILES IDX 22 97 23 98
REMARK H PARENT 3 6 88 24 56 35 7 75
REMARK Flexibility Score: inf
ROOT
ATOM      1  C   UNL     1       5.119   1.512   1.339  1.00  0.00     0.042 C 
ENDROOT
BRANCH   1   2
ATOM      2  C   UNL     1       4.618   0.173   0.809  1.00  0.00     0.118 C 
BRANCH   2   3
ATOM      3  N   UNL     1       3.179   0.001   0.832  1.00  0.00    -0.352 N 
ATOM      4  O   UNL     1       1.073  -0.273   0.263  1.00  0.00    -0.269 OA
ATOM      5  C   UNL     1       2.147   0.263  -0.025  1.00  0.00     0.251 C 
ATOM      6  H   UNL     1       2.868  -0.406   1.673  1.00  0.00     0.163 HD
BRANCH   5   7
ATOM      7  C   UNL     1       2.184   1.171  -1.208  1.00  0.00     0.039 A 
ATOM      8  C   UNL     1       3.305   1.819  -1.722  1.00  0.00     0.014 A 
ATOM      9  C   UNL     1       0.936   1.420  -1.820  1.00  0.00     0.014 A 
ATOM     10  C   UNL     1       3.168   2.739  -2.769  1.00  0.00     0.010 A 
ATOM     11  C   UNL     1       0.794   2.332  -2.865  1.00  0.00     0.010 A 
ATOM     12  C   UNL     1       1.909   3.017  -3.327  1.00  0.00    -0.014 A 
BRANCH  12  13
ATOM     13  C   UNL     1       1.837   3.861  -4.526  1.00  0.00     0.031 A 
ATOM     14  C   UNL     1       2.513   3.269  -5.715  1.00  0.00     0.074 A 
ATOM     15  C   UNL     1       1.121   4.998  -4.664  1.00  0.00     0.049 A 
ATOM     16  N   UNL     1       3.548   3.724  -6.343  1.00  0.00    -0.248 NA
ATOM     17  C   UNL     1       2.045   1.964  -6.202  1.00  0.00     0.031 C 
ATOM     18  C   UNL     1       0.146   5.570  -3.736  1.00  0.00     0.029 A 
ATOM     19  N   UNL     1       1.061   5.856  -5.733  1.00  0.00    -0.354 N 
ATOM     20  C   UNL     1       3.768   2.854  -7.410  1.00  0.00     0.074 A 
ATOM     21  C   UNL     1       2.905   1.723  -7.193  1.00  0.00     0.031 C 
ATOM     22  C   UNL     1      -0.547   6.554  -4.358  1.00  0.00     0.029 A 
ATOM     23  C   UNL     1       0.018   6.777  -5.679  1.00  0.00     0.049 A 
ATOM     24  H   UNL     1       1.704   5.822  -6.478  1.00  0.00     0.167 HD
ATOM     25  C   UNL     1       4.491   3.246  -8.496  1.00  0.00     0.037 A 
ATOM     26  C   UNL     1      -0.375   7.634  -6.659  1.00  0.00     0.037 A 
ATOM     27  C   UNL     1       5.297   4.401  -8.188  1.00  0.00     0.049 A 
ATOM     28  C   UNL     1       0.751   7.787  -7.608  1.00  0.00     0.074 A 
ATOM     29  C   UNL     1       6.301   4.683  -7.282  1.00  0.00     0.029 A 
ATOM     30  N   UNL     1       4.875   5.618  -8.658  1.00  0.00    -0.354 N 
ATOM     31  N   UNL     1       1.853   8.425  -7.343  1.00  0.00    -0.248 NA
ATOM     32  C   UNL     1       0.804   6.891  -8.752  1.00  0.00     0.031 C 
ATOM     33  C   UNL     1       6.085   6.041  -6.900  1.00  0.00     0.029 A 
ATOM     34  C   UNL     1       5.006   6.522  -7.640  1.00  0.00     0.049 A 
ATOM     35  H   UNL     1       4.538   5.807  -9.563  1.00  0.00     0.167 HD
ATOM     36  C   UNL     1       2.837   7.676  -7.963  1.00  0.00     0.074 A 
ATOM     37  C   UNL     1       2.127   6.822  -8.910  1.00  0.00     0.031 C 
ATOM     38  C   UNL     1       4.097   7.623  -7.443  1.00  0.00     0.037 A 
BRANCH  25  39
ATOM     39  C   UNL     1       4.176   2.858  -9.927  1.00  0.00     0.064 A 
ATOM     40  C   UNL     1       5.014   3.336 -10.959  1.00  0.00     0.173 A 
ATOM     41  C   UNL     1       2.933   2.345 -10.353  1.00  0.00     0.173 A 
ATOM     42  F   UNL     1       6.224   3.846 -10.679  1.00  0.00    -0.203 F 
ATOM     43  C   UNL     1       4.587   3.413 -12.287  1.00  0.00     0.198 A 
ATOM     44  C   UNL     1       2.531   2.374 -11.689  1.00  0.00     0.198 A 
ATOM     45  F   UNL     1       2.009   1.899  -9.496  1.00  0.00    -0.203 F 
ATOM     46  F   UNL     1       5.358   4.020 -13.199  1.00  0.00    -0.200 F 
ATOM     47  C   UNL     1       3.339   2.945 -12.649  1.00  0.00     0.200 A 
ATOM     48  F   UNL     1       1.311   1.925 -12.018  1.00  0.00    -0.200 F 
ATOM     49  F   UNL     1       2.894   3.088 -13.903  1.00  0.00    -0.200 F 
ENDBRANCH  25  39
BRANCH  26  50
ATOM     50  C   UNL     1      -1.722   8.164  -6.996  1.00  0.00     0.064 A 
ATOM     51  C   UNL     1      -1.877   9.269  -7.856  1.00  0.00     0.173 A 
ATOM     52  C   UNL     1      -2.879   7.408  -6.741  1.00  0.00     0.173 A 
ATOM     53  F   UNL     1      -0.819  10.024  -8.187  1.00  0.00    -0.203 F 
ATOM     54  C   UNL     1      -3.105   9.570  -8.455  1.00  0.00     0.198 A 
ATOM     55  C   UNL     1      -4.106   7.713  -7.335  1.00  0.00     0.198 A 
ATOM     56  F   UNL     1      -2.819   6.297  -5.993  1.00  0.00    -0.203 F 
ATOM     57  F   UNL     1      -3.195  10.585  -9.327  1.00  0.00    -0.200 F 
ATOM     58  C   UNL     1      -4.215   8.783  -8.206  1.00  0.00     0.200 A 
ATOM     59  F   UNL     1      -5.165   6.921  -7.115  1.00  0.00    -0.200 F 
ATOM     60  F   UNL     1      -5.374   9.025  -8.834  1.00  0.00    -0.200 F 
ENDBRANCH  26  50
BRANCH  38  61
ATOM     61  C   UNL     1       4.482   8.659  -6.427  1.00  0.00     0.064 A 
ATOM     62  C   UNL     1       3.838   8.849  -5.192  1.00  0.00     0.173 A 
ATOM     63  C   UNL     1       5.630   9.423  -6.682  1.00  0.00     0.173 A 
ATOM     64  F   UNL     1       2.798   8.088  -4.825  1.00  0.00    -0.203 F 
ATOM     65  C   UNL     1       4.295   9.803  -4.283  1.00  0.00     0.198 A 
ATOM     66  C   UNL     1       6.108  10.342  -5.755  1.00  0.00     0.198 A 
ATOM     67  F   UNL     1       6.315   9.248  -7.823  1.00  0.00    -0.203 F 
ATOM     68  F   UNL     1       3.651   9.986  -3.120  1.00  0.00    -0.200 F 
ATOM     69  C   UNL     1       5.432  10.543  -4.563  1.00  0.00     0.200 A 
ATOM     70  F   UNL     1       7.237  11.017  -6.008  1.00  0.00    -0.200 F 
ATOM     71  F   UNL     1       5.893  11.431  -3.671  1.00  0.00    -0.200 F 
ENDBRANCH  38  61
ENDBRANCH  12  13
ENDBRANCH   5   7
ENDBRANCH   2   3
ENDBRANCH   1   2
BRANCH   1  72
ATOM     72  C   UNL     1       4.670   1.875   2.751  1.00  0.00     0.118 C 
BRANCH  72  73
ATOM     73  N   UNL     1       5.280   1.073   3.796  1.00  0.00    -0.351 N 
ATOM     74  C   UNL     1       5.969   1.482   4.916  1.00  0.00     0.274 C 
ATOM     75  H   UNL     1       5.188   0.099   3.688  1.00  0.00     0.163 HD
ATOM     76  O   UNL     1       6.463   0.612   5.640  1.00  0.00    -0.267 OA
BRANCH  74  77
ATOM     77  C   UNL     1       6.113   2.899   5.215  1.00  0.00     0.178 A 
ATOM     78  N   UNL     1       7.350   3.478   5.364  1.00  0.00    -0.124 NA
ATOM     79  C   UNL     1       5.132   3.875   5.366  1.00  0.00     0.108 A 
ATOM     80  N   UNL     1       7.184   4.781   5.533  1.00  0.00    -0.061 NA
ATOM     81  N   UNL     1       5.863   5.018   5.680  1.00  0.00    -0.211 N 
BRANCH  79  82
ATOM     82  C   UNL     1       3.688   3.836   5.154  1.00  0.00     0.004 A 
ATOM     83  C   UNL     1       3.102   4.663   4.179  1.00  0.00     0.010 A 
ATOM     84  C   UNL     1       2.877   2.968   5.890  1.00  0.00     0.031 A 
ATOM     85  C   UNL     1       1.727   4.641   3.959  1.00  0.00     0.002 A 
ATOM     86  C   UNL     1       1.499   2.963   5.677  1.00  0.00     0.041 A 
ATOM     87  C   UNL     1       0.922   3.794   4.716  1.00  0.00     0.020 A 
ATOM     88  Cl  UNL     1       0.496   1.930   6.618  1.00  0.00    -0.084 Cl
ENDBRANCH  79  82
BRANCH  81  89
ATOM     89  C   UNL     1       5.372   6.331   5.888  1.00  0.00     0.079 A 
ATOM     90  C   UNL     1       5.864   7.336   5.037  1.00  0.00     0.029 A 
ATOM     91  C   UNL     1       4.344   6.614   6.810  1.00  0.00     0.081 A 
ATOM     92  C   UNL     1       5.260   8.592   5.021  1.00  0.00     0.002 A 
ATOM     93  C   UNL     1       3.745   7.888   6.763  1.00  0.00     0.015 A 
ATOM     94  C   UNL     1       4.186   8.860   5.865  1.00  0.00     0.001 A 
BRANCH  91  95
ATOM     95  C   UNL     1       3.900   5.684   7.918  1.00  0.00     0.418 C 
ATOM     96  F   UNL     1       3.947   6.292   9.139  1.00  0.00    -0.166 F 
ATOM     97  F   UNL     1       2.612   5.275   7.768  1.00  0.00    -0.166 F 
ATOM     98  F   UNL     1       4.647   4.557   8.054  1.00  0.00    -0.166 F 
ENDBRANCH  91  95
ENDBRANCH  81  89
ENDBRANCH  74  77
ENDBRANCH  72  73
ENDBRANCH   1  72
TORSDOF 13
