REMARK SMILES CC[NH2+][C@@]1(C(=O)NCCCNC(=O)c2ccc(-c3c4nc(c(-c5c(F)c(F)c(F)c(F)c5F)c5ccc([nH]5)c(-c5c(F)c(F)c(F)c(F)c5F)c5nc(c(-c6c(F)c(F)c(F)c(F)c6F)c6ccc3[nH]6)C=C5)C=C4)cc2)CCC[C@@H]([N@@H+](C)[C@@H](C)C2CC2)C1
REMARK SMILES IDX 8 1 7 2 5 3 6 4 4 6 77 7 88 8 78 9 80 10 79 11 3 12 2 15
REMARK SMILES IDX 1 16 81 17 82 18 83 20 84 21 85 22 86 23 87 24 9 25 10 26
REMARK SMILES IDX 11 27 12 28 13 30 14 31 15 32 76 33 16 34 75 35 17 36 18 37
REMARK SMILES IDX 19 38 69 39 20 40 74 41 68 42 70 43 21 44 73 45 67 46 66 47
REMARK SMILES IDX 22 49 54 50 34 51 53 52 35 53 38 54 52 55 71 56 36 57 37 58
REMARK SMILES IDX 51 60 72 61 39 62 23 63 24 64 32 65 25 66 26 67 30 68 33 69
REMARK SMILES IDX 27 70 28 71 31 72 29 73 55 74 56 75 64 76 57 77 58 78 62 79
REMARK SMILES IDX 65 80 59 81 60 82 63 83 61 84 40 85 41 86 49 87 42 88 43 89
REMARK SMILES IDX 47 90 50 91 44 92 45 93 48 94 46 95
REMARK H PARENT 7 5 3 13 3 14 81 19 11 29 70 48 38 59
REMARK Flexibility Score: inf
ROOT
ATOM      1  C   UNL     1      -1.786   2.965   5.403  1.00  0.00     0.118 C 
ENDROOT
BRANCH   1   2
ATOM      2  N   UNL     1      -2.082   2.372   4.127  1.00  0.00    -0.351 N 
ATOM      3  C   UNL     1      -1.326   2.059   3.046  1.00  0.00     0.281 C 
ATOM      4  O   UNL     1      -2.017   1.689   2.084  1.00  0.00    -0.268 OA
ATOM      5  H   UNL     1      -3.034   2.145   4.016  1.00  0.00     0.163 HD
BRANCH   3   6
ATOM      6  C   UNL     1       0.264   2.178   2.964  1.00  0.00     0.181 C 
ATOM      7  C   UNL     1       1.060   1.387   4.030  1.00  0.00     0.079 C 
ATOM      8  C   UNL     1       0.670   3.672   2.856  1.00  0.00     0.144 C 
ATOM      9  C   UNL     1       1.618   2.125   5.243  1.00  0.00     0.013 C 
ATOM     10  C   UNL     1       1.211   4.382   4.109  1.00  0.00     0.190 C 
ATOM     11  C   UNL     1       2.167   3.508   4.920  1.00  0.00     0.065 C 
BRANCH   6  12
ATOM     12  N   UNL     1       0.667   1.614   1.612  1.00  0.00    -0.334 N 
ATOM     13  H   UNL     1       0.142   2.122   0.900  1.00  0.00     0.347 HD
ATOM     14  H   UNL     1       1.679   1.730   1.573  1.00  0.00     0.347 HD
BRANCH  12  15
ATOM     15  C   UNL     1       0.445   0.186   1.384  1.00  0.00     0.257 C 
ATOM     16  C   UNL     1       1.000  -0.177   0.011  1.00  0.00     0.071 C 
ENDBRANCH  12  15
ENDBRANCH   6  12
BRANCH  10  17
ATOM     17  N   UNL     1       1.643   5.774   3.789  1.00  0.00    -0.332 N 
ATOM     18  C   UNL     1       1.071   6.706   4.782  1.00  0.00     0.333 C 
ATOM     19  H   UNL     1       1.273   5.839   2.841  1.00  0.00     0.348 HD
BRANCH  17  20
ATOM     20  C   UNL     1       3.053   6.150   3.512  1.00  0.00     0.184 C 
ATOM     21  C   UNL     1       4.093   5.875   4.611  1.00  0.00     0.075 C 
BRANCH  20  22
ATOM     22  C   UNL     1       3.674   5.880   2.157  1.00  0.00     0.047 C 
ATOM     23  C   UNL     1       3.873   4.507   1.574  1.00  0.00     0.010 C 
ATOM     24  C   UNL     1       2.922   5.480   0.915  1.00  0.00     0.010 C 
ENDBRANCH  20  22
ENDBRANCH  17  20
ENDBRANCH  10  17
ENDBRANCH   3   6
ENDBRANCH   1   2
BRANCH   1  25
ATOM     25  C   UNL     1      -2.204   4.426   5.470  1.00  0.00     0.042 C 
BRANCH  25  26
ATOM     26  C   UNL     1      -3.673   4.602   5.812  1.00  0.00     0.118 C 
BRANCH  26  27
ATOM     27  N   UNL     1      -3.956   4.218   7.191  1.00  0.00    -0.352 N 
ATOM     28  C   UNL     1      -4.190   4.979   8.310  1.00  0.00     0.251 C 
ATOM     29  H   UNL     1      -3.983   3.246   7.346  1.00  0.00     0.163 HD
ATOM     30  O   UNL     1      -4.129   4.452   9.417  1.00  0.00    -0.269 OA
BRANCH  28  31
ATOM     31  C   UNL     1      -4.512   6.419   8.201  1.00  0.00     0.039 A 
ATOM     32  C   UNL     1      -4.097   7.289   9.216  1.00  0.00     0.014 A 
ATOM     33  C   UNL     1      -5.273   6.912   7.141  1.00  0.00     0.014 A 
ATOM     34  C   UNL     1      -4.404   8.651   9.136  1.00  0.00     0.010 A 
ATOM     35  C   UNL     1      -5.473   8.279   7.000  1.00  0.00     0.010 A 
ATOM     36  C   UNL     1      -5.069   9.161   8.011  1.00  0.00    -0.014 A 
BRANCH  36  37
ATOM     37  C   UNL     1      -5.412  10.600   7.885  1.00  0.00     0.031 A 
ATOM     38  C   UNL     1      -6.855  11.012   7.754  1.00  0.00     0.074 A 
ATOM     39  C   UNL     1      -4.433  11.520   7.803  1.00  0.00     0.049 A 
ATOM     40  N   UNL     1      -7.363  12.192   7.502  1.00  0.00    -0.248 NA
ATOM     41  C   UNL     1      -7.862   9.944   7.876  1.00  0.00     0.031 C 
ATOM     42  C   UNL     1      -2.998  11.237   7.859  1.00  0.00     0.029 A 
ATOM     43  N   UNL     1      -4.497  12.880   7.642  1.00  0.00    -0.354 N 
ATOM     44  C   UNL     1      -8.735  11.998   7.398  1.00  0.00     0.074 A 
ATOM     45  C   UNL     1      -8.977  10.581   7.554  1.00  0.00     0.031 C 
ATOM     46  C   UNL     1      -2.318  12.391   7.762  1.00  0.00     0.029 A 
ATOM     47  C   UNL     1      -3.266  13.488   7.598  1.00  0.00     0.049 A 
ATOM     48  H   UNL     1      -5.345  13.375   7.565  1.00  0.00     0.167 HD
ATOM     49  C   UNL     1      -9.709  12.921   7.218  1.00  0.00     0.037 A 
ATOM     50  C   UNL     1      -2.942  14.785   7.440  1.00  0.00     0.037 A 
ATOM     51  C   UNL     1      -9.465  14.335   7.125  1.00  0.00     0.049 A 
ATOM     52  C   UNL     1      -4.044  15.798   7.287  1.00  0.00     0.074 A 
ATOM     53  C   UNL     1     -10.382  15.366   7.022  1.00  0.00     0.029 A 
ATOM     54  N   UNL     1      -8.205  14.917   7.138  1.00  0.00    -0.354 N 
ATOM     55  N   UNL     1      -5.341  15.610   7.251  1.00  0.00    -0.248 NA
ATOM     56  C   UNL     1      -3.638  17.204   7.161  1.00  0.00     0.031 C 
ATOM     57  C   UNL     1      -9.675  16.570   6.940  1.00  0.00     0.029 A 
ATOM     58  C   UNL     1      -8.320  16.293   7.035  1.00  0.00     0.049 A 
ATOM     59  H   UNL     1      -7.356  14.425   7.210  1.00  0.00     0.167 HD
ATOM     60  C   UNL     1      -5.907  16.871   7.125  1.00  0.00     0.074 A 
ATOM     61  C   UNL     1      -4.811  17.818   7.106  1.00  0.00     0.031 C 
ATOM     62  C   UNL     1      -7.214  17.215   7.032  1.00  0.00     0.037 A 
BRANCH  49  63
ATOM     63  C   UNL     1     -11.125  12.430   7.127  1.00  0.00     0.064 A 
ATOM     64  C   UNL     1     -11.792  11.891   8.238  1.00  0.00     0.173 A 
ATOM     65  C   UNL     1     -11.834  12.520   5.919  1.00  0.00     0.173 A 
ATOM     66  F   UNL     1     -11.155  11.770   9.413  1.00  0.00    -0.203 F 
ATOM     67  C   UNL     1     -13.101  11.428   8.135  1.00  0.00     0.198 A 
ATOM     68  C   UNL     1     -13.155  12.086   5.828  1.00  0.00     0.198 A 
ATOM     69  F   UNL     1     -11.248  13.032   4.826  1.00  0.00    -0.203 F 
ATOM     70  F   UNL     1     -13.695  10.865   9.196  1.00  0.00    -0.200 F 
ATOM     71  C   UNL     1     -13.783  11.532   6.933  1.00  0.00     0.200 A 
ATOM     72  F   UNL     1     -13.818  12.198   4.669  1.00  0.00    -0.200 F 
ATOM     73  F   UNL     1     -15.045  11.090   6.837  1.00  0.00    -0.200 F 
ENDBRANCH  49  63
BRANCH  50  74
ATOM     74  C   UNL     1      -1.516  15.201   7.461  1.00  0.00     0.064 A 
ATOM     75  C   UNL     1      -0.997  15.922   8.545  1.00  0.00     0.173 A 
ATOM     76  C   UNL     1      -0.643  14.882   6.412  1.00  0.00     0.173 A 
ATOM     77  F   UNL     1      -1.798  16.266   9.565  1.00  0.00    -0.203 F 
ATOM     78  C   UNL     1       0.336  16.325   8.571  1.00  0.00     0.198 A 
ATOM     79  C   UNL     1       0.697  15.261   6.451  1.00  0.00     0.198 A 
ATOM     80  F   UNL     1      -1.088  14.185   5.355  1.00  0.00    -0.203 F 
ATOM     81  F   UNL     1       0.796  17.047   9.601  1.00  0.00    -0.200 F 
ATOM     82  C   UNL     1       1.184  15.989   7.527  1.00  0.00     0.200 A 
ATOM     83  F   UNL     1       1.518  14.921   5.447  1.00  0.00    -0.200 F 
ATOM     84  F   UNL     1       2.468  16.370   7.555  1.00  0.00    -0.200 F 
ENDBRANCH  50  74
BRANCH  62  85
ATOM     85  C   UNL     1      -7.532  18.677   6.938  1.00  0.00     0.064 A 
ATOM     86  C   UNL     1      -7.291  19.407   5.765  1.00  0.00     0.173 A 
ATOM     87  C   UNL     1      -8.128  19.343   8.020  1.00  0.00     0.173 A 
ATOM     88  F   UNL     1      -6.710  18.817   4.710  1.00  0.00    -0.203 F 
ATOM     89  C   UNL     1      -7.615  20.759   5.687  1.00  0.00     0.198 A 
ATOM     90  C   UNL     1      -8.475  20.687   7.928  1.00  0.00     0.198 A 
ATOM     91  F   UNL     1      -8.384  18.685   9.161  1.00  0.00    -0.203 F 
ATOM     92  F   UNL     1      -7.337  21.448   4.573  1.00  0.00    -0.200 F 
ATOM     93  C   UNL     1      -8.213  21.395   6.765  1.00  0.00     0.200 A 
ATOM     94  F   UNL     1      -9.065  21.297   8.966  1.00  0.00    -0.200 F 
ATOM     95  F   UNL     1      -8.531  22.694   6.685  1.00  0.00    -0.200 F 
ENDBRANCH  62  85
ENDBRANCH  36  37
ENDBRANCH  28  31
ENDBRANCH  26  27
ENDBRANCH  25  26
ENDBRANCH   1  25
TORSDOF 15
