REMARK SMILES Cc1ccc([C@H](CC2CCCC2)C(=O)NCCCNC(=O)c2ccc(-c3c4nc(c(-c5c(F)c(F)c(F)c(F)c5F)c5ccc([nH]5)c(-c5c(F)c(F)c(F)c(F)c5F)c5nc(c(-c6c(F)c(F)c(F)c(F)c6F)c6ccc3[nH]6)C=C5)C=C4)cc2)cc1
REMARK SMILES IDX 17 1 16 2 15 3 13 4 14 5 6 7 5 8 1 9 2 10 3 11 86 12 4 13
REMARK SMILES IDX 85 14 7 15 8 16 9 17 12 18 10 19 11 20 18 21 19 22 20 23
REMARK SMILES IDX 21 25 22 26 23 27 84 28 24 29 83 30 25 31 26 32 27 33 77 34
REMARK SMILES IDX 28 35 82 36 76 37 78 38 29 39 81 40 75 41 74 42 30 44 62 45
REMARK SMILES IDX 42 46 61 47 43 48 46 49 60 50 79 51 44 52 45 53 59 55 80 56
REMARK SMILES IDX 47 57 31 58 32 59 40 60 33 61 34 62 38 63 41 64 35 65 36 66
REMARK SMILES IDX 39 67 37 68 63 69 64 70 72 71 65 72 66 73 70 74 73 75 67 76
REMARK SMILES IDX 68 77 71 78 69 79 48 80 49 81 57 82 50 83 51 84 55 85 58 86
REMARK SMILES IDX 52 87 53 88 56 89 54 90
REMARK H PARENT 15 6 19 24 78 43 46 54
REMARK Flexibility Score: inf
ROOT
ATOM      1  C   UNL     1      -0.948  -3.113   0.603  1.00  0.00     0.042 C 
ENDROOT
BRANCH   1   2
ATOM      2  C   UNL     1      -2.383  -2.844   0.192  1.00  0.00     0.117 C 
BRANCH   2   3
ATOM      3  N   UNL     1      -3.102  -2.026   1.163  1.00  0.00    -0.356 N 
ATOM      4  C   UNL     1      -3.691  -0.800   1.009  1.00  0.00     0.227 C 
ATOM      5  O   UNL     1      -4.372  -0.383   1.951  1.00  0.00    -0.274 OA
ATOM      6  H   UNL     1      -3.176  -2.415   2.064  1.00  0.00     0.163 HD
BRANCH   4   7
ATOM      7  C   UNL     1      -3.492   0.052  -0.253  1.00  0.00     0.109 C 
BRANCH   7   8
ATOM      8  C   UNL     1      -4.076  -0.541  -1.548  1.00  0.00    -0.036 A 
ATOM      9  C   UNL     1      -4.855  -2.443  -5.352  1.00  0.00     0.044 C 
ATOM     10  C   UNL     1      -4.664  -1.751  -4.037  1.00  0.00    -0.051 A 
ATOM     11  C   UNL     1      -4.207  -0.434  -3.983  1.00  0.00     0.004 A 
ATOM     12  C   UNL     1      -4.974  -2.402  -2.841  1.00  0.00     0.004 A 
ATOM     13  C   UNL     1      -3.922   0.164  -2.754  1.00  0.00     0.005 A 
ATOM     14  C   UNL     1      -4.719  -1.786  -1.612  1.00  0.00     0.005 A 
ENDBRANCH   7   8
BRANCH   7  15
ATOM     15  C   UNL     1      -1.993   0.443  -0.416  1.00  0.00     0.022 C 
BRANCH  15  16
ATOM     16  C   UNL     1      -1.498   1.555   0.519  1.00  0.00    -0.010 C 
ATOM     17  C   UNL     1      -1.152   1.119   1.941  1.00  0.00     0.003 C 
ATOM     18  C   UNL     1      -0.153   2.113   0.037  1.00  0.00     0.003 C 
ATOM     19  C   UNL     1      -0.255   2.240   2.465  1.00  0.00     0.000 C 
ATOM     20  C   UNL     1       0.410   2.861   1.238  1.00  0.00     0.000 C 
ENDBRANCH  15  16
ENDBRANCH   7  15
ENDBRANCH   4   7
ENDBRANCH   2   3
ENDBRANCH   1   2
BRANCH   1  21
ATOM     21  C   UNL     1      -0.824  -4.289   1.550  1.00  0.00     0.118 C 
BRANCH  21  22
ATOM     22  N   UNL     1      -0.771  -5.595   0.897  1.00  0.00    -0.352 N 
ATOM     23  C   UNL     1      -0.717  -6.866   1.457  1.00  0.00     0.251 C 
ATOM     24  H   UNL     1      -0.774  -5.571  -0.087  1.00  0.00     0.163 HD
ATOM     25  O   UNL     1      -0.642  -7.847   0.747  1.00  0.00    -0.269 OA
BRANCH  23  26
ATOM     26  C   UNL     1      -0.907  -7.018   2.924  1.00  0.00     0.039 A 
ATOM     27  C   UNL     1      -1.795  -8.003   3.376  1.00  0.00     0.014 A 
ATOM     28  C   UNL     1      -0.437  -6.050   3.800  1.00  0.00     0.014 A 
ATOM     29  C   UNL     1      -2.423  -7.835   4.607  1.00  0.00     0.010 A 
ATOM     30  C   UNL     1      -1.169  -5.792   4.935  1.00  0.00     0.010 A 
ATOM     31  C   UNL     1      -2.207  -6.652   5.304  1.00  0.00    -0.014 A 
BRANCH  31  32
ATOM     32  C   UNL     1      -3.041  -6.173   6.395  1.00  0.00     0.031 A 
ATOM     33  C   UNL     1      -2.473  -6.102   7.757  1.00  0.00     0.074 A 
ATOM     34  C   UNL     1      -4.250  -5.635   6.114  1.00  0.00     0.049 A 
ATOM     35  N   UNL     1      -3.166  -5.872   8.817  1.00  0.00    -0.248 NA
ATOM     36  C   UNL     1      -1.064  -6.362   8.047  1.00  0.00     0.031 C 
ATOM     37  C   UNL     1      -5.059  -4.769   6.970  1.00  0.00     0.029 A 
ATOM     38  N   UNL     1      -5.098  -5.939   5.032  1.00  0.00    -0.354 N 
ATOM     39  C   UNL     1      -2.289  -5.655   9.854  1.00  0.00     0.074 A 
ATOM     40  C   UNL     1      -1.015  -6.099   9.356  1.00  0.00     0.031 C 
ATOM     41  C   UNL     1      -6.340  -4.847   6.580  1.00  0.00     0.029 A 
ATOM     42  C   UNL     1      -6.409  -5.886   5.569  1.00  0.00     0.049 A 
ATOM     43  H   UNL     1      -4.838  -6.143   4.105  1.00  0.00     0.167 HD
ATOM     44  C   UNL     1      -2.750  -4.997  10.954  1.00  0.00     0.037 A 
ATOM     45  C   UNL     1      -7.184  -7.006   5.665  1.00  0.00     0.037 A 
ATOM     46  C   UNL     1      -4.216  -4.973  10.947  1.00  0.00     0.049 A 
ATOM     47  C   UNL     1      -7.608  -7.337   7.077  1.00  0.00     0.074 A 
ATOM     48  C   UNL     1      -5.157  -3.991  10.690  1.00  0.00     0.029 A 
ATOM     49  N   UNL     1      -4.904  -6.186  10.948  1.00  0.00    -0.354 N 
ATOM     50  N   UNL     1      -6.997  -6.899   8.144  1.00  0.00    -0.248 NA
ATOM     51  C   UNL     1      -8.739  -8.202   7.398  1.00  0.00     0.031 C 
ATOM     52  C   UNL     1      -6.403  -4.635  10.452  1.00  0.00     0.029 A 
ATOM     53  C   UNL     1      -6.227  -6.000  10.604  1.00  0.00     0.049 A 
ATOM     54  H   UNL     1      -4.500  -7.057  11.165  1.00  0.00     0.167 HD
ATOM     55  C   UNL     1      -7.606  -7.405   9.263  1.00  0.00     0.074 A 
ATOM     56  C   UNL     1      -8.703  -8.199   8.742  1.00  0.00     0.031 C 
ATOM     57  C   UNL     1      -7.142  -7.133  10.520  1.00  0.00     0.037 A 
BRANCH  44  58
ATOM     58  C   UNL     1      -1.905  -4.194  11.932  1.00  0.00     0.064 A 
ATOM     59  C   UNL     1      -2.533  -3.423  12.938  1.00  0.00     0.173 A 
ATOM     60  C   UNL     1      -0.504  -4.025  11.871  1.00  0.00     0.173 A 
ATOM     61  F   UNL     1      -3.857  -3.481  13.136  1.00  0.00    -0.203 F 
ATOM     62  C   UNL     1      -1.830  -2.541  13.769  1.00  0.00     0.198 A 
ATOM     63  C   UNL     1       0.202  -3.170  12.724  1.00  0.00     0.198 A 
ATOM     64  F   UNL     1       0.258  -4.638  10.965  1.00  0.00    -0.203 F 
ATOM     65  F   UNL     1      -2.494  -1.797  14.665  1.00  0.00    -0.200 F 
ATOM     66  C   UNL     1      -0.461  -2.414  13.663  1.00  0.00     0.200 A 
ATOM     67  F   UNL     1       1.534  -3.069  12.602  1.00  0.00    -0.200 F 
ATOM     68  F   UNL     1       0.214  -1.566  14.449  1.00  0.00    -0.200 F 
ENDBRANCH  44  58
BRANCH  45  69
ATOM     69  C   UNL     1      -6.902  -7.997   4.593  1.00  0.00     0.064 A 
ATOM     70  C   UNL     1      -7.151  -7.617   3.259  1.00  0.00     0.173 A 
ATOM     71  C   UNL     1      -6.042  -9.081   4.806  1.00  0.00     0.173 A 
ATOM     72  F   UNL     1      -7.972  -6.586   3.001  1.00  0.00    -0.203 F 
ATOM     73  C   UNL     1      -6.464  -8.201   2.198  1.00  0.00     0.198 A 
ATOM     74  C   UNL     1      -5.370  -9.678   3.736  1.00  0.00     0.198 A 
ATOM     75  F   UNL     1      -5.748  -9.479   6.052  1.00  0.00    -0.203 F 
ATOM     76  F   UNL     1      -6.627  -7.728   0.954  1.00  0.00    -0.200 F 
ATOM     77  C   UNL     1      -5.549  -9.210   2.442  1.00  0.00     0.200 A 
ATOM     78  F   UNL     1      -4.461 -10.635   3.972  1.00  0.00    -0.200 F 
ATOM     79  F   UNL     1      -4.806  -9.700   1.439  1.00  0.00    -0.200 F 
ENDBRANCH  45  69
BRANCH  57  80
ATOM     80  C   UNL     1      -7.545  -7.839  11.800  1.00  0.00     0.064 A 
ATOM     81  C   UNL     1      -8.073  -9.141  11.856  1.00  0.00     0.173 A 
ATOM     82  C   UNL     1      -7.259  -7.253  13.060  1.00  0.00     0.173 A 
ATOM     83  F   UNL     1      -8.268  -9.867  10.749  1.00  0.00    -0.203 F 
ATOM     84  C   UNL     1      -8.357  -9.776  13.070  1.00  0.00     0.198 A 
ATOM     85  C   UNL     1      -7.483  -7.916  14.267  1.00  0.00     0.198 A 
ATOM     86  F   UNL     1      -6.722  -6.029  13.161  1.00  0.00    -0.203 F 
ATOM     87  F   UNL     1      -8.903 -11.001  13.064  1.00  0.00    -0.200 F 
ATOM     88  C   UNL     1      -8.051  -9.171  14.273  1.00  0.00     0.200 A 
ATOM     89  F   UNL     1      -7.123  -7.336  15.421  1.00  0.00    -0.200 F 
ATOM     90  F   UNL     1      -8.278  -9.805  15.431  1.00  0.00    -0.200 F 
ENDBRANCH  57  80
ENDBRANCH  31  32
ENDBRANCH  23  26
ENDBRANCH  21  22
ENDBRANCH   1  21
TORSDOF 13
