REMARK SMILES O=C(NCCCNC(=O)[C@H]1[C@H]2CC[C@H](C2)[C@H]1NC(=O)c1ccncc1Cl)c1ccc(-c2c3nc(c(-c4c(F)c(F)c(F)c(F)c4F)c4ccc([nH]4)c(-c4c(F)c(F)c(F)c(F)c4F)c4nc(c(-c5c(F)c(F)c(F)c(F)c5F)c5ccc2[nH]5)C=C4)C=C3)cc1
REMARK SMILES IDX 5 1 4 2 3 3 1 4 2 5 27 7 28 8 89 9 29 10 88 11 30 12 31 13
REMARK SMILES IDX 32 14 82 15 33 16 87 17 81 18 83 19 34 20 86 21 80 22 79 23
REMARK SMILES IDX 35 25 67 26 47 27 66 28 48 29 51 30 65 31 84 32 49 33 50 34
REMARK SMILES IDX 64 36 85 37 52 38 36 39 37 40 45 41 38 42 39 43 43 44 46 45
REMARK SMILES IDX 40 46 41 47 44 48 42 49 68 50 69 51 77 52 70 53 71 54 75 55
REMARK SMILES IDX 78 56 72 57 73 58 76 59 74 60 53 61 54 62 62 63 55 64 56 65
REMARK SMILES IDX 60 66 63 67 57 68 58 69 61 70 59 71 6 72 7 73 8 74 9 76
REMARK SMILES IDX 10 77 11 78 16 79 12 80 15 81 14 82 13 83 17 84 18 85 19 87
REMARK SMILES IDX 20 88 21 89 25 90 22 91 24 92 26 93 23 94
REMARK H PARENT 3 6 83 24 51 35 7 75 17 86
REMARK Flexibility Score: inf
ROOT
ATOM      1  C   UNL     1       4.773  -3.213  -0.333  1.00  0.00     0.042 C 
ENDROOT
BRANCH   1   2
ATOM      2  C   UNL     1       5.327  -3.139   1.085  1.00  0.00     0.118 C 
BRANCH   2   3
ATOM      3  N   UNL     1       5.095  -1.846   1.706  1.00  0.00    -0.352 N 
ATOM      4  O   UNL     1       4.068  -0.231   2.864  1.00  0.00    -0.269 OA
ATOM      5  C   UNL     1       4.179  -1.436   2.644  1.00  0.00     0.251 C 
ATOM      6  H   UNL     1       5.703  -1.136   1.398  1.00  0.00     0.163 HD
BRANCH   5   7
ATOM      7  C   UNL     1       3.303  -2.385   3.380  1.00  0.00     0.039 A 
ATOM      8  C   UNL     1       3.732  -3.646   3.795  1.00  0.00     0.014 A 
ATOM      9  C   UNL     1       2.022  -1.953   3.755  1.00  0.00     0.014 A 
ATOM     10  C   UNL     1       2.853  -4.515   4.444  1.00  0.00     0.010 A 
ATOM     11  C   UNL     1       1.174  -2.787   4.496  1.00  0.00     0.010 A 
ATOM     12  C   UNL     1       1.569  -4.091   4.823  1.00  0.00    -0.014 A 
BRANCH  12  13
ATOM     13  C   UNL     1       0.693  -5.003   5.612  1.00  0.00     0.031 A 
ATOM     14  C   UNL     1      -0.625  -5.486   5.069  1.00  0.00     0.074 A 
ATOM     15  C   UNL     1       1.099  -5.414   6.831  1.00  0.00     0.049 A 
ATOM     16  N   UNL     1      -1.487  -6.316   5.606  1.00  0.00    -0.248 NA
ATOM     17  C   UNL     1      -1.039  -4.962   3.760  1.00  0.00     0.031 C 
ATOM     18  C   UNL     1       2.336  -4.995   7.492  1.00  0.00     0.029 A 
ATOM     19  N   UNL     1       0.528  -6.289   7.723  1.00  0.00    -0.354 N 
ATOM     20  C   UNL     1      -2.548  -6.397   4.714  1.00  0.00     0.074 A 
ATOM     21  C   UNL     1      -2.239  -5.508   3.614  1.00  0.00     0.031 C 
ATOM     22  C   UNL     1       2.461  -5.654   8.654  1.00  0.00     0.029 A 
ATOM     23  C   UNL     1       1.289  -6.502   8.847  1.00  0.00     0.049 A 
ATOM     24  H   UNL     1      -0.343  -6.722   7.571  1.00  0.00     0.167 HD
ATOM     25  C   UNL     1      -3.671  -7.151   4.798  1.00  0.00     0.037 A 
ATOM     26  C   UNL     1       1.072  -7.292   9.916  1.00  0.00     0.037 A 
ATOM     27  C   UNL     1      -3.969  -8.059   5.877  1.00  0.00     0.049 A 
ATOM     28  C   UNL     1      -0.179  -8.120   9.979  1.00  0.00     0.074 A 
ATOM     29  C   UNL     1      -5.055  -8.907   6.017  1.00  0.00     0.029 A 
ATOM     30  N   UNL     1      -3.179  -8.236   7.003  1.00  0.00    -0.354 N 
ATOM     31  N   UNL     1      -1.145  -8.230   9.100  1.00  0.00    -0.248 NA
ATOM     32  C   UNL     1      -0.369  -8.938  11.185  1.00  0.00     0.031 C 
ATOM     33  C   UNL     1      -4.946  -9.563   7.248  1.00  0.00     0.029 A 
ATOM     34  C   UNL     1      -3.766  -9.162   7.853  1.00  0.00     0.049 A 
ATOM     35  H   UNL     1      -2.327  -7.773   7.173  1.00  0.00     0.167 HD
ATOM     36  C   UNL     1      -2.042  -9.145   9.632  1.00  0.00     0.074 A 
ATOM     37  C   UNL     1      -1.498  -9.573  10.904  1.00  0.00     0.031 C 
ATOM     38  C   UNL     1      -3.213  -9.588   9.113  1.00  0.00     0.037 A 
BRANCH  25  39
ATOM     39  C   UNL     1      -4.680  -7.023   3.692  1.00  0.00     0.064 A 
ATOM     40  C   UNL     1      -4.442  -7.541   2.410  1.00  0.00     0.173 A 
ATOM     41  C   UNL     1      -5.922  -6.414   3.933  1.00  0.00     0.173 A 
ATOM     42  F   UNL     1      -3.269  -8.124   2.125  1.00  0.00    -0.203 F 
ATOM     43  C   UNL     1      -5.399  -7.432   1.404  1.00  0.00     0.198 A 
ATOM     44  C   UNL     1      -6.887  -6.332   2.932  1.00  0.00     0.198 A 
ATOM     45  F   UNL     1      -6.205  -5.910   5.143  1.00  0.00    -0.203 F 
ATOM     46  F   UNL     1      -5.133  -7.896   0.175  1.00  0.00    -0.200 F 
ATOM     47  C   UNL     1      -6.623  -6.834   1.667  1.00  0.00     0.200 A 
ATOM     48  F   UNL     1      -8.074  -5.765   3.192  1.00  0.00    -0.200 F 
ATOM     49  F   UNL     1      -7.545  -6.736   0.700  1.00  0.00    -0.200 F 
ENDBRANCH  25  39
BRANCH  26  50
ATOM     50  C   UNL     1       2.080  -7.354  11.006  1.00  0.00     0.064 A 
ATOM     51  C   UNL     1       2.840  -8.513  11.216  1.00  0.00     0.173 A 
ATOM     52  C   UNL     1       2.304  -6.262  11.857  1.00  0.00     0.173 A 
ATOM     53  F   UNL     1       2.646  -9.591  10.441  1.00  0.00    -0.203 F 
ATOM     54  C   UNL     1       3.775  -8.583  12.246  1.00  0.00     0.198 A 
ATOM     55  C   UNL     1       3.259  -6.323  12.868  1.00  0.00     0.198 A 
ATOM     56  F   UNL     1       1.603  -5.130  11.695  1.00  0.00    -0.203 F 
ATOM     57  F   UNL     1       4.458  -9.717  12.453  1.00  0.00    -0.200 F 
ATOM     58  C   UNL     1       3.989  -7.486  13.067  1.00  0.00     0.200 A 
ATOM     59  F   UNL     1       3.472  -5.256  13.650  1.00  0.00    -0.200 F 
ATOM     60  F   UNL     1       4.892  -7.551  14.055  1.00  0.00    -0.200 F 
ENDBRANCH  26  50
BRANCH  38  61
ATOM     61  C   UNL     1      -3.966 -10.619   9.903  1.00  0.00     0.064 A 
ATOM     62  C   UNL     1      -4.628 -10.295  11.096  1.00  0.00     0.173 A 
ATOM     63  C   UNL     1      -4.039 -11.945   9.449  1.00  0.00     0.173 A 
ATOM     64  F   UNL     1      -4.573  -9.045  11.580  1.00  0.00    -0.203 F 
ATOM     65  C   UNL     1      -5.311 -11.267  11.822  1.00  0.00     0.198 A 
ATOM     66  C   UNL     1      -4.747 -12.908  10.162  1.00  0.00     0.198 A 
ATOM     67  F   UNL     1      -3.427 -12.306   8.311  1.00  0.00    -0.203 F 
ATOM     68  F   UNL     1      -5.892 -10.946  12.986  1.00  0.00    -0.200 F 
ATOM     69  C   UNL     1      -5.375 -12.570  11.352  1.00  0.00     0.200 A 
ATOM     70  F   UNL     1      -4.817 -14.164   9.702  1.00  0.00    -0.200 F 
ATOM     71  F   UNL     1      -6.034 -13.505  12.052  1.00  0.00    -0.200 F 
ENDBRANCH  38  61
ENDBRANCH  12  13
ENDBRANCH   5   7
ENDBRANCH   2   3
ENDBRANCH   1   2
BRANCH   1  72
ATOM     72  C   UNL     1       5.721  -2.736  -1.421  1.00  0.00     0.117 C 
BRANCH  72  73
ATOM     73  N   UNL     1       6.895  -3.586  -1.480  1.00  0.00    -0.356 N 
ATOM     74  C   UNL     1       7.181  -4.664  -2.260  1.00  0.00     0.225 C 
ATOM     75  H   UNL     1       7.607  -3.340  -0.847  1.00  0.00     0.163 HD
ATOM     76  O   UNL     1       8.181  -5.309  -1.949  1.00  0.00    -0.275 OA
BRANCH  74  77
ATOM     77  C   UNL     1       6.327  -4.981  -3.479  1.00  0.00     0.104 C 
ATOM     78  C   UNL     1       7.114  -5.640  -4.654  1.00  0.00     0.004 C 
ATOM     79  C   UNL     1       5.075  -5.896  -3.348  1.00  0.00     0.098 C 
ATOM     80  C   UNL     1       7.710  -7.014  -4.300  1.00  0.00     0.005 C 
ATOM     81  C   UNL     1       5.961  -6.074  -5.564  1.00  0.00     0.010 C 
ATOM     82  C   UNL     1       5.320  -6.940  -4.478  1.00  0.00     0.013 C 
ATOM     83  C   UNL     1       6.475  -7.896  -4.127  1.00  0.00     0.006 C 
BRANCH  79  84
ATOM     84  N   UNL     1       4.798  -6.528  -2.066  1.00  0.00    -0.348 N 
ATOM     85  C   UNL     1       3.614  -6.665  -1.372  1.00  0.00     0.253 C 
ATOM     86  H   UNL     1       5.584  -6.921  -1.623  1.00  0.00     0.164 HD
ATOM     87  O   UNL     1       3.594  -7.306  -0.323  1.00  0.00    -0.269 OA
BRANCH  85  88
ATOM     88  C   UNL     1       2.405  -5.901  -1.744  1.00  0.00     0.061 A 
ATOM     89  C   UNL     1       1.970  -4.950  -0.810  1.00  0.00     0.035 A 
ATOM     90  C   UNL     1       1.672  -6.084  -2.910  1.00  0.00     0.072 A 
ATOM     91  C   UNL     1       0.924  -4.113  -1.147  1.00  0.00     0.112 A 
ATOM     92  C   UNL     1       0.640  -5.189  -3.161  1.00  0.00     0.132 A 
ATOM     93  Cl  UNL     1       1.896  -7.399  -3.987  1.00  0.00    -0.082 Cl
ATOM     94  N   UNL     1       0.273  -4.188  -2.323  1.00  0.00    -0.263 NA
ENDBRANCH  85  88
ENDBRANCH  79  84
ENDBRANCH  74  77
ENDBRANCH  72  73
ENDBRANCH   1  72
TORSDOF 12
