REMARK SMILES O=C(/C=C/[C@@]12C=C(O)C(=O)C=C1C(=O)C1=Cc3cc(O)c(O)cc3O[C@@H](c3ccc(O)c(O)c3)[C@@H]12)NCCCNC(=O)c1ccc(-c2c3nc(c(-c4c(F)c(F)c(F)c(F)c4F)c4ccc([nH]4)c(-c4c(F)c(F)c(F)c(F)c4F)c4nc(c(-c5c(F)c(F)c(F)c(F)c5F)c5ccc2[nH]5)C=C4)C=C3)cc1
REMARK SMILES IDX 1 1 2 2 36 3 3 5 4 6 5 7 6 8 12 9 35 10 7 11 11 12 13 13
REMARK SMILES IDX 15 14 9 16 14 17 16 18 10 19 8 20 17 22 18 23 24 24 19 25
REMARK SMILES IDX 23 26 21 27 25 28 26 29 27 31 28 32 34 33 29 34 32 35 30 36
REMARK SMILES IDX 33 37 31 39 20 41 22 43 37 45 38 46 39 47 40 48 41 49 42 51
REMARK SMILES IDX 43 52 44 53 105 54 45 55 104 56 46 57 47 58 48 59 98 60
REMARK SMILES IDX 49 61 103 62 97 63 99 64 50 65 102 66 96 67 95 68 51 70
REMARK SMILES IDX 83 71 63 72 82 73 64 74 67 75 81 76 100 77 65 78 66 79 80 81
REMARK SMILES IDX 101 82 68 83 52 84 53 85 61 86 54 87 55 88 59 89 62 90 56 91
REMARK SMILES IDX 57 92 60 93 58 94 84 95 85 96 93 97 86 98 87 99 91 100
REMARK SMILES IDX 94 101 88 102 89 103 92 104 90 105 69 106 70 107 78 108
REMARK SMILES IDX 71 109 72 110 76 111 79 112 73 113 74 114 77 115 75 116
REMARK H PARENT 36 4 8 21 33 38 31 40 20 42 22 44 40 50 99 69 67 80
REMARK Flexibility Score: 90.00
ROOT
ATOM      1  O   UNL     1       1.176   0.743   1.020  1.00  0.00    -0.270 OA
ATOM      2  C   UNL     1       2.248   0.444   0.517  1.00  0.00     0.243 C 
ATOM      3  N   UNL     1       2.860   1.116  -0.510  1.00  0.00    -0.352 N 
ATOM      4  H   UNL     1       3.753   0.831  -0.809  1.00  0.00     0.163 HD
ENDROOT
BRANCH   2   5
ATOM      5  C   UNL     1       2.935  -0.809   0.893  1.00  0.00     0.068 C 
ATOM      6  C   UNL     1       4.210  -0.887   1.325  1.00  0.00    -0.005 C 
BRANCH   6   7
ATOM      7  C   UNL     1       4.976  -2.224   1.527  1.00  0.00     0.051 C 
ATOM      8  C   UNL     1       4.000  -3.251   2.031  1.00  0.00     0.040 C 
ATOM      9  C   UNL     1       5.550  -2.582   0.184  1.00  0.00     0.018 C 
ATOM     10  C   UNL     1       6.295  -2.091   2.360  1.00  0.00     0.087 CG0
ATOM     11  C   UNL     1       3.518  -4.249   1.274  1.00  0.00     0.160 C 
ATOM     12  C   UNL     1       5.128  -3.567  -0.612  1.00  0.00     0.065 C 
ATOM     13  C   UNL     1       6.768  -1.748  -0.003  1.00  0.00     0.186 C 
ATOM     14  C   UNL     1       7.202  -1.370   1.375  1.00  0.00     0.009 C 
ATOM     15  G   UNL     1       7.139  -3.371   2.709  1.00  0.00     0.000 G0
ATOM     16  C   UNL     1       4.021  -4.443  -0.138  1.00  0.00     0.220 C 
ATOM     17  O   UNL     1       7.315  -1.474  -1.049  1.00  0.00    -0.289 OA
ATOM     18  C   UNL     1       8.297  -0.691   1.731  1.00  0.00     0.020 C 
ATOM     19  O   UNL     1       3.591  -5.328  -0.869  1.00  0.00    -0.286 OA
BRANCH  11  20
ATOM     20  O   UNL     1       2.574  -5.130   1.765  1.00  0.00    -0.504 OA
ATOM     21  H   UNL     1       2.248  -5.029   2.638  1.00  0.00     0.293 HD
ENDBRANCH  11  20
BRANCH  18  22
ATOM     22  C   UNL     1       8.668  -0.706   3.157  1.00  0.00     0.021 A 
ATOM     23  C   UNL     1       8.989   0.498   3.802  1.00  0.00     0.062 A 
ATOM     24  C   UNL     1       8.687  -1.911   3.901  1.00  0.00     0.131 A 
ATOM     25  C   UNL     1       9.312   0.483   5.159  1.00  0.00     0.158 A 
ATOM     26  C   UNL     1       9.076  -1.916   5.240  1.00  0.00     0.097 A 
ATOM     27  C   UNL     1       9.362  -0.716   5.865  1.00  0.00     0.161 A 
BRANCH  24  28
ATOM     28  O   UNL     1       8.401  -3.147   3.388  1.00  0.00    -0.484 OA
BRANCH  28  29
ATOM     29  C   UNL     1       7.139  -3.371   2.709  1.00  0.00     0.213 CG0
ATOM     30  G   UNL     1       6.295  -2.091   2.360  1.00  0.00     0.000 G0
BRANCH  29  31
ATOM     31  C   UNL     1       6.399  -4.432   3.498  1.00  0.00    -0.003 A 
ATOM     32  C   UNL     1       5.993  -5.617   2.855  1.00  0.00     0.011 A 
ATOM     33  C   UNL     1       6.059  -4.243   4.844  1.00  0.00     0.057 A 
ATOM     34  C   UNL     1       5.151  -6.526   3.496  1.00  0.00     0.050 A 
ATOM     35  C   UNL     1       5.254  -5.178   5.492  1.00  0.00     0.157 A 
ATOM     36  C   UNL     1       4.758  -6.285   4.806  1.00  0.00     0.157 A 
BRANCH  35  37
ATOM     37  O   UNL     1       4.924  -4.989   6.803  1.00  0.00    -0.504 OA
ATOM     38  H   UNL     1       4.383  -5.614   7.245  1.00  0.00     0.293 HD
ENDBRANCH  35  37
BRANCH  36  39
ATOM     39  O   UNL     1       3.879  -7.125   5.427  1.00  0.00    -0.504 OA
ATOM     40  H   UNL     1       3.542  -7.871   4.971  1.00  0.00     0.293 HD
ENDBRANCH  36  39
ENDBRANCH  29  31
ENDBRANCH  28  29
ENDBRANCH  24  28
BRANCH  25  41
ATOM     41  O   UNL     1       9.584   1.629   5.854  1.00  0.00    -0.504 OA
ATOM     42  H   UNL     1       9.562   2.458   5.418  1.00  0.00     0.293 HD
ENDBRANCH  25  41
BRANCH  27  43
ATOM     43  O   UNL     1       9.680  -0.723   7.192  1.00  0.00    -0.504 OA
ATOM     44  H   UNL     1       9.876   0.081   7.631  1.00  0.00     0.293 HD
ENDBRANCH  27  43
ENDBRANCH  18  22
ENDBRANCH   6   7
ENDBRANCH   2   5
BRANCH   3  45
ATOM     45  C   UNL     1       2.216   2.239  -1.164  1.00  0.00     0.118 C 
BRANCH  45  46
ATOM     46  C   UNL     1       2.401   3.547  -0.409  1.00  0.00     0.042 C 
BRANCH  46  47
ATOM     47  C   UNL     1       3.856   3.968  -0.255  1.00  0.00     0.118 C 
BRANCH  47  48
ATOM     48  N   UNL     1       4.500   4.323  -1.514  1.00  0.00    -0.352 N 
ATOM     49  C   UNL     1       5.286   5.410  -1.819  1.00  0.00     0.251 C 
ATOM     50  H   UNL     1       4.349   3.693  -2.255  1.00  0.00     0.163 HD
ATOM     51  O   UNL     1       5.655   5.598  -2.973  1.00  0.00    -0.269 OA
BRANCH  49  52
ATOM     52  C   UNL     1       5.655   6.377  -0.761  1.00  0.00     0.039 A 
ATOM     53  C   UNL     1       6.063   5.940   0.499  1.00  0.00     0.014 A 
ATOM     54  C   UNL     1       5.566   7.747  -1.031  1.00  0.00     0.014 A 
ATOM     55  C   UNL     1       6.198   6.857   1.535  1.00  0.00     0.010 A 
ATOM     56  C   UNL     1       5.793   8.674  -0.009  1.00  0.00     0.010 A 
ATOM     57  C   UNL     1       6.055   8.234   1.297  1.00  0.00    -0.014 A 
BRANCH  57  58
ATOM     58  C   UNL     1       6.165   9.178   2.440  1.00  0.00     0.031 A 
ATOM     59  C   UNL     1       4.976   9.982   2.894  1.00  0.00     0.074 A 
ATOM     60  C   UNL     1       7.322   9.245   3.126  1.00  0.00     0.049 A 
ATOM     61  N   UNL     1       4.870  10.789   3.922  1.00  0.00    -0.248 NA
ATOM     62  C   UNL     1       3.746   9.874   2.094  1.00  0.00     0.031 C 
ATOM     63  C   UNL     1       8.544   8.516   2.782  1.00  0.00     0.029 A 
ATOM     64  N   UNL     1       7.652   9.926   4.270  1.00  0.00    -0.354 N 
ATOM     65  C   UNL     1       3.575  11.289   3.883  1.00  0.00     0.074 A 
ATOM     66  C   UNL     1       2.939  10.725   2.713  1.00  0.00     0.031 C 
ATOM     67  C   UNL     1       9.466   8.733   3.731  1.00  0.00     0.029 A 
ATOM     68  C   UNL     1       8.923   9.660   4.719  1.00  0.00     0.049 A 
ATOM     69  H   UNL     1       7.038  10.546   4.726  1.00  0.00     0.167 HD
ATOM     70  C   UNL     1       2.966  12.127   4.755  1.00  0.00     0.037 A 
ATOM     71  C   UNL     1       9.579  10.110   5.805  1.00  0.00     0.037 A 
ATOM     72  C   UNL     1       3.589  12.666   5.936  1.00  0.00     0.049 A 
ATOM     73  C   UNL     1       8.889  11.065   6.737  1.00  0.00     0.074 A 
ATOM     74  C   UNL     1       3.039  13.498   6.896  1.00  0.00     0.029 A 
ATOM     75  N   UNL     1       4.899  12.424   6.319  1.00  0.00    -0.354 N 
ATOM     76  N   UNL     1       7.658  11.511   6.699  1.00  0.00    -0.248 NA
ATOM     77  C   UNL     1       9.684  11.588   7.857  1.00  0.00     0.031 C 
ATOM     78  C   UNL     1       4.028  13.792   7.839  1.00  0.00     0.029 A 
ATOM     79  C   UNL     1       5.182  13.110   7.490  1.00  0.00     0.049 A 
ATOM     80  H   UNL     1       5.534  11.850   5.832  1.00  0.00     0.167 HD
ATOM     81  C   UNL     1       7.527  12.361   7.787  1.00  0.00     0.074 A 
ATOM     82  C   UNL     1       8.797  12.350   8.483  1.00  0.00     0.031 C 
ATOM     83  C   UNL     1       6.452  13.091   8.169  1.00  0.00     0.037 A 
BRANCH  70  84
ATOM     84  C   UNL     1       1.545  12.520   4.476  1.00  0.00     0.064 A 
ATOM     85  C   UNL     1       0.485  11.623   4.670  1.00  0.00     0.173 A 
ATOM     86  C   UNL     1       1.233  13.831   4.083  1.00  0.00     0.173 A 
ATOM     87  F   UNL     1       0.732  10.356   5.036  1.00  0.00    -0.203 F 
ATOM     88  C   UNL     1      -0.835  12.019   4.468  1.00  0.00     0.198 A 
ATOM     89  C   UNL     1      -0.089  14.230   3.906  1.00  0.00     0.198 A 
ATOM     90  F   UNL     1       2.210  14.730   3.892  1.00  0.00    -0.203 F 
ATOM     91  F   UNL     1      -1.830  11.136   4.633  1.00  0.00    -0.200 F 
ATOM     92  C   UNL     1      -1.121  13.324   4.096  1.00  0.00     0.200 A 
ATOM     93  F   UNL     1      -0.365  15.495   3.559  1.00  0.00    -0.200 F 
ATOM     94  F   UNL     1      -2.393  13.707   3.918  1.00  0.00    -0.200 F 
ENDBRANCH  70  84
BRANCH  71  95
ATOM     95  C   UNL     1      10.963   9.643   6.071  1.00  0.00     0.064 A 
ATOM     96  C   UNL     1      11.236   8.777   7.138  1.00  0.00     0.173 A 
ATOM     97  C   UNL     1      12.032  10.020   5.244  1.00  0.00     0.173 A 
ATOM     98  F   UNL     1      10.248   8.400   7.963  1.00  0.00    -0.203 F 
ATOM     99  C   UNL     1      12.527   8.308   7.371  1.00  0.00     0.198 A 
ATOM    100  C   UNL     1      13.317   9.529   5.462  1.00  0.00     0.198 A 
ATOM    101  F   UNL     1      11.819  10.841   4.206  1.00  0.00    -0.203 F 
ATOM    102  F   UNL     1      12.765   7.498   8.411  1.00  0.00    -0.200 F 
ATOM    103  C   UNL     1      13.564   8.677   6.527  1.00  0.00     0.200 A 
ATOM    104  F   UNL     1      14.311   9.872   4.632  1.00  0.00    -0.200 F 
ATOM    105  F   UNL     1      14.801   8.209   6.739  1.00  0.00    -0.200 F 
ENDBRANCH  71  95
BRANCH  83 106
ATOM    106  C   UNL     1       6.593  13.944   9.394  1.00  0.00     0.064 A 
ATOM    107  C   UNL     1       7.324  15.140   9.367  1.00  0.00     0.173 A 
ATOM    108  C   UNL     1       5.930  13.602  10.582  1.00  0.00     0.173 A 
ATOM    109  F   UNL     1       7.987  15.501   8.258  1.00  0.00    -0.203 F 
ATOM    110  C   UNL     1       7.393  15.960  10.490  1.00  0.00     0.198 A 
ATOM    111  C   UNL     1       5.981  14.436  11.695  1.00  0.00     0.198 A 
ATOM    112  F   UNL     1       5.213  12.470  10.655  1.00  0.00    -0.203 F 
ATOM    113  F   UNL     1       8.119  17.085  10.451  1.00  0.00    -0.200 F 
ATOM    114  C   UNL     1       6.713  15.613  11.648  1.00  0.00     0.200 A 
ATOM    115  F   UNL     1       5.314  14.106  12.809  1.00  0.00    -0.200 F 
ATOM    116  F   UNL     1       6.768  16.412  12.723  1.00  0.00    -0.200 F 
ENDBRANCH  83 106
ENDBRANCH  57  58
ENDBRANCH  49  52
ENDBRANCH  47  48
ENDBRANCH  46  47
ENDBRANCH  45  46
ENDBRANCH   3  45
TORSDOF 17
