REMARK SMILES O=C(CCC(=O)Nc1ccc(Oc2ccccc2Cl)cc1)NCCCNC(=O)c1ccc(-c2c3nc(c(-c4c(F)c(F)c(F)c(F)c4F)c4ccc([nH]4)c(-c4c(F)c(F)c(F)c(F)c4F)c4nc(c(-c5c(F)c(F)c(F)c(F)c5F)c5ccc2[nH]5)C=C4)C=C3)cc1
REMARK SMILES IDX 1 1 2 2 22 3 3 5 4 6 5 7 6 8 7 9 8 11 9 12 21 13 10 14 20 15
REMARK SMILES IDX 11 16 12 17 13 18 14 19 18 20 15 21 17 22 19 23 16 24 23 25
REMARK SMILES IDX 24 26 25 27 26 28 27 29 28 31 29 32 30 33 91 34 31 35 90 36
REMARK SMILES IDX 32 37 33 38 34 39 84 40 35 41 89 42 83 43 85 44 36 45 88 46
REMARK SMILES IDX 82 47 81 48 37 50 69 51 49 52 68 53 50 54 53 55 67 56 86 57
REMARK SMILES IDX 51 58 52 59 66 61 87 62 54 63 38 64 39 65 47 66 40 67 41 68
REMARK SMILES IDX 45 69 48 70 42 71 43 72 46 73 44 74 70 75 71 76 79 77 72 78
REMARK SMILES IDX 73 79 77 80 80 81 74 82 75 83 78 84 76 85 55 86 56 87 64 88
REMARK SMILES IDX 57 89 58 90 62 91 65 92 59 93 60 94 63 95 61 96
REMARK H PARENT 22 4 7 10 26 30 85 49 53 60
REMARK Flexibility Score: inf
ROOT
ATOM      1  O   UNL     1       1.602   0.876  -0.942  1.00  0.00    -0.275 OA
ATOM      2  C   UNL     1       2.765   0.504  -0.827  1.00  0.00     0.220 C 
ATOM      3  N   UNL     1       3.226  -0.740  -1.199  1.00  0.00    -0.356 N 
ATOM      4  H   UNL     1       4.197  -0.895  -1.256  1.00  0.00     0.163 HD
ENDROOT
BRANCH   2   5
ATOM      5  C   UNL     1       3.817   1.375  -0.183  1.00  0.00     0.110 C 
BRANCH   5   6
ATOM      6  C   UNL     1       4.002   1.092   1.306  1.00  0.00     0.110 C 
BRANCH   6   7
ATOM      7  C   UNL     1       4.520  -0.296   1.606  1.00  0.00     0.224 C 
ATOM      8  O   UNL     1       5.729  -0.518   1.452  1.00  0.00    -0.275 OA
ATOM      9  N   UNL     1       3.753  -1.361   1.970  1.00  0.00    -0.326 N 
ATOM     10  H   UNL     1       4.286  -2.112   2.318  1.00  0.00     0.169 HD
BRANCH   9  11
ATOM     11  C   UNL     1       2.370  -1.635   1.962  1.00  0.00     0.041 A 
ATOM     12  C   UNL     1       2.006  -2.993   1.977  1.00  0.00     0.030 A 
ATOM     13  C   UNL     1       1.363  -0.697   1.787  1.00  0.00     0.030 A 
ATOM     14  C   UNL     1       0.705  -3.394   1.636  1.00  0.00     0.049 A 
ATOM     15  C   UNL     1       0.065  -1.093   1.443  1.00  0.00     0.049 A 
ATOM     16  C   UNL     1      -0.257  -2.442   1.303  1.00  0.00     0.127 A 
BRANCH  16  17
ATOM     17  O   UNL     1      -1.468  -2.920   0.838  1.00  0.00    -0.456 OA
BRANCH  17  18
ATOM     18  C   UNL     1      -2.259  -2.025   0.150  1.00  0.00     0.146 A 
ATOM     19  C   UNL     1      -3.188  -1.277   0.880  1.00  0.00     0.049 A 
ATOM     20  C   UNL     1      -2.159  -1.858  -1.236  1.00  0.00     0.083 A 
ATOM     21  C   UNL     1      -3.950  -0.299   0.241  1.00  0.00     0.004 A 
ATOM     22  C   UNL     1      -2.918  -0.871  -1.871  1.00  0.00     0.024 A 
ATOM     23  Cl  UNL     1      -1.140  -2.860  -2.201  1.00  0.00    -0.080 Cl
ATOM     24  C   UNL     1      -3.803  -0.084  -1.130  1.00  0.00     0.002 A 
ENDBRANCH  17  18
ENDBRANCH  16  17
ENDBRANCH   9  11
ENDBRANCH   6   7
ENDBRANCH   5   6
ENDBRANCH   2   5
BRANCH   3  25
ATOM     25  C   UNL     1       2.318  -1.825  -1.507  1.00  0.00     0.117 C 
BRANCH  25  26
ATOM     26  C   UNL     1       2.683  -2.622  -2.742  1.00  0.00     0.042 C 
BRANCH  26  27
ATOM     27  C   UNL     1       4.088  -3.204  -2.731  1.00  0.00     0.118 C 
BRANCH  27  28
ATOM     28  N   UNL     1       4.354  -4.168  -1.667  1.00  0.00    -0.352 N 
ATOM     29  C   UNL     1       5.030  -5.369  -1.740  1.00  0.00     0.251 C 
ATOM     30  H   UNL     1       4.004  -3.929  -0.778  1.00  0.00     0.163 HD
ATOM     31  O   UNL     1       5.136  -6.086  -0.751  1.00  0.00    -0.269 OA
BRANCH  29  32
ATOM     32  C   UNL     1       5.567  -5.814  -3.045  1.00  0.00     0.039 A 
ATOM     33  C   UNL     1       5.248  -7.093  -3.509  1.00  0.00     0.014 A 
ATOM     34  C   UNL     1       6.276  -4.929  -3.858  1.00  0.00     0.014 A 
ATOM     35  C   UNL     1       5.522  -7.433  -4.836  1.00  0.00     0.010 A 
ATOM     36  C   UNL     1       6.451  -5.229  -5.204  1.00  0.00     0.010 A 
ATOM     37  C   UNL     1       6.056  -6.476  -5.715  1.00  0.00    -0.014 A 
BRANCH  37  38
ATOM     38  C   UNL     1       6.178  -6.728  -7.176  1.00  0.00     0.031 A 
ATOM     39  C   UNL     1       7.519  -6.630  -7.846  1.00  0.00     0.074 A 
ATOM     40  C   UNL     1       5.069  -6.925  -7.919  1.00  0.00     0.049 A 
ATOM     41  N   UNL     1       7.814  -6.652  -9.122  1.00  0.00    -0.248 NA
ATOM     42  C   UNL     1       8.682  -6.436  -6.966  1.00  0.00     0.031 C 
ATOM     43  C   UNL     1       3.699  -6.977  -7.406  1.00  0.00     0.029 A 
ATOM     44  N   UNL     1       4.920  -7.100  -9.274  1.00  0.00    -0.354 N 
ATOM     45  C   UNL     1       9.184  -6.441  -9.196  1.00  0.00     0.074 A 
ATOM     46  C   UNL     1       9.656  -6.244  -7.843  1.00  0.00     0.031 C 
ATOM     47  C   UNL     1       2.853  -7.194  -8.426  1.00  0.00     0.029 A 
ATOM     48  C   UNL     1       3.612  -7.253  -9.671  1.00  0.00     0.049 A 
ATOM     49  H   UNL     1       5.678  -7.113  -9.902  1.00  0.00     0.167 HD
ATOM     50  C   UNL     1       9.981  -6.436 -10.290  1.00  0.00     0.037 A 
ATOM     51  C   UNL     1       3.084  -7.411 -10.899  1.00  0.00     0.037 A 
ATOM     52  C   UNL     1       9.521  -6.686 -11.630  1.00  0.00     0.049 A 
ATOM     53  C   UNL     1       3.995  -7.433 -12.096  1.00  0.00     0.074 A 
ATOM     54  C   UNL     1      10.264  -6.785 -12.793  1.00  0.00     0.029 A 
ATOM     55  N   UNL     1       8.195  -6.885 -11.983  1.00  0.00    -0.354 N 
ATOM     56  N   UNL     1       5.297  -7.295 -12.146  1.00  0.00    -0.248 NA
ATOM     57  C   UNL     1       3.362  -7.632 -13.408  1.00  0.00     0.031 C 
ATOM     58  C   UNL     1       9.384  -7.012 -13.856  1.00  0.00     0.029 A 
ATOM     59  C   UNL     1       8.097  -7.092 -13.349  1.00  0.00     0.049 A 
ATOM     60  H   UNL     1       7.436  -6.879 -11.356  1.00  0.00     0.167 HD
ATOM     61  C   UNL     1       5.642  -7.416 -13.485  1.00  0.00     0.074 A 
ATOM     62  C   UNL     1       4.414  -7.650 -14.215  1.00  0.00     0.031 C 
ATOM     63  C   UNL     1       6.868  -7.337 -14.058  1.00  0.00     0.037 A 
BRANCH  50  64
ATOM     64  C   UNL     1      11.441  -6.164 -10.080  1.00  0.00     0.064 A 
ATOM     65  C   UNL     1      12.280  -7.099  -9.454  1.00  0.00     0.173 A 
ATOM     66  C   UNL     1      12.015  -4.966 -10.533  1.00  0.00     0.173 A 
ATOM     67  F   UNL     1      11.776  -8.253  -8.992  1.00  0.00    -0.203 F 
ATOM     68  C   UNL     1      13.632  -6.832  -9.261  1.00  0.00     0.198 A 
ATOM     69  C   UNL     1      13.374  -4.716 -10.365  1.00  0.00     0.198 A 
ATOM     70  F   UNL     1      11.259  -4.041 -11.142  1.00  0.00    -0.203 F 
ATOM     71  F   UNL     1      14.402  -7.718  -8.615  1.00  0.00    -0.200 F 
ATOM     72  C   UNL     1      14.180  -5.644  -9.722  1.00  0.00     0.200 A 
ATOM     73  F   UNL     1      13.905  -3.572 -10.821  1.00  0.00    -0.200 F 
ATOM     74  F   UNL     1      15.483  -5.391  -9.540  1.00  0.00    -0.200 F 
ENDBRANCH  50  64
BRANCH  51  75
ATOM     75  C   UNL     1       1.618  -7.588 -11.061  1.00  0.00     0.064 A 
ATOM     76  C   UNL     1       1.085  -8.833 -11.426  1.00  0.00     0.173 A 
ATOM     77  C   UNL     1       0.723  -6.527 -10.864  1.00  0.00     0.173 A 
ATOM     78  F   UNL     1       1.903  -9.871 -11.649  1.00  0.00    -0.203 F 
ATOM     79  C   UNL     1      -0.286  -9.005 -11.604  1.00  0.00     0.198 A 
ATOM     80  C   UNL     1      -0.650  -6.706 -11.018  1.00  0.00     0.198 A 
ATOM     81  F   UNL     1       1.183  -5.318 -10.512  1.00  0.00    -0.203 F 
ATOM     82  F   UNL     1      -0.765 -10.194 -11.995  1.00  0.00    -0.200 F 
ATOM     83  C   UNL     1      -1.153  -7.943 -11.395  1.00  0.00     0.200 A 
ATOM     84  F   UNL     1      -1.486  -5.681 -10.806  1.00  0.00    -0.200 F 
ATOM     85  F   UNL     1      -2.472  -8.109 -11.565  1.00  0.00    -0.200 F 
ENDBRANCH  51  75
BRANCH  63  86
ATOM     86  C   UNL     1       6.949  -7.539 -15.541  1.00  0.00     0.064 A 
ATOM     87  C   UNL     1       6.524  -6.551 -16.440  1.00  0.00     0.173 A 
ATOM     88  C   UNL     1       7.505  -8.715 -16.067  1.00  0.00     0.173 A 
ATOM     89  F   UNL     1       5.970  -5.417 -15.985  1.00  0.00    -0.203 F 
ATOM     90  C   UNL     1       6.638  -6.740 -17.815  1.00  0.00     0.198 A 
ATOM     91  C   UNL     1       7.641  -8.890 -17.441  1.00  0.00     0.198 A 
ATOM     92  F   UNL     1       7.930  -9.687 -15.246  1.00  0.00    -0.203 F 
ATOM     93  F   UNL     1       6.192  -5.799 -18.658  1.00  0.00    -0.200 F 
ATOM     94  C   UNL     1       7.203  -7.905 -18.313  1.00  0.00     0.200 A 
ATOM     95  F   UNL     1       8.197 -10.011 -17.921  1.00  0.00    -0.200 F 
ATOM     96  F   UNL     1       7.321  -8.081 -19.637  1.00  0.00    -0.200 F 
ENDBRANCH  63  86
ENDBRANCH  37  38
ENDBRANCH  29  32
ENDBRANCH  27  28
ENDBRANCH  26  27
ENDBRANCH  25  26
ENDBRANCH   3  25
TORSDOF 15
