REMARK SMILES CCOc1cc(CO)cc(Br)c1OCC(C)(C)C(=O)NCCCNC(=O)c1ccc(-c2c3nc(c(-c4c(F)c(F)c(F)c(F)c4F)c4ccc([nH]4)c(-c4c(F)c(F)c(F)c(F)c4F)c4nc(c(-c5c(F)c(F)c(F)c(F)c5F)c5ccc2[nH]5)C=C4)C=C3)cc1
REMARK SMILES IDX 18 1 19 2 20 3 15 5 16 6 17 7 14 8 13 9 12 10 4 11 5 12 6 13
REMARK SMILES IDX 10 14 9 15 11 16 3 17 2 18 1 19 7 20 8 21 21 23 22 24 23 25
REMARK SMILES IDX 24 26 25 27 26 29 27 30 28 31 89 32 29 33 88 34 30 35 31 36
REMARK SMILES IDX 32 37 82 38 33 39 87 40 81 41 83 42 34 43 86 44 80 45 79 46
REMARK SMILES IDX 35 48 67 49 47 50 66 51 48 52 51 53 65 54 84 55 49 56 50 57
REMARK SMILES IDX 64 59 85 60 52 61 36 62 37 63 45 64 38 65 39 66 43 67 46 68
REMARK SMILES IDX 40 69 41 70 44 71 42 72 68 73 69 74 77 75 70 76 71 77 75 78
REMARK SMILES IDX 78 79 72 80 73 81 76 82 74 83 53 84 54 85 62 86 55 87 56 88
REMARK SMILES IDX 60 89 63 90 57 91 58 92 61 93 59 94
REMARK H PARENT 20 4 8 22 24 28 83 47 51 58
REMARK Flexibility Score: inf
ROOT
ATOM      1  C   UNL     1       2.953   6.015   2.478  1.00  0.00     0.229 C 
ATOM      2  O   UNL     1       1.746   5.793   2.588  1.00  0.00    -0.274 OA
ATOM      3  N   UNL     1       3.649   6.132   3.649  1.00  0.00    -0.355 N 
ATOM      4  H   UNL     1       3.092   6.031   4.454  1.00  0.00     0.163 HD
ENDROOT
BRANCH   1   5
ATOM      5  C   UNL     1       3.643   6.175   1.113  1.00  0.00     0.077 C 
ATOM      6  C   UNL     1       4.790   5.160   1.022  1.00  0.00     0.025 C 
ATOM      7  C   UNL     1       4.156   7.633   1.006  1.00  0.00     0.025 C 
BRANCH   5   8
ATOM      8  C   UNL     1       2.596   6.044  -0.065  1.00  0.00     0.246 C 
BRANCH   8   9
ATOM      9  O   UNL     1       2.093   4.775  -0.498  1.00  0.00    -0.487 OA
BRANCH   9  10
ATOM     10  C   UNL     1       2.900   3.776  -0.966  1.00  0.00     0.175 A 
ATOM     11  C   UNL     1       2.469   2.481  -0.612  1.00  0.00     0.162 A 
ATOM     12  C   UNL     1       3.352   1.404  -0.693  1.00  0.00     0.056 A 
ATOM     13  C   UNL     1       4.665   1.587  -1.138  1.00  0.00    -0.018 A 
ATOM     14  C   UNL     1       4.109   3.900  -1.661  1.00  0.00     0.064 A 
ATOM     15  C   UNL     1       5.008   2.822  -1.693  1.00  0.00     0.026 A 
ATOM     16  Br  UNL     1       4.622   5.432  -2.666  1.00  0.00    -0.047 Br
BRANCH  11  17
ATOM     17  O   UNL     1       1.135   2.327  -0.331  1.00  0.00    -0.490 OA
BRANCH  17  18
ATOM     18  C   UNL     1       0.751   1.457   0.732  1.00  0.00     0.226 C 
ATOM     19  C   UNL     1       0.580   0.007   0.298  1.00  0.00     0.049 C 
ENDBRANCH  17  18
ENDBRANCH  11  17
BRANCH  13  20
ATOM     20  C   UNL     1       5.646   0.445  -1.125  1.00  0.00     0.191 C 
BRANCH  20  21
ATOM     21  O   UNL     1       5.526  -0.319   0.070  1.00  0.00    -0.392 OA
ATOM     22  H   UNL     1       5.713   0.246   0.836  1.00  0.00     0.211 HD
ENDBRANCH  20  21
ENDBRANCH  13  20
ENDBRANCH   9  10
ENDBRANCH   8   9
ENDBRANCH   5   8
ENDBRANCH   1   5
BRANCH   3  23
ATOM     23  C   UNL     1       5.057   6.376   3.936  1.00  0.00     0.117 C 
BRANCH  23  24
ATOM     24  C   UNL     1       5.271   7.561   4.855  1.00  0.00     0.042 C 
BRANCH  24  25
ATOM     25  C   UNL     1       4.728   7.336   6.251  1.00  0.00     0.118 C 
BRANCH  25  26
ATOM     26  N   UNL     1       5.390   6.229   6.933  1.00  0.00    -0.352 N 
ATOM     27  C   UNL     1       6.240   6.236   8.009  1.00  0.00     0.251 C 
ATOM     28  H   UNL     1       5.196   5.338   6.563  1.00  0.00     0.163 HD
ATOM     29  O   UNL     1       6.876   5.222   8.294  1.00  0.00    -0.269 OA
BRANCH  27  30
ATOM     30  C   UNL     1       6.407   7.463   8.812  1.00  0.00     0.039 A 
ATOM     31  C   UNL     1       7.673   7.797   9.294  1.00  0.00     0.014 A 
ATOM     32  C   UNL     1       5.313   8.285   9.089  1.00  0.00     0.014 A 
ATOM     33  C   UNL     1       7.848   8.991   9.994  1.00  0.00     0.010 A 
ATOM     34  C   UNL     1       5.512   9.530   9.666  1.00  0.00     0.010 A 
ATOM     35  C   UNL     1       6.777   9.886  10.150  1.00  0.00    -0.014 A 
BRANCH  35  36
ATOM     36  C   UNL     1       6.953  11.184  10.845  1.00  0.00     0.031 A 
ATOM     37  C   UNL     1       6.163  11.487  12.089  1.00  0.00     0.074 A 
ATOM     38  C   UNL     1       7.784  12.108  10.325  1.00  0.00     0.049 A 
ATOM     39  N   UNL     1       6.160  12.569  12.825  1.00  0.00    -0.248 NA
ATOM     40  C   UNL     1       5.223  10.451  12.549  1.00  0.00     0.031 C 
ATOM     41  C   UNL     1       8.548  11.957   9.086  1.00  0.00     0.029 A 
ATOM     42  N   UNL     1       8.124  13.358  10.774  1.00  0.00    -0.354 N 
ATOM     43  C   UNL     1       5.214  12.347  13.818  1.00  0.00     0.074 A 
ATOM     44  C   UNL     1       4.609  11.063  13.548  1.00  0.00     0.031 C 
ATOM     45  C   UNL     1       9.299  13.053   8.896  1.00  0.00     0.029 A 
ATOM     46  C   UNL     1       9.039  13.998   9.976  1.00  0.00     0.049 A 
ATOM     47  H   UNL     1       7.748  13.758  11.592  1.00  0.00     0.167 HD
ATOM     48  C   UNL     1       4.903  13.128  14.880  1.00  0.00     0.037 A 
ATOM     49  C   UNL     1       9.605  15.213  10.104  1.00  0.00     0.037 A 
ATOM     50  C   UNL     1       5.527  14.395  15.154  1.00  0.00     0.049 A 
ATOM     51  C   UNL     1       9.249  16.058  11.297  1.00  0.00     0.074 A 
ATOM     52  C   UNL     1       5.335  15.237  16.235  1.00  0.00     0.029 A 
ATOM     53  N   UNL     1       6.463  15.007  14.331  1.00  0.00    -0.354 N 
ATOM     54  N   UNL     1       8.418  15.801  12.278  1.00  0.00    -0.248 NA
ATOM     55  C   UNL     1       9.921  17.359  11.405  1.00  0.00     0.031 C 
ATOM     56  C   UNL     1       6.109  16.385  16.036  1.00  0.00     0.029 A 
ATOM     57  C   UNL     1       6.836  16.230  14.866  1.00  0.00     0.049 A 
ATOM     58  H   UNL     1       6.810  14.628  13.491  1.00  0.00     0.167 HD
ATOM     59  C   UNL     1       8.485  16.894  13.132  1.00  0.00     0.074 A 
ATOM     60  C   UNL     1       9.460  17.803  12.565  1.00  0.00     0.031 C 
ATOM     61  C   UNL     1       7.802  17.127  14.281  1.00  0.00     0.037 A 
BRANCH  48  62
ATOM     62  C   UNL     1       3.839  12.629  15.818  1.00  0.00     0.064 A 
ATOM     63  C   UNL     1       4.032  11.492  16.619  1.00  0.00     0.173 A 
ATOM     64  C   UNL     1       2.615  13.304  15.929  1.00  0.00     0.173 A 
ATOM     65  F   UNL     1       5.179  10.799  16.544  1.00  0.00    -0.203 F 
ATOM     66  C   UNL     1       3.026  11.028  17.463  1.00  0.00     0.198 A 
ATOM     67  C   UNL     1       1.625  12.859  16.802  1.00  0.00     0.198 A 
ATOM     68  F   UNL     1       2.375  14.398  15.190  1.00  0.00    -0.203 F 
ATOM     69  F   UNL     1       3.211   9.903  18.168  1.00  0.00    -0.200 F 
ATOM     70  C   UNL     1       1.827  11.716  17.560  1.00  0.00     0.200 A 
ATOM     71  F   UNL     1       0.471  13.534  16.904  1.00  0.00    -0.200 F 
ATOM     72  F   UNL     1       0.861  11.271  18.376  1.00  0.00    -0.200 F 
ENDBRANCH  48  62
BRANCH  49  73
ATOM     73  C   UNL     1      10.590  15.683   9.095  1.00  0.00     0.064 A 
ATOM     74  C   UNL     1      11.944  15.835   9.425  1.00  0.00     0.173 A 
ATOM     75  C   UNL     1      10.201  15.987   7.783  1.00  0.00     0.173 A 
ATOM     76  F   UNL     1      12.364  15.573  10.672  1.00  0.00    -0.203 F 
ATOM     77  C   UNL     1      12.867  16.296   8.488  1.00  0.00     0.198 A 
ATOM     78  C   UNL     1      11.130  16.417   6.837  1.00  0.00     0.198 A 
ATOM     79  F   UNL     1       8.919  15.850   7.413  1.00  0.00    -0.203 F 
ATOM     80  F   UNL     1      14.146  16.478   8.844  1.00  0.00    -0.200 F 
ATOM     81  C   UNL     1      12.460  16.580   7.193  1.00  0.00     0.200 A 
ATOM     82  F   UNL     1      10.736  16.672   5.582  1.00  0.00    -0.200 F 
ATOM     83  F   UNL     1      13.349  17.016   6.290  1.00  0.00    -0.200 F 
ENDBRANCH  49  73
BRANCH  61  84
ATOM     84  C   UNL     1       8.108  18.405  15.010  1.00  0.00     0.064 A 
ATOM     85  C   UNL     1       7.755  19.658  14.486  1.00  0.00     0.173 A 
ATOM     86  C   UNL     1       8.755  18.374  16.255  1.00  0.00     0.173 A 
ATOM     87  F   UNL     1       7.146  19.744  13.293  1.00  0.00    -0.203 F 
ATOM     88  C   UNL     1       8.079  20.833  15.158  1.00  0.00     0.198 A 
ATOM     89  C   UNL     1       9.042  19.549  16.943  1.00  0.00     0.198 A 
ATOM     90  F   UNL     1       9.105  17.203  16.808  1.00  0.00    -0.203 F 
ATOM     91  F   UNL     1       7.796  22.019  14.604  1.00  0.00    -0.200 F 
ATOM     92  C   UNL     1       8.717  20.777  16.389  1.00  0.00     0.200 A 
ATOM     93  F   UNL     1       9.642  19.493  18.141  1.00  0.00    -0.200 F 
ATOM     94  F   UNL     1       9.029  21.909  17.034  1.00  0.00    -0.200 F 
ENDBRANCH  61  84
ENDBRANCH  35  36
ENDBRANCH  27  30
ENDBRANCH  25  26
ENDBRANCH  24  25
ENDBRANCH  23  24
ENDBRANCH   3  23
TORSDOF 17
