REMARK SMILES CCCN(CC)S(=O)(=O)c1ccc(C(=O)NCCCNC(=O)c2ccc(-c3c4nc(c(-c5c(F)c(F)c(F)c(F)c5F)c5ccc([nH]5)c(-c5c(F)c(F)c(F)c(F)c5F)c5nc(c(-c6c(F)c(F)c(F)c(F)c6F)c6ccc3[nH]6)C=C5)C=C4)cc2)o1
REMARK SMILES IDX 17 1 16 2 14 3 15 4 13 6 10 7 11 8 86 9 12 10 7 11 8 12 9 13
REMARK SMILES IDX 4 14 3 15 2 16 1 17 5 18 6 19 18 20 19 21 20 22 21 23 22 25
REMARK SMILES IDX 23 26 24 27 85 28 25 29 84 30 26 31 27 32 28 33 78 34 29 35
REMARK SMILES IDX 83 36 77 37 79 38 30 39 82 40 76 41 75 42 31 44 63 45 43 46
REMARK SMILES IDX 62 47 44 48 47 49 61 50 80 51 45 52 46 53 60 55 81 56 48 57
REMARK SMILES IDX 32 58 33 59 41 60 34 61 35 62 39 63 42 64 36 65 37 66 40 67
REMARK SMILES IDX 38 68 64 69 65 70 73 71 66 72 67 73 71 74 74 75 68 76 69 77
REMARK SMILES IDX 72 78 70 79 49 80 50 81 58 82 51 83 52 84 56 85 59 86 53 87
REMARK SMILES IDX 54 88 57 89 55 90
REMARK H PARENT 16 5 20 24 79 43 47 54
REMARK Flexibility Score: inf
ROOT
ATOM      1  C   UNL     1      -1.302   8.498   0.354  1.00  0.00     0.118 C 
ENDROOT
BRANCH   1   2
ATOM      2  N   UNL     1       0.095   8.476   0.731  1.00  0.00    -0.349 N 
ATOM      3  C   UNL     1       0.912   7.427   1.080  1.00  0.00     0.287 C 
ATOM      4  O   UNL     1       2.092   7.710   1.290  1.00  0.00    -0.266 OA
ATOM      5  H   UNL     1       0.533   9.358   0.739  1.00  0.00     0.163 HD
BRANCH   3   6
ATOM      6  C   UNL     1       0.392   6.076   1.165  1.00  0.00     0.193 A 
ATOM      7  C   UNL     1       0.640   3.859   1.054  1.00  0.00     0.234 A 
ATOM      8  C   UNL     1      -0.703   4.118   1.283  1.00  0.00     0.065 A 
ATOM      9  O   UNL     1       1.299   5.063   1.004  1.00  0.00    -0.438 OA
ATOM     10  C   UNL     1      -0.852   5.518   1.391  1.00  0.00     0.058 A 
BRANCH   7  11
ATOM     11  S   UNL     1       1.489   2.296   0.857  1.00  0.00     0.276 S 
ATOM     12  O   UNL     1       2.902   2.575   0.964  1.00  0.00    -0.204 OA
ATOM     13  O   UNL     1       0.913   1.757  -0.356  1.00  0.00    -0.204 OA
BRANCH  11  14
ATOM     14  N   UNL     1       1.020   1.309   2.179  1.00  0.00    -0.195 NA
BRANCH  14  15
ATOM     15  C   UNL     1       1.502  -0.102   2.125  1.00  0.00     0.102 C 
BRANCH  15  16
ATOM     16  C   UNL     1       0.588  -1.012   1.303  1.00  0.00     0.013 C 
ATOM     17  C   UNL     1       0.991  -1.158  -0.160  1.00  0.00     0.005 C 
ENDBRANCH  15  16
ENDBRANCH  14  15
BRANCH  14  18
ATOM     18  C   UNL     1       1.172   1.918   3.538  1.00  0.00     0.099 C 
ATOM     19  C   UNL     1       2.611   2.072   4.003  1.00  0.00     0.022 C 
ENDBRANCH  14  18
ENDBRANCH  11  14
ENDBRANCH   7  11
ENDBRANCH   3   6
ENDBRANCH   1   2
BRANCH   1  20
ATOM     20  C   UNL     1      -2.189   8.882   1.536  1.00  0.00     0.042 C 
BRANCH  20  21
ATOM     21  C   UNL     1      -2.059  10.350   1.932  1.00  0.00     0.118 C 
BRANCH  21  22
ATOM     22  N   UNL     1      -2.539  11.239   0.884  1.00  0.00    -0.352 N 
ATOM     23  C   UNL     1      -3.529  12.185   0.904  1.00  0.00     0.251 C 
ATOM     24  H   UNL     1      -2.077  11.145   0.020  1.00  0.00     0.163 HD
ATOM     25  O   UNL     1      -3.938  12.648  -0.157  1.00  0.00    -0.269 OA
BRANCH  23  26
ATOM     26  C   UNL     1      -4.110  12.655   2.180  1.00  0.00     0.039 A 
ATOM     27  C   UNL     1      -5.473  12.963   2.217  1.00  0.00     0.014 A 
ATOM     28  C   UNL     1      -3.317  12.865   3.312  1.00  0.00     0.014 A 
ATOM     29  C   UNL     1      -6.045  13.445   3.394  1.00  0.00     0.010 A 
ATOM     30  C   UNL     1      -3.904  13.273   4.508  1.00  0.00     0.010 A 
ATOM     31  C   UNL     1      -5.270  13.583   4.557  1.00  0.00    -0.014 A 
BRANCH  31  32
ATOM     32  C   UNL     1      -5.883  14.058   5.822  1.00  0.00     0.031 A 
ATOM     33  C   UNL     1      -5.468  15.370   6.426  1.00  0.00     0.074 A 
ATOM     34  C   UNL     1      -6.794  13.285   6.442  1.00  0.00     0.049 A 
ATOM     35  N   UNL     1      -5.891  15.948   7.522  1.00  0.00    -0.248 NA
ATOM     36  C   UNL     1      -4.420  16.124   5.719  1.00  0.00     0.031 C 
ATOM     37  C   UNL     1      -7.235  11.967   5.982  1.00  0.00     0.029 A 
ATOM     38  N   UNL     1      -7.514  13.494   7.591  1.00  0.00    -0.354 N 
ATOM     39  C   UNL     1      -5.157  17.121   7.640  1.00  0.00     0.074 A 
ATOM     40  C   UNL     1      -4.222  17.147   6.537  1.00  0.00     0.031 C 
ATOM     41  C   UNL     1      -8.174  11.500   6.820  1.00  0.00     0.029 A 
ATOM     42  C   UNL     1      -8.378  12.470   7.891  1.00  0.00     0.049 A 
ATOM     43  H   UNL     1      -7.420  14.301   8.146  1.00  0.00     0.167 HD
ATOM     44  C   UNL     1      -5.273  18.101   8.569  1.00  0.00     0.037 A 
ATOM     45  C   UNL     1      -9.242  12.333   8.914  1.00  0.00     0.037 A 
ATOM     46  C   UNL     1      -6.221  18.079   9.653  1.00  0.00     0.049 A 
ATOM     47  C   UNL     1      -9.361  13.442   9.923  1.00  0.00     0.074 A 
ATOM     48  C   UNL     1      -6.456  19.045  10.616  1.00  0.00     0.029 A 
ATOM     49  N   UNL     1      -7.093  17.033   9.917  1.00  0.00    -0.354 N 
ATOM     50  N   UNL     1      -8.713  14.581   9.983  1.00  0.00    -0.248 NA
ATOM     51  C   UNL     1     -10.341  13.251  11.000  1.00  0.00     0.031 C 
ATOM     52  C   UNL     1      -7.439  18.564  11.488  1.00  0.00     0.029 A 
ATOM     53  C   UNL     1      -7.854  17.321  11.039  1.00  0.00     0.049 A 
ATOM     54  H   UNL     1      -7.161  16.207   9.385  1.00  0.00     0.167 HD
ATOM     55  C   UNL     1      -9.223  15.252  11.086  1.00  0.00     0.074 A 
ATOM     56  C   UNL     1     -10.251  14.402  11.651  1.00  0.00     0.031 C 
ATOM     57  C   UNL     1      -8.872  16.462  11.587  1.00  0.00     0.037 A 
BRANCH  44  58
ATOM     58  C   UNL     1      -4.352  19.282   8.450  1.00  0.00     0.064 A 
ATOM     59  C   UNL     1      -4.480  20.212   7.406  1.00  0.00     0.173 A 
ATOM     60  C   UNL     1      -3.351  19.508   9.407  1.00  0.00     0.173 A 
ATOM     61  F   UNL     1      -5.413  20.038   6.458  1.00  0.00    -0.203 F 
ATOM     62  C   UNL     1      -3.622  21.304   7.308  1.00  0.00     0.198 A 
ATOM     63  C   UNL     1      -2.515  20.618   9.323  1.00  0.00     0.198 A 
ATOM     64  F   UNL     1      -3.188  18.655  10.429  1.00  0.00    -0.203 F 
ATOM     65  F   UNL     1      -3.731  22.149   6.273  1.00  0.00    -0.200 F 
ATOM     66  C   UNL     1      -2.645  21.511   8.270  1.00  0.00     0.200 A 
ATOM     67  F   UNL     1      -1.579  20.824  10.261  1.00  0.00    -0.200 F 
ATOM     68  F   UNL     1      -1.824  22.566   8.177  1.00  0.00    -0.200 F 
ENDBRANCH  44  58
BRANCH  45  69
ATOM     69  C   UNL     1     -10.092  11.118   9.010  1.00  0.00     0.064 A 
ATOM     70  C   UNL     1     -11.476  11.190   8.795  1.00  0.00     0.173 A 
ATOM     71  C   UNL     1      -9.543   9.865   9.315  1.00  0.00     0.173 A 
ATOM     72  F   UNL     1     -12.050  12.370   8.517  1.00  0.00    -0.203 F 
ATOM     73  C   UNL     1     -12.281  10.059   8.906  1.00  0.00     0.198 A 
ATOM     74  C   UNL     1     -10.345   8.729   9.397  1.00  0.00     0.198 A 
ATOM     75  F   UNL     1      -8.223   9.741   9.521  1.00  0.00    -0.203 F 
ATOM     76  F   UNL     1     -13.607  10.164   8.742  1.00  0.00    -0.200 F 
ATOM     77  C   UNL     1     -11.714   8.828   9.201  1.00  0.00     0.200 A 
ATOM     78  F   UNL     1      -9.791   7.538   9.665  1.00  0.00    -0.200 F 
ATOM     79  F   UNL     1     -12.488   7.739   9.302  1.00  0.00    -0.200 F 
ENDBRANCH  45  69
BRANCH  57  80
ATOM     80  C   UNL     1      -9.628  16.945  12.791  1.00  0.00     0.064 A 
ATOM     81  C   UNL     1      -9.460  16.353  14.052  1.00  0.00     0.173 A 
ATOM     82  C   UNL     1     -10.522  18.021  12.684  1.00  0.00     0.173 A 
ATOM     83  F   UNL     1      -8.629  15.311  14.204  1.00  0.00    -0.203 F 
ATOM     84  C   UNL     1     -10.188  16.796  15.153  1.00  0.00     0.198 A 
ATOM     85  C   UNL     1     -11.223  18.483  13.794  1.00  0.00     0.198 A 
ATOM     86  F   UNL     1     -10.713  18.627  11.503  1.00  0.00    -0.203 F 
ATOM     87  F   UNL     1     -10.057  16.176  16.334  1.00  0.00    -0.200 F 
ATOM     88  C   UNL     1     -11.064  17.864  15.025  1.00  0.00     0.200 A 
ATOM     89  F   UNL     1     -12.059  19.523  13.671  1.00  0.00    -0.200 F 
ATOM     90  F   UNL     1     -11.765  18.288  16.085  1.00  0.00    -0.200 F 
ENDBRANCH  57  80
ENDBRANCH  31  32
ENDBRANCH  23  26
ENDBRANCH  21  22
ENDBRANCH  20  21
ENDBRANCH   1  20
TORSDOF 15
