REMARK SMILES C[C@H](C(=O)Nc1ccc(C(=O)NCCCNC(=O)c2ccc(-c3c4nc(c(-c5c(F)c(F)c(F)c(F)c5F)c5ccc([nH]5)c(-c5c(F)c(F)c(F)c(F)c5F)c5nc(c(-c6c(F)c(F)c(F)c(F)c6F)c6ccc3[nH]6)C=C5)C=C4)cc2)cc1)N1C(=O)/C(=C\c2ccco2)SC1=S
REMARK SMILES IDX 13 1 12 2 10 3 11 4 9 6 6 7 7 8 83 9 8 10 82 11 5 12 3 13
REMARK SMILES IDX 4 14 2 16 1 17 84 18 85 19 95 20 86 21 87 22 94 23 96 24
REMARK SMILES IDX 88 25 89 26 90 27 93 28 91 29 92 30 14 31 15 32 16 33 17 34
REMARK SMILES IDX 18 36 19 37 20 38 81 39 21 40 80 41 22 42 23 43 24 44 74 45
REMARK SMILES IDX 25 46 79 47 73 48 75 49 26 50 78 51 72 52 71 53 27 55 59 56
REMARK SMILES IDX 39 57 58 58 40 59 43 60 57 61 76 62 41 63 42 64 56 66 77 67
REMARK SMILES IDX 44 68 28 69 29 70 37 71 30 72 31 73 35 74 38 75 32 76 33 77
REMARK SMILES IDX 36 78 34 79 60 80 61 81 69 82 62 83 63 84 67 85 70 86 64 87
REMARK SMILES IDX 65 88 68 89 66 90 45 91 46 92 54 93 47 94 48 95 52 96 55 97
REMARK SMILES IDX 49 98 50 99 53 100 51 101
REMARK H PARENT 12 5 5 15 16 35 75 54 43 65
REMARK Flexibility Score: inf
ROOT
ATOM      1  C   UNL     1      -5.801   0.022   1.253  1.00  0.00     0.118 C 
ENDROOT
BRANCH   1   2
ATOM      2  N   UNL     1      -6.304   0.181  -0.096  1.00  0.00    -0.352 N 
ATOM      3  C   UNL     1      -5.605   0.270  -1.279  1.00  0.00     0.251 C 
ATOM      4  O   UNL     1      -6.216   0.202  -2.342  1.00  0.00    -0.269 OA
ATOM      5  H   UNL     1      -7.284   0.234  -0.179  1.00  0.00     0.163 HD
BRANCH   3   6
ATOM      6  C   UNL     1      -4.122   0.376  -1.289  1.00  0.00     0.039 A 
ATOM      7  C   UNL     1      -1.325   0.309  -1.220  1.00  0.00     0.041 A 
ATOM      8  C   UNL     1      -2.014  -0.407  -2.198  1.00  0.00     0.027 A 
ATOM      9  C   UNL     1      -2.025   1.177  -0.385  1.00  0.00     0.027 A 
ATOM     10  C   UNL     1      -3.412  -0.394  -2.216  1.00  0.00     0.016 A 
ATOM     11  C   UNL     1      -3.421   1.225  -0.429  1.00  0.00     0.016 A 
BRANCH   7  12
ATOM     12  N   UNL     1       0.067   0.222  -1.181  1.00  0.00    -0.324 N 
ATOM     13  C   UNL     1       0.920   0.278  -0.108  1.00  0.00     0.247 C 
ATOM     14  O   UNL     1       2.042   0.756  -0.314  1.00  0.00    -0.272 OA
ATOM     15  H   UNL     1       0.503   0.104  -2.055  1.00  0.00     0.170 HD
BRANCH  13  16
ATOM     16  C   UNL     1       0.673  -0.624   1.143  1.00  0.00     0.178 C 
ATOM     17  C   UNL     1       1.701  -0.326   2.245  1.00  0.00     0.042 C 
BRANCH  16  18
ATOM     18  N   UNL     1      -0.684  -0.864   1.675  1.00  0.00    -0.280 N 
ATOM     19  C   UNL     1      -1.328  -2.043   1.295  1.00  0.00     0.267 C 
ATOM     20  C   UNL     1      -1.369  -0.051   2.556  1.00  0.00     0.149 C 
ATOM     21  O   UNL     1      -0.889  -2.868   0.511  1.00  0.00    -0.268 OA
ATOM     22  C   UNL     1      -2.662  -2.149   1.954  1.00  0.00     0.084 C 
ATOM     23  S   UNL     1      -2.893  -0.798   2.999  1.00  0.00    -0.054 SA
ATOM     24  S   UNL     1      -0.959   1.437   3.190  1.00  0.00    -0.052 S 
ATOM     25  C   UNL     1      -3.569  -3.131   1.871  1.00  0.00     0.068 C 
BRANCH  25  26
ATOM     26  C   UNL     1      -3.257  -4.433   1.407  1.00  0.00     0.127 A 
ATOM     27  C   UNL     1      -2.487  -5.383   2.068  1.00  0.00     0.050 A 
ATOM     28  O   UNL     1      -3.788  -5.027   0.287  1.00  0.00    -0.465 OA
ATOM     29  C   UNL     1      -2.548  -6.582   1.331  1.00  0.00     0.042 A 
ATOM     30  C   UNL     1      -3.340  -6.309   0.244  1.00  0.00     0.195 A 
ENDBRANCH  25  26
ENDBRANCH  16  18
ENDBRANCH  13  16
ENDBRANCH   7  12
ENDBRANCH   3   6
ENDBRANCH   1   2
BRANCH   1  31
ATOM     31  C   UNL     1      -6.140   1.202   2.151  1.00  0.00     0.042 C 
BRANCH  31  32
ATOM     32  C   UNL     1      -7.557   1.133   2.697  1.00  0.00     0.118 C 
BRANCH  32  33
ATOM     33  N   UNL     1      -7.715   0.109   3.726  1.00  0.00    -0.352 N 
ATOM     34  C   UNL     1      -8.242   0.211   4.993  1.00  0.00     0.251 C 
ATOM     35  H   UNL     1      -7.397  -0.788   3.476  1.00  0.00     0.163 HD
ATOM     36  O   UNL     1      -8.158  -0.736   5.769  1.00  0.00    -0.269 OA
BRANCH  34  37
ATOM     37  C   UNL     1      -8.881   1.472   5.430  1.00  0.00     0.039 A 
ATOM     38  C   UNL     1      -8.620   1.959   6.714  1.00  0.00     0.014 A 
ATOM     39  C   UNL     1      -9.720   2.182   4.570  1.00  0.00     0.014 A 
ATOM     40  C   UNL     1      -9.134   3.200   7.102  1.00  0.00     0.010 A 
ATOM     41  C   UNL     1     -10.147   3.457   4.920  1.00  0.00     0.010 A 
ATOM     42  C   UNL     1      -9.864   3.979   6.191  1.00  0.00    -0.014 A 
BRANCH  42  43
ATOM     43  C   UNL     1     -10.370   5.332   6.538  1.00  0.00     0.031 A 
ATOM     44  C   UNL     1     -11.851   5.601   6.508  1.00  0.00     0.074 A 
ATOM     45  C   UNL     1      -9.506   6.335   6.791  1.00  0.00     0.049 A 
ATOM     46  N   UNL     1     -12.493   6.736   6.626  1.00  0.00    -0.248 NA
ATOM     47  C   UNL     1     -12.726   4.439   6.279  1.00  0.00     0.031 C 
ATOM     48  C   UNL     1      -8.048   6.213   6.817  1.00  0.00     0.029 A 
ATOM     49  N   UNL     1      -9.731   7.663   7.057  1.00  0.00    -0.354 N 
ATOM     50  C   UNL     1     -13.837   6.426   6.465  1.00  0.00     0.074 A 
ATOM     51  C   UNL     1     -13.916   5.011   6.178  1.00  0.00     0.031 C 
ATOM     52  C   UNL     1      -7.510   7.409   7.105  1.00  0.00     0.029 A 
ATOM     53  C   UNL     1      -8.580   8.393   7.234  1.00  0.00     0.049 A 
ATOM     54  H   UNL     1     -10.632   8.056   7.115  1.00  0.00     0.167 HD
ATOM     55  C   UNL     1     -14.912   7.242   6.576  1.00  0.00     0.037 A 
ATOM     56  C   UNL     1      -8.410   9.710   7.460  1.00  0.00     0.037 A 
ATOM     57  C   UNL     1     -14.831   8.643   6.891  1.00  0.00     0.049 A 
ATOM     58  C   UNL     1      -9.623  10.600   7.553  1.00  0.00     0.074 A 
ATOM     59  C   UNL     1     -15.862   9.550   7.060  1.00  0.00     0.029 A 
ATOM     60  N   UNL     1     -13.648   9.339   7.090  1.00  0.00    -0.354 N 
ATOM     61  N   UNL     1     -10.891  10.288   7.446  1.00  0.00    -0.248 NA
ATOM     62  C   UNL     1      -9.378  12.028   7.804  1.00  0.00     0.031 C 
ATOM     63  C   UNL     1     -15.302  10.804   7.322  1.00  0.00     0.029 A 
ATOM     64  C   UNL     1     -13.924  10.667   7.371  1.00  0.00     0.049 A 
ATOM     65  H   UNL     1     -12.746   8.947   7.039  1.00  0.00     0.167 HD
ATOM     66  C   UNL     1     -11.594  11.466   7.660  1.00  0.00     0.074 A 
ATOM     67  C   UNL     1     -10.612  12.499   7.911  1.00  0.00     0.031 C 
ATOM     68  C   UNL     1     -12.934  11.674   7.652  1.00  0.00     0.037 A 
BRANCH  55  69
ATOM     69  C   UNL     1     -16.270   6.636   6.370  1.00  0.00     0.064 A 
ATOM     70  C   UNL     1     -16.815   5.727   7.291  1.00  0.00     0.173 A 
ATOM     71  C   UNL     1     -17.053   6.995   5.262  1.00  0.00     0.173 A 
ATOM     72  F   UNL     1     -16.102   5.340   8.360  1.00  0.00    -0.203 F 
ATOM     73  C   UNL     1     -18.080   5.180   7.096  1.00  0.00     0.198 A 
ATOM     74  C   UNL     1     -18.332   6.471   5.089  1.00  0.00     0.198 A 
ATOM     75  F   UNL     1     -16.584   7.862   4.354  1.00  0.00    -0.203 F 
ATOM     76  F   UNL     1     -18.557   4.276   7.963  1.00  0.00    -0.200 F 
ATOM     77  C   UNL     1     -18.841   5.559   6.001  1.00  0.00     0.200 A 
ATOM     78  F   UNL     1     -19.072   6.849   4.037  1.00  0.00    -0.200 F 
ATOM     79  F   UNL     1     -20.063   5.040   5.821  1.00  0.00    -0.200 F 
ENDBRANCH  55  69
BRANCH  56  80
ATOM     80  C   UNL     1      -7.045  10.275   7.636  1.00  0.00     0.064 A 
ATOM     81  C   UNL     1      -6.636  10.792   8.874  1.00  0.00     0.173 A 
ATOM     82  C   UNL     1      -6.135  10.343   6.571  1.00  0.00     0.173 A 
ATOM     83  F   UNL     1      -7.478  10.769   9.919  1.00  0.00    -0.203 F 
ATOM     84  C   UNL     1      -5.386  11.386   9.032  1.00  0.00     0.198 A 
ATOM     85  C   UNL     1      -4.872  10.909   6.738  1.00  0.00     0.198 A 
ATOM     86  F   UNL     1      -6.471   9.859   5.367  1.00  0.00    -0.203 F 
ATOM     87  F   UNL     1      -5.048  11.928  10.210  1.00  0.00    -0.200 F 
ATOM     88  C   UNL     1      -4.503  11.441   7.964  1.00  0.00     0.200 A 
ATOM     89  F   UNL     1      -4.016  10.947   5.708  1.00  0.00    -0.200 F 
ATOM     90  F   UNL     1      -3.303  12.017   8.114  1.00  0.00    -0.200 F 
ENDBRANCH  56  80
BRANCH  68  91
ATOM     91  C   UNL     1     -13.424  13.052   7.992  1.00  0.00     0.064 A 
ATOM     92  C   UNL     1     -13.270  14.132   7.112  1.00  0.00     0.173 A 
ATOM     93  C   UNL     1     -14.107  13.277   9.197  1.00  0.00     0.173 A 
ATOM     94  F   UNL     1     -12.612  13.972   5.954  1.00  0.00    -0.203 F 
ATOM     95  C   UNL     1     -13.761  15.394   7.437  1.00  0.00     0.198 A 
ATOM     96  C   UNL     1     -14.625  14.531   9.504  1.00  0.00     0.198 A 
ATOM     97  F   UNL     1     -14.288  12.274  10.070  1.00  0.00    -0.203 F 
ATOM     98  F   UNL     1     -13.562  16.423   6.602  1.00  0.00    -0.200 F 
ATOM     99  C   UNL     1     -14.446  15.590   8.627  1.00  0.00     0.200 A 
ATOM    100  F   UNL     1     -15.301  14.714  10.647  1.00  0.00    -0.200 F 
ATOM    101  F   UNL     1     -14.928  16.802   8.932  1.00  0.00    -0.200 F 
ENDBRANCH  68  91
ENDBRANCH  42  43
ENDBRANCH  34  37
ENDBRANCH  32  33
ENDBRANCH  31  32
ENDBRANCH   1  31
TORSDOF 14
