REMARK SMILES CC[C@@](C)(NC(=O)Nc1c(C)cccc1Cl)C(=O)NCCCNC(=O)c1ccc(-c2c3nc(c(-c4c(F)c(F)c(F)c(F)c4F)c4ccc([nH]4)c(-c4c(F)c(F)c(F)c(F)c4F)c4nc(c(-c5c(F)c(F)c(F)c(F)c5F)c5ccc2[nH]5)C=C4)C=C3)cc1
REMARK SMILES IDX 21 1 20 2 19 3 17 4 18 5 3 7 4 8 2 9 1 10 5 11 6 12 7 14
REMARK SMILES IDX 8 15 9 17 10 18 15 19 11 20 12 21 14 22 16 23 13 24 22 25
REMARK SMILES IDX 23 26 24 27 25 29 26 30 27 31 88 32 28 33 87 34 29 35 30 36
REMARK SMILES IDX 31 37 81 38 32 39 86 40 80 41 82 42 33 43 85 44 79 45 78 46
REMARK SMILES IDX 34 48 66 49 46 50 65 51 47 52 50 53 64 54 83 55 48 56 49 57
REMARK SMILES IDX 63 59 84 60 51 61 35 62 36 63 44 64 37 65 38 66 42 67 45 68
REMARK SMILES IDX 39 69 40 70 43 71 41 72 67 73 68 74 76 75 69 76 70 77 74 78
REMARK SMILES IDX 77 79 71 80 72 81 75 82 73 83 52 84 53 85 61 86 54 87 55 88
REMARK SMILES IDX 59 89 62 90 56 91 57 92 60 93 58 94
REMARK H PARENT 19 6 5 13 8 16 23 28 82 47 50 58
REMARK Flexibility Score: inf
ROOT
ATOM      1  C   UNL     1       2.150   1.947  -6.417  1.00  0.00     0.042 C 
ENDROOT
BRANCH   1   2
ATOM      2  C   UNL     1       1.263   0.841  -5.803  1.00  0.00     0.117 C 
BRANCH   2   3
ATOM      3  N   UNL     1       1.712   0.377  -4.501  1.00  0.00    -0.354 N 
ATOM      4  C   UNL     1       0.971   0.025  -3.378  1.00  0.00     0.245 C 
ATOM      5  O   UNL     1       0.803  -1.149  -3.057  1.00  0.00    -0.272 OA
ATOM      6  H   UNL     1       2.688   0.300  -4.398  1.00  0.00     0.163 HD
BRANCH   4   7
ATOM      7  C   UNL     1       0.304   1.206  -2.627  1.00  0.00     0.117 C 
ATOM      8  C   UNL     1      -1.158   1.052  -3.153  1.00  0.00     0.045 C 
BRANCH   7   9
ATOM      9  C   UNL     1       0.194   1.304  -1.083  1.00  0.00     0.035 C 
ATOM     10  C   UNL     1       0.448   0.082  -0.232  1.00  0.00     0.007 C 
ENDBRANCH   7   9
BRANCH   7  11
ATOM     11  N   UNL     1       0.931   2.468  -3.074  1.00  0.00    -0.324 N 
ATOM     12  C   UNL     1       2.206   2.926  -3.035  1.00  0.00     0.320 C 
ATOM     13  H   UNL     1       0.296   3.102  -3.479  1.00  0.00     0.166 HD
ATOM     14  O   UNL     1       2.369   4.128  -3.267  1.00  0.00    -0.248 OA
ATOM     15  N   UNL     1       3.316   2.112  -3.084  1.00  0.00    -0.306 N 
ATOM     16  H   UNL     1       3.819   2.159  -3.929  1.00  0.00     0.171 HD
BRANCH  15  17
ATOM     17  C   UNL     1       3.867   1.204  -2.111  1.00  0.00     0.064 A 
ATOM     18  C   UNL     1       4.079  -0.186  -2.342  1.00  0.00    -0.026 A 
ATOM     19  C   UNL     1       4.581   1.756  -1.025  1.00  0.00     0.064 A 
ATOM     20  C   UNL     1       4.022  -0.933  -3.657  1.00  0.00     0.046 C 
ATOM     21  C   UNL     1       4.589  -0.996  -1.308  1.00  0.00     0.005 A 
ATOM     22  C   UNL     1       5.250   0.949  -0.095  1.00  0.00     0.023 A 
ATOM     23  Cl  UNL     1       4.832   3.466  -0.892  1.00  0.00    -0.082 Cl
ATOM     24  C   UNL     1       5.184  -0.433  -0.194  1.00  0.00     0.002 A 
ENDBRANCH  15  17
ENDBRANCH   7  11
ENDBRANCH   4   7
ENDBRANCH   2   3
ENDBRANCH   1   2
BRANCH   1  25
ATOM     25  C   UNL     1       3.674   1.803  -6.382  1.00  0.00     0.118 C 
BRANCH  25  26
ATOM     26  N   UNL     1       4.206   0.659  -7.092  1.00  0.00    -0.352 N 
ATOM     27  C   UNL     1       5.102   0.603  -8.139  1.00  0.00     0.251 C 
ATOM     28  H   UNL     1       3.877  -0.215  -6.779  1.00  0.00     0.163 HD
ATOM     29  O   UNL     1       5.455  -0.467  -8.595  1.00  0.00    -0.269 OA
BRANCH  27  30
ATOM     30  C   UNL     1       5.580   1.858  -8.762  1.00  0.00     0.039 A 
ATOM     31  C   UNL     1       5.363   2.028 -10.132  1.00  0.00     0.014 A 
ATOM     32  C   UNL     1       6.204   2.861  -8.018  1.00  0.00     0.014 A 
ATOM     33  C   UNL     1       5.684   3.243 -10.740  1.00  0.00     0.010 A 
ATOM     34  C   UNL     1       6.462   4.097  -8.613  1.00  0.00     0.010 A 
ATOM     35  C   UNL     1       6.185   4.308  -9.975  1.00  0.00    -0.014 A 
BRANCH  35  36
ATOM     36  C   UNL     1       6.392   5.658 -10.567  1.00  0.00     0.031 A 
ATOM     37  C   UNL     1       7.766   6.264 -10.605  1.00  0.00     0.074 A 
ATOM     38  C   UNL     1       5.330   6.375 -10.986  1.00  0.00     0.049 A 
ATOM     39  N   UNL     1       8.130   7.477 -10.939  1.00  0.00    -0.248 NA
ATOM     40  C   UNL     1       8.877   5.398 -10.186  1.00  0.00     0.031 C 
ATOM     41  C   UNL     1       3.941   5.913 -10.979  1.00  0.00     0.029 A 
ATOM     42  N   UNL     1       5.249   7.655 -11.480  1.00  0.00    -0.354 N 
ATOM     43  C   UNL     1       9.504   7.526 -10.746  1.00  0.00     0.074 A 
ATOM     44  C   UNL     1       9.902   6.237 -10.224  1.00  0.00     0.031 C 
ATOM     45  C   UNL     1       3.149   6.888 -11.453  1.00  0.00     0.029 A 
ATOM     46  C   UNL     1       3.964   8.063 -11.748  1.00  0.00     0.049 A 
ATOM     47  H   UNL     1       6.037   8.227 -11.627  1.00  0.00     0.167 HD
ATOM     48  C   UNL     1      10.357   8.549 -10.997  1.00  0.00     0.037 A 
ATOM     49  C   UNL     1       3.491   9.255 -12.163  1.00  0.00     0.037 A 
ATOM     50  C   UNL     1       9.958   9.823 -11.536  1.00  0.00     0.049 A 
ATOM     51  C   UNL     1       4.457  10.384 -12.409  1.00  0.00     0.074 A 
ATOM     52  C   UNL     1      10.753  10.906 -11.869  1.00  0.00     0.029 A 
ATOM     53  N   UNL     1       8.649  10.188 -11.817  1.00  0.00    -0.354 N 
ATOM     54  N   UNL     1       5.760  10.403 -12.270  1.00  0.00    -0.248 NA
ATOM     55  C   UNL     1       3.887  11.657 -12.874  1.00  0.00     0.031 C 
ATOM     56  C   UNL     1       9.922  11.944 -12.300  1.00  0.00     0.029 A 
ATOM     57  C   UNL     1       8.614  11.486 -12.301  1.00  0.00     0.049 A 
ATOM     58  H   UNL     1       7.862   9.610 -11.692  1.00  0.00     0.167 HD
ATOM     59  C   UNL     1       6.169  11.669 -12.669  1.00  0.00     0.074 A 
ATOM     60  C   UNL     1       4.976  12.390 -13.059  1.00  0.00     0.031 C 
ATOM     61  C   UNL     1       7.422  12.184 -12.713  1.00  0.00     0.037 A 
BRANCH  48  62
ATOM     62  C   UNL     1      11.811   8.336 -10.682  1.00  0.00     0.064 A 
ATOM     63  C   UNL     1      12.602   7.438 -11.417  1.00  0.00     0.173 A 
ATOM     64  C   UNL     1      12.432   9.065  -9.657  1.00  0.00     0.173 A 
ATOM     65  F   UNL     1      12.057   6.709 -12.403  1.00  0.00    -0.203 F 
ATOM     66  C   UNL     1      13.948   7.253 -11.113  1.00  0.00     0.198 A 
ATOM     67  C   UNL     1      13.787   8.904  -9.379  1.00  0.00     0.198 A 
ATOM     68  F   UNL     1      11.727   9.945  -8.929  1.00  0.00    -0.203 F 
ATOM     69  F   UNL     1      14.668   6.349 -11.791  1.00  0.00    -0.200 F 
ATOM     70  C   UNL     1      14.541   7.991 -10.100  1.00  0.00     0.200 A 
ATOM     71  F   UNL     1      14.363   9.631  -8.412  1.00  0.00    -0.200 F 
ATOM     72  F   UNL     1      15.839   7.818  -9.814  1.00  0.00    -0.200 F 
ENDBRANCH  48  62
BRANCH  49  73
ATOM     73  C   UNL     1       2.032   9.444 -12.384  1.00  0.00     0.064 A 
ATOM     74  C   UNL     1       1.519   9.640 -13.674  1.00  0.00     0.173 A 
ATOM     75  C   UNL     1       1.122   9.445 -11.316  1.00  0.00     0.173 A 
ATOM     76  F   UNL     1       2.350   9.668 -14.727  1.00  0.00    -0.203 F 
ATOM     77  C   UNL     1       0.159   9.856 -13.885  1.00  0.00     0.198 A 
ATOM     78  C   UNL     1      -0.242   9.629 -11.531  1.00  0.00     0.198 A 
ATOM     79  F   UNL     1       1.558   9.257 -10.062  1.00  0.00    -0.203 F 
ATOM     80  F   UNL     1      -0.295  10.094 -15.123  1.00  0.00    -0.200 F 
ATOM     81  C   UNL     1      -0.722   9.844 -12.814  1.00  0.00     0.200 A 
ATOM     82  F   UNL     1      -1.092   9.600 -10.496  1.00  0.00    -0.200 F 
ATOM     83  F   UNL     1      -2.030  10.049 -13.018  1.00  0.00    -0.200 F 
ENDBRANCH  49  73
BRANCH  61  84
ATOM     84  C   UNL     1       7.588  13.570 -13.267  1.00  0.00     0.064 A 
ATOM     85  C   UNL     1       7.172  14.708 -12.563  1.00  0.00     0.173 A 
ATOM     86  C   UNL     1       8.236  13.760 -14.499  1.00  0.00     0.173 A 
ATOM     87  F   UNL     1       6.535  14.581 -11.389  1.00  0.00    -0.203 F 
ATOM     88  C   UNL     1       7.382  15.985 -13.079  1.00  0.00     0.198 A 
ATOM     89  C   UNL     1       8.473  15.038 -14.995  1.00  0.00     0.198 A 
ATOM     90  F   UNL     1       8.659  12.704 -15.210  1.00  0.00    -0.203 F 
ATOM     91  F   UNL     1       6.940  17.058 -12.408  1.00  0.00    -0.200 F 
ATOM     92  C   UNL     1       8.042  16.149 -14.288  1.00  0.00     0.200 A 
ATOM     93  F   UNL     1       9.126  15.194 -16.156  1.00  0.00    -0.200 F 
ATOM     94  F   UNL     1       8.258  17.379 -14.774  1.00  0.00    -0.200 F 
ENDBRANCH  61  84
ENDBRANCH  35  36
ENDBRANCH  27  30
ENDBRANCH  25  26
ENDBRANCH   1  25
TORSDOF 13
