REMARK SMILES CN(CC(=O)NCCCNC(=O)c1ccc(-c2c3nc(c(-c4c(F)c(F)c(F)c(F)c4F)c4ccc([nH]4)c(-c4c(F)c(F)c(F)c(F)c4F)c4nc(c(-c5c(F)c(F)c(F)c(F)c5F)c5ccc2[nH]5)C=C4)C=C3)cc1)C(=O)N(C)[C@@H]1CCSC1
REMARK SMILES IDX 7 1 6 2 4 3 5 4 3 6 2 7 1 8 76 9 77 10 78 11 79 12 80 13
REMARK SMILES IDX 81 14 84 15 82 16 83 17 8 18 9 19 10 20 11 21 12 23 13 24
REMARK SMILES IDX 14 25 75 26 15 27 74 28 16 29 17 30 18 31 68 32 19 33 73 34
REMARK SMILES IDX 67 35 69 36 20 37 72 38 66 39 65 40 21 42 53 43 33 44 52 45
REMARK SMILES IDX 34 46 37 47 51 48 70 49 35 50 36 51 50 53 71 54 38 55 22 56
REMARK SMILES IDX 23 57 31 58 24 59 25 60 29 61 32 62 26 63 27 64 30 65 28 66
REMARK SMILES IDX 54 67 55 68 63 69 56 70 57 71 61 72 64 73 58 74 59 75 62 76
REMARK SMILES IDX 60 77 39 78 40 79 48 80 41 81 42 82 46 83 49 84 43 85 44 86
REMARK SMILES IDX 47 87 45 88
REMARK H PARENT 6 5 10 22 69 41 37 52
REMARK Flexibility Score: inf
ROOT
ATOM      1  C   UNL     1      -2.150  -0.115  -0.223  1.00  0.00     0.117 C 
ENDROOT
BRANCH   1   2
ATOM      2  N   UNL     1      -2.515   0.827   0.814  1.00  0.00    -0.354 N 
ATOM      3  C   UNL     1      -1.800   1.868   1.323  1.00  0.00     0.239 C 
ATOM      4  O   UNL     1      -2.401   2.675   2.038  1.00  0.00    -0.273 OA
ATOM      5  H   UNL     1      -3.408   0.696   1.207  1.00  0.00     0.163 HD
BRANCH   3   6
ATOM      6  C   UNL     1      -0.346   2.111   0.906  1.00  0.00     0.220 C 
BRANCH   6   7
ATOM      7  N   UNL     1       0.627   1.048   1.191  1.00  0.00    -0.318 N 
ATOM      8  C   UNL     1       1.292   0.479   0.017  1.00  0.00     0.149 C 
BRANCH   7   9
ATOM      9  C   UNL     1       1.106   0.555   2.394  1.00  0.00     0.320 C 
ATOM     10  O   UNL     1       1.913  -0.379   2.332  1.00  0.00    -0.248 OA
BRANCH   9  11
ATOM     11  N   UNL     1       0.720   1.039   3.626  1.00  0.00    -0.324 N 
ATOM     12  C   UNL     1       0.049   2.308   3.889  1.00  0.00     0.149 C 
BRANCH  11  13
ATOM     13  C   UNL     1       0.936   0.244   4.875  1.00  0.00     0.097 C 
ATOM     14  C   UNL     1       2.111  -0.738   4.995  1.00  0.00     0.037 C 
ATOM     15  C   UNL     1      -0.320  -0.510   5.332  1.00  0.00     0.094 C 
ATOM     16  C   UNL     1       1.676  -2.133   4.565  1.00  0.00     0.072 C 
ATOM     17  S   UNL     1      -0.097  -2.258   4.915  1.00  0.00    -0.160 SA
ENDBRANCH  11  13
ENDBRANCH   9  11
ENDBRANCH   7   9
ENDBRANCH   6   7
ENDBRANCH   3   6
ENDBRANCH   1   2
BRANCH   1  18
ATOM     18  C   UNL     1      -1.931  -1.524   0.311  1.00  0.00     0.042 C 
BRANCH  18  19
ATOM     19  C   UNL     1      -3.162  -2.152   0.960  1.00  0.00     0.118 C 
BRANCH  19  20
ATOM     20  N   UNL     1      -4.312  -2.207   0.066  1.00  0.00    -0.352 N 
ATOM     21  C   UNL     1      -5.090  -3.261  -0.339  1.00  0.00     0.251 C 
ATOM     22  H   UNL     1      -4.575  -1.338  -0.312  1.00  0.00     0.163 HD
ATOM     23  O   UNL     1      -5.910  -3.085  -1.237  1.00  0.00    -0.269 OA
BRANCH  21  24
ATOM     24  C   UNL     1      -4.956  -4.602   0.272  1.00  0.00     0.039 A 
ATOM     25  C   UNL     1      -5.107  -5.724  -0.550  1.00  0.00     0.014 A 
ATOM     26  C   UNL     1      -4.754  -4.771   1.644  1.00  0.00     0.014 A 
ATOM     27  C   UNL     1      -5.008  -7.007  -0.008  1.00  0.00     0.010 A 
ATOM     28  C   UNL     1      -4.583  -6.050   2.172  1.00  0.00     0.010 A 
ATOM     29  C   UNL     1      -4.720  -7.180   1.354  1.00  0.00    -0.014 A 
BRANCH  29  30
ATOM     30  C   UNL     1      -4.572  -8.539   1.935  1.00  0.00     0.031 A 
ATOM     31  C   UNL     1      -5.556  -9.042   2.954  1.00  0.00     0.074 A 
ATOM     32  C   UNL     1      -3.522  -9.302   1.577  1.00  0.00     0.049 A 
ATOM     33  N   UNL     1      -5.575 -10.184   3.594  1.00  0.00    -0.248 NA
ATOM     34  C   UNL     1      -6.652  -8.131   3.321  1.00  0.00     0.031 C 
ATOM     35  C   UNL     1      -2.471  -8.906   0.638  1.00  0.00     0.029 A 
ATOM     36  N   UNL     1      -3.162 -10.568   1.965  1.00  0.00    -0.354 N 
ATOM     37  C   UNL     1      -6.668 -10.122   4.447  1.00  0.00     0.074 A 
ATOM     38  C   UNL     1      -7.261  -8.813   4.280  1.00  0.00     0.031 C 
ATOM     39  C   UNL     1      -1.598  -9.916   0.505  1.00  0.00     0.029 A 
ATOM     40  C   UNL     1      -2.010 -11.019   1.369  1.00  0.00     0.049 A 
ATOM     41  H   UNL     1      -3.679 -11.102   2.610  1.00  0.00     0.167 HD
ATOM     42  C   UNL     1      -7.147 -11.078   5.279  1.00  0.00     0.037 A 
ATOM     43  C   UNL     1      -1.361 -12.191   1.503  1.00  0.00     0.037 A 
ATOM     44  C   UNL     1      -6.572 -12.389   5.423  1.00  0.00     0.049 A 
ATOM     45  C   UNL     1      -1.925 -13.243   2.416  1.00  0.00     0.074 A 
ATOM     46  C   UNL     1      -7.018 -13.449   6.194  1.00  0.00     0.029 A 
ATOM     47  N   UNL     1      -5.423 -12.821   4.777  1.00  0.00    -0.354 N 
ATOM     48  N   UNL     1      -3.001 -13.200   3.164  1.00  0.00    -0.248 NA
ATOM     49  C   UNL     1      -1.192 -14.514   2.494  1.00  0.00     0.031 C 
ATOM     50  C   UNL     1      -6.118 -14.509   6.043  1.00  0.00     0.029 A 
ATOM     51  C   UNL     1      -5.137 -14.126   5.143  1.00  0.00     0.049 A 
ATOM     52  H   UNL     1      -4.890 -12.280   4.151  1.00  0.00     0.167 HD
ATOM     53  C   UNL     1      -3.090 -14.441   3.777  1.00  0.00     0.074 A 
ATOM     54  C   UNL     1      -1.966 -15.222   3.304  1.00  0.00     0.031 C 
ATOM     55  C   UNL     1      -4.021 -14.894   4.652  1.00  0.00     0.037 A 
BRANCH  42  56
ATOM     56  C   UNL     1      -8.361 -10.741   6.096  1.00  0.00     0.064 A 
ATOM     57  C   UNL     1      -9.627 -10.603   5.508  1.00  0.00     0.173 A 
ATOM     58  C   UNL     1      -8.265 -10.590   7.488  1.00  0.00     0.173 A 
ATOM     59  F   UNL     1      -9.771 -10.727   4.179  1.00  0.00    -0.203 F 
ATOM     60  C   UNL     1     -10.746 -10.297   6.277  1.00  0.00     0.198 A 
ATOM     61  C   UNL     1      -9.391 -10.312   8.258  1.00  0.00     0.198 A 
ATOM     62  F   UNL     1      -7.079 -10.719   8.102  1.00  0.00    -0.203 F 
ATOM     63  F   UNL     1     -11.937 -10.123   5.686  1.00  0.00    -0.200 F 
ATOM     64  C   UNL     1     -10.629 -10.158   7.652  1.00  0.00     0.200 A 
ATOM     65  F   UNL     1      -9.279 -10.191   9.588  1.00  0.00    -0.200 F 
ATOM     66  F   UNL     1     -11.708  -9.870   8.392  1.00  0.00    -0.200 F 
ENDBRANCH  42  56
BRANCH  43  67
ATOM     67  C   UNL     1      -0.126 -12.444   0.718  1.00  0.00     0.064 A 
ATOM     68  C   UNL     1      -0.129 -13.355  -0.348  1.00  0.00     0.173 A 
ATOM     69  C   UNL     1       1.075 -11.781   1.009  1.00  0.00     0.173 A 
ATOM     70  F   UNL     1      -1.249 -14.027  -0.651  1.00  0.00    -0.203 F 
ATOM     71  C   UNL     1       1.028 -13.605  -1.083  1.00  0.00     0.198 A 
ATOM     72  C   UNL     1       2.224 -12.014   0.256  1.00  0.00     0.198 A 
ATOM     73  F   UNL     1       1.127 -10.897   2.015  1.00  0.00    -0.203 F 
ATOM     74  F   UNL     1       1.008 -14.510  -2.071  1.00  0.00    -0.200 F 
ATOM     75  C   UNL     1       2.202 -12.931  -0.784  1.00  0.00     0.200 A 
ATOM     76  F   UNL     1       3.354 -11.351   0.540  1.00  0.00    -0.200 F 
ATOM     77  F   UNL     1       3.313 -13.169  -1.494  1.00  0.00    -0.200 F 
ENDBRANCH  43  67
BRANCH  55  78
ATOM     78  C   UNL     1      -3.888 -16.311   5.124  1.00  0.00     0.064 A 
ATOM     79  C   UNL     1      -2.893 -16.694   6.034  1.00  0.00     0.173 A 
ATOM     80  C   UNL     1      -4.794 -17.290   4.687  1.00  0.00     0.173 A 
ATOM     81  F   UNL     1      -1.994 -15.797   6.468  1.00  0.00    -0.203 F 
ATOM     82  C   UNL     1      -2.794 -18.012   6.472  1.00  0.00     0.198 A 
ATOM     83  C   UNL     1      -4.708 -18.601   5.148  1.00  0.00     0.198 A 
ATOM     84  F   UNL     1      -5.767 -16.973   3.821  1.00  0.00    -0.203 F 
ATOM     85  F   UNL     1      -1.808 -18.366   7.308  1.00  0.00    -0.200 F 
ATOM     86  C   UNL     1      -3.705 -18.962   6.034  1.00  0.00     0.200 A 
ATOM     87  F   UNL     1      -5.596 -19.515   4.733  1.00  0.00    -0.200 F 
ATOM     88  F   UNL     1      -3.611 -20.229   6.462  1.00  0.00    -0.200 F 
ENDBRANCH  55  78
ENDBRANCH  29  30
ENDBRANCH  21  24
ENDBRANCH  19  20
ENDBRANCH  18  19
ENDBRANCH   1  18
TORSDOF 14
