REMARK SMILES O=C(NCCCNC(=O)[C@@H](NC(=O)[C@H]1CC[C@@H]2CCCC[C@H]2[NH2+]1)C1CC1)c1ccc(-c2c3nc(c(-c4c(F)c(F)c(F)c(F)c4F)c4ccc([nH]4)c(-c4c(F)c(F)c(F)c(F)c4F)c4nc(c(-c5c(F)c(F)c(F)c(F)c5F)c5ccc2[nH]5)C=C4)C=C3)cc1
REMARK SMILES IDX 5 1 4 2 3 3 1 4 2 5 27 7 28 8 89 9 29 10 88 11 30 12 31 13
REMARK SMILES IDX 32 14 82 15 33 16 87 17 81 18 83 19 34 20 86 21 80 22 79 23
REMARK SMILES IDX 35 25 67 26 47 27 66 28 48 29 51 30 65 31 84 32 49 33 50 34
REMARK SMILES IDX 64 36 85 37 52 38 36 39 37 40 45 41 38 42 39 43 43 44 46 45
REMARK SMILES IDX 40 46 41 47 44 48 42 49 68 50 69 51 77 52 70 53 71 54 75 55
REMARK SMILES IDX 78 56 72 57 73 58 76 59 74 60 53 61 54 62 62 63 55 64 56 65
REMARK SMILES IDX 60 66 63 67 57 68 58 69 61 70 59 71 6 72 7 73 8 74 9 76
REMARK SMILES IDX 10 77 11 78 12 79 13 81 14 82 15 83 23 84 16 85 22 86 17 89
REMARK SMILES IDX 21 90 18 91 20 92 19 93 24 94 25 95 26 96
REMARK H PARENT 3 6 83 24 51 35 7 75 11 80 23 87 23 88
REMARK Flexibility Score: inf
ROOT
ATOM      1  C   UNL     1       5.859  -3.198  -2.334  1.00  0.00     0.042 C 
ENDROOT
BRANCH   1   2
ATOM      2  C   UNL     1       6.203  -3.551  -0.900  1.00  0.00     0.118 C 
BRANCH   2   3
ATOM      3  N   UNL     1       6.946  -2.490  -0.227  1.00  0.00    -0.352 N 
ATOM      4  O   UNL     1       7.292  -0.828   1.259  1.00  0.00    -0.269 OA
ATOM      5  C   UNL     1       6.645  -1.819   0.933  1.00  0.00     0.251 C 
ATOM      6  H   UNL     1       7.783  -2.216  -0.668  1.00  0.00     0.163 HD
BRANCH   5   7
ATOM      7  C   UNL     1       5.527  -2.287   1.776  1.00  0.00     0.039 A 
ATOM      8  C   UNL     1       5.344  -3.652   1.999  1.00  0.00     0.014 A 
ATOM      9  C   UNL     1       4.649  -1.357   2.341  1.00  0.00     0.014 A 
ATOM     10  C   UNL     1       4.197  -4.096   2.638  1.00  0.00     0.010 A 
ATOM     11  C   UNL     1       3.553  -1.804   3.083  1.00  0.00     0.010 A 
ATOM     12  C   UNL     1       3.303  -3.178   3.211  1.00  0.00    -0.014 A 
BRANCH  12  13
ATOM     13  C   UNL     1       2.162  -3.704   3.999  1.00  0.00     0.031 A 
ATOM     14  C   UNL     1       0.742  -3.482   3.567  1.00  0.00     0.074 A 
ATOM     15  C   UNL     1       2.437  -4.449   5.088  1.00  0.00     0.049 A 
ATOM     16  N   UNL     1      -0.362  -3.920   4.120  1.00  0.00    -0.248 NA
ATOM     17  C   UNL     1       0.526  -2.659   2.368  1.00  0.00     0.031 C 
ATOM     18  C   UNL     1       3.783  -4.714   5.605  1.00  0.00     0.029 A 
ATOM     19  N   UNL     1       1.615  -5.146   5.934  1.00  0.00    -0.354 N 
ATOM     20  C   UNL     1      -1.400  -3.419   3.345  1.00  0.00     0.074 A 
ATOM     21  C   UNL     1      -0.798  -2.617   2.301  1.00  0.00     0.031 C 
ATOM     22  C   UNL     1       3.700  -5.562   6.638  1.00  0.00     0.029 A 
ATOM     23  C   UNL     1       2.295  -5.846   6.901  1.00  0.00     0.049 A 
ATOM     24  H   UNL     1       0.634  -5.146   5.856  1.00  0.00     0.167 HD
ATOM     25  C   UNL     1      -2.732  -3.622   3.490  1.00  0.00     0.037 A 
ATOM     26  C   UNL     1       1.837  -6.620   7.900  1.00  0.00     0.037 A 
ATOM     27  C   UNL     1      -3.320  -4.431   4.529  1.00  0.00     0.049 A 
ATOM     28  C   UNL     1       0.356  -6.820   8.037  1.00  0.00     0.074 A 
ATOM     29  C   UNL     1      -4.658  -4.698   4.764  1.00  0.00     0.029 A 
ATOM     30  N   UNL     1      -2.602  -5.108   5.505  1.00  0.00    -0.354 N 
ATOM     31  N   UNL     1      -0.613  -6.348   7.292  1.00  0.00    -0.248 NA
ATOM     32  C   UNL     1      -0.095  -7.660   9.153  1.00  0.00     0.031 C 
ATOM     33  C   UNL     1      -4.751  -5.508   5.901  1.00  0.00     0.029 A 
ATOM     34  C   UNL     1      -3.470  -5.784   6.349  1.00  0.00     0.049 A 
ATOM     35  H   UNL     1      -1.621  -5.108   5.585  1.00  0.00     0.167 HD
ATOM     36  C   UNL     1      -1.788  -6.835   7.842  1.00  0.00     0.074 A 
ATOM     37  C   UNL     1      -1.407  -7.670   8.964  1.00  0.00     0.031 C 
ATOM     38  C   UNL     1      -3.068  -6.605   7.462  1.00  0.00     0.037 A 
BRANCH  25  39
ATOM     39  C   UNL     1      -3.651  -2.955   2.508  1.00  0.00     0.064 A 
ATOM     40  C   UNL     1      -3.753  -3.398   1.181  1.00  0.00     0.173 A 
ATOM     41  C   UNL     1      -4.482  -1.899   2.912  1.00  0.00     0.173 A 
ATOM     42  F   UNL     1      -2.974  -4.398   0.742  1.00  0.00    -0.203 F 
ATOM     43  C   UNL     1      -4.641  -2.798   0.290  1.00  0.00     0.198 A 
ATOM     44  C   UNL     1      -5.386  -1.318   2.026  1.00  0.00     0.198 A 
ATOM     45  F   UNL     1      -4.430  -1.441   4.172  1.00  0.00    -0.203 F 
ATOM     46  F   UNL     1      -4.697  -3.216  -0.982  1.00  0.00    -0.200 F 
ATOM     47  C   UNL     1      -5.462  -1.764   0.716  1.00  0.00     0.200 A 
ATOM     48  F   UNL     1      -6.188  -0.328   2.442  1.00  0.00    -0.200 F 
ATOM     49  F   UNL     1      -6.324  -1.196  -0.139  1.00  0.00    -0.200 F 
ENDBRANCH  25  39
BRANCH  26  50
ATOM     50  C   UNL     1       2.794  -7.245   8.848  1.00  0.00     0.064 A 
ATOM     51  C   UNL     1       2.982  -8.633   8.881  1.00  0.00     0.173 A 
ATOM     52  C   UNL     1       3.550  -6.461   9.733  1.00  0.00     0.173 A 
ATOM     53  F   UNL     1       2.272  -9.425   8.065  1.00  0.00    -0.203 F 
ATOM     54  C   UNL     1       3.876  -9.215   9.778  1.00  0.00     0.198 A 
ATOM     55  C   UNL     1       4.467  -7.041  10.605  1.00  0.00     0.198 A 
ATOM     56  F   UNL     1       3.414  -5.127   9.734  1.00  0.00    -0.203 F 
ATOM     57  F   UNL     1       4.004 -10.548   9.822  1.00  0.00    -0.200 F 
ATOM     58  C   UNL     1       4.622  -8.418  10.634  1.00  0.00     0.200 A 
ATOM     59  F   UNL     1       5.201  -6.266  11.415  1.00  0.00    -0.200 F 
ATOM     60  F   UNL     1       5.487  -8.979  11.491  1.00  0.00    -0.200 F 
ENDBRANCH  26  50
BRANCH  38  61
ATOM     61  C   UNL     1      -4.140  -7.283   8.262  1.00  0.00     0.064 A 
ATOM     62  C   UNL     1      -4.452  -6.870   9.565  1.00  0.00     0.173 A 
ATOM     63  C   UNL     1      -4.866  -8.352   7.717  1.00  0.00     0.173 A 
ATOM     64  F   UNL     1      -3.772  -5.864  10.136  1.00  0.00    -0.203 F 
ATOM     65  C   UNL     1      -5.430  -7.525  10.307  1.00  0.00     0.198 A 
ATOM     66  C   UNL     1      -5.863  -8.986   8.451  1.00  0.00     0.198 A 
ATOM     67  F   UNL     1      -4.607  -8.781   6.472  1.00  0.00    -0.203 F 
ATOM     68  F   UNL     1      -5.672  -7.152  11.571  1.00  0.00    -0.200 F 
ATOM     69  C   UNL     1      -6.138  -8.579   9.748  1.00  0.00     0.200 A 
ATOM     70  F   UNL     1      -6.553  -9.998   7.907  1.00  0.00    -0.200 F 
ATOM     71  F   UNL     1      -7.077  -9.211  10.465  1.00  0.00    -0.200 F 
ENDBRANCH  38  61
ENDBRANCH  12  13
ENDBRANCH   5   7
ENDBRANCH   2   3
ENDBRANCH   1   2
BRANCH   1  72
ATOM     72  C   UNL     1       7.080  -3.148  -3.232  1.00  0.00     0.117 C 
BRANCH  72  73
ATOM     73  N   UNL     1       7.594  -4.470  -3.552  1.00  0.00    -0.354 N 
ATOM     74  C   UNL     1       7.625  -5.120  -4.761  1.00  0.00     0.242 C 
ATOM     75  H   UNL     1       7.974  -4.971  -2.794  1.00  0.00     0.163 HD
ATOM     76  O   UNL     1       8.156  -6.231  -4.812  1.00  0.00    -0.273 OA
BRANCH  74  77
ATOM     77  C   UNL     1       7.022  -4.441  -6.026  1.00  0.00     0.174 C 
BRANCH  77  78
ATOM     78  N   UNL     1       5.590  -4.287  -5.722  1.00  0.00    -0.339 N 
ATOM     79  C   UNL     1       4.613  -3.353  -5.782  1.00  0.00     0.278 C 
ATOM     80  H   UNL     1       5.229  -5.130  -5.362  1.00  0.00     0.164 HD
ATOM     81  O   UNL     1       3.521  -3.686  -5.310  1.00  0.00    -0.268 OA
BRANCH  79  82
ATOM     82  C   UNL     1       4.862  -1.963  -6.362  1.00  0.00     0.272 C 
ATOM     83  C   UNL     1       4.572  -1.955  -7.861  1.00  0.00     0.076 C 
ATOM     84  N   UNL     1       3.981  -0.954  -5.728  1.00  0.00    -0.333 N 
ATOM     85  C   UNL     1       4.967  -0.601  -8.445  1.00  0.00     0.016 C 
ATOM     86  C   UNL     1       4.357   0.390  -6.167  1.00  0.00     0.186 C 
ATOM     87  H   UNL     1       4.074  -1.015  -4.714  1.00  0.00     0.347 HD
ATOM     88  H   UNL     1       3.016  -1.136  -6.001  1.00  0.00     0.347 HD
ATOM     89  C   UNL     1       4.248   0.531  -7.702  1.00  0.00     0.048 C 
ATOM     90  C   UNL     1       3.467   1.452  -5.507  1.00  0.00     0.065 C 
ATOM     91  C   UNL     1       4.790   1.904  -8.115  1.00  0.00     0.010 C 
ATOM     92  C   UNL     1       3.909   2.857  -5.924  1.00  0.00     0.006 C 
ATOM     93  C   UNL     1       3.999   3.025  -7.442  1.00  0.00     0.001 C 
ENDBRANCH  79  82
ENDBRANCH  77  78
BRANCH  77  94
ATOM     94  C   UNL     1       7.873  -3.261  -6.426  1.00  0.00     0.021 C 
ATOM     95  C   UNL     1       8.984  -3.515  -7.427  1.00  0.00     0.006 C 
ATOM     96  C   UNL     1       7.877  -2.572  -7.767  1.00  0.00     0.006 C 
ENDBRANCH  77  94
ENDBRANCH  74  77
ENDBRANCH  72  73
ENDBRANCH   1  72
TORSDOF 13
