REMARK SMILES C[NH2+][C@@]1(C(=O)NCCCNC(=O)c2ccc(-c3c4nc(c(-c5c(F)c(F)c(F)c(F)c5F)c5ccc([nH]5)c(-c5c(F)c(F)c(F)c(F)c5F)c5nc(c(-c6c(F)c(F)c(F)c(F)c6F)c6ccc3[nH]6)C=C5)C=C4)cc2)CCC[C@H]([NH+]2CCCCCC2)C1
REMARK SMILES IDX 7 1 6 2 4 3 5 4 3 6 76 7 87 8 77 9 79 10 78 11 2 12 1 13
REMARK SMILES IDX 80 16 81 18 82 19 83 20 86 22 85 23 84 24 8 26 9 27 10 28
REMARK SMILES IDX 11 29 12 31 13 32 14 33 75 34 15 35 74 36 16 37 17 38 18 39
REMARK SMILES IDX 68 40 19 41 73 42 67 43 69 44 20 45 72 46 66 47 65 48 21 50
REMARK SMILES IDX 53 51 33 52 52 53 34 54 37 55 51 56 70 57 35 58 36 59 50 61
REMARK SMILES IDX 71 62 38 63 22 64 23 65 31 66 24 67 25 68 29 69 32 70 26 71
REMARK SMILES IDX 27 72 30 73 28 74 54 75 55 76 63 77 56 78 57 79 61 80 64 81
REMARK SMILES IDX 58 82 59 83 62 84 60 85 39 86 40 87 48 88 41 89 42 90 46 91
REMARK SMILES IDX 49 92 43 93 44 94 47 95 45 96
REMARK H PARENT 6 5 2 14 2 15 80 17 10 30 69 49 37 60
REMARK Flexibility Score: 90.00
ROOT
ATOM      1  C   UNL     1      -3.111   0.517  -4.304  1.00  0.00     0.118 C 
ENDROOT
BRANCH   1   2
ATOM      2  N   UNL     1      -1.680   0.712  -3.977  1.00  0.00    -0.351 N 
ATOM      3  C   UNL     1      -0.837   0.174  -3.043  1.00  0.00     0.281 C 
ATOM      4  O   UNL     1       0.079  -0.484  -3.572  1.00  0.00    -0.268 OA
ATOM      5  H   UNL     1      -1.239   1.372  -4.559  1.00  0.00     0.163 HD
BRANCH   3   6
ATOM      6  C   UNL     1      -0.751   0.488  -1.438  1.00  0.00     0.181 C 
ATOM      7  C   UNL     1      -0.943  -0.864  -0.673  1.00  0.00     0.079 C 
ATOM      8  C   UNL     1      -1.635   1.661  -0.920  1.00  0.00     0.144 C 
ATOM      9  C   UNL     1      -1.694  -0.887   0.668  1.00  0.00     0.013 C 
ATOM     10  C   UNL     1      -2.715   1.370   0.154  1.00  0.00     0.190 C 
ATOM     11  C   UNL     1      -2.115   0.459   1.229  1.00  0.00     0.065 C 
BRANCH   6  12
ATOM     12  N   UNL     1       0.663   0.985  -1.340  1.00  0.00    -0.336 N 
ATOM     13  C   UNL     1       1.564   0.602  -0.283  1.00  0.00     0.331 C 
ATOM     14  H   UNL     1       1.118   0.708  -2.210  1.00  0.00     0.346 HD
ATOM     15  H   UNL     1       0.515   1.972  -1.130  1.00  0.00     0.346 HD
ENDBRANCH   6  12
BRANCH  10  16
ATOM     16  N   UNL     1      -4.010   0.784  -0.202  1.00  0.00    -0.332 N 
ATOM     17  H   UNL     1      -4.033   0.094   0.550  1.00  0.00     0.348 HD
BRANCH  16  18
ATOM     18  C   UNL     1      -5.182   1.639  -0.031  1.00  0.00     0.262 C 
BRANCH  18  19
ATOM     19  C   UNL     1      -6.335   0.845   0.590  1.00  0.00     0.061 C 
BRANCH  19  20
ATOM     20  C   UNL     1      -6.773  -0.426  -0.148  1.00  0.00     0.006 CG0
ATOM     21  G   UNL     1      -5.729  -1.542  -0.153  1.00  0.00     0.000 G0
ENDBRANCH  19  20
ENDBRANCH  18  19
ENDBRANCH  16  18
BRANCH  16  22
ATOM     22  C   UNL     1      -4.106  -0.015  -1.397  1.00  0.00     0.262 C 
BRANCH  22  23
ATOM     23  C   UNL     1      -4.712  -1.402  -1.268  1.00  0.00     0.061 C 
BRANCH  23  24
ATOM     24  C   UNL     1      -5.729  -1.542  -0.153  1.00  0.00     0.006 CG0
ATOM     25  G   UNL     1      -6.773  -0.426  -0.148  1.00  0.00     0.000 G0
ENDBRANCH  23  24
ENDBRANCH  22  23
ENDBRANCH  16  22
ENDBRANCH  10  16
ENDBRANCH   3   6
ENDBRANCH   1   2
BRANCH   1  26
ATOM     26  C   UNL     1      -3.923   1.804  -4.172  1.00  0.00     0.042 C 
BRANCH  26  27
ATOM     27  C   UNL     1      -5.373   1.780  -4.687  1.00  0.00     0.118 C 
BRANCH  27  28
ATOM     28  N   UNL     1      -6.278   0.746  -4.199  1.00  0.00    -0.352 N 
ATOM     29  C   UNL     1      -7.647   0.767  -3.966  1.00  0.00     0.251 C 
ATOM     30  H   UNL     1      -5.845  -0.116  -4.002  1.00  0.00     0.163 HD
ATOM     31  O   UNL     1      -8.203  -0.270  -3.627  1.00  0.00    -0.269 OA
BRANCH  29  32
ATOM     32  C   UNL     1      -8.457   2.017  -4.065  1.00  0.00     0.039 A 
ATOM     33  C   UNL     1      -9.574   2.183  -3.229  1.00  0.00     0.014 A 
ATOM     34  C   UNL     1      -8.150   3.029  -4.968  1.00  0.00     0.014 A 
ATOM     35  C   UNL     1     -10.300   3.387  -3.237  1.00  0.00     0.010 A 
ATOM     36  C   UNL     1      -8.780   4.267  -4.880  1.00  0.00     0.010 A 
ATOM     37  C   UNL     1      -9.874   4.465  -4.025  1.00  0.00    -0.014 A 
BRANCH  37  38
ATOM     38  C   UNL     1     -10.544   5.800  -4.020  1.00  0.00     0.031 A 
ATOM     39  C   UNL     1     -11.025   6.397  -5.322  1.00  0.00     0.074 A 
ATOM     40  C   UNL     1     -10.607   6.529  -2.888  1.00  0.00     0.049 A 
ATOM     41  N   UNL     1     -11.438   7.613  -5.582  1.00  0.00    -0.248 NA
ATOM     42  C   UNL     1     -10.977   5.523  -6.507  1.00  0.00     0.031 C 
ATOM     43  C   UNL     1     -10.125   6.102  -1.573  1.00  0.00     0.029 A 
ATOM     44  N   UNL     1     -11.084   7.800  -2.664  1.00  0.00    -0.354 N 
ATOM     45  C   UNL     1     -11.647   7.656  -6.957  1.00  0.00     0.074 A 
ATOM     46  C   UNL     1     -11.248   6.372  -7.485  1.00  0.00     0.031 C 
ATOM     47  C   UNL     1     -10.354   7.077  -0.678  1.00  0.00     0.029 A 
ATOM     48  C   UNL     1     -10.952   8.220  -1.361  1.00  0.00     0.049 A 
ATOM     49  H   UNL     1     -11.482   8.357  -3.370  1.00  0.00     0.167 HD
ATOM     50  C   UNL     1     -12.158   8.661  -7.708  1.00  0.00     0.037 A 
ATOM     51  C   UNL     1     -11.266   9.397  -0.784  1.00  0.00     0.037 A 
ATOM     52  C   UNL     1     -12.617   9.912  -7.166  1.00  0.00     0.049 A 
ATOM     53  C   UNL     1     -11.867  10.487  -1.633  1.00  0.00     0.074 A 
ATOM     54  C   UNL     1     -13.230  10.965  -7.821  1.00  0.00     0.029 A 
ATOM     55  N   UNL     1     -12.522  10.272  -5.829  1.00  0.00    -0.354 N 
ATOM     56  N   UNL     1     -12.119  10.491  -2.920  1.00  0.00    -0.248 NA
ATOM     57  C   UNL     1     -12.233  11.735  -0.949  1.00  0.00     0.031 C 
ATOM     58  C   UNL     1     -13.464  11.981  -6.889  1.00  0.00     0.029 A 
ATOM     59  C   UNL     1     -13.051  11.538  -5.643  1.00  0.00     0.049 A 
ATOM     60  H   UNL     1     -12.135   9.710  -5.119  1.00  0.00     0.167 HD
ATOM     61  C   UNL     1     -12.704  11.721  -3.192  1.00  0.00     0.074 A 
ATOM     62  C   UNL     1     -12.783  12.432  -1.933  1.00  0.00     0.031 C 
ATOM     63  C   UNL     1     -13.136  12.219  -4.377  1.00  0.00     0.037 A 
BRANCH  50  64
ATOM     64  C   UNL     1     -12.270   8.443  -9.193  1.00  0.00     0.064 A 
ATOM     65  C   UNL     1     -13.152   7.497  -9.738  1.00  0.00     0.173 A 
ATOM     66  C   UNL     1     -11.511   9.215 -10.087  1.00  0.00     0.173 A 
ATOM     67  F   UNL     1     -13.896   6.724  -8.932  1.00  0.00    -0.203 F 
ATOM     68  C   UNL     1     -13.242   7.304 -11.114  1.00  0.00     0.198 A 
ATOM     69  C   UNL     1     -11.632   9.047 -11.465  1.00  0.00     0.198 A 
ATOM     70  F   UNL     1     -10.657  10.141  -9.626  1.00  0.00    -0.203 F 
ATOM     71  F   UNL     1     -14.046   6.351 -11.605  1.00  0.00    -0.200 F 
ATOM     72  C   UNL     1     -12.488   8.085 -11.977  1.00  0.00     0.200 A 
ATOM     73  F   UNL     1     -10.915   9.815 -12.297  1.00  0.00    -0.200 F 
ATOM     74  F   UNL     1     -12.583   7.906 -13.302  1.00  0.00    -0.200 F 
ENDBRANCH  50  64
BRANCH  51  75
ATOM     75  C   UNL     1     -11.053   9.599   0.676  1.00  0.00     0.064 A 
ATOM     76  C   UNL     1     -12.143   9.733   1.549  1.00  0.00     0.173 A 
ATOM     77  C   UNL     1      -9.767   9.673   1.230  1.00  0.00     0.173 A 
ATOM     78  F   UNL     1     -13.394   9.690   1.067  1.00  0.00    -0.203 F 
ATOM     79  C   UNL     1     -11.956   9.957   2.911  1.00  0.00     0.198 A 
ATOM     80  C   UNL     1      -9.580   9.865   2.599  1.00  0.00     0.198 A 
ATOM     81  F   UNL     1      -8.688   9.546   0.444  1.00  0.00    -0.203 F 
ATOM     82  F   UNL     1     -13.017  10.135   3.711  1.00  0.00    -0.200 F 
ATOM     83  C   UNL     1     -10.675  10.017   3.437  1.00  0.00     0.200 A 
ATOM     84  F   UNL     1      -8.340   9.905   3.105  1.00  0.00    -0.200 F 
ATOM     85  F   UNL     1     -10.494  10.229   4.747  1.00  0.00    -0.200 F 
ENDBRANCH  51  75
BRANCH  63  86
ATOM     86  C   UNL     1     -13.780  13.575  -4.361  1.00  0.00     0.064 A 
ATOM     87  C   UNL     1     -13.037  14.744  -4.143  1.00  0.00     0.173 A 
ATOM     88  C   UNL     1     -15.154  13.707  -4.618  1.00  0.00     0.173 A 
ATOM     89  F   UNL     1     -11.723  14.670  -3.881  1.00  0.00    -0.203 F 
ATOM     90  C   UNL     1     -13.651  15.993  -4.153  1.00  0.00     0.198 A 
ATOM     91  C   UNL     1     -15.757  14.960  -4.662  1.00  0.00     0.198 A 
ATOM     92  F   UNL     1     -15.907  12.621  -4.844  1.00  0.00    -0.203 F 
ATOM     93  F   UNL     1     -12.931  17.093  -3.891  1.00  0.00    -0.200 F 
ATOM     94  C   UNL     1     -15.007  16.101  -4.421  1.00  0.00     0.200 A 
ATOM     95  F   UNL     1     -17.064  15.063  -4.940  1.00  0.00    -0.200 F 
ATOM     96  F   UNL     1     -15.594  17.306  -4.442  1.00  0.00    -0.200 F 
ENDBRANCH  63  86
ENDBRANCH  37  38
ENDBRANCH  29  32
ENDBRANCH  27  28
ENDBRANCH  26  27
ENDBRANCH   1  26
TORSDOF 12
