REMARK SMILES O=C(NCCCNC(=O)c1ccnc(-n2cnnn2)c1)c1ccc(-c2c3nc(c(-c4c(F)c(F)c(F)c(F)c4F)c4ccc([nH]4)c(-c4c(F)c(F)c(F)c(F)c4F)c4nc(c(-c5c(F)c(F)c(F)c(F)c5F)c5ccc2[nH]5)C=C4)C=C3)cc1
REMARK SMILES IDX 4 1 3 2 1 3 2 4 21 6 22 7 83 8 23 9 82 10 24 11 25 12 26 13
REMARK SMILES IDX 76 14 27 15 81 16 75 17 77 18 28 19 80 20 74 21 73 22 29 24
REMARK SMILES IDX 61 25 41 26 60 27 42 28 45 29 59 30 78 31 43 32 44 33 58 35
REMARK SMILES IDX 79 36 46 37 30 38 31 39 39 40 32 41 33 42 37 43 40 44 34 45
REMARK SMILES IDX 35 46 38 47 36 48 62 49 63 50 71 51 64 52 65 53 69 54 72 55
REMARK SMILES IDX 66 56 67 57 70 58 68 59 47 60 48 61 56 62 49 63 50 64 54 65
REMARK SMILES IDX 57 66 51 67 52 68 55 69 53 70 5 71 6 72 7 73 8 74 9 76 10 77
REMARK SMILES IDX 11 78 20 79 12 80 14 81 13 82 15 83 16 84 19 85 17 86 18 87
REMARK H PARENT 3 5 77 23 45 34 7 75
REMARK Flexibility Score: inf
ROOT
ATOM      1  C   UNL     1       4.759  -0.829   0.744  1.00  0.00     0.118 C 
ENDROOT
BRANCH   1   2
ATOM      2  N   UNL     1       3.359  -1.003   0.415  1.00  0.00    -0.352 N 
ATOM      3  O   UNL     1       1.307  -0.719  -0.343  1.00  0.00    -0.269 OA
ATOM      4  C   UNL     1       2.341  -0.171   0.046  1.00  0.00     0.251 C 
ATOM      5  H   UNL     1       3.074  -1.944   0.471  1.00  0.00     0.163 HD
BRANCH   4   6
ATOM      6  C   UNL     1       2.356   1.310   0.167  1.00  0.00     0.039 A 
ATOM      7  C   UNL     1       3.486   2.119   0.302  1.00  0.00     0.014 A 
ATOM      8  C   UNL     1       1.086   1.919   0.167  1.00  0.00     0.014 A 
ATOM      9  C   UNL     1       3.344   3.489   0.532  1.00  0.00     0.010 A 
ATOM     10  C   UNL     1       0.939   3.281   0.388  1.00  0.00     0.010 A 
ATOM     11  C   UNL     1       2.068   4.060   0.611  1.00  0.00    -0.014 A 
BRANCH  11  12
ATOM     12  C   UNL     1       1.936   5.510   0.745  1.00  0.00     0.031 A 
ATOM     13  C   UNL     1       2.378   6.274  -0.461  1.00  0.00     0.074 A 
ATOM     14  C   UNL     1       1.297   6.104   1.776  1.00  0.00     0.049 A 
ATOM     15  N   UNL     1       3.304   7.173  -0.541  1.00  0.00    -0.248 NA
ATOM     16  C   UNL     1       1.790   5.913  -1.763  1.00  0.00     0.031 C 
ATOM     17  C   UNL     1       0.560   5.460   2.867  1.00  0.00     0.029 A 
ATOM     18  N   UNL     1       1.085   7.431   2.018  1.00  0.00    -0.354 N 
ATOM     19  C   UNL     1       3.303   7.615  -1.864  1.00  0.00     0.074 A 
ATOM     20  C   UNL     1       2.460   6.709  -2.597  1.00  0.00     0.031 C 
ATOM     21  C   UNL     1      -0.195   6.382   3.508  1.00  0.00     0.029 A 
ATOM     22  C   UNL     1       0.097   7.697   2.963  1.00  0.00     0.049 A 
ATOM     23  H   UNL     1       1.590   8.142   1.562  1.00  0.00     0.167 HD
ATOM     24  C   UNL     1       3.825   8.825  -2.208  1.00  0.00     0.037 A 
ATOM     25  C   UNL     1      -0.475   8.901   3.232  1.00  0.00     0.037 A 
ATOM     26  C   UNL     1       4.690   9.331  -1.177  1.00  0.00     0.049 A 
ATOM     27  C   UNL     1       0.423   9.952   2.694  1.00  0.00     0.074 A 
ATOM     28  C   UNL     1       5.878   8.917  -0.609  1.00  0.00     0.029 A 
ATOM     29  N   UNL     1       4.176  10.273  -0.324  1.00  0.00    -0.354 N 
ATOM     30  N   UNL     1       1.600  10.219   3.183  1.00  0.00    -0.248 NA
ATOM     31  C   UNL     1       0.195  10.390   1.326  1.00  0.00     0.031 C 
ATOM     32  C   UNL     1       5.765   9.261   0.770  1.00  0.00     0.029 A 
ATOM     33  C   UNL     1       4.550   9.923   0.946  1.00  0.00     0.049 A 
ATOM     34  H   UNL     1       3.638  11.057  -0.577  1.00  0.00     0.167 HD
ATOM     35  C   UNL     1       2.395  10.438   2.070  1.00  0.00     0.074 A 
ATOM     36  C   UNL     1       1.460  10.608   0.959  1.00  0.00     0.031 C 
ATOM     37  C   UNL     1       3.732  10.173   2.107  1.00  0.00     0.037 A 
BRANCH  24  38
ATOM     38  C   UNL     1       3.266   9.731  -3.282  1.00  0.00     0.064 A 
ATOM     39  C   UNL     1       3.964  10.912  -3.613  1.00  0.00     0.173 A 
ATOM     40  C   UNL     1       1.937   9.661  -3.749  1.00  0.00     0.173 A 
ATOM     41  F   UNL     1       5.231  11.094  -3.210  1.00  0.00    -0.203 F 
ATOM     42  C   UNL     1       3.344  11.977  -4.273  1.00  0.00     0.198 A 
ATOM     43  C   UNL     1       1.338  10.704  -4.453  1.00  0.00     0.198 A 
ATOM     44  F   UNL     1       1.127   8.640  -3.444  1.00  0.00    -0.203 F 
ATOM     45  F   UNL     1       4.004  13.131  -4.441  1.00  0.00    -0.200 F 
ATOM     46  C   UNL     1       2.028  11.876  -4.684  1.00  0.00     0.200 A 
ATOM     47  F   UNL     1       0.055  10.595  -4.826  1.00  0.00    -0.200 F 
ATOM     48  F   UNL     1       1.409  12.918  -5.252  1.00  0.00    -0.200 F 
ENDBRANCH  24  38
BRANCH  25  49
ATOM     49  C   UNL     1      -1.879   9.206   3.613  1.00  0.00     0.064 A 
ATOM     50  C   UNL     1      -2.241  10.463   4.132  1.00  0.00     0.173 A 
ATOM     51  C   UNL     1      -2.940   8.379   3.197  1.00  0.00     0.173 A 
ATOM     52  F   UNL     1      -1.294  11.337   4.505  1.00  0.00    -0.203 F 
ATOM     53  C   UNL     1      -3.578  10.874   4.205  1.00  0.00     0.198 A 
ATOM     54  C   UNL     1      -4.273   8.787   3.275  1.00  0.00     0.198 A 
ATOM     55  F   UNL     1      -2.698   7.197   2.613  1.00  0.00    -0.203 F 
ATOM     56  F   UNL     1      -3.879  12.104   4.646  1.00  0.00    -0.200 F 
ATOM     57  C   UNL     1      -4.592  10.040   3.767  1.00  0.00     0.200 A 
ATOM     58  F   UNL     1      -5.241   7.986   2.808  1.00  0.00    -0.200 F 
ATOM     59  F   UNL     1      -5.867  10.455   3.775  1.00  0.00    -0.200 F 
ENDBRANCH  25  49
BRANCH  37  60
ATOM     60  C   UNL     1       4.357   9.903   3.445  1.00  0.00     0.064 A 
ATOM     61  C   UNL     1       4.028   8.810   4.266  1.00  0.00     0.173 A 
ATOM     62  C   UNL     1       5.433  10.708   3.841  1.00  0.00     0.173 A 
ATOM     63  F   UNL     1       3.079   7.937   3.908  1.00  0.00    -0.203 F 
ATOM     64  C   UNL     1       4.722   8.563   5.450  1.00  0.00     0.198 A 
ATOM     65  C   UNL     1       6.148  10.436   5.003  1.00  0.00     0.198 A 
ATOM     66  F   UNL     1       5.826  11.732   3.067  1.00  0.00    -0.203 F 
ATOM     67  F   UNL     1       4.385   7.519   6.221  1.00  0.00    -0.200 F 
ATOM     68  C   UNL     1       5.786   9.372   5.812  1.00  0.00     0.200 A 
ATOM     69  F   UNL     1       7.210  11.190   5.321  1.00  0.00    -0.200 F 
ATOM     70  F   UNL     1       6.483   9.108   6.927  1.00  0.00    -0.200 F 
ENDBRANCH  37  60
ENDBRANCH  11  12
ENDBRANCH   4   6
ENDBRANCH   1   2
BRANCH   1  71
ATOM     71  C   UNL     1       5.041  -0.410   2.185  1.00  0.00     0.042 C 
BRANCH  71  72
ATOM     72  C   UNL     1       4.469  -1.350   3.246  1.00  0.00     0.118 C 
BRANCH  72  73
ATOM     73  N   UNL     1       5.029  -2.690   3.166  1.00  0.00    -0.352 N 
ATOM     74  C   UNL     1       5.916  -3.328   3.992  1.00  0.00     0.251 C 
ATOM     75  H   UNL     1       4.721  -3.222   2.397  1.00  0.00     0.163 HD
ATOM     76  O   UNL     1       6.423  -4.389   3.657  1.00  0.00    -0.269 OA
BRANCH  74  77
ATOM     77  C   UNL     1       6.294  -2.735   5.289  1.00  0.00     0.045 A 
ATOM     78  C   UNL     1       5.329  -2.399   6.234  1.00  0.00     0.034 A 
ATOM     79  C   UNL     1       7.652  -2.620   5.586  1.00  0.00     0.063 A 
ATOM     80  C   UNL     1       5.769  -1.927   7.452  1.00  0.00     0.114 A 
ATOM     81  C   UNL     1       8.004  -2.144   6.843  1.00  0.00     0.157 A 
ATOM     82  N   UNL     1       7.074  -1.803   7.775  1.00  0.00    -0.237 NA
BRANCH  81  83
ATOM     83  N   UNL     1       9.375  -2.007   7.180  1.00  0.00    -0.182 N 
ATOM     84  C   UNL     1      10.464  -1.934   6.349  1.00  0.00     0.254 A 
ATOM     85  N   UNL     1       9.815  -1.906   8.454  1.00  0.00    -0.039 NA
ATOM     86  N   UNL     1      11.558  -1.861   7.072  1.00  0.00    -0.117 NA
ATOM     87  N   UNL     1      11.138  -1.862   8.377  1.00  0.00    -0.024 NA
ENDBRANCH  81  83
ENDBRANCH  74  77
ENDBRANCH  72  73
ENDBRANCH  71  72
ENDBRANCH   1  71
TORSDOF 11
