REMARK SMILES CC[C@@H](C)NC(=O)c1cccc(NC(=O)[C@H]2CCCC[C@@H]2C(=O)NCCCNC(=O)c2ccc(-c3c4nc(c(-c5c(F)c(F)c(F)c(F)c5F)c5ccc([nH]5)c(-c5c(F)c(F)c(F)c(F)c5F)c5nc(c(-c6c(F)c(F)c(F)c(F)c6F)c6ccc3[nH]6)C=C5)C=C4)cc2)c1
REMARK SMILES IDX 22 1 23 2 24 3 21 5 16 6 17 7 18 8 20 9 19 10 14 11 13 12
REMARK SMILES IDX 15 14 12 15 8 16 9 17 94 18 10 19 11 20 6 21 5 22 7 24 3 25
REMARK SMILES IDX 4 26 2 27 1 28 25 29 26 30 27 31 28 32 29 33 30 35 31 36
REMARK SMILES IDX 32 37 93 38 33 39 92 40 34 41 35 42 36 43 86 44 37 45 91 46
REMARK SMILES IDX 85 47 87 48 38 49 90 50 84 51 83 52 39 54 71 55 51 56 70 57
REMARK SMILES IDX 52 58 55 59 69 60 88 61 53 62 54 63 68 65 89 66 56 67 40 68
REMARK SMILES IDX 41 69 49 70 42 71 43 72 47 73 50 74 44 75 45 76 48 77 46 78
REMARK SMILES IDX 72 79 73 80 81 81 74 82 75 83 79 84 82 85 76 86 77 87 80 88
REMARK SMILES IDX 78 89 57 90 58 91 66 92 59 93 60 94 64 95 67 96 61 97 62 98
REMARK SMILES IDX 65 99 63 100
REMARK H PARENT 24 4 13 13 5 23 28 34 87 53 55 64
REMARK Flexibility Score: inf
ROOT
ATOM      1  C   UNL     1       5.870   3.328  -2.918  1.00  0.00     0.223 C 
ATOM      2  O   UNL     1       5.453   2.550  -2.059  1.00  0.00    -0.275 OA
ATOM      3  N   UNL     1       5.026   4.312  -3.323  1.00  0.00    -0.356 N 
ATOM      4  H   UNL     1       4.212   4.413  -2.779  1.00  0.00     0.163 HD
ENDROOT
BRANCH   1   5
ATOM      5  C   UNL     1       7.285   3.246  -3.494  1.00  0.00     0.091 C 
ATOM      6  C   UNL     1       7.864   1.835  -3.224  1.00  0.00     0.091 C 
ATOM      7  C   UNL     1       8.400   1.658  -1.791  1.00  0.00     0.014 C 
ATOM      8  C   UNL     1       9.248   2.826  -1.301  1.00  0.00     0.001 C 
ATOM      9  C   UNL     1       8.146   4.383  -2.925  1.00  0.00     0.014 C 
ATOM     10  C   UNL     1       8.529   4.154  -1.468  1.00  0.00     0.001 C 
BRANCH   6  11
ATOM     11  C   UNL     1       8.906   1.413  -4.250  1.00  0.00     0.228 C 
ATOM     12  N   UNL     1       9.300   0.111  -4.399  1.00  0.00    -0.326 N 
ATOM     13  H   UNL     1      10.021   0.011  -5.061  1.00  0.00     0.169 HD
ATOM     14  O   UNL     1       9.466   2.251  -4.965  1.00  0.00    -0.274 OA
BRANCH  12  15
ATOM     15  C   UNL     1       8.918  -1.124  -3.830  1.00  0.00     0.041 A 
ATOM     16  C   UNL     1       9.544  -3.458  -3.486  1.00  0.00     0.041 A 
ATOM     17  C   UNL     1       8.420  -3.656  -2.683  1.00  0.00     0.014 A 
ATOM     18  C   UNL     1       9.762  -2.214  -4.095  1.00  0.00     0.040 A 
ATOM     19  C   UNL     1       7.543  -2.604  -2.464  1.00  0.00     0.003 A 
ATOM     20  C   UNL     1       7.796  -1.350  -3.029  1.00  0.00     0.026 A 
BRANCH  16  21
ATOM     21  C   UNL     1      10.438  -4.617  -3.694  1.00  0.00     0.251 C 
ATOM     22  N   UNL     1      11.799  -4.501  -3.587  1.00  0.00    -0.350 N 
ATOM     23  H   UNL     1      12.295  -5.324  -3.802  1.00  0.00     0.164 HD
ATOM     24  O   UNL     1       9.943  -5.718  -3.928  1.00  0.00    -0.269 OA
BRANCH  22  25
ATOM     25  C   UNL     1      12.643  -3.369  -3.210  1.00  0.00     0.079 C 
ATOM     26  C   UNL     1      13.543  -3.022  -4.394  1.00  0.00     0.031 C 
BRANCH  25  27
ATOM     27  C   UNL     1      13.439  -3.712  -1.941  1.00  0.00     0.021 C 
ATOM     28  C   UNL     1      14.240  -2.534  -1.403  1.00  0.00     0.006 C 
ENDBRANCH  25  27
ENDBRANCH  22  25
ENDBRANCH  16  21
ENDBRANCH  12  15
ENDBRANCH   6  11
ENDBRANCH   1   5
BRANCH   3  29
ATOM     29  C   UNL     1       5.140   5.237  -4.434  1.00  0.00     0.117 C 
BRANCH  29  30
ATOM     30  C   UNL     1       4.141   4.899  -5.535  1.00  0.00     0.042 C 
BRANCH  30  31
ATOM     31  C   UNL     1       2.680   4.935  -5.088  1.00  0.00     0.118 C 
BRANCH  31  32
ATOM     32  N   UNL     1       2.273   6.242  -4.590  1.00  0.00    -0.352 N 
ATOM     33  C   UNL     1       1.325   7.115  -5.058  1.00  0.00     0.251 C 
ATOM     34  H   UNL     1       2.756   6.548  -3.788  1.00  0.00     0.163 HD
ATOM     35  O   UNL     1       1.266   8.255  -4.601  1.00  0.00    -0.269 OA
BRANCH  33  36
ATOM     36  C   UNL     1       0.391   6.709  -6.129  1.00  0.00     0.039 A 
ATOM     37  C   UNL     1       0.142   7.601  -7.175  1.00  0.00     0.014 A 
ATOM     38  C   UNL     1      -0.244   5.464  -6.103  1.00  0.00     0.014 A 
ATOM     39  C   UNL     1      -0.672   7.210  -8.240  1.00  0.00     0.010 A 
ATOM     40  C   UNL     1      -0.996   5.048  -7.199  1.00  0.00     0.010 A 
ATOM     41  C   UNL     1      -1.203   5.910  -8.287  1.00  0.00    -0.014 A 
BRANCH  41  42
ATOM     42  C   UNL     1      -1.921   5.420  -9.492  1.00  0.00     0.031 A 
ATOM     43  C   UNL     1      -3.369   5.029  -9.419  1.00  0.00     0.074 A 
ATOM     44  C   UNL     1      -1.236   5.263 -10.642  1.00  0.00     0.049 A 
ATOM     45  N   UNL     1      -4.134   4.515 -10.349  1.00  0.00    -0.248 NA
ATOM     46  C   UNL     1      -4.043   5.221  -8.126  1.00  0.00     0.031 C 
ATOM     47  C   UNL     1       0.184   5.566 -10.828  1.00  0.00     0.029 A 
ATOM     48  N   UNL     1      -1.637   4.796 -11.870  1.00  0.00    -0.354 N 
ATOM     49  C   UNL     1      -5.374   4.319  -9.756  1.00  0.00     0.074 A 
ATOM     50  C   UNL     1      -5.247   4.723  -8.371  1.00  0.00     0.031 C 
ATOM     51  C   UNL     1       0.531   5.298 -12.096  1.00  0.00     0.029 A 
ATOM     52  C   UNL     1      -0.627   4.758 -12.801  1.00  0.00     0.049 A 
ATOM     53  H   UNL     1      -2.561   4.516 -12.065  1.00  0.00     0.167 HD
ATOM     54  C   UNL     1      -6.518   3.864 -10.322  1.00  0.00     0.037 A 
ATOM     55  C   UNL     1      -0.628   4.320 -14.074  1.00  0.00     0.037 A 
ATOM     56  C   UNL     1      -6.641   3.471 -11.702  1.00  0.00     0.049 A 
ATOM     57  C   UNL     1      -1.904   3.783 -14.663  1.00  0.00     0.074 A 
ATOM     58  C   UNL     1      -7.771   3.047 -12.381  1.00  0.00     0.029 A 
ATOM     59  N   UNL     1      -5.595   3.443 -12.614  1.00  0.00    -0.354 N 
ATOM     60  N   UNL     1      -3.088   3.671 -14.113  1.00  0.00    -0.248 NA
ATOM     61  C   UNL     1      -1.843   3.312 -16.054  1.00  0.00     0.031 C 
ATOM     62  C   UNL     1      -7.398   2.708 -13.685  1.00  0.00     0.029 A 
ATOM     63  C   UNL     1      -6.048   2.978 -13.839  1.00  0.00     0.049 A 
ATOM     64  H   UNL     1      -4.669   3.713 -12.420  1.00  0.00     0.167 HD
ATOM     65  C   UNL     1      -3.916   3.143 -15.093  1.00  0.00     0.074 A 
ATOM     66  C   UNL     1      -3.105   2.978 -16.280  1.00  0.00     0.031 C 
ATOM     67  C   UNL     1      -5.230   2.818 -15.015  1.00  0.00     0.037 A 
BRANCH  54  68
ATOM     68  C   UNL     1      -7.737   3.763  -9.450  1.00  0.00     0.064 A 
ATOM     69  C   UNL     1      -8.403   4.906  -8.982  1.00  0.00     0.173 A 
ATOM     70  C   UNL     1      -8.283   2.510  -9.131  1.00  0.00     0.173 A 
ATOM     71  F   UNL     1      -7.918   6.127  -9.252  1.00  0.00    -0.203 F 
ATOM     72  C   UNL     1      -9.556   4.798  -8.209  1.00  0.00     0.198 A 
ATOM     73  C   UNL     1      -9.454   2.407  -8.384  1.00  0.00     0.198 A 
ATOM     74  F   UNL     1      -7.691   1.385  -9.559  1.00  0.00    -0.203 F 
ATOM     75  F   UNL     1     -10.152   5.903  -7.739  1.00  0.00    -0.200 F 
ATOM     76  C   UNL     1     -10.086   3.550  -7.919  1.00  0.00     0.200 A 
ATOM     77  F   UNL     1      -9.973   1.200  -8.118  1.00  0.00    -0.200 F 
ATOM     78  F   UNL     1     -11.204   3.449  -7.187  1.00  0.00    -0.200 F 
ENDBRANCH  54  68
BRANCH  55  79
ATOM     79  C   UNL     1       0.621   4.369 -14.881  1.00  0.00     0.064 A 
ATOM     80  C   UNL     1       0.730   5.220 -15.990  1.00  0.00     0.173 A 
ATOM     81  C   UNL     1       1.720   3.553 -14.575  1.00  0.00     0.173 A 
ATOM     82  F   UNL     1      -0.302   6.004 -16.336  1.00  0.00    -0.203 F 
ATOM     83  C   UNL     1       1.879   5.233 -16.777  1.00  0.00     0.198 A 
ATOM     84  C   UNL     1       2.882   3.592 -15.343  1.00  0.00     0.198 A 
ATOM     85  F   UNL     1       1.671   2.724 -13.522  1.00  0.00    -0.203 F 
ATOM     86  F   UNL     1       1.934   6.014 -17.864  1.00  0.00    -0.200 F 
ATOM     87  C   UNL     1       2.956   4.423 -16.451  1.00  0.00     0.200 A 
ATOM     88  F   UNL     1       3.926   2.820 -15.014  1.00  0.00    -0.200 F 
ATOM     89  F   UNL     1       4.062   4.437 -17.208  1.00  0.00    -0.200 F 
ENDBRANCH  55  79
BRANCH  67  90
ATOM     90  C   UNL     1      -5.879   2.276 -16.257  1.00  0.00     0.064 A 
ATOM     91  C   UNL     1      -5.574   0.998 -16.749  1.00  0.00     0.173 A 
ATOM     92  C   UNL     1      -6.840   3.032 -16.946  1.00  0.00     0.173 A 
ATOM     93  F   UNL     1      -4.650   0.242 -16.137  1.00  0.00    -0.203 F 
ATOM     94  C   UNL     1      -6.184   0.510 -17.902  1.00  0.00     0.198 A 
ATOM     95  C   UNL     1      -7.473   2.527 -18.078  1.00  0.00     0.198 A 
ATOM     96  F   UNL     1      -7.173   4.258 -16.514  1.00  0.00    -0.203 F 
ATOM     97  F   UNL     1      -5.836  -0.691 -18.384  1.00  0.00    -0.200 F 
ATOM     98  C   UNL     1      -7.138   1.271 -18.560  1.00  0.00     0.200 A 
ATOM     99  F   UNL     1      -8.406   3.257 -18.703  1.00  0.00    -0.200 F 
ATOM    100  F   UNL     1      -7.730   0.796 -19.665  1.00  0.00    -0.200 F 
ENDBRANCH  67  90
ENDBRANCH  41  42
ENDBRANCH  33  36
ENDBRANCH  31  32
ENDBRANCH  30  31
ENDBRANCH  29  30
ENDBRANCH   3  29
TORSDOF 15
