REMARK SMILES Cc1c(NC(=S)NC(=O)CSc2ccc(Cl)cc2)cccc1C(=O)NCCCNC(=O)c1ccc(-c2c3nc(c(-c4c(F)c(F)c(F)c(F)c4F)c4ccc([nH]4)c(-c4c(F)c(F)c(F)c(F)c4F)c4nc(c(-c5c(F)c(F)c(F)c(F)c5F)c5ccc2[nH]5)C=C4)C=C3)cc1
REMARK SMILES IDX 23 1 24 2 25 3 22 5 1 6 2 7 3 8 19 9 21 10 20 11 4 12 5 14
REMARK SMILES IDX 6 15 7 16 8 17 9 19 10 20 11 21 12 22 13 23 18 24 14 25
REMARK SMILES IDX 17 26 15 27 16 28 26 29 27 30 28 31 29 32 30 33 31 35 32 36
REMARK SMILES IDX 33 37 94 38 34 39 93 40 35 41 36 42 37 43 87 44 38 45 92 46
REMARK SMILES IDX 86 47 88 48 39 49 91 50 85 51 84 52 40 54 72 55 52 56 71 57
REMARK SMILES IDX 53 58 56 59 70 60 89 61 54 62 55 63 69 65 90 66 57 67 41 68
REMARK SMILES IDX 42 69 50 70 43 71 44 72 48 73 51 74 45 75 46 76 49 77 47 78
REMARK SMILES IDX 73 79 74 80 82 81 75 82 76 83 80 84 83 85 77 86 78 87 81 88
REMARK SMILES IDX 79 89 58 90 59 91 67 92 60 93 61 94 65 95 68 96 62 97 63 98
REMARK SMILES IDX 66 99 64 100
REMARK H PARENT 25 4 4 13 7 18 29 34 88 53 56 64
REMARK Flexibility Score: inf
ROOT
ATOM      1  C   UNL     1       1.341   2.086  -0.410  1.00  0.00     0.251 C 
ATOM      2  O   UNL     1       0.788   3.193  -0.513  1.00  0.00    -0.269 OA
ATOM      3  N   UNL     1       2.612   2.210   0.084  1.00  0.00    -0.352 N 
ATOM      4  H   UNL     1       2.823   3.157   0.250  1.00  0.00     0.163 HD
ENDROOT
BRANCH   1   5
ATOM      5  C   UNL     1       0.520   0.865  -0.793  1.00  0.00     0.044 A 
ATOM      6  C   UNL     1       2.240  -1.017  -0.943  1.00  0.00     0.047 C 
ATOM      7  C   UNL     1       0.841  -0.511  -0.864  1.00  0.00    -0.015 A 
ATOM      8  C   UNL     1      -0.191  -1.482  -1.030  1.00  0.00     0.044 A 
ATOM      9  C   UNL     1      -1.432  -1.092  -1.509  1.00  0.00     0.026 A 
ATOM     10  C   UNL     1      -0.807   1.203  -1.157  1.00  0.00     0.014 A 
ATOM     11  C   UNL     1      -1.742   0.257  -1.578  1.00  0.00     0.003 A 
BRANCH   8  12
ATOM     12  N   UNL     1       0.095  -2.825  -0.707  1.00  0.00    -0.332 N 
ATOM     13  H   UNL     1       1.058  -2.984  -0.578  1.00  0.00     0.169 HD
BRANCH  12  14
ATOM     14  C   UNL     1      -0.634  -3.933  -0.536  1.00  0.00     0.177 C 
ATOM     15  S   UNL     1       0.166  -5.397  -0.721  1.00  0.00    -0.040 S 
BRANCH  14  16
ATOM     16  N   UNL     1      -1.944  -3.984  -0.176  1.00  0.00    -0.302 N 
ATOM     17  C   UNL     1      -2.927  -3.244   0.455  1.00  0.00     0.236 C 
ATOM     18  H   UNL     1      -2.325  -4.845  -0.465  1.00  0.00     0.172 HD
ATOM     19  O   UNL     1      -4.081  -3.686   0.349  1.00  0.00    -0.274 OA
BRANCH  17  20
ATOM     20  C   UNL     1      -2.699  -1.962   1.227  1.00  0.00     0.175 C 
BRANCH  20  21
ATOM     21  S   UNL     1      -1.166  -1.894   2.193  1.00  0.00    -0.116 SA
BRANCH  21  22
ATOM     22  C   UNL     1      -1.876  -1.623   3.793  1.00  0.00     0.008 A 
ATOM     23  C   UNL     1      -2.168  -0.335   4.250  1.00  0.00     0.016 A 
ATOM     24  C   UNL     1      -2.191  -2.735   4.576  1.00  0.00     0.016 A 
ATOM     25  C   UNL     1      -2.796  -0.165   5.486  1.00  0.00     0.021 A 
ATOM     26  C   UNL     1      -2.819  -2.566   5.807  1.00  0.00     0.021 A 
ATOM     27  C   UNL     1      -3.124  -1.282   6.255  1.00  0.00     0.041 A 
ATOM     28  Cl  UNL     1      -3.918  -1.078   7.766  1.00  0.00    -0.084 Cl
ENDBRANCH  21  22
ENDBRANCH  20  21
ENDBRANCH  17  20
ENDBRANCH  14  16
ENDBRANCH  12  14
ENDBRANCH   8  12
ENDBRANCH   1   5
BRANCH   3  29
ATOM     29  C   UNL     1       3.748   1.373   0.438  1.00  0.00     0.118 C 
BRANCH  29  30
ATOM     30  C   UNL     1       4.505   0.888  -0.793  1.00  0.00     0.042 C 
BRANCH  30  31
ATOM     31  C   UNL     1       5.846   1.524  -1.074  1.00  0.00     0.118 C 
BRANCH  31  32
ATOM     32  N   UNL     1       6.961   0.576  -0.985  1.00  0.00    -0.352 N 
ATOM     33  C   UNL     1       8.236   0.720  -1.504  1.00  0.00     0.251 C 
ATOM     34  H   UNL     1       6.781  -0.262  -0.499  1.00  0.00     0.163 HD
ATOM     35  O   UNL     1       9.110  -0.120  -1.330  1.00  0.00    -0.269 OA
BRANCH  33  36
ATOM     36  C   UNL     1       8.532   2.000  -2.178  1.00  0.00     0.039 A 
ATOM     37  C   UNL     1       9.196   2.949  -1.400  1.00  0.00     0.014 A 
ATOM     38  C   UNL     1       7.722   2.369  -3.249  1.00  0.00     0.014 A 
ATOM     39  C   UNL     1       8.810   4.279  -1.500  1.00  0.00     0.010 A 
ATOM     40  C   UNL     1       7.274   3.678  -3.284  1.00  0.00     0.010 A 
ATOM     41  C   UNL     1       7.756   4.610  -2.352  1.00  0.00    -0.014 A 
BRANCH  41  42
ATOM     42  C   UNL     1       7.077   5.900  -2.282  1.00  0.00     0.031 A 
ATOM     43  C   UNL     1       7.373   6.909  -3.317  1.00  0.00     0.074 A 
ATOM     44  C   UNL     1       6.226   6.219  -1.279  1.00  0.00     0.049 A 
ATOM     45  N   UNL     1       7.341   8.183  -3.115  1.00  0.00    -0.248 NA
ATOM     46  C   UNL     1       7.791   6.545  -4.663  1.00  0.00     0.031 C 
ATOM     47  C   UNL     1       5.393   7.418  -1.190  1.00  0.00     0.029 A 
ATOM     48  N   UNL     1       6.093   5.615  -0.017  1.00  0.00    -0.354 N 
ATOM     49  C   UNL     1       7.490   8.803  -4.332  1.00  0.00     0.074 A 
ATOM     50  C   UNL     1       7.819   7.740  -5.255  1.00  0.00     0.031 C 
ATOM     51  C   UNL     1       5.113   7.657   0.099  1.00  0.00     0.029 A 
ATOM     52  C   UNL     1       5.826   6.676   0.891  1.00  0.00     0.049 A 
ATOM     53  H   UNL     1       6.169   4.656   0.195  1.00  0.00     0.167 HD
ATOM     54  C   UNL     1       7.213  10.133  -4.445  1.00  0.00     0.037 A 
ATOM     55  C   UNL     1       6.657   6.945   1.938  1.00  0.00     0.037 A 
ATOM     56  C   UNL     1       6.840  10.722  -3.158  1.00  0.00     0.049 A 
ATOM     57  C   UNL     1       7.319   8.303   1.882  1.00  0.00     0.074 A 
ATOM     58  C   UNL     1       5.636  11.038  -2.551  1.00  0.00     0.029 A 
ATOM     59  N   UNL     1       7.795  10.798  -2.159  1.00  0.00    -0.354 N 
ATOM     60  N   UNL     1       7.103   9.198   0.959  1.00  0.00    -0.248 NA
ATOM     61  C   UNL     1       8.383   8.699   2.807  1.00  0.00     0.031 C 
ATOM     62  C   UNL     1       5.886  11.323  -1.178  1.00  0.00     0.029 A 
ATOM     63  C   UNL     1       7.242  11.181  -0.951  1.00  0.00     0.049 A 
ATOM     64  H   UNL     1       8.751  10.604  -2.293  1.00  0.00     0.167 HD
ATOM     65  C   UNL     1       8.011  10.216   1.098  1.00  0.00     0.074 A 
ATOM     66  C   UNL     1       8.792   9.857   2.266  1.00  0.00     0.031 C 
ATOM     67  C   UNL     1       8.101  11.258   0.219  1.00  0.00     0.037 A 
BRANCH  54  68
ATOM     68  C   UNL     1       7.041  10.833  -5.773  1.00  0.00     0.064 A 
ATOM     69  C   UNL     1       6.158  11.925  -5.904  1.00  0.00     0.173 A 
ATOM     70  C   UNL     1       7.672  10.441  -6.968  1.00  0.00     0.173 A 
ATOM     71  F   UNL     1       5.587  12.496  -4.837  1.00  0.00    -0.203 F 
ATOM     72  C   UNL     1       5.825  12.473  -7.146  1.00  0.00     0.198 A 
ATOM     73  C   UNL     1       7.289  10.939  -8.217  1.00  0.00     0.198 A 
ATOM     74  F   UNL     1       8.722   9.610  -6.960  1.00  0.00    -0.203 F 
ATOM     75  F   UNL     1       4.974  13.507  -7.208  1.00  0.00    -0.200 F 
ATOM     76  C   UNL     1       6.352  11.946  -8.307  1.00  0.00     0.200 A 
ATOM     77  F   UNL     1       7.837  10.433  -9.332  1.00  0.00    -0.200 F 
ATOM     78  F   UNL     1       5.985  12.429  -9.501  1.00  0.00    -0.200 F 
ENDBRANCH  54  68
BRANCH  55  79
ATOM     79  C   UNL     1       7.269   5.711   2.492  1.00  0.00     0.064 A 
ATOM     80  C   UNL     1       6.402   4.750   3.047  1.00  0.00     0.173 A 
ATOM     81  C   UNL     1       8.540   5.290   2.089  1.00  0.00     0.173 A 
ATOM     82  F   UNL     1       5.180   5.111   3.470  1.00  0.00    -0.203 F 
ATOM     83  C   UNL     1       6.723   3.397   3.019  1.00  0.00     0.198 A 
ATOM     84  C   UNL     1       8.870   3.937   2.097  1.00  0.00     0.198 A 
ATOM     85  F   UNL     1       9.409   6.163   1.559  1.00  0.00    -0.203 F 
ATOM     86  F   UNL     1       5.811   2.486   3.389  1.00  0.00    -0.200 F 
ATOM     87  C   UNL     1       7.941   2.989   2.504  1.00  0.00     0.200 A 
ATOM     88  F   UNL     1      10.056   3.542   1.613  1.00  0.00    -0.200 F 
ATOM     89  F   UNL     1       8.198   1.683   2.352  1.00  0.00    -0.200 F 
ENDBRANCH  55  79
BRANCH  67  90
ATOM     90  C   UNL     1       9.051  12.414   0.398  1.00  0.00     0.064 A 
ATOM     91  C   UNL     1       9.310  12.989   1.654  1.00  0.00     0.173 A 
ATOM     92  C   UNL     1       9.667  13.049  -0.702  1.00  0.00     0.173 A 
ATOM     93  F   UNL     1       8.688  12.546   2.757  1.00  0.00    -0.203 F 
ATOM     94  C   UNL     1      10.201  14.053   1.810  1.00  0.00     0.198 A 
ATOM     95  C   UNL     1      10.511  14.148  -0.550  1.00  0.00     0.198 A 
ATOM     96  F   UNL     1       9.491  12.612  -1.957  1.00  0.00    -0.203 F 
ATOM     97  F   UNL     1      10.476  14.514   3.038  1.00  0.00    -0.200 F 
ATOM     98  C   UNL     1      10.799  14.634   0.708  1.00  0.00     0.200 A 
ATOM     99  F   UNL     1      11.052  14.724  -1.633  1.00  0.00    -0.200 F 
ATOM    100  F   UNL     1      11.646  15.662   0.857  1.00  0.00    -0.200 F 
ENDBRANCH  67  90
ENDBRANCH  41  42
ENDBRANCH  33  36
ENDBRANCH  31  32
ENDBRANCH  30  31
ENDBRANCH  29  30
ENDBRANCH   3  29
TORSDOF 16
