REMARK SMILES O=C(NCCCNC(=O)c1ccc(-c2cccc(F)c2)o1)c1ccc(-c2c3nc(c(-c4c(F)c(F)c(F)c(F)c4F)c4ccc([nH]4)c(-c4c(F)c(F)c(F)c(F)c4F)c4nc(c(-c5c(F)c(F)c(F)c(F)c5F)c5ccc2[nH]5)C=C4)C=C3)cc1
REMARK SMILES IDX 4 1 3 2 1 3 2 4 22 6 23 7 84 8 24 9 83 10 25 11 26 12 27 13
REMARK SMILES IDX 77 14 28 15 82 16 76 17 78 18 29 19 81 20 75 21 74 22 30 24
REMARK SMILES IDX 62 25 42 26 61 27 43 28 46 29 60 30 79 31 44 32 45 33 59 35
REMARK SMILES IDX 80 36 47 37 31 38 32 39 40 40 33 41 34 42 38 43 41 44 35 45
REMARK SMILES IDX 36 46 39 47 37 48 63 49 64 50 72 51 65 52 66 53 70 54 73 55
REMARK SMILES IDX 67 56 68 57 71 58 69 59 48 60 49 61 57 62 50 63 51 64 55 65
REMARK SMILES IDX 58 66 52 67 53 68 56 69 54 70 5 71 6 72 7 73 8 74 9 76 10 77
REMARK SMILES IDX 11 78 21 79 12 80 13 81 14 82 15 83 20 84 16 85 18 86 17 87
REMARK SMILES IDX 19 88
REMARK H PARENT 3 5 78 23 46 34 7 75
REMARK Flexibility Score: inf
ROOT
ATOM      1  C   UNL     1       4.447  -1.410  -0.708  1.00  0.00     0.118 C 
ENDROOT
BRANCH   1   2
ATOM      2  N   UNL     1       3.126  -0.833  -0.917  1.00  0.00    -0.352 N 
ATOM      3  O   UNL     1       1.312   0.429  -0.517  1.00  0.00    -0.269 OA
ATOM      4  C   UNL     1       2.500   0.214  -0.288  1.00  0.00     0.251 C 
ATOM      5  H   UNL     1       2.596  -1.264  -1.626  1.00  0.00     0.163 HD
BRANCH   4   6
ATOM      6  C   UNL     1       3.224   1.079   0.673  1.00  0.00     0.039 A 
ATOM      7  C   UNL     1       4.509   1.558   0.402  1.00  0.00     0.014 A 
ATOM      8  C   UNL     1       2.565   1.476   1.844  1.00  0.00     0.014 A 
ATOM      9  C   UNL     1       5.170   2.345   1.345  1.00  0.00     0.010 A 
ATOM     10  C   UNL     1       3.211   2.299   2.772  1.00  0.00     0.010 A 
ATOM     11  C   UNL     1       4.530   2.714   2.541  1.00  0.00    -0.014 A 
BRANCH  11  12
ATOM     12  C   UNL     1       5.262   3.540   3.531  1.00  0.00     0.031 A 
ATOM     13  C   UNL     1       5.798   2.926   4.792  1.00  0.00     0.074 A 
ATOM     14  C   UNL     1       5.501   4.837   3.264  1.00  0.00     0.049 A 
ATOM     15  N   UNL     1       6.549   3.467   5.719  1.00  0.00    -0.248 NA
ATOM     16  C   UNL     1       5.442   1.522   5.051  1.00  0.00     0.031 C 
ATOM     17  C   UNL     1       5.018   5.556   2.085  1.00  0.00     0.029 A 
ATOM     18  N   UNL     1       6.242   5.767   3.947  1.00  0.00    -0.354 N 
ATOM     19  C   UNL     1       6.739   2.482   6.677  1.00  0.00     0.074 A 
ATOM     20  C   UNL     1       6.023   1.308   6.224  1.00  0.00     0.031 C 
ATOM     21  C   UNL     1       5.527   6.799   2.095  1.00  0.00     0.029 A 
ATOM     22  C   UNL     1       6.362   6.962   3.283  1.00  0.00     0.049 A 
ATOM     23  H   UNL     1       6.648   5.595   4.828  1.00  0.00     0.167 HD
ATOM     24  C   UNL     1       7.446   2.549   7.830  1.00  0.00     0.037 A 
ATOM     25  C   UNL     1       7.092   8.053   3.579  1.00  0.00     0.037 A 
ATOM     26  C   UNL     1       8.178   3.702   8.278  1.00  0.00     0.049 A 
ATOM     27  C   UNL     1       7.939   8.072   4.817  1.00  0.00     0.074 A 
ATOM     28  C   UNL     1       8.899   3.870   9.449  1.00  0.00     0.029 A 
ATOM     29  N   UNL     1       8.298   4.882   7.562  1.00  0.00    -0.354 N 
ATOM     30  N   UNL     1       8.100   7.138   5.720  1.00  0.00    -0.248 NA
ATOM     31  C   UNL     1       8.709   9.298   5.073  1.00  0.00     0.031 C 
ATOM     32  C   UNL     1       9.459   5.154   9.439  1.00  0.00     0.029 A 
ATOM     33  C   UNL     1       9.093   5.778   8.259  1.00  0.00     0.049 A 
ATOM     34  H   UNL     1       7.880   5.058   6.688  1.00  0.00     0.167 HD
ATOM     35  C   UNL     1       8.984   7.659   6.652  1.00  0.00     0.074 A 
ATOM     36  C   UNL     1       9.342   8.987   6.197  1.00  0.00     0.031 C 
ATOM     37  C   UNL     1       9.447   7.090   7.789  1.00  0.00     0.037 A 
BRANCH  24  38
ATOM     38  C   UNL     1       7.453   1.332   8.699  1.00  0.00     0.064 A 
ATOM     39  C   UNL     1       6.590   1.239   9.800  1.00  0.00     0.173 A 
ATOM     40  C   UNL     1       8.341   0.275   8.456  1.00  0.00     0.173 A 
ATOM     41  F   UNL     1       5.723   2.228  10.064  1.00  0.00    -0.203 F 
ATOM     42  C   UNL     1       6.618   0.125  10.633  1.00  0.00     0.198 A 
ATOM     43  C   UNL     1       8.360  -0.843   9.286  1.00  0.00     0.198 A 
ATOM     44  F   UNL     1       9.171   0.320   7.403  1.00  0.00    -0.203 F 
ATOM     45  F   UNL     1       5.788   0.054  11.684  1.00  0.00    -0.200 F 
ATOM     46  C   UNL     1       7.501  -0.914  10.375  1.00  0.00     0.200 A 
ATOM     47  F   UNL     1       9.201  -1.854   9.027  1.00  0.00    -0.200 F 
ATOM     48  F   UNL     1       7.520  -1.992  11.173  1.00  0.00    -0.200 F 
ENDBRANCH  24  38
BRANCH  25  49
ATOM     49  C   UNL     1       7.103   9.194   2.637  1.00  0.00     0.064 A 
ATOM     50  C   UNL     1       6.075  10.144   2.633  1.00  0.00     0.173 A 
ATOM     51  C   UNL     1       8.138   9.329   1.701  1.00  0.00     0.173 A 
ATOM     52  F   UNL     1       5.070  10.048   3.516  1.00  0.00    -0.203 F 
ATOM     53  C   UNL     1       6.078  11.192   1.716  1.00  0.00     0.198 A 
ATOM     54  C   UNL     1       8.143  10.380   0.790  1.00  0.00     0.198 A 
ATOM     55  F   UNL     1       9.146   8.444   1.686  1.00  0.00    -0.203 F 
ATOM     56  F   UNL     1       5.081  12.087   1.721  1.00  0.00    -0.200 F 
ATOM     57  C   UNL     1       7.111  11.309   0.795  1.00  0.00     0.200 A 
ATOM     58  F   UNL     1       9.148  10.497  -0.090  1.00  0.00    -0.200 F 
ATOM     59  F   UNL     1       7.115  12.320  -0.084  1.00  0.00    -0.200 F 
ENDBRANCH  25  49
BRANCH  37  60
ATOM     60  C   UNL     1      10.389   7.898   8.622  1.00  0.00     0.064 A 
ATOM     61  C   UNL     1      11.774   7.705   8.526  1.00  0.00     0.173 A 
ATOM     62  C   UNL     1       9.908   8.837   9.544  1.00  0.00     0.173 A 
ATOM     63  F   UNL     1      12.274   6.819   7.652  1.00  0.00    -0.203 F 
ATOM     64  C   UNL     1      12.649   8.429   9.330  1.00  0.00     0.198 A 
ATOM     65  C   UNL     1      10.787   9.563  10.343  1.00  0.00     0.198 A 
ATOM     66  F   UNL     1       8.590   9.058   9.657  1.00  0.00    -0.203 F 
ATOM     67  F   UNL     1      13.971   8.233   9.227  1.00  0.00    -0.200 F 
ATOM     68  C   UNL     1      12.155   9.357  10.237  1.00  0.00     0.200 A 
ATOM     69  F   UNL     1      10.310  10.468  11.209  1.00  0.00    -0.200 F 
ATOM     70  F   UNL     1      12.999  10.058  11.006  1.00  0.00    -0.200 F 
ENDBRANCH  37  60
ENDBRANCH  11  12
ENDBRANCH   4   6
ENDBRANCH   1   2
BRANCH   1  71
ATOM     71  C   UNL     1       4.402  -2.916  -0.447  1.00  0.00     0.042 C 
BRANCH  71  72
ATOM     72  C   UNL     1       3.897  -3.753  -1.621  1.00  0.00     0.118 C 
BRANCH  72  73
ATOM     73  N   UNL     1       4.773  -3.659  -2.774  1.00  0.00    -0.349 N 
ATOM     74  C   UNL     1       5.812  -4.467  -3.174  1.00  0.00     0.287 C 
ATOM     75  H   UNL     1       4.596  -2.892  -3.365  1.00  0.00     0.163 HD
ATOM     76  O   UNL     1       6.590  -3.983  -3.999  1.00  0.00    -0.266 OA
BRANCH  74  77
ATOM     77  C   UNL     1       5.948  -5.809  -2.650  1.00  0.00     0.192 A 
ATOM     78  C   UNL     1       5.041  -6.799  -2.316  1.00  0.00     0.057 A 
ATOM     79  O   UNL     1       7.217  -6.312  -2.513  1.00  0.00    -0.451 OA
ATOM     80  C   UNL     1       5.791  -7.947  -1.959  1.00  0.00     0.052 A 
ATOM     81  C   UNL     1       7.120  -7.610  -2.105  1.00  0.00     0.135 A 
BRANCH  81  82
ATOM     82  C   UNL     1       8.377  -8.336  -1.962  1.00  0.00     0.020 A 
ATOM     83  C   UNL     1       8.419  -9.727  -2.157  1.00  0.00     0.012 A 
ATOM     84  C   UNL     1       9.564  -7.666  -1.639  1.00  0.00     0.051 A 
ATOM     85  C   UNL     1       9.621 -10.433  -2.036  1.00  0.00     0.004 A 
ATOM     86  C   UNL     1      10.753  -8.378  -1.511  1.00  0.00     0.123 A 
ATOM     87  C   UNL     1      10.792  -9.754  -1.708  1.00  0.00     0.039 A 
ATOM     88  F   UNL     1      11.880  -7.729  -1.191  1.00  0.00    -0.207 F 
ENDBRANCH  81  82
ENDBRANCH  74  77
ENDBRANCH  72  73
ENDBRANCH  71  72
ENDBRANCH   1  71
TORSDOF 11
