REMARK SMILES Cc1ccc(F)c(-c2ncccc2C(=O)NCCCNC(=O)c2ccc(-c3c4nc(c(-c5c(F)c(F)c(F)c(F)c5F)c5ccc([nH]5)c(-c5c(F)c(F)c(F)c(F)c5F)c5nc(c(-c6c(F)c(F)c(F)c(F)c6F)c6ccc3[nH]6)C=C5)C=C4)cc2)c1
REMARK SMILES IDX 18 1 17 2 16 3 14 4 15 5 13 7 8 8 9 9 10 10 12 11 11 12 7 13
REMARK SMILES IDX 1 14 2 15 3 16 86 17 4 18 5 19 6 20 19 21 20 22 21 23 22 25
REMARK SMILES IDX 23 26 24 27 85 28 25 29 84 30 26 31 27 32 28 33 78 34 29 35
REMARK SMILES IDX 83 36 77 37 79 38 30 39 82 40 76 41 75 42 31 44 63 45 43 46
REMARK SMILES IDX 62 47 44 48 47 49 61 50 80 51 45 52 46 53 60 55 81 56 48 57
REMARK SMILES IDX 32 58 33 59 41 60 34 61 35 62 39 63 42 64 36 65 37 66 40 67
REMARK SMILES IDX 38 68 64 69 65 70 73 71 66 72 67 73 71 74 74 75 68 76 69 77
REMARK SMILES IDX 72 78 70 79 49 80 50 81 58 82 51 83 52 84 56 85 59 86 53 87
REMARK SMILES IDX 54 88 57 89 55 90
REMARK H PARENT 16 6 20 24 79 43 47 54
REMARK Flexibility Score: inf
ROOT
ATOM      1  C   UNL     1      -0.679  -6.245   3.030  1.00  0.00     0.042 C 
ENDROOT
BRANCH   1   2
ATOM      2  C   UNL     1      -1.480  -4.991   3.399  1.00  0.00     0.118 C 
BRANCH   2   3
ATOM      3  N   UNL     1      -0.699  -3.809   3.126  1.00  0.00    -0.352 N 
ATOM      4  C   UNL     1      -0.495  -3.074   1.989  1.00  0.00     0.253 C 
ATOM      5  O   UNL     1       0.324  -2.169   2.126  1.00  0.00    -0.269 OA
ATOM      6  H   UNL     1      -0.216  -3.464   3.912  1.00  0.00     0.163 HD
BRANCH   4   7
ATOM      7  C   UNL     1      -1.227  -3.317   0.698  1.00  0.00     0.066 A 
ATOM      8  C   UNL     1      -1.329  -2.309  -0.275  1.00  0.00     0.086 A 
ATOM      9  N   UNL     1      -2.107  -2.444  -1.394  1.00  0.00    -0.255 NA
ATOM     10  C   UNL     1      -2.783  -3.594  -1.577  1.00  0.00     0.112 A 
ATOM     11  C   UNL     1      -1.865  -4.528   0.393  1.00  0.00     0.018 A 
ATOM     12  C   UNL     1      -2.671  -4.669  -0.732  1.00  0.00     0.021 A 
BRANCH   8  13
ATOM     13  C   UNL     1      -0.582  -1.048  -0.255  1.00  0.00     0.037 A 
ATOM     14  C   UNL     1       3.061   0.103  -0.167  1.00  0.00     0.044 C 
ATOM     15  C   UNL     1       1.562   0.141  -0.220  1.00  0.00    -0.050 A 
ATOM     16  C   UNL     1       0.879   1.355  -0.094  1.00  0.00     0.006 A 
ATOM     17  C   UNL     1       0.825  -1.043  -0.349  1.00  0.00     0.016 A 
ATOM     18  C   UNL     1      -0.516   1.374  -0.055  1.00  0.00     0.040 A 
ATOM     19  C   UNL     1      -1.232   0.181  -0.120  1.00  0.00     0.132 A 
ATOM     20  F   UNL     1      -2.569   0.234  -0.014  1.00  0.00    -0.206 F 
ENDBRANCH   8  13
ENDBRANCH   4   7
ENDBRANCH   2   3
ENDBRANCH   1   2
BRANCH   1  21
ATOM     21  C   UNL     1       0.269  -6.581   4.149  1.00  0.00     0.118 C 
BRANCH  21  22
ATOM     22  N   UNL     1      -0.474  -7.085   5.301  1.00  0.00    -0.352 N 
ATOM     23  C   UNL     1      -0.050  -7.954   6.277  1.00  0.00     0.251 C 
ATOM     24  H   UNL     1      -1.400  -6.761   5.390  1.00  0.00     0.163 HD
ATOM     25  O   UNL     1      -0.846  -8.595   6.936  1.00  0.00    -0.269 OA
BRANCH  23  26
ATOM     26  C   UNL     1       1.391  -8.031   6.542  1.00  0.00     0.039 A 
ATOM     27  C   UNL     1       1.968  -9.156   7.140  1.00  0.00     0.014 A 
ATOM     28  C   UNL     1       2.146  -6.895   6.271  1.00  0.00     0.014 A 
ATOM     29  C   UNL     1       3.308  -9.104   7.500  1.00  0.00     0.010 A 
ATOM     30  C   UNL     1       3.488  -6.932   6.393  1.00  0.00     0.010 A 
ATOM     31  C   UNL     1       4.029  -7.969   7.139  1.00  0.00    -0.014 A 
BRANCH  31  32
ATOM     32  C   UNL     1       5.389  -7.673   7.508  1.00  0.00     0.031 A 
ATOM     33  C   UNL     1       6.441  -8.418   6.836  1.00  0.00     0.074 A 
ATOM     34  C   UNL     1       5.531  -6.524   8.208  1.00  0.00     0.049 A 
ATOM     35  N   UNL     1       7.625  -8.557   7.298  1.00  0.00    -0.248 NA
ATOM     36  C   UNL     1       6.224  -9.113   5.569  1.00  0.00     0.031 C 
ATOM     37  C   UNL     1       6.678  -5.663   8.418  1.00  0.00     0.029 A 
ATOM     38  N   UNL     1       4.520  -5.914   8.976  1.00  0.00    -0.354 N 
ATOM     39  C   UNL     1       8.401  -8.984   6.245  1.00  0.00     0.074 A 
ATOM     40  C   UNL     1       7.469  -9.498   5.270  1.00  0.00     0.031 C 
ATOM     41  C   UNL     1       6.432  -4.888   9.496  1.00  0.00     0.029 A 
ATOM     42  C   UNL     1       5.171  -5.333  10.077  1.00  0.00     0.049 A 
ATOM     43  H   UNL     1       3.555  -5.899   8.782  1.00  0.00     0.167 HD
ATOM     44  C   UNL     1       9.720  -8.640   6.250  1.00  0.00     0.037 A 
ATOM     45  C   UNL     1       5.006  -5.965  11.281  1.00  0.00     0.037 A 
ATOM     46  C   UNL     1      10.007  -7.815   7.434  1.00  0.00     0.049 A 
ATOM     47  C   UNL     1       6.252  -6.720  11.700  1.00  0.00     0.074 A 
ATOM     48  C   UNL     1      10.119  -6.451   7.655  1.00  0.00     0.029 A 
ATOM     49  N   UNL     1       9.800  -8.373   8.680  1.00  0.00    -0.354 N 
ATOM     50  N   UNL     1       7.300  -6.883  10.938  1.00  0.00    -0.248 NA
ATOM     51  C   UNL     1       6.403  -7.379  12.992  1.00  0.00     0.031 C 
ATOM     52  C   UNL     1       9.952  -6.213   9.059  1.00  0.00     0.029 A 
ATOM     53  C   UNL     1       9.744  -7.430   9.685  1.00  0.00     0.049 A 
ATOM     54  H   UNL     1       9.704  -9.341   8.835  1.00  0.00     0.167 HD
ATOM     55  C   UNL     1       8.250  -7.611  11.589  1.00  0.00     0.074 A 
ATOM     56  C   UNL     1       7.622  -7.933  12.863  1.00  0.00     0.031 C 
ATOM     57  C   UNL     1       9.472  -7.894  11.040  1.00  0.00     0.037 A 
BRANCH  44  58
ATOM     58  C   UNL     1      10.679  -8.801   5.094  1.00  0.00     0.064 A 
ATOM     59  C   UNL     1      11.863  -8.034   5.048  1.00  0.00     0.173 A 
ATOM     60  C   UNL     1      10.516  -9.693   4.014  1.00  0.00     0.173 A 
ATOM     61  F   UNL     1      12.198  -7.204   6.044  1.00  0.00    -0.203 F 
ATOM     62  C   UNL     1      12.763  -8.099   3.982  1.00  0.00     0.198 A 
ATOM     63  C   UNL     1      11.396  -9.727   2.925  1.00  0.00     0.198 A 
ATOM     64  F   UNL     1       9.545 -10.611   3.995  1.00  0.00    -0.203 F 
ATOM     65  F   UNL     1      13.873  -7.348   4.006  1.00  0.00    -0.200 F 
ATOM     66  C   UNL     1      12.519  -8.928   2.908  1.00  0.00     0.200 A 
ATOM     67  F   UNL     1      11.152 -10.557   1.900  1.00  0.00    -0.200 F 
ATOM     68  F   UNL     1      13.375  -8.981   1.880  1.00  0.00    -0.200 F 
ENDBRANCH  44  58
BRANCH  45  69
ATOM     69  C   UNL     1       3.578  -6.422  11.440  1.00  0.00     0.064 A 
ATOM     70  C   UNL     1       2.585  -5.417  11.367  1.00  0.00     0.173 A 
ATOM     71  C   UNL     1       3.185  -7.729  11.114  1.00  0.00     0.173 A 
ATOM     72  F   UNL     1       2.889  -4.152  11.699  1.00  0.00    -0.203 F 
ATOM     73  C   UNL     1       1.345  -5.663  10.778  1.00  0.00     0.198 A 
ATOM     74  C   UNL     1       1.919  -7.979  10.570  1.00  0.00     0.198 A 
ATOM     75  F   UNL     1       4.062  -8.739  11.190  1.00  0.00    -0.203 F 
ATOM     76  F   UNL     1       0.504  -4.646  10.539  1.00  0.00    -0.200 F 
ATOM     77  C   UNL     1       1.030  -6.937  10.341  1.00  0.00     0.200 A 
ATOM     78  F   UNL     1       1.594  -9.221  10.184  1.00  0.00    -0.200 F 
ATOM     79  F   UNL     1      -0.108  -7.147   9.665  1.00  0.00    -0.200 F 
ENDBRANCH  45  69
BRANCH  57  80
ATOM     80  C   UNL     1      10.525  -8.697  11.757  1.00  0.00     0.064 A 
ATOM     81  C   UNL     1      10.786  -8.529  13.123  1.00  0.00     0.173 A 
ATOM     82  C   UNL     1      11.364  -9.614  11.081  1.00  0.00     0.173 A 
ATOM     83  F   UNL     1      10.159  -7.580  13.833  1.00  0.00    -0.203 F 
ATOM     84  C   UNL     1      11.718  -9.323  13.791  1.00  0.00     0.198 A 
ATOM     85  C   UNL     1      12.342 -10.352  11.736  1.00  0.00     0.198 A 
ATOM     86  F   UNL     1      11.255  -9.861   9.770  1.00  0.00    -0.203 F 
ATOM     87  F   UNL     1      11.858  -9.202  15.118  1.00  0.00    -0.200 F 
ATOM     88  C   UNL     1      12.493 -10.236  13.099  1.00  0.00     0.200 A 
ATOM     89  F   UNL     1      13.118 -11.190  11.034  1.00  0.00    -0.200 F 
ATOM     90  F   UNL     1      13.384 -11.001  13.742  1.00  0.00    -0.200 F 
ENDBRANCH  57  80
ENDBRANCH  31  32
ENDBRANCH  23  26
ENDBRANCH  21  22
ENDBRANCH   1  21
TORSDOF 11
