REMARK SMILES C[C@H](C(=O)NCCCNC(=O)c1ccc(-c2c3nc(c(-c4c(F)c(F)c(F)c(F)c4F)c4ccc([nH]4)c(-c4c(F)c(F)c(F)c(F)c4F)c4nc(c(-c5c(F)c(F)c(F)c(F)c5F)c5ccc2[nH]5)C=C4)C=C3)cc1)[C@@H](C)[N@@H+](C)C[C@H]1C[C@H](O)C1
REMARK SMILES IDX 3 1 4 2 5 3 2 5 1 6 75 7 76 8 77 9 78 10 79 12 80 13 84 14
REMARK SMILES IDX 81 15 82 16 83 17 6 19 7 20 8 21 9 22 10 23 11 25 12 26
REMARK SMILES IDX 13 27 74 28 14 29 73 30 15 31 16 32 17 33 67 34 18 35 72 36
REMARK SMILES IDX 66 37 68 38 19 39 71 40 65 41 64 42 20 44 52 45 32 46 51 47
REMARK SMILES IDX 33 48 36 49 50 50 69 51 34 52 35 53 49 55 70 56 37 57 21 58
REMARK SMILES IDX 22 59 30 60 23 61 24 62 28 63 31 64 25 65 26 66 29 67 27 68
REMARK SMILES IDX 53 69 54 70 62 71 55 72 56 73 60 74 63 75 57 76 58 77 61 78
REMARK SMILES IDX 59 79 38 80 39 81 47 82 40 83 41 84 45 85 48 86 42 87 43 88
REMARK SMILES IDX 46 89 44 90
REMARK H PARENT 5 4 77 11 83 18 9 24 68 43 36 54
REMARK Flexibility Score: inf
ROOT
ATOM      1  C   UNL     1       1.078   0.215  -0.779  1.00  0.00     0.228 C 
ATOM      2  O   UNL     1       2.272   0.163  -1.106  1.00  0.00    -0.275 OA
ATOM      3  N   UNL     1       0.288  -0.739  -1.351  1.00  0.00    -0.356 N 
ATOM      4  H   UNL     1       0.746  -1.245  -2.060  1.00  0.00     0.163 HD
ENDROOT
BRANCH   1   5
ATOM      5  C   UNL     1       0.608   1.365   0.147  1.00  0.00     0.133 C 
ATOM      6  C   UNL     1       0.604   2.639  -0.702  1.00  0.00     0.024 C 
BRANCH   5   7
ATOM      7  C   UNL     1      -0.680   1.094   0.964  1.00  0.00     0.192 C 
ATOM      8  C   UNL     1      -0.407  -0.122   1.865  1.00  0.00     0.076 C 
BRANCH   7   9
ATOM      9  N   UNL     1      -1.293   2.269   1.617  1.00  0.00    -0.334 N 
ATOM     10  C   UNL     1      -2.630   2.597   1.135  1.00  0.00     0.332 C 
ATOM     11  H   UNL     1      -0.658   2.981   1.257  1.00  0.00     0.348 HD
BRANCH   9  12
ATOM     12  C   UNL     1      -1.080   2.521   3.038  1.00  0.00     0.265 C 
BRANCH  12  13
ATOM     13  C   UNL     1      -1.919   1.752   4.069  1.00  0.00     0.049 C 
ATOM     14  C   UNL     1      -2.576   0.347   3.891  1.00  0.00     0.041 C 
ATOM     15  C   UNL     1      -3.350   2.232   4.466  1.00  0.00     0.041 C 
ATOM     16  C   UNL     1      -3.618   0.778   4.940  1.00  0.00     0.115 C 
BRANCH  16  17
ATOM     17  O   UNL     1      -3.276   0.485   6.309  1.00  0.00    -0.393 OA
ATOM     18  H   UNL     1      -2.374   0.793   6.491  1.00  0.00     0.210 HD
ENDBRANCH  16  17
ENDBRANCH  12  13
ENDBRANCH   9  12
ENDBRANCH   7   9
ENDBRANCH   5   7
ENDBRANCH   1   5
BRANCH   3  19
ATOM     19  C   UNL     1      -1.091  -1.169  -1.139  1.00  0.00     0.117 C 
BRANCH  19  20
ATOM     20  C   UNL     1      -1.648  -2.079  -2.224  1.00  0.00     0.042 C 
BRANCH  20  21
ATOM     21  C   UNL     1      -1.031  -3.469  -2.242  1.00  0.00     0.118 C 
BRANCH  21  22
ATOM     22  N   UNL     1      -1.569  -4.366  -1.222  1.00  0.00    -0.352 N 
ATOM     23  C   UNL     1      -2.631  -5.243  -1.226  1.00  0.00     0.251 C 
ATOM     24  H   UNL     1      -1.078  -4.339  -0.369  1.00  0.00     0.163 HD
ATOM     25  O   UNL     1      -2.949  -5.803  -0.177  1.00  0.00    -0.269 OA
BRANCH  23  26
ATOM     26  C   UNL     1      -3.441  -5.476  -2.445  1.00  0.00     0.039 A 
ATOM     27  C   UNL     1      -4.830  -5.609  -2.325  1.00  0.00     0.014 A 
ATOM     28  C   UNL     1      -2.858  -5.559  -3.705  1.00  0.00     0.014 A 
ATOM     29  C   UNL     1      -5.629  -5.677  -3.472  1.00  0.00     0.010 A 
ATOM     30  C   UNL     1      -3.655  -5.499  -4.844  1.00  0.00     0.010 A 
ATOM     31  C   UNL     1      -5.053  -5.535  -4.743  1.00  0.00    -0.014 A 
BRANCH  31  32
ATOM     32  C   UNL     1      -5.870  -5.372  -5.978  1.00  0.00     0.031 A 
ATOM     33  C   UNL     1      -5.657  -6.289  -7.154  1.00  0.00     0.074 A 
ATOM     34  C   UNL     1      -6.694  -4.309  -6.097  1.00  0.00     0.049 A 
ATOM     35  N   UNL     1      -6.102  -6.181  -8.381  1.00  0.00    -0.248 NA
ATOM     36  C   UNL     1      -4.790  -7.459  -6.936  1.00  0.00     0.031 C 
ATOM     37  C   UNL     1      -6.940  -3.304  -5.060  1.00  0.00     0.029 A 
ATOM     38  N   UNL     1      -7.454  -3.876  -7.157  1.00  0.00    -0.354 N 
ATOM     39  C   UNL     1      -5.530  -7.232  -9.086  1.00  0.00     0.074 A 
ATOM     40  C   UNL     1      -4.679  -7.949  -8.162  1.00  0.00     0.031 C 
ATOM     41  C   UNL     1      -7.799  -2.384  -5.527  1.00  0.00     0.029 A 
ATOM     42  C   UNL     1      -8.123  -2.699  -6.913  1.00  0.00     0.049 A 
ATOM     43  H   UNL     1      -7.515  -4.363  -8.011  1.00  0.00     0.167 HD
ATOM     44  C   UNL     1      -5.714  -7.577 -10.382  1.00  0.00     0.037 A 
ATOM     45  C   UNL     1      -8.887  -1.940  -7.723  1.00  0.00     0.037 A 
ATOM     46  C   UNL     1      -6.626  -6.913 -11.274  1.00  0.00     0.049 A 
ATOM     47  C   UNL     1      -9.098  -2.370  -9.149  1.00  0.00     0.074 A 
ATOM     48  C   UNL     1      -6.991  -7.277 -12.558  1.00  0.00     0.029 A 
ATOM     49  N   UNL     1      -7.320  -5.752 -10.973  1.00  0.00    -0.354 N 
ATOM     50  N   UNL     1      -8.625  -3.420  -9.773  1.00  0.00    -0.248 NA
ATOM     51  C   UNL     1      -9.944  -1.506  -9.985  1.00  0.00     0.031 C 
ATOM     52  C   UNL     1      -7.872  -6.311 -13.052  1.00  0.00     0.029 A 
ATOM     53  C   UNL     1      -8.085  -5.367 -12.061  1.00  0.00     0.049 A 
ATOM     54  H   UNL     1      -7.275  -5.273 -10.114  1.00  0.00     0.167 HD
ATOM     55  C   UNL     1      -9.127  -3.352 -11.065  1.00  0.00     0.074 A 
ATOM     56  C   UNL     1      -9.960  -2.170 -11.132  1.00  0.00     0.031 C 
ATOM     57  C   UNL     1      -8.912  -4.191 -12.107  1.00  0.00     0.037 A 
BRANCH  44  58
ATOM     58  C   UNL     1      -4.933  -8.737 -10.924  1.00  0.00     0.064 A 
ATOM     59  C   UNL     1      -5.229 -10.059 -10.562  1.00  0.00     0.173 A 
ATOM     60  C   UNL     1      -3.929  -8.527 -11.883  1.00  0.00     0.173 A 
ATOM     61  F   UNL     1      -6.174 -10.312  -9.645  1.00  0.00    -0.203 F 
ATOM     62  C   UNL     1      -4.538 -11.127 -11.128  1.00  0.00     0.198 A 
ATOM     63  C   UNL     1      -3.259  -9.599 -12.466  1.00  0.00     0.198 A 
ATOM     64  F   UNL     1      -3.612  -7.282 -12.269  1.00  0.00    -0.203 F 
ATOM     65  F   UNL     1      -4.817 -12.381 -10.744  1.00  0.00    -0.200 F 
ATOM     66  C   UNL     1      -3.562 -10.898 -12.086  1.00  0.00     0.200 A 
ATOM     67  F   UNL     1      -2.325  -9.376 -13.400  1.00  0.00    -0.200 F 
ATOM     68  F   UNL     1      -2.911 -11.929 -12.642  1.00  0.00    -0.200 F 
ENDBRANCH  44  58
BRANCH  45  69
ATOM     69  C   UNL     1      -9.504  -0.685  -7.215  1.00  0.00     0.064 A 
ATOM     70  C   UNL     1     -10.893  -0.583  -7.052  1.00  0.00     0.173 A 
ATOM     71  C   UNL     1      -8.727   0.443  -6.912  1.00  0.00     0.173 A 
ATOM     72  F   UNL     1     -11.679  -1.628  -7.350  1.00  0.00    -0.203 F 
ATOM     73  C   UNL     1     -11.484   0.608  -6.635  1.00  0.00     0.198 A 
ATOM     74  C   UNL     1      -9.317   1.624  -6.466  1.00  0.00     0.198 A 
ATOM     75  F   UNL     1      -7.394   0.397  -7.045  1.00  0.00    -0.203 F 
ATOM     76  F   UNL     1     -12.818   0.694  -6.542  1.00  0.00    -0.200 F 
ATOM     77  C   UNL     1     -10.695   1.709  -6.338  1.00  0.00     0.200 A 
ATOM     78  F   UNL     1      -8.551   2.682  -6.166  1.00  0.00    -0.200 F 
ATOM     79  F   UNL     1     -11.264   2.855  -5.940  1.00  0.00    -0.200 F 
ENDBRANCH  45  69
BRANCH  57  80
ATOM     80  C   UNL     1      -9.596  -3.872 -13.401  1.00  0.00     0.064 A 
ATOM     81  C   UNL     1      -9.154  -2.822 -14.219  1.00  0.00     0.173 A 
ATOM     82  C   UNL     1     -10.664  -4.659 -13.857  1.00  0.00     0.173 A 
ATOM     83  F   UNL     1      -8.148  -2.031 -13.816  1.00  0.00    -0.203 F 
ATOM     84  C   UNL     1      -9.766  -2.564 -15.442  1.00  0.00     0.198 A 
ATOM     85  C   UNL     1     -11.256  -4.415 -15.092  1.00  0.00     0.198 A 
ATOM     86  F   UNL     1     -11.119  -5.678 -13.112  1.00  0.00    -0.203 F 
ATOM     87  F   UNL     1      -9.350  -1.534 -16.192  1.00  0.00    -0.200 F 
ATOM     88  C   UNL     1     -10.809  -3.365 -15.881  1.00  0.00     0.200 A 
ATOM     89  F   UNL     1     -12.255  -5.197 -15.521  1.00  0.00    -0.200 F 
ATOM     90  F   UNL     1     -11.387  -3.124 -17.066  1.00  0.00    -0.200 F 
ENDBRANCH  57  80
ENDBRANCH  31  32
ENDBRANCH  23  26
ENDBRANCH  21  22
ENDBRANCH  20  21
ENDBRANCH  19  20
ENDBRANCH   3  19
TORSDOF 15
