REMARK SMILES O=C(NCCCNC(=O)[C@]1(C2CCCC2)CCOc2ccccc21)c1ccc(-c2c3nc(c(-c4c(F)c(F)c(F)c(F)c4F)c4ccc([nH]4)c(-c4c(F)c(F)c(F)c(F)c4F)c4nc(c(-c5c(F)c(F)c(F)c(F)c5F)c5ccc2[nH]5)C=C4)C=C3)cc1
REMARK SMILES IDX 4 1 3 2 1 3 2 4 25 6 26 7 87 8 27 9 86 10 28 11 29 12 30 13
REMARK SMILES IDX 80 14 31 15 85 16 79 17 81 18 32 19 84 20 78 21 77 22 33 24
REMARK SMILES IDX 65 25 45 26 64 27 46 28 49 29 63 30 82 31 47 32 48 33 62 35
REMARK SMILES IDX 83 36 50 37 34 38 35 39 43 40 36 41 37 42 41 43 44 44 38 45
REMARK SMILES IDX 39 46 42 47 40 48 66 49 67 50 75 51 68 52 69 53 73 54 76 55
REMARK SMILES IDX 70 56 71 57 74 58 72 59 51 60 52 61 60 62 53 63 54 64 58 65
REMARK SMILES IDX 61 66 55 67 56 68 59 69 57 70 5 71 6 72 7 73 8 74 9 76 10 77
REMARK SMILES IDX 16 78 24 79 17 80 19 81 23 82 18 83 20 84 22 85 21 86 11 87
REMARK SMILES IDX 12 88 15 89 13 90 14 91
REMARK H PARENT 3 5 81 23 49 34 7 75
REMARK Flexibility Score: inf
ROOT
ATOM      1  C   UNL     1       4.291  -1.347  -0.394  1.00  0.00     0.118 C 
ENDROOT
BRANCH   1   2
ATOM      2  N   UNL     1       2.891  -0.988  -0.573  1.00  0.00    -0.352 N 
ATOM      3  O   UNL     1       0.999   0.168  -0.177  1.00  0.00    -0.269 OA
ATOM      4  C   UNL     1       2.225   0.151  -0.191  1.00  0.00     0.251 C 
ATOM      5  H   UNL     1       2.341  -1.661  -1.037  1.00  0.00     0.163 HD
BRANCH   4   6
ATOM      6  C   UNL     1       2.985   1.355   0.212  1.00  0.00     0.039 A 
ATOM      7  C   UNL     1       4.136   1.734  -0.481  1.00  0.00     0.014 A 
ATOM      8  C   UNL     1       2.515   2.142   1.268  1.00  0.00     0.014 A 
ATOM      9  C   UNL     1       4.899   2.802  -0.028  1.00  0.00     0.010 A 
ATOM     10  C   UNL     1       3.225   3.283   1.652  1.00  0.00     0.010 A 
ATOM     11  C   UNL     1       4.436   3.608   1.022  1.00  0.00    -0.014 A 
BRANCH  11  12
ATOM     12  C   UNL     1       5.198   4.831   1.381  1.00  0.00     0.031 A 
ATOM     13  C   UNL     1       5.819   4.994   2.738  1.00  0.00     0.074 A 
ATOM     14  C   UNL     1       5.341   5.793   0.449  1.00  0.00     0.049 A 
ATOM     15  N   UNL     1       6.524   5.993   3.207  1.00  0.00    -0.248 NA
ATOM     16  C   UNL     1       5.614   3.901   3.698  1.00  0.00     0.031 C 
ATOM     17  C   UNL     1       4.772   5.747  -0.900  1.00  0.00     0.029 A 
ATOM     18  N   UNL     1       6.022   6.983   0.480  1.00  0.00    -0.354 N 
ATOM     19  C   UNL     1       6.827   5.661   4.521  1.00  0.00     0.074 A 
ATOM     20  C   UNL     1       6.205   4.380   4.784  1.00  0.00     0.031 C 
ATOM     21  C   UNL     1       5.174   6.826  -1.585  1.00  0.00     0.029 A 
ATOM     22  C   UNL     1       5.965   7.675  -0.704  1.00  0.00     0.049 A 
ATOM     23  H   UNL     1       6.504   7.309   1.274  1.00  0.00     0.167 HD
ATOM     24  C   UNL     1       7.561   6.362   5.420  1.00  0.00     0.037 A 
ATOM     25  C   UNL     1       6.479   8.871  -1.041  1.00  0.00     0.037 A 
ATOM     26  C   UNL     1       8.185   7.632   5.141  1.00  0.00     0.049 A 
ATOM     27  C   UNL     1       7.262   9.639  -0.017  1.00  0.00     0.074 A 
ATOM     28  C   UNL     1       8.981   8.403   5.970  1.00  0.00     0.029 A 
ATOM     29  N   UNL     1       8.073   8.322   3.942  1.00  0.00    -0.354 N 
ATOM     30  N   UNL     1       7.571   9.300   1.211  1.00  0.00    -0.248 NA
ATOM     31  C   UNL     1       7.763  10.957  -0.423  1.00  0.00     0.031 C 
ATOM     32  C   UNL     1       9.305   9.584   5.292  1.00  0.00     0.029 A 
ATOM     33  C   UNL     1       8.762   9.523   4.018  1.00  0.00     0.049 A 
ATOM     34  H   UNL     1       7.578   8.005   3.152  1.00  0.00     0.167 HD
ATOM     35  C   UNL     1       8.320  10.351   1.719  1.00  0.00     0.074 A 
ATOM     36  C   UNL     1       8.432  11.332   0.658  1.00  0.00     0.031 C 
ATOM     37  C   UNL     1       8.865  10.489   2.953  1.00  0.00     0.037 A 
BRANCH  24  38
ATOM     38  C   UNL     1       7.703   5.784   6.800  1.00  0.00     0.064 A 
ATOM     39  C   UNL     1       8.456   4.626   7.048  1.00  0.00     0.173 A 
ATOM     40  C   UNL     1       7.090   6.410   7.897  1.00  0.00     0.173 A 
ATOM     41  F   UNL     1       9.055   3.981   6.035  1.00  0.00    -0.203 F 
ATOM     42  C   UNL     1       8.559   4.097   8.332  1.00  0.00     0.198 A 
ATOM     43  C   UNL     1       7.220   5.896   9.185  1.00  0.00     0.198 A 
ATOM     44  F   UNL     1       6.364   7.524   7.721  1.00  0.00    -0.203 F 
ATOM     45  F   UNL     1       9.235   2.957   8.534  1.00  0.00    -0.200 F 
ATOM     46  C   UNL     1       7.945   4.734   9.400  1.00  0.00     0.200 A 
ATOM     47  F   UNL     1       6.638   6.522  10.217  1.00  0.00    -0.200 F 
ATOM     48  F   UNL     1       8.044   4.223  10.635  1.00  0.00    -0.200 F 
ENDBRANCH  24  38
BRANCH  25  49
ATOM     49  C   UNL     1       6.270   9.399  -2.413  1.00  0.00     0.064 A 
ATOM     50  C   UNL     1       7.337   9.496  -3.316  1.00  0.00     0.173 A 
ATOM     51  C   UNL     1       4.997   9.781  -2.861  1.00  0.00     0.173 A 
ATOM     52  F   UNL     1       8.575   9.157  -2.928  1.00  0.00    -0.203 F 
ATOM     53  C   UNL     1       7.139   9.962  -4.614  1.00  0.00     0.198 A 
ATOM     54  C   UNL     1       4.795  10.219  -4.168  1.00  0.00     0.198 A 
ATOM     55  F   UNL     1       3.942   9.699  -2.037  1.00  0.00    -0.203 F 
ATOM     56  F   UNL     1       8.181  10.075  -5.448  1.00  0.00    -0.200 F 
ATOM     57  C   UNL     1       5.867  10.314  -5.041  1.00  0.00     0.200 A 
ATOM     58  F   UNL     1       3.562  10.538  -4.582  1.00  0.00    -0.200 F 
ATOM     59  F   UNL     1       5.676  10.748  -6.295  1.00  0.00    -0.200 F 
ENDBRANCH  25  49
BRANCH  37  60
ATOM     60  C   UNL     1       9.665  11.734   3.207  1.00  0.00     0.064 A 
ATOM     61  C   UNL     1       9.055  12.991   3.333  1.00  0.00     0.173 A 
ATOM     62  C   UNL     1      11.059  11.662   3.348  1.00  0.00     0.173 A 
ATOM     63  F   UNL     1       7.728  13.116   3.187  1.00  0.00    -0.203 F 
ATOM     64  C   UNL     1       9.816  14.135   3.562  1.00  0.00     0.198 A 
ATOM     65  C   UNL     1      11.813  12.803   3.610  1.00  0.00     0.198 A 
ATOM     66  F   UNL     1      11.690  10.484   3.241  1.00  0.00    -0.203 F 
ATOM     67  F   UNL     1       9.218  15.333   3.624  1.00  0.00    -0.200 F 
ATOM     68  C   UNL     1      11.192  14.039   3.707  1.00  0.00     0.200 A 
ATOM     69  F   UNL     1      13.140  12.706   3.762  1.00  0.00    -0.200 F 
ATOM     70  F   UNL     1      11.922  15.140   3.932  1.00  0.00    -0.200 F 
ENDBRANCH  37  60
ENDBRANCH  11  12
ENDBRANCH   4   6
ENDBRANCH   1   2
BRANCH   1  71
ATOM     71  C   UNL     1       4.462  -2.400   0.687  1.00  0.00     0.042 C 
BRANCH  71  72
ATOM     72  C   UNL     1       4.089  -3.792   0.206  1.00  0.00     0.117 C 
BRANCH  72  73
ATOM     73  N   UNL     1       5.046  -4.331  -0.755  1.00  0.00    -0.355 N 
ATOM     74  C   UNL     1       5.996  -5.309  -0.762  1.00  0.00     0.231 C 
ATOM     75  H   UNL     1       4.992  -3.870  -1.623  1.00  0.00     0.163 HD
ATOM     76  O   UNL     1       6.585  -5.400  -1.849  1.00  0.00    -0.274 OA
BRANCH  74  77
ATOM     77  C   UNL     1       6.356  -6.260   0.449  1.00  0.00     0.084 C 
ATOM     78  C   UNL     1       7.708  -6.940   0.054  1.00  0.00     0.064 C 
ATOM     79  C   UNL     1       5.320  -7.406   0.551  1.00  0.00     0.010 A 
ATOM     80  C   UNL     1       8.001  -8.208   0.829  1.00  0.00     0.231 C 
ATOM     81  C   UNL     1       5.717  -8.752   0.634  1.00  0.00     0.123 A 
ATOM     82  C   UNL     1       3.932  -7.182   0.468  1.00  0.00     0.009 A 
ATOM     83  O   UNL     1       7.007  -9.199   0.638  1.00  0.00    -0.493 OA
ATOM     84  C   UNL     1       4.778  -9.796   0.640  1.00  0.00     0.047 A 
ATOM     85  C   UNL     1       2.993  -8.221   0.472  1.00  0.00     0.001 A 
ATOM     86  C   UNL     1       3.417  -9.534   0.560  1.00  0.00     0.004 A 
BRANCH  77  87
ATOM     87  C   UNL     1       6.507  -5.394   1.748  1.00  0.00     0.009 C 
ATOM     88  C   UNL     1       6.934  -6.016   3.080  1.00  0.00     0.005 C 
ATOM     89  C   UNL     1       7.531  -4.244   1.664  1.00  0.00     0.005 C 
ATOM     90  C   UNL     1       7.088  -4.793   3.992  1.00  0.00     0.000 C 
ATOM     91  C   UNL     1       7.538  -3.654   3.073  1.00  0.00     0.000 C 
ENDBRANCH  77  87
ENDBRANCH  74  77
ENDBRANCH  72  73
ENDBRANCH  71  72
ENDBRANCH   1  71
TORSDOF 11
