REMARK SMILES CN(CC(=O)NCCCNC(=O)c1ccc(-c2c3nc(c(-c4c(F)c(F)c(F)c(F)c4F)c4ccc([nH]4)c(-c4c(F)c(F)c(F)c(F)c4F)c4nc(c(-c5c(F)c(F)c(F)c(F)c5F)c5ccc2[nH]5)C=C4)C=C3)cc1)c1nc2cc(N)ccc2[nH]1
REMARK SMILES IDX 7 1 6 2 4 3 5 4 3 6 2 7 1 8 76 9 77 10 85 11 78 12 84 13
REMARK SMILES IDX 79 15 83 16 80 17 82 18 81 19 8 22 9 23 10 24 11 25 12 27
REMARK SMILES IDX 13 28 14 29 75 30 15 31 74 32 16 33 17 34 18 35 68 36 19 37
REMARK SMILES IDX 73 38 67 39 69 40 20 41 72 42 66 43 65 44 21 46 53 47 33 48
REMARK SMILES IDX 52 49 34 50 37 51 51 52 70 53 35 54 36 55 50 57 71 58 38 59
REMARK SMILES IDX 22 60 23 61 31 62 24 63 25 64 29 65 32 66 26 67 27 68 30 69
REMARK SMILES IDX 28 70 54 71 55 72 63 73 56 74 57 75 61 76 64 77 58 78 59 79
REMARK SMILES IDX 62 80 60 81 39 82 40 83 48 84 41 85 42 86 46 87 49 88 43 89
REMARK SMILES IDX 44 90 47 91 45 92
REMARK H PARENT 6 5 85 14 81 20 81 21 10 26 69 45 37 56
REMARK Flexibility Score: inf
ROOT
ATOM      1  C   UNL     1      -2.114  -0.010   0.264  1.00  0.00     0.117 C 
ENDROOT
BRANCH   1   2
ATOM      2  N   UNL     1      -2.447  -0.059  -1.141  1.00  0.00    -0.354 N 
ATOM      3  C   UNL     1      -1.639  -0.384  -2.198  1.00  0.00     0.239 C 
ATOM      4  O   UNL     1      -2.174  -0.549  -3.298  1.00  0.00    -0.273 OA
ATOM      5  H   UNL     1      -3.376   0.172  -1.369  1.00  0.00     0.163 HD
BRANCH   3   6
ATOM      6  C   UNL     1      -0.147  -0.667  -1.967  1.00  0.00     0.219 C 
BRANCH   6   7
ATOM      7  N   UNL     1       0.627   0.477  -1.440  1.00  0.00    -0.336 N 
ATOM      8  C   UNL     1       1.529   0.249  -0.331  1.00  0.00     0.147 C 
BRANCH   7   9
ATOM      9  C   UNL     1       0.674   1.597  -2.205  1.00  0.00     0.204 A 
ATOM     10  N   UNL     1      -0.227   2.002  -3.068  1.00  0.00    -0.213 NA
ATOM     11  N   UNL     1       1.746   2.458  -2.198  1.00  0.00    -0.324 N 
ATOM     12  C   UNL     1       0.284   3.127  -3.660  1.00  0.00     0.093 A 
ATOM     13  C   UNL     1       1.539   3.425  -3.149  1.00  0.00     0.067 A 
ATOM     14  H   UNL     1       2.532   2.392  -1.609  1.00  0.00     0.170 HD
ATOM     15  C   UNL     1      -0.269   3.944  -4.656  1.00  0.00     0.056 A 
ATOM     16  C   UNL     1       2.307   4.499  -3.598  1.00  0.00     0.030 A 
ATOM     17  C   UNL     1       0.478   5.019  -5.153  1.00  0.00     0.034 A 
ATOM     18  C   UNL     1       1.739   5.293  -4.606  1.00  0.00     0.028 A 
BRANCH  17  19
ATOM     19  N   UNL     1      -0.079   5.877  -6.093  1.00  0.00    -0.399 N 
ATOM     20  H   UNL     1      -0.965   5.680  -6.474  1.00  0.00     0.156 HD
ATOM     21  H   UNL     1       0.412   6.681  -6.378  1.00  0.00     0.156 HD
ENDBRANCH  17  19
ENDBRANCH   7   9
ENDBRANCH   6   7
ENDBRANCH   3   6
ENDBRANCH   1   2
BRANCH   1  22
ATOM     22  C   UNL     1      -1.945   1.408   0.797  1.00  0.00     0.042 C 
BRANCH  22  23
ATOM     23  C   UNL     1      -3.199   2.272   0.715  1.00  0.00     0.118 C 
BRANCH  23  24
ATOM     24  N   UNL     1      -4.314   1.727   1.478  1.00  0.00    -0.352 N 
ATOM     25  C   UNL     1      -5.042   2.247   2.518  1.00  0.00     0.251 C 
ATOM     26  H   UNL     1      -4.595   0.827   1.198  1.00  0.00     0.163 HD
ATOM     27  O   UNL     1      -5.831   1.520   3.115  1.00  0.00    -0.269 OA
BRANCH  25  28
ATOM     28  C   UNL     1      -4.889   3.657   2.948  1.00  0.00     0.039 A 
ATOM     29  C   UNL     1      -4.994   3.949   4.313  1.00  0.00     0.014 A 
ATOM     30  C   UNL     1      -4.722   4.699   2.033  1.00  0.00     0.014 A 
ATOM     31  C   UNL     1      -4.884   5.268   4.760  1.00  0.00     0.010 A 
ATOM     32  C   UNL     1      -4.537   6.005   2.484  1.00  0.00     0.010 A 
ATOM     33  C   UNL     1      -4.628   6.306   3.851  1.00  0.00    -0.014 A 
BRANCH  33  34
ATOM     34  C   UNL     1      -4.477   7.710   4.316  1.00  0.00     0.031 A 
ATOM     35  C   UNL     1      -5.475   8.758   3.903  1.00  0.00     0.074 A 
ATOM     36  C   UNL     1      -3.418   8.053   5.073  1.00  0.00     0.049 A 
ATOM     37  N   UNL     1      -5.487  10.041   4.167  1.00  0.00    -0.248 NA
ATOM     38  C   UNL     1      -6.595   8.310   3.061  1.00  0.00     0.031 C 
ATOM     39  C   UNL     1      -2.357   7.142   5.505  1.00  0.00     0.029 A 
ATOM     40  N   UNL     1      -3.054   9.264   5.609  1.00  0.00    -0.354 N 
ATOM     41  C   UNL     1      -6.601  10.552   3.514  1.00  0.00     0.074 A 
ATOM     42  C   UNL     1      -7.213   9.452   2.799  1.00  0.00     0.031 C 
ATOM     43  C   UNL     1      -1.475   7.819   6.257  1.00  0.00     0.029 A 
ATOM     44  C   UNL     1      -1.888   9.217   6.332  1.00  0.00     0.049 A 
ATOM     45  H   UNL     1      -3.579  10.087   5.486  1.00  0.00     0.167 HD
ATOM     46  C   UNL     1      -7.084  11.818   3.526  1.00  0.00     0.037 A 
ATOM     47  C   UNL     1      -1.224  10.194   6.981  1.00  0.00     0.037 A 
ATOM     48  C   UNL     1      -6.493  12.905   4.261  1.00  0.00     0.049 A 
ATOM     49  C   UNL     1      -1.785  11.590   6.982  1.00  0.00     0.074 A 
ATOM     50  C   UNL     1      -6.943  14.208   4.386  1.00  0.00     0.029 A 
ATOM     51  N   UNL     1      -5.321  12.815   4.996  1.00  0.00    -0.354 N 
ATOM     52  N   UNL     1      -2.875  12.045   6.416  1.00  0.00    -0.248 NA
ATOM     53  C   UNL     1      -1.024  12.607   7.721  1.00  0.00     0.031 C 
ATOM     54  C   UNL     1      -6.021  14.917   5.165  1.00  0.00     0.029 A 
ATOM     55  C   UNL     1      -5.021  14.044   5.562  1.00  0.00     0.049 A 
ATOM     56  H   UNL     1      -4.781  11.998   5.101  1.00  0.00     0.167 HD
ATOM     57  C   UNL     1      -2.945  13.391   6.749  1.00  0.00     0.074 A 
ATOM     58  C   UNL     1      -1.796  13.675   7.583  1.00  0.00     0.031 C 
ATOM     59  C   UNL     1      -3.876  14.310   6.394  1.00  0.00     0.037 A 
BRANCH  46  60
ATOM     60  C   UNL     1      -8.323  12.095   2.724  1.00  0.00     0.064 A 
ATOM     61  C   UNL     1      -9.576  11.599   3.115  1.00  0.00     0.173 A 
ATOM     62  C   UNL     1      -8.264  12.896   1.574  1.00  0.00     0.173 A 
ATOM     63  F   UNL     1      -9.686  10.820   4.201  1.00  0.00    -0.203 F 
ATOM     64  C   UNL     1     -10.719  11.871   2.367  1.00  0.00     0.198 A 
ATOM     65  C   UNL     1      -9.414  13.190   0.845  1.00  0.00     0.198 A 
ATOM     66  F   UNL     1      -7.092  13.402   1.161  1.00  0.00    -0.203 F 
ATOM     67  F   UNL     1     -11.898  11.348   2.733  1.00  0.00    -0.200 F 
ATOM     68  C   UNL     1     -10.638  12.671   1.238  1.00  0.00     0.200 A 
ATOM     69  F   UNL     1      -9.336  13.975  -0.238  1.00  0.00    -0.200 F 
ATOM     70  F   UNL     1     -11.741  12.938   0.523  1.00  0.00    -0.200 F 
ENDBRANCH  46  60
BRANCH  47  71
ATOM     71  C   UNL     1       0.033   9.880   7.709  1.00  0.00     0.064 A 
ATOM     72  C   UNL     1       0.076   9.905   9.110  1.00  0.00     0.173 A 
ATOM     73  C   UNL     1       1.214   9.562   7.024  1.00  0.00     0.173 A 
ATOM     74  F   UNL     1      -1.023  10.226   9.808  1.00  0.00    -0.203 F 
ATOM     75  C   UNL     1       1.259   9.644   9.797  1.00  0.00     0.198 A 
ATOM     76  C   UNL     1       2.389   9.274   7.713  1.00  0.00     0.198 A 
ATOM     77  F   UNL     1       1.223   9.521   5.683  1.00  0.00    -0.203 F 
ATOM     78  F   UNL     1       1.284   9.720  11.135  1.00  0.00    -0.200 F 
ATOM     79  C   UNL     1       2.414   9.323   9.099  1.00  0.00     0.200 A 
ATOM     80  F   UNL     1       3.500   8.951   7.036  1.00  0.00    -0.200 F 
ATOM     81  F   UNL     1       3.551   9.070   9.761  1.00  0.00    -0.200 F 
ENDBRANCH  47  71
BRANCH  59  82
ATOM     82  C   UNL     1      -3.705  15.701   6.929  1.00  0.00     0.064 A 
ATOM     83  C   UNL     1      -2.699  16.554   6.452  1.00  0.00     0.173 A 
ATOM     84  C   UNL     1      -4.576  16.197   7.911  1.00  0.00     0.173 A 
ATOM     85  F   UNL     1      -1.831  16.120   5.525  1.00  0.00    -0.203 F 
ATOM     86  C   UNL     1      -2.555  17.843   6.957  1.00  0.00     0.198 A 
ATOM     87  C   UNL     1      -4.447  17.497   8.393  1.00  0.00     0.198 A 
ATOM     88  F   UNL     1      -5.559  15.424   8.397  1.00  0.00    -0.203 F 
ATOM     89  F   UNL     1      -1.556  18.623   6.521  1.00  0.00    -0.200 F 
ATOM     90  C   UNL     1      -3.433  18.316   7.921  1.00  0.00     0.200 A 
ATOM     91  F   UNL     1      -5.303  17.956   9.316  1.00  0.00    -0.200 F 
ATOM     92  F   UNL     1      -3.294  19.558   8.403  1.00  0.00    -0.200 F 
ENDBRANCH  59  82
ENDBRANCH  33  34
ENDBRANCH  25  28
ENDBRANCH  23  24
ENDBRANCH  22  23
ENDBRANCH   1  22
TORSDOF 13
