REMARK SMILES C=C(C)C(=O)OCC[C@@H](C(C)=O)C(=O)NCCCNC(=O)c1ccc(-c2c3nc(c(-c4c(F)c(F)c(F)c(F)c4F)c4ccc([nH]4)c(-c4c(F)c(F)c(F)c(F)c4F)c4nc(c(-c5c(F)c(F)c(F)c(F)c5F)c5ccc2[nH]5)C=C4)C=C3)cc1
REMARK SMILES IDX 13 1 14 2 15 3 9 5 8 6 7 7 6 8 4 9 5 10 2 11 1 12 3 13 10 14
REMARK SMILES IDX 11 15 12 16 16 17 17 18 18 19 19 20 20 21 21 23 22 24 23 25
REMARK SMILES IDX 84 26 24 27 83 28 25 29 26 30 27 31 77 32 28 33 82 34 76 35
REMARK SMILES IDX 78 36 29 37 81 38 75 39 74 40 30 42 62 43 42 44 61 45 43 46
REMARK SMILES IDX 46 47 60 48 79 49 44 50 45 51 59 53 80 54 47 55 31 56 32 57
REMARK SMILES IDX 40 58 33 59 34 60 38 61 41 62 35 63 36 64 39 65 37 66 63 67
REMARK SMILES IDX 64 68 72 69 65 70 66 71 70 72 73 73 67 74 68 75 71 76 69 77
REMARK SMILES IDX 48 78 49 79 57 80 50 81 51 82 55 83 58 84 52 85 53 86 56 87
REMARK SMILES IDX 54 88
REMARK H PARENT 15 4 19 22 78 41 46 52
REMARK Flexibility Score: inf
ROOT
ATOM      1  C   UNL     1       3.933   4.392  -1.649  1.00  0.00     0.230 C 
ATOM      2  O   UNL     1       3.893   4.514  -0.424  1.00  0.00    -0.274 OA
ATOM      3  N   UNL     1       4.636   5.317  -2.359  1.00  0.00    -0.355 N 
ATOM      4  H   UNL     1       5.065   6.018  -1.818  1.00  0.00     0.163 HD
ENDROOT
BRANCH   1   5
ATOM      5  C   UNL     1       3.205   3.264  -2.351  1.00  0.00     0.148 C 
BRANCH   5   6
ATOM      6  C   UNL     1       1.929   3.838  -3.000  1.00  0.00     0.063 C 
BRANCH   6   7
ATOM      7  C   UNL     1       0.920   2.804  -3.498  1.00  0.00     0.234 C 
BRANCH   7   8
ATOM      8  O   UNL     1       0.280   2.136  -2.403  1.00  0.00    -0.462 OA
BRANCH   8   9
ATOM      9  C   UNL     1       0.842   0.971  -2.001  1.00  0.00     0.333 C 
ATOM     10  O   UNL     1       1.860   0.464  -2.447  1.00  0.00    -0.247 OA
BRANCH   9  11
ATOM     11  C   UNL     1       0.074   0.431  -0.854  1.00  0.00     0.027 C 
ATOM     12  C   UNL     1       0.760  -0.226   0.094  1.00  0.00     0.020 C 
ATOM     13  C   UNL     1      -1.407   0.622  -0.840  1.00  0.00     0.051 C 
ENDBRANCH   9  11
ENDBRANCH   8   9
ENDBRANCH   7   8
ENDBRANCH   6   7
ENDBRANCH   5   6
BRANCH   5  14
ATOM     14  C   UNL     1       4.110   2.502  -3.313  1.00  0.00     0.142 C 
ATOM     15  C   UNL     1       5.475   2.076  -2.824  1.00  0.00     0.088 C 
ATOM     16  O   UNL     1       3.768   2.242  -4.469  1.00  0.00    -0.299 OA
ENDBRANCH   5  14
ENDBRANCH   1   5
BRANCH   3  17
ATOM     17  C   UNL     1       4.849   5.429  -3.792  1.00  0.00     0.117 C 
BRANCH  17  18
ATOM     18  C   UNL     1       4.386   6.770  -4.327  1.00  0.00     0.042 C 
BRANCH  18  19
ATOM     19  C   UNL     1       5.191   7.935  -3.779  1.00  0.00     0.118 C 
BRANCH  19  20
ATOM     20  N   UNL     1       6.604   7.845  -4.128  1.00  0.00    -0.352 N 
ATOM     21  C   UNL     1       7.364   8.665  -4.923  1.00  0.00     0.251 C 
ATOM     22  H   UNL     1       7.084   7.081  -3.735  1.00  0.00     0.163 HD
ATOM     23  O   UNL     1       8.478   8.311  -5.290  1.00  0.00    -0.269 OA
BRANCH  21  24
ATOM     24  C   UNL     1       6.820   9.968  -5.349  1.00  0.00     0.039 A 
ATOM     25  C   UNL     1       6.990  10.375  -6.673  1.00  0.00     0.014 A 
ATOM     26  C   UNL     1       6.123  10.773  -4.445  1.00  0.00     0.014 A 
ATOM     27  C   UNL     1       6.388  11.555  -7.109  1.00  0.00     0.010 A 
ATOM     28  C   UNL     1       5.438  11.889  -4.904  1.00  0.00     0.010 A 
ATOM     29  C   UNL     1       5.566  12.293  -6.240  1.00  0.00    -0.014 A 
BRANCH  29  30
ATOM     30  C   UNL     1       4.814  13.478  -6.716  1.00  0.00     0.031 A 
ATOM     31  C   UNL     1       5.068  14.828  -6.112  1.00  0.00     0.074 A 
ATOM     32  C   UNL     1       3.840  13.314  -7.632  1.00  0.00     0.049 A 
ATOM     33  N   UNL     1       4.468  15.967  -6.349  1.00  0.00    -0.248 NA
ATOM     34  C   UNL     1       6.110  14.904  -5.077  1.00  0.00     0.031 C 
ATOM     35  C   UNL     1       3.455  12.037  -8.235  1.00  0.00     0.029 A 
ATOM     36  N   UNL     1       2.987  14.223  -8.203  1.00  0.00    -0.354 N 
ATOM     37  C   UNL     1       5.046  16.885  -5.484  1.00  0.00     0.074 A 
ATOM     38  C   UNL     1       6.001  16.160  -4.674  1.00  0.00     0.031 C 
ATOM     39  C   UNL     1       2.458  12.247  -9.108  1.00  0.00     0.029 A 
ATOM     40  C   UNL     1       2.104  13.663  -9.093  1.00  0.00     0.049 A 
ATOM     41  H   UNL     1       3.006  15.186  -7.996  1.00  0.00     0.167 HD
ATOM     42  C   UNL     1       4.815  18.216  -5.390  1.00  0.00     0.037 A 
ATOM     43  C   UNL     1       1.111  14.224  -9.806  1.00  0.00     0.037 A 
ATOM     44  C   UNL     1       3.875  18.928  -6.215  1.00  0.00     0.049 A 
ATOM     45  C   UNL     1       0.876  15.704  -9.692  1.00  0.00     0.074 A 
ATOM     46  C   UNL     1       3.632  20.289  -6.268  1.00  0.00     0.029 A 
ATOM     47  N   UNL     1       3.009  18.332  -7.123  1.00  0.00    -0.354 N 
ATOM     48  N   UNL     1       1.498  16.584  -8.944  1.00  0.00    -0.248 NA
ATOM     49  C   UNL     1      -0.193  16.272 -10.524  1.00  0.00     0.031 C 
ATOM     50  C   UNL     1       2.572  20.508  -7.155  1.00  0.00     0.029 A 
ATOM     51  C   UNL     1       2.199  19.293  -7.707  1.00  0.00     0.049 A 
ATOM     52  H   UNL     1       2.976  17.368  -7.322  1.00  0.00     0.167 HD
ATOM     53  C   UNL     1       0.908  17.809  -9.222  1.00  0.00     0.074 A 
ATOM     54  C   UNL     1      -0.107  17.561 -10.227  1.00  0.00     0.031 C 
ATOM     55  C   UNL     1       1.179  19.027  -8.692  1.00  0.00     0.037 A 
BRANCH  42  56
ATOM     56  C   UNL     1       5.582  18.981  -4.348  1.00  0.00     0.064 A 
ATOM     57  C   UNL     1       6.972  19.158  -4.428  1.00  0.00     0.173 A 
ATOM     58  C   UNL     1       4.913  19.556  -3.257  1.00  0.00     0.173 A 
ATOM     59  F   UNL     1       7.665  18.621  -5.444  1.00  0.00    -0.203 F 
ATOM     60  C   UNL     1       7.668  19.843  -3.434  1.00  0.00     0.198 A 
ATOM     61  C   UNL     1       5.606  20.272  -2.284  1.00  0.00     0.198 A 
ATOM     62  F   UNL     1       3.584  19.424  -3.131  1.00  0.00    -0.203 F 
ATOM     63  F   UNL     1       9.003  19.940  -3.499  1.00  0.00    -0.200 F 
ATOM     64  C   UNL     1       6.984  20.404  -2.367  1.00  0.00     0.200 A 
ATOM     65  F   UNL     1       4.941  20.827  -1.262  1.00  0.00    -0.200 F 
ATOM     66  F   UNL     1       7.654  21.064  -1.412  1.00  0.00    -0.200 F 
ENDBRANCH  42  56
BRANCH  43  67
ATOM     67  C   UNL     1       0.280  13.373 -10.697  1.00  0.00     0.064 A 
ATOM     68  C   UNL     1       0.384  13.468 -12.092  1.00  0.00     0.173 A 
ATOM     69  C   UNL     1      -0.605  12.420 -10.172  1.00  0.00     0.173 A 
ATOM     70  F   UNL     1       1.204  14.377 -12.641  1.00  0.00    -0.203 F 
ATOM     71  C   UNL     1      -0.372  12.649 -12.927  1.00  0.00     0.198 A 
ATOM     72  C   UNL     1      -1.338  11.581 -11.008  1.00  0.00     0.198 A 
ATOM     73  F   UNL     1      -0.735  12.284  -8.844  1.00  0.00    -0.203 F 
ATOM     74  F   UNL     1      -0.278  12.782 -14.257  1.00  0.00    -0.200 F 
ATOM     75  C   UNL     1      -1.225  11.699 -12.384  1.00  0.00     0.200 A 
ATOM     76  F   UNL     1      -2.146  10.652 -10.479  1.00  0.00    -0.200 F 
ATOM     77  F   UNL     1      -1.939  10.899 -13.188  1.00  0.00    -0.200 F 
ENDBRANCH  43  67
BRANCH  55  78
ATOM     78  C   UNL     1       0.369  20.189  -9.192  1.00  0.00     0.064 A 
ATOM     79  C   UNL     1      -0.990  20.330  -8.871  1.00  0.00     0.173 A 
ATOM     80  C   UNL     1       0.967  21.193  -9.969  1.00  0.00     0.173 A 
ATOM     81  F   UNL     1      -1.613  19.390  -8.145  1.00  0.00    -0.203 F 
ATOM     82  C   UNL     1      -1.725  21.419  -9.332  1.00  0.00     0.198 A 
ATOM     83  C   UNL     1       0.237  22.298 -10.398  1.00  0.00     0.198 A 
ATOM     84  F   UNL     1       2.265  21.111 -10.299  1.00  0.00    -0.203 F 
ATOM     85  F   UNL     1      -3.034  21.505  -9.057  1.00  0.00    -0.200 F 
ATOM     86  C   UNL     1      -1.109  22.406 -10.087  1.00  0.00     0.200 A 
ATOM     87  F   UNL     1       0.838  23.259 -11.114  1.00  0.00    -0.200 F 
ATOM     88  F   UNL     1      -1.817  23.458 -10.522  1.00  0.00    -0.200 F 
ENDBRANCH  55  78
ENDBRANCH  29  30
ENDBRANCH  21  24
ENDBRANCH  19  20
ENDBRANCH  18  19
ENDBRANCH  17  18
ENDBRANCH   3  17
TORSDOF 16
