REMARK SMILES O=C(NCCCNC(=O)[C@@H]1[C@@H](C(=O)Nc2cccc([N+](=O)[O-])c2)[C@@H]2C=C[C@H]1O2)c1ccc(-c2c3nc(c(-c4c(F)c(F)c(F)c(F)c4F)c4ccc([nH]4)c(-c4c(F)c(F)c(F)c(F)c4F)c4nc(c(-c5c(F)c(F)c(F)c(F)c5F)c5ccc2[nH]5)C=C4)C=C3)cc1
REMARK SMILES IDX 5 1 4 2 3 3 1 4 2 5 29 7 30 8 91 9 31 10 90 11 32 12 33 13
REMARK SMILES IDX 34 14 84 15 35 16 89 17 83 18 85 19 36 20 88 21 82 22 81 23
REMARK SMILES IDX 37 25 69 26 49 27 68 28 50 29 53 30 67 31 86 32 51 33 52 34
REMARK SMILES IDX 66 36 87 37 54 38 38 39 39 40 47 41 40 42 41 43 45 44 48 45
REMARK SMILES IDX 42 46 43 47 46 48 44 49 70 50 71 51 79 52 72 53 73 54 77 55
REMARK SMILES IDX 80 56 74 57 75 58 78 59 76 60 55 61 56 62 64 63 57 64 58 65
REMARK SMILES IDX 62 66 65 67 59 68 60 69 63 70 61 71 6 72 7 73 8 74 9 76
REMARK SMILES IDX 10 77 11 78 27 79 24 80 26 81 28 82 25 83 12 84 13 85 14 86
REMARK SMILES IDX 15 88 16 89 23 90 17 91 19 92 18 93 20 94 21 95 22 96
REMARK H PARENT 3 6 85 24 53 35 7 75 14 87
REMARK Flexibility Score: inf
ROOT
ATOM      1  C   UNL     1       4.895  -1.802   1.776  1.00  0.00     0.042 C 
ENDROOT
BRANCH   1   2
ATOM      2  C   UNL     1       4.596  -1.247   0.391  1.00  0.00     0.118 C 
BRANCH   2   3
ATOM      3  N   UNL     1       3.168  -1.087   0.148  1.00  0.00    -0.352 N 
ATOM      4  O   UNL     1       1.208   0.009  -0.050  1.00  0.00    -0.269 OA
ATOM      5  C   UNL     1       2.435   0.055  -0.058  1.00  0.00     0.251 C 
ATOM      6  H   UNL     1       2.650  -1.924   0.129  1.00  0.00     0.163 HD
BRANCH   5   7
ATOM      7  C   UNL     1       3.124   1.343  -0.271  1.00  0.00     0.039 A 
ATOM      8  C   UNL     1       4.248   1.418  -1.095  1.00  0.00     0.014 A 
ATOM      9  C   UNL     1       2.632   2.493   0.352  1.00  0.00     0.014 A 
ATOM     10  C   UNL     1       4.973   2.599  -1.167  1.00  0.00     0.010 A 
ATOM     11  C   UNL     1       3.304   3.707   0.194  1.00  0.00     0.010 A 
ATOM     12  C   UNL     1       4.498   3.763  -0.542  1.00  0.00    -0.014 A 
BRANCH  12  13
ATOM     13  C   UNL     1       5.233   5.037  -0.731  1.00  0.00     0.031 A 
ATOM     14  C   UNL     1       5.870   5.747   0.428  1.00  0.00     0.074 A 
ATOM     15  C   UNL     1       5.338   5.538  -1.977  1.00  0.00     0.049 A 
ATOM     16  N   UNL     1       6.545   6.870   0.437  1.00  0.00    -0.248 NA
ATOM     17  C   UNL     1       5.726   5.125   1.753  1.00  0.00     0.031 C 
ATOM     18  C   UNL     1       4.753   4.935  -3.177  1.00  0.00     0.029 A 
ATOM     19  N   UNL     1       5.982   6.653  -2.447  1.00  0.00    -0.354 N 
ATOM     20  C   UNL     1       6.889   7.097   1.762  1.00  0.00     0.074 A 
ATOM     21  C   UNL     1       6.325   6.012   2.536  1.00  0.00     0.031 C 
ATOM     22  C   UNL     1       5.098   5.662  -4.248  1.00  0.00     0.029 A 
ATOM     23  C   UNL     1       5.870   6.817  -3.805  1.00  0.00     0.049 A 
ATOM     24  H   UNL     1       6.477   7.276  -1.866  1.00  0.00     0.167 HD
ATOM     25  C   UNL     1       7.617   8.117   2.280  1.00  0.00     0.037 A 
ATOM     26  C   UNL     1       6.317   7.801  -4.605  1.00  0.00     0.037 A 
ATOM     27  C   UNL     1       8.185   9.186   1.498  1.00  0.00     0.049 A 
ATOM     28  C   UNL     1       7.091   8.934  -3.997  1.00  0.00     0.074 A 
ATOM     29  C   UNL     1       8.967  10.246   1.923  1.00  0.00     0.029 A 
ATOM     30  N   UNL     1       8.025   9.335   0.127  1.00  0.00    -0.354 N 
ATOM     31  N   UNL     1       7.439   9.121  -2.748  1.00  0.00    -0.248 NA
ATOM     32  C   UNL     1       7.532   9.995  -4.911  1.00  0.00     0.031 C 
ATOM     33  C   UNL     1       9.236  11.063   0.820  1.00  0.00     0.029 A 
ATOM     34  C   UNL     1       8.671  10.483  -0.304  1.00  0.00     0.049 A 
ATOM     35  H   UNL     1       7.526   8.716  -0.454  1.00  0.00     0.167 HD
ATOM     36  C   UNL     1       8.156  10.308  -2.726  1.00  0.00     0.074 A 
ATOM     37  C   UNL     1       8.210  10.787  -4.092  1.00  0.00     0.031 C 
ATOM     38  C   UNL     1       8.716  10.945  -1.669  1.00  0.00     0.037 A 
BRANCH  25  39
ATOM     39  C   UNL     1       7.826   8.141   3.768  1.00  0.00     0.064 A 
ATOM     40  C   UNL     1       8.661   7.216   4.413  1.00  0.00     0.173 A 
ATOM     41  C   UNL     1       7.219   9.133   4.553  1.00  0.00     0.173 A 
ATOM     42  F   UNL     1       9.258   6.241   3.711  1.00  0.00    -0.203 F 
ATOM     43  C   UNL     1       8.861   7.269   5.791  1.00  0.00     0.198 A 
ATOM     44  C   UNL     1       7.444   9.201   5.926  1.00  0.00     0.198 A 
ATOM     45  F   UNL     1       6.417  10.047   3.987  1.00  0.00    -0.203 F 
ATOM     46  F   UNL     1       9.627   6.348   6.391  1.00  0.00    -0.200 F 
ATOM     47  C   UNL     1       8.258   8.265   6.545  1.00  0.00     0.200 A 
ATOM     48  F   UNL     1       6.873  10.173   6.651  1.00  0.00    -0.200 F 
ATOM     49  F   UNL     1       8.458   8.319   7.869  1.00  0.00    -0.200 F 
ENDBRANCH  25  39
BRANCH  26  50
ATOM     50  C   UNL     1       6.032   7.752  -6.062  1.00  0.00     0.064 A 
ATOM     51  C   UNL     1       7.059   7.548  -6.992  1.00  0.00     0.173 A 
ATOM     52  C   UNL     1       4.724   7.891  -6.551  1.00  0.00     0.173 A 
ATOM     53  F   UNL     1       8.327   7.426  -6.574  1.00  0.00    -0.203 F 
ATOM     54  C   UNL     1       6.792   7.501  -8.358  1.00  0.00     0.198 A 
ATOM     55  C   UNL     1       4.454   7.812  -7.915  1.00  0.00     0.198 A 
ATOM     56  F   UNL     1       3.705   8.081  -5.701  1.00  0.00    -0.203 F 
ATOM     57  F   UNL     1       7.797   7.347  -9.230  1.00  0.00    -0.200 F 
ATOM     58  C   UNL     1       5.489   7.625  -8.818  1.00  0.00     0.200 A 
ATOM     59  F   UNL     1       3.191   7.913  -8.352  1.00  0.00    -0.200 F 
ATOM     60  F   UNL     1       5.231   7.571 -10.132  1.00  0.00    -0.200 F 
ENDBRANCH  26  50
BRANCH  38  61
ATOM     61  C   UNL     1       9.466  12.213  -1.956  1.00  0.00     0.064 A 
ATOM     62  C   UNL     1       8.802  13.395  -2.318  1.00  0.00     0.173 A 
ATOM     63  C   UNL     1      10.864  12.252  -1.844  1.00  0.00     0.173 A 
ATOM     64  F   UNL     1       7.468  13.405  -2.457  1.00  0.00    -0.203 F 
ATOM     65  C   UNL     1       9.513  14.562  -2.583  1.00  0.00     0.198 A 
ATOM     66  C   UNL     1      11.569  13.429  -2.078  1.00  0.00     0.198 A 
ATOM     67  F   UNL     1      11.545  11.150  -1.497  1.00  0.00    -0.203 F 
ATOM     68  F   UNL     1       8.864  15.666  -2.978  1.00  0.00    -0.200 F 
ATOM     69  C   UNL     1      10.895  14.580  -2.455  1.00  0.00     0.200 A 
ATOM     70  F   UNL     1      12.902  13.447  -1.942  1.00  0.00    -0.200 F 
ATOM     71  F   UNL     1      11.577  15.706  -2.705  1.00  0.00    -0.200 F 
ENDBRANCH  38  61
ENDBRANCH  12  13
ENDBRANCH   5   7
ENDBRANCH   2   3
ENDBRANCH   1   2
BRANCH   1  72
ATOM     72  C   UNL     1       4.348  -3.203   1.993  1.00  0.00     0.117 C 
BRANCH  72  73
ATOM     73  N   UNL     1       4.936  -4.149   1.062  1.00  0.00    -0.356 N 
ATOM     74  C   UNL     1       5.856  -5.125   1.298  1.00  0.00     0.227 C 
ATOM     75  H   UNL     1       4.626  -4.075   0.131  1.00  0.00     0.163 HD
ATOM     76  O   UNL     1       6.378  -5.673   0.328  1.00  0.00    -0.275 OA
BRANCH  74  77
ATOM     77  C   UNL     1       6.179  -5.486   2.729  1.00  0.00     0.127 C 
ATOM     78  C   UNL     1       7.223  -6.644   2.855  1.00  0.00     0.127 C 
ATOM     79  C   UNL     1       4.957  -6.105   3.433  1.00  0.00     0.155 C 
ATOM     80  C   UNL     1       6.436  -7.659   3.705  1.00  0.00     0.155 C 
ATOM     81  C   UNL     1       4.434  -7.308   2.700  1.00  0.00     0.004 C 
ATOM     82  O   UNL     1       5.630  -6.774   4.527  1.00  0.00    -0.365 OA
ATOM     83  C   UNL     1       5.352  -8.268   2.865  1.00  0.00     0.004 C 
BRANCH  78  84
ATOM     84  C   UNL     1       8.515  -6.224   3.541  1.00  0.00     0.231 C 
ATOM     85  O   UNL     1       8.764  -5.045   3.804  1.00  0.00    -0.274 OA
ATOM     86  N   UNL     1       9.439  -7.172   3.914  1.00  0.00    -0.325 N 
ATOM     87  H   UNL     1      10.188  -6.835   4.457  1.00  0.00     0.169 HD
BRANCH  86  88
ATOM     88  C   UNL     1       9.476  -8.547   3.637  1.00  0.00     0.048 A 
ATOM     89  C   UNL     1       9.862  -9.405   4.671  1.00  0.00     0.026 A 
ATOM     90  C   UNL     1       9.096  -9.082   2.405  1.00  0.00     0.111 A 
ATOM     91  C   UNL     1       9.749 -10.790   4.519  1.00  0.00     0.009 A 
ATOM     92  C   UNL     1       8.980 -10.470   2.257  1.00  0.00     0.271 A 
ATOM     93  C   UNL     1       9.288 -11.328   3.318  1.00  0.00     0.086 A 
BRANCH  92  94
ATOM     94  N   UNL     1       8.493 -11.022   0.987  1.00  0.00     0.062 N 
ATOM     95  O   UNL     1       8.426 -12.254   0.883  1.00  0.00    -0.258 OA
ATOM     96  O   UNL     1       8.160 -10.221   0.102  1.00  0.00    -0.258 OA
ENDBRANCH  92  94
ENDBRANCH  86  88
ENDBRANCH  78  84
ENDBRANCH  74  77
ENDBRANCH  72  73
ENDBRANCH   1  72
TORSDOF 13
