REMARK SMILES COCC[C@@]1(C(=O)NCCCNC(=O)c2ccc(-c3c4nc(c(-c5c(F)c(F)c(F)c(F)c5F)c5ccc([nH]5)c(-c5c(F)c(F)c(F)c(F)c5F)c5nc(c(-c6c(F)c(F)c(F)c(F)c6F)c6ccc3[nH]6)C=C5)C=C4)cc2)CCCN(C(=O)NCc2ccc(OC)cc2)C1
REMARK SMILES IDX 9 1 8 2 6 3 7 4 5 6 78 7 94 8 79 9 81 10 80 11 4 12 3 13
REMARK SMILES IDX 2 14 1 15 82 16 83 17 84 18 85 20 86 21 87 22 93 23 88 24
REMARK SMILES IDX 92 25 89 26 90 27 91 28 10 29 11 30 12 31 13 32 14 34 15 35
REMARK SMILES IDX 16 36 77 37 17 38 76 39 18 40 19 41 20 42 70 43 21 44 75 45
REMARK SMILES IDX 69 46 71 47 22 48 74 49 68 50 67 51 23 53 55 54 35 55 54 56
REMARK SMILES IDX 36 57 39 58 53 59 72 60 37 61 38 62 52 64 73 65 40 66 24 67
REMARK SMILES IDX 25 68 33 69 26 70 27 71 31 72 34 73 28 74 29 75 32 76 30 77
REMARK SMILES IDX 56 78 57 79 65 80 58 81 59 82 63 83 66 84 60 85 61 86 64 87
REMARK SMILES IDX 62 88 41 89 42 90 50 91 43 92 44 93 48 94 51 95 45 96 46 97
REMARK SMILES IDX 49 98 47 99
REMARK H PARENT 8 5 84 19 12 33 71 52 39 63
REMARK Flexibility Score: inf
ROOT
ATOM      1  C   UNL     1      -1.879   2.901  -0.802  1.00  0.00     0.117 C 
ENDROOT
BRANCH   1   2
ATOM      2  N   UNL     1      -0.658   2.371  -1.371  1.00  0.00    -0.355 N 
ATOM      3  C   UNL     1       0.391   1.720  -0.812  1.00  0.00     0.228 C 
ATOM      4  O   UNL     1       0.929   0.900  -1.571  1.00  0.00    -0.274 OA
ATOM      5  H   UNL     1      -0.575   2.509  -2.342  1.00  0.00     0.163 HD
BRANCH   3   6
ATOM      6  C   UNL     1       0.946   1.897   0.624  1.00  0.00     0.069 C 
ATOM      7  C   UNL     1       0.650   0.579   1.401  1.00  0.00     0.021 C 
ATOM      8  C   UNL     1       0.461   3.099   1.463  1.00  0.00     0.138 C 
ATOM      9  C   UNL     1      -0.777   0.497   1.933  1.00  0.00     0.023 C 
ATOM     10  N   UNL     1      -0.843   2.939   2.121  1.00  0.00    -0.324 N 
ATOM     11  C   UNL     1      -1.057   1.687   2.836  1.00  0.00     0.121 C 
BRANCH   6  12
ATOM     12  C   UNL     1       2.529   1.993   0.518  1.00  0.00     0.047 C 
BRANCH  12  13
ATOM     13  C   UNL     1       3.198   2.572  -0.736  1.00  0.00     0.161 C 
BRANCH  13  14
ATOM     14  O   UNL     1       3.057   3.982  -0.846  1.00  0.00    -0.385 OA
ATOM     15  C   UNL     1       2.064   4.396  -1.769  1.00  0.00     0.194 C 
ENDBRANCH  13  14
ENDBRANCH  12  13
ENDBRANCH   6  12
BRANCH  10  16
ATOM     16  C   UNL     1      -1.511   4.094   2.417  1.00  0.00     0.317 C 
ATOM     17  O   UNL     1      -0.955   5.192   2.435  1.00  0.00    -0.249 OA
ATOM     18  N   UNL     1      -2.843   4.106   2.578  1.00  0.00    -0.334 N 
ATOM     19  H   UNL     1      -3.159   4.947   2.980  1.00  0.00     0.165 HD
BRANCH  18  20
ATOM     20  C   UNL     1      -3.937   3.185   2.306  1.00  0.00     0.153 C 
BRANCH  20  21
ATOM     21  C   UNL     1      -4.893   3.207   3.471  1.00  0.00    -0.028 A 
ATOM     22  C   UNL     1      -5.388   4.434   3.943  1.00  0.00     0.009 A 
ATOM     23  C   UNL     1      -5.253   2.035   4.145  1.00  0.00     0.009 A 
ATOM     24  C   UNL     1      -6.130   4.495   5.119  1.00  0.00     0.047 A 
ATOM     25  C   UNL     1      -6.027   2.098   5.313  1.00  0.00     0.047 A 
ATOM     26  C   UNL     1      -6.441   3.332   5.819  1.00  0.00     0.118 A 
BRANCH  26  27
ATOM     27  O   UNL     1      -7.134   3.547   6.976  1.00  0.00    -0.497 OA
ATOM     28  C   UNL     1      -7.547   2.399   7.701  1.00  0.00     0.278 C 
ENDBRANCH  26  27
ENDBRANCH  20  21
ENDBRANCH  18  20
ENDBRANCH  10  16
ENDBRANCH   3   6
ENDBRANCH   1   2
BRANCH   1  29
ATOM     29  C   UNL     1      -1.990   4.422  -0.839  1.00  0.00     0.042 C 
BRANCH  29  30
ATOM     30  C   UNL     1      -2.711   4.964  -2.067  1.00  0.00     0.118 C 
BRANCH  30  31
ATOM     31  N   UNL     1      -4.096   4.502  -2.138  1.00  0.00    -0.352 N 
ATOM     32  C   UNL     1      -5.295   5.106  -1.873  1.00  0.00     0.251 C 
ATOM     33  H   UNL     1      -4.184   3.567  -2.435  1.00  0.00     0.163 HD
ATOM     34  O   UNL     1      -6.285   4.380  -1.729  1.00  0.00    -0.269 OA
BRANCH  32  35
ATOM     35  C   UNL     1      -5.457   6.574  -1.762  1.00  0.00     0.039 A 
ATOM     36  C   UNL     1      -6.531   7.074  -1.012  1.00  0.00     0.014 A 
ATOM     37  C   UNL     1      -4.641   7.471  -2.451  1.00  0.00     0.014 A 
ATOM     38  C   UNL     1      -6.749   8.452  -0.918  1.00  0.00     0.010 A 
ATOM     39  C   UNL     1      -4.790   8.845  -2.269  1.00  0.00     0.010 A 
ATOM     40  C   UNL     1      -5.856   9.354  -1.516  1.00  0.00    -0.014 A 
BRANCH  40  41
ATOM     41  C   UNL     1      -6.024  10.825  -1.379  1.00  0.00     0.031 A 
ATOM     42  C   UNL     1      -6.212  11.689  -2.598  1.00  0.00     0.074 A 
ATOM     43  C   UNL     1      -5.934  11.392  -0.160  1.00  0.00     0.049 A 
ATOM     44  N   UNL     1      -6.282  12.994  -2.689  1.00  0.00    -0.248 NA
ATOM     45  C   UNL     1      -6.298  10.998  -3.895  1.00  0.00     0.031 C 
ATOM     46  C   UNL     1      -5.692  10.671   1.091  1.00  0.00     0.029 A 
ATOM     47  N   UNL     1      -6.022  12.705   0.227  1.00  0.00    -0.354 N 
ATOM     48  C   UNL     1      -6.387  13.277  -4.045  1.00  0.00     0.074 A 
ATOM     49  C   UNL     1      -6.319  12.013  -4.745  1.00  0.00     0.031 C 
ATOM     50  C   UNL     1      -5.681  11.546   2.109  1.00  0.00     0.029 A 
ATOM     51  C   UNL     1      -5.872  12.891   1.580  1.00  0.00     0.049 A 
ATOM     52  H   UNL     1      -6.177  13.444  -0.405  1.00  0.00     0.167 HD
ATOM     53  C   UNL     1      -6.551  14.478  -4.651  1.00  0.00     0.037 A 
ATOM     54  C   UNL     1      -5.882  14.022   2.311  1.00  0.00     0.037 A 
ATOM     55  C   UNL     1      -6.661  15.729  -3.946  1.00  0.00     0.049 A 
ATOM     56  C   UNL     1      -6.096  15.339   1.618  1.00  0.00     0.074 A 
ATOM     57  C   UNL     1      -6.899  16.992  -4.459  1.00  0.00     0.029 A 
ATOM     58  N   UNL     1      -6.544  15.871  -2.571  1.00  0.00    -0.354 N 
ATOM     59  N   UNL     1      -6.261  15.585   0.341  1.00  0.00    -0.248 NA
ATOM     60  C   UNL     1      -6.135  16.534   2.470  1.00  0.00     0.031 C 
ATOM     61  C   UNL     1      -6.886  17.904  -3.398  1.00  0.00     0.029 A 
ATOM     62  C   UNL     1      -6.689  17.204  -2.219  1.00  0.00     0.049 A 
ATOM     63  H   UNL     1      -6.381  15.134  -1.938  1.00  0.00     0.167 HD
ATOM     64  C   UNL     1      -6.446  16.956   0.238  1.00  0.00     0.074 A 
ATOM     65  C   UNL     1      -6.395  17.486   1.585  1.00  0.00     0.031 C 
ATOM     66  C   UNL     1      -6.639  17.711  -0.872  1.00  0.00     0.037 A 
BRANCH  53  67
ATOM     67  C   UNL     1      -6.633  14.497  -6.151  1.00  0.00     0.064 A 
ATOM     68  C   UNL     1      -7.734  13.961  -6.837  1.00  0.00     0.173 A 
ATOM     69  C   UNL     1      -5.613  15.088  -6.913  1.00  0.00     0.173 A 
ATOM     70  F   UNL     1      -8.731  13.374  -6.159  1.00  0.00    -0.203 F 
ATOM     71  C   UNL     1      -7.796  13.987  -8.228  1.00  0.00     0.198 A 
ATOM     72  C   UNL     1      -5.694  15.141  -8.303  1.00  0.00     0.198 A 
ATOM     73  F   UNL     1      -4.540  15.622  -6.311  1.00  0.00    -0.203 F 
ATOM     74  F   UNL     1      -8.832  13.420  -8.862  1.00  0.00    -0.200 F 
ATOM     75  C   UNL     1      -6.780  14.583  -8.960  1.00  0.00     0.200 A 
ATOM     76  F   UNL     1      -4.718  15.730  -9.008  1.00  0.00    -0.200 F 
ATOM     77  F   UNL     1      -6.844  14.613 -10.298  1.00  0.00    -0.200 F 
ENDBRANCH  53  67
BRANCH  54  78
ATOM     78  C   UNL     1      -5.719  13.951   3.786  1.00  0.00     0.064 A 
ATOM     79  C   UNL     1      -6.795  14.231   4.641  1.00  0.00     0.173 A 
ATOM     80  C   UNL     1      -4.495  13.599   4.372  1.00  0.00     0.173 A 
ATOM     81  F   UNL     1      -7.980  14.591   4.127  1.00  0.00    -0.203 F 
ATOM     82  C   UNL     1      -6.647  14.182   6.025  1.00  0.00     0.198 A 
ATOM     83  C   UNL     1      -4.356  13.522   5.757  1.00  0.00     0.198 A 
ATOM     84  F   UNL     1      -3.437  13.315   3.599  1.00  0.00    -0.203 F 
ATOM     85  F   UNL     1      -7.679  14.499   6.818  1.00  0.00    -0.200 F 
ATOM     86  C   UNL     1      -5.429  13.822   6.582  1.00  0.00     0.200 A 
ATOM     87  F   UNL     1      -3.182  13.159   6.291  1.00  0.00    -0.200 F 
ATOM     88  F   UNL     1      -5.289  13.770   7.913  1.00  0.00    -0.200 F 
ENDBRANCH  54  78
BRANCH  66  89
ATOM     89  C   UNL     1      -6.843  19.184  -0.669  1.00  0.00     0.064 A 
ATOM     90  C   UNL     1      -5.791  20.025  -0.278  1.00  0.00     0.173 A 
ATOM     91  C   UNL     1      -8.101  19.763  -0.890  1.00  0.00     0.173 A 
ATOM     92  F   UNL     1      -4.572  19.517  -0.039  1.00  0.00    -0.203 F 
ATOM     93  C   UNL     1      -6.000  21.388  -0.084  1.00  0.00     0.198 A 
ATOM     94  C   UNL     1      -8.299  21.131  -0.726  1.00  0.00     0.198 A 
ATOM     95  F   UNL     1      -9.139  19.003  -1.272  1.00  0.00    -0.203 F 
ATOM     96  F   UNL     1      -4.994  22.164   0.343  1.00  0.00    -0.200 F 
ATOM     97  C   UNL     1      -7.251  21.940  -0.315  1.00  0.00     0.200 A 
ATOM     98  F   UNL     1      -9.505  21.665  -0.962  1.00  0.00    -0.200 F 
ATOM     99  F   UNL     1      -7.449  23.253  -0.130  1.00  0.00    -0.200 F 
ENDBRANCH  66  89
ENDBRANCH  40  41
ENDBRANCH  32  35
ENDBRANCH  30  31
ENDBRANCH  29  30
ENDBRANCH   1  29
TORSDOF 17
