REMARK SMILES O=C(NCCCNC(=O)c1ccc(-c2c3nc(c(-c4c(F)c(F)c(F)c(F)c4F)c4ccc([nH]4)c(-c4c(F)c(F)c(F)c(F)c4F)c4nc(c(-c5c(F)c(F)c(F)c(F)c5F)c5ccc2[nH]5)C=C4)C=C3)cc1)c1ccc(NC(=S)NC(=O)C(Cl)(Cl)Cl)cc1
REMARK SMILES IDX 4 1 3 2 1 3 2 4 73 6 74 7 88 8 75 9 87 10 76 11 77 12 78 14
REMARK SMILES IDX 79 15 80 16 81 17 82 19 83 20 84 21 85 22 86 23 5 24 6 25
REMARK SMILES IDX 7 26 8 27 9 29 10 30 11 31 72 32 12 33 71 34 13 35 14 36
REMARK SMILES IDX 15 37 65 38 16 39 70 40 64 41 66 42 17 43 69 44 63 45 62 46
REMARK SMILES IDX 18 48 50 49 30 50 49 51 31 52 34 53 48 54 67 55 32 56 33 57
REMARK SMILES IDX 47 59 68 60 35 61 19 62 20 63 28 64 21 65 22 66 26 67 29 68
REMARK SMILES IDX 23 69 24 70 27 71 25 72 51 73 52 74 60 75 53 76 54 77 58 78
REMARK SMILES IDX 61 79 55 80 56 81 59 82 57 83 36 84 37 85 45 86 38 87 39 88
REMARK SMILES IDX 43 89 46 90 40 91 41 92 44 93 42 94
REMARK H PARENT 3 5 77 13 80 18 7 28 66 47 34 58
REMARK Flexibility Score: inf
ROOT
ATOM      1  C   UNL     1       4.009  -1.017   0.348  1.00  0.00     0.118 C 
ENDROOT
BRANCH   1   2
ATOM      2  N   UNL     1       2.579  -0.815   0.542  1.00  0.00    -0.352 N 
ATOM      3  O   UNL     1       0.658   0.376   0.718  1.00  0.00    -0.269 OA
ATOM      4  C   UNL     1       1.847   0.344   0.423  1.00  0.00     0.251 C 
ATOM      5  H   UNL     1       2.067  -1.618   0.791  1.00  0.00     0.163 HD
BRANCH   4   6
ATOM      6  C   UNL     1       2.530   1.571  -0.025  1.00  0.00     0.039 A 
ATOM      7  C   UNL     1       2.992   1.692  -1.339  1.00  0.00     0.016 A 
ATOM      8  C   UNL     1       2.767   2.582   0.901  1.00  0.00     0.016 A 
ATOM      9  C   UNL     1       3.835   2.756  -1.688  1.00  0.00     0.027 A 
ATOM     10  C   UNL     1       3.614   3.631   0.548  1.00  0.00     0.027 A 
ATOM     11  C   UNL     1       4.232   3.660  -0.713  1.00  0.00     0.040 A 
BRANCH  11  12
ATOM     12  N   UNL     1       5.211   4.638  -0.903  1.00  0.00    -0.332 N 
ATOM     13  H   UNL     1       5.176   5.329  -0.203  1.00  0.00     0.169 HD
BRANCH  12  14
ATOM     14  C   UNL     1       6.181   4.878  -1.786  1.00  0.00     0.177 C 
ATOM     15  S   UNL     1       6.682   6.480  -1.906  1.00  0.00    -0.040 S 
BRANCH  14  16
ATOM     16  N   UNL     1       6.878   3.992  -2.566  1.00  0.00    -0.299 N 
ATOM     17  C   UNL     1       7.284   2.694  -2.909  1.00  0.00     0.278 C 
ATOM     18  H   UNL     1       7.326   4.564  -3.230  1.00  0.00     0.172 HD
ATOM     19  O   UNL     1       7.929   2.670  -3.975  1.00  0.00    -0.270 OA
BRANCH  17  20
ATOM     20  C   UNL     1       7.031   1.401  -2.121  1.00  0.00     0.269 C 
ATOM     21  Cl  UNL     1       6.761   1.646  -0.398  1.00  0.00    -0.073 Cl
ATOM     22  Cl  UNL     1       5.743   0.477  -2.937  1.00  0.00    -0.073 Cl
ATOM     23  Cl  UNL     1       8.521   0.371  -2.247  1.00  0.00    -0.073 Cl
ENDBRANCH  17  20
ENDBRANCH  14  16
ENDBRANCH  12  14
ENDBRANCH  11  12
ENDBRANCH   4   6
ENDBRANCH   1   2
BRANCH   1  24
ATOM     24  C   UNL     1       4.739  -1.402   1.632  1.00  0.00     0.042 C 
BRANCH  24  25
ATOM     25  C   UNL     1       4.426  -2.804   2.145  1.00  0.00     0.118 C 
BRANCH  25  26
ATOM     26  N   UNL     1       4.974  -3.864   1.308  1.00  0.00    -0.352 N 
ATOM     27  C   UNL     1       5.746  -4.955   1.634  1.00  0.00     0.251 C 
ATOM     28  H   UNL     1       4.756  -3.786   0.352  1.00  0.00     0.163 HD
ATOM     29  O   UNL     1       6.187  -5.666   0.735  1.00  0.00    -0.269 OA
BRANCH  27  30
ATOM     30  C   UNL     1       6.089  -5.269   3.043  1.00  0.00     0.039 A 
ATOM     31  C   UNL     1       7.374  -5.747   3.328  1.00  0.00     0.014 A 
ATOM     32  C   UNL     1       5.166  -5.127   4.081  1.00  0.00     0.014 A 
ATOM     33  C   UNL     1       7.754  -6.000   4.650  1.00  0.00     0.010 A 
ATOM     34  C   UNL     1       5.571  -5.297   5.405  1.00  0.00     0.010 A 
ATOM     35  C   UNL     1       6.870  -5.732   5.707  1.00  0.00    -0.014 A 
BRANCH  35  36
ATOM     36  C   UNL     1       7.290  -5.885   7.128  1.00  0.00     0.031 A 
ATOM     37  C   UNL     1       6.592  -6.865   8.031  1.00  0.00     0.074 A 
ATOM     38  C   UNL     1       8.258  -5.090   7.628  1.00  0.00     0.049 A 
ATOM     39  N   UNL     1       6.763  -7.082   9.312  1.00  0.00    -0.248 NA
ATOM     40  C   UNL     1       5.541  -7.694   7.421  1.00  0.00     0.031 C 
ATOM     41  C   UNL     1       8.983  -4.066   6.876  1.00  0.00     0.029 A 
ATOM     42  N   UNL     1       8.790  -5.010   8.893  1.00  0.00    -0.354 N 
ATOM     43  C   UNL     1       5.835  -8.054   9.662  1.00  0.00     0.074 A 
ATOM     44  C   UNL     1       5.065  -8.347   8.472  1.00  0.00     0.031 C 
ATOM     45  C   UNL     1       9.879  -3.477   7.684  1.00  0.00     0.029 A 
ATOM     46  C   UNL     1       9.764  -4.050   9.021  1.00  0.00     0.049 A 
ATOM     47  H   UNL     1       8.500  -5.587   9.636  1.00  0.00     0.167 HD
ATOM     48  C   UNL     1       5.654  -8.664  10.858  1.00  0.00     0.037 A 
ATOM     49  C   UNL     1      10.478  -3.666  10.097  1.00  0.00     0.037 A 
ATOM     50  C   UNL     1       6.436  -8.390  12.037  1.00  0.00     0.049 A 
ATOM     51  C   UNL     1      10.253  -4.354  11.416  1.00  0.00     0.074 A 
ATOM     52  C   UNL     1       6.368  -9.000  13.278  1.00  0.00     0.029 A 
ATOM     53  N   UNL     1       7.426  -7.423  12.122  1.00  0.00    -0.354 N 
ATOM     54  N   UNL     1       9.419  -5.320  11.716  1.00  0.00    -0.248 NA
ATOM     55  C   UNL     1      11.076  -3.902  12.548  1.00  0.00     0.031 C 
ATOM     56  C   UNL     1       7.281  -8.367  14.128  1.00  0.00     0.029 A 
ATOM     57  C   UNL     1       7.960  -7.403  13.402  1.00  0.00     0.049 A 
ATOM     58  H   UNL     1       7.709  -6.837  11.383  1.00  0.00     0.167 HD
ATOM     59  C   UNL     1       9.637  -5.612  13.055  1.00  0.00     0.074 A 
ATOM     60  C   UNL     1      10.694  -4.732  13.508  1.00  0.00     0.031 C 
ATOM     61  C   UNL     1       9.018  -6.528  13.840  1.00  0.00     0.037 A 
BRANCH  48  62
ATOM     62  C   UNL     1       4.566  -9.696  10.956  1.00  0.00     0.064 A 
ATOM     63  C   UNL     1       4.662 -10.933  10.299  1.00  0.00     0.173 A 
ATOM     64  C   UNL     1       3.431  -9.463  11.748  1.00  0.00     0.173 A 
ATOM     65  F   UNL     1       5.722 -11.204   9.522  1.00  0.00    -0.203 F 
ATOM     66  C   UNL     1       3.649 -11.883  10.405  1.00  0.00     0.198 A 
ATOM     67  C   UNL     1       2.436 -10.428  11.878  1.00  0.00     0.198 A 
ATOM     68  F   UNL     1       3.291  -8.302  12.405  1.00  0.00    -0.203 F 
ATOM     69  F   UNL     1       3.740 -13.034   9.725  1.00  0.00    -0.200 F 
ATOM     70  C   UNL     1       2.541 -11.633  11.200  1.00  0.00     0.200 A 
ATOM     71  F   UNL     1       1.373 -10.192  12.660  1.00  0.00    -0.200 F 
ATOM     72  F   UNL     1       1.571 -12.551  11.307  1.00  0.00    -0.200 F 
ENDBRANCH  48  62
BRANCH  49  73
ATOM     73  C   UNL     1      11.493  -2.586   9.969  1.00  0.00     0.064 A 
ATOM     74  C   UNL     1      12.862  -2.868  10.084  1.00  0.00     0.173 A 
ATOM     75  C   UNL     1      11.119  -1.254   9.742  1.00  0.00     0.173 A 
ATOM     76  F   UNL     1      13.269  -4.123  10.324  1.00  0.00    -0.203 F 
ATOM     77  C   UNL     1      13.816  -1.855  10.000  1.00  0.00     0.198 A 
ATOM     78  C   UNL     1      12.075  -0.247   9.627  1.00  0.00     0.198 A 
ATOM     79  F   UNL     1       9.823  -0.931   9.620  1.00  0.00    -0.203 F 
ATOM     80  F   UNL     1      15.113  -2.146  10.165  1.00  0.00    -0.200 F 
ATOM     81  C   UNL     1      13.422  -0.547   9.766  1.00  0.00     0.200 A 
ATOM     82  F   UNL     1      11.692   1.014   9.385  1.00  0.00    -0.200 F 
ATOM     83  F   UNL     1      14.340   0.426   9.682  1.00  0.00    -0.200 F 
ENDBRANCH  49  73
BRANCH  61  84
ATOM     84  C   UNL     1       9.493  -6.655  15.259  1.00  0.00     0.064 A 
ATOM     85  C   UNL     1       9.245  -5.659  16.215  1.00  0.00     0.173 A 
ATOM     86  C   UNL     1      10.179  -7.807  15.676  1.00  0.00     0.173 A 
ATOM     87  F   UNL     1       8.607  -4.532  15.864  1.00  0.00    -0.203 F 
ATOM     88  C   UNL     1       9.693  -5.797  17.526  1.00  0.00     0.198 A 
ATOM     89  C   UNL     1      10.595  -7.957  16.996  1.00  0.00     0.198 A 
ATOM     90  F   UNL     1      10.436  -8.794  14.805  1.00  0.00    -0.203 F 
ATOM     91  F   UNL     1       9.491  -4.808  18.408  1.00  0.00    -0.200 F 
ATOM     92  C   UNL     1      10.360  -6.948  17.917  1.00  0.00     0.200 A 
ATOM     93  F   UNL     1      11.226  -9.076  17.375  1.00  0.00    -0.200 F 
ATOM     94  F   UNL     1      10.784  -7.082  19.182  1.00  0.00    -0.200 F 
ENDBRANCH  61  84
ENDBRANCH  35  36
ENDBRANCH  27  30
ENDBRANCH  25  26
ENDBRANCH  24  25
ENDBRANCH   1  24
TORSDOF 14
