REMARK SMILES CSCC[C@@H]([NH2+]Cc1cccnc1)C(=O)NCCCNC(=O)c1ccc(-c2c3nc(c(-c4c(F)c(F)c(F)c(F)c4F)c4ccc([nH]4)c(-c4c(F)c(F)c(F)c(F)c4F)c4nc(c(-c5c(F)c(F)c(F)c(F)c5F)c5ccc2[nH]5)C=C4)C=C3)cc1
REMARK SMILES IDX 17 1 16 2 14 3 15 4 5 6 4 7 3 8 2 9 1 10 6 11 7 14 8 15 9 16
REMARK SMILES IDX 13 17 10 18 12 19 11 20 18 21 19 22 20 23 21 24 22 26 23 27
REMARK SMILES IDX 24 28 85 29 25 30 84 31 26 32 27 33 28 34 78 35 29 36 83 37
REMARK SMILES IDX 77 38 79 39 30 40 82 41 76 42 75 43 31 45 63 46 43 47 62 48
REMARK SMILES IDX 44 49 47 50 61 51 80 52 45 53 46 54 60 56 81 57 48 58 32 59
REMARK SMILES IDX 33 60 41 61 34 62 35 63 39 64 42 65 36 66 37 67 40 68 38 69
REMARK SMILES IDX 64 70 65 71 73 72 66 73 67 74 71 75 74 76 68 77 69 78 72 79
REMARK SMILES IDX 70 80 49 81 50 82 58 83 51 84 52 85 56 86 59 87 53 88 54 89
REMARK SMILES IDX 57 90 55 91
REMARK H PARENT 16 5 6 12 6 13 20 25 79 44 47 55
REMARK Flexibility Score: inf
ROOT
ATOM      1  C   UNL     1       1.890   4.920   2.968  1.00  0.00     0.118 C 
ENDROOT
BRANCH   1   2
ATOM      2  N   UNL     1       0.893   3.993   3.470  1.00  0.00    -0.351 N 
ATOM      3  C   UNL     1       0.357   2.882   2.893  1.00  0.00     0.278 C 
ATOM      4  O   UNL     1      -0.546   2.304   3.504  1.00  0.00    -0.268 OA
ATOM      5  H   UNL     1       0.550   4.200   4.369  1.00  0.00     0.163 HD
BRANCH   3   6
ATOM      6  C   UNL     1       0.903   2.310   1.565  1.00  0.00     0.273 C 
BRANCH   6   7
ATOM      7  C   UNL     1       0.548   3.230   0.384  1.00  0.00     0.086 C 
BRANCH   7   8
ATOM      8  C   UNL     1       1.004   2.776  -1.003  1.00  0.00     0.076 C 
BRANCH   8   9
ATOM      9  S   UNL     1       0.004   1.456  -1.766  1.00  0.00    -0.165 SA
ATOM     10  C   UNL     1       0.663  -0.011  -0.936  1.00  0.00     0.085 C 
ENDBRANCH   8   9
ENDBRANCH   7   8
ENDBRANCH   6   7
BRANCH   6  11
ATOM     11  N   UNL     1       2.349   1.999   1.685  1.00  0.00    -0.332 N 
ATOM     12  H   UNL     1       2.857   2.879   1.776  1.00  0.00     0.347 HD
ATOM     13  H   UNL     1       2.603   1.476   0.848  1.00  0.00     0.347 HD
BRANCH  11  14
ATOM     14  C   UNL     1       2.699   1.145   2.834  1.00  0.00     0.299 C 
BRANCH  14  15
ATOM     15  C   UNL     1       2.407  -0.320   2.647  1.00  0.00     0.024 A 
ATOM     16  C   UNL     1       3.437  -1.240   2.424  1.00  0.00     0.013 A 
ATOM     17  C   UNL     1       1.115  -0.832   2.724  1.00  0.00     0.120 A 
ATOM     18  C   UNL     1       3.140  -2.590   2.252  1.00  0.00     0.021 A 
ATOM     19  N   UNL     1       0.794  -2.131   2.522  1.00  0.00    -0.264 NA
ATOM     20  C   UNL     1       1.814  -2.980   2.290  1.00  0.00     0.111 A 
ENDBRANCH  14  15
ENDBRANCH  11  14
ENDBRANCH   6  11
ENDBRANCH   3   6
ENDBRANCH   1   2
BRANCH   1  21
ATOM     21  C   UNL     1       1.244   6.250   2.594  1.00  0.00     0.042 C 
BRANCH  21  22
ATOM     22  C   UNL     1       0.640   6.985   3.786  1.00  0.00     0.118 C 
BRANCH  22  23
ATOM     23  N   UNL     1       1.649   7.398   4.751  1.00  0.00    -0.352 N 
ATOM     24  C   UNL     1       1.970   8.654   5.201  1.00  0.00     0.251 C 
ATOM     25  H   UNL     1       2.181   6.667   5.139  1.00  0.00     0.163 HD
ATOM     26  O   UNL     1       2.991   8.827   5.858  1.00  0.00    -0.269 OA
BRANCH  24  27
ATOM     27  C   UNL     1       1.099   9.802   4.876  1.00  0.00     0.039 A 
ATOM     28  C   UNL     1       1.689  11.004   4.480  1.00  0.00     0.014 A 
ATOM     29  C   UNL     1      -0.292   9.698   4.969  1.00  0.00     0.014 A 
ATOM     30  C   UNL     1       0.882  12.081   4.111  1.00  0.00     0.010 A 
ATOM     31  C   UNL     1      -1.095  10.744   4.525  1.00  0.00     0.010 A 
ATOM     32  C   UNL     1      -0.516  11.946   4.090  1.00  0.00    -0.014 A 
BRANCH  32  33
ATOM     33  C   UNL     1      -1.385  13.043   3.597  1.00  0.00     0.031 A 
ATOM     34  C   UNL     1      -2.364  13.711   4.519  1.00  0.00     0.074 A 
ATOM     35  C   UNL     1      -1.334  13.391   2.296  1.00  0.00     0.049 A 
ATOM     36  N   UNL     1      -3.245  14.643   4.256  1.00  0.00    -0.248 NA
ATOM     37  C   UNL     1      -2.375  13.253   5.918  1.00  0.00     0.031 C 
ATOM     38  C   UNL     1      -0.460  12.780   1.293  1.00  0.00     0.029 A 
ATOM     39  N   UNL     1      -2.039  14.334   1.592  1.00  0.00    -0.354 N 
ATOM     40  C   UNL     1      -3.919  14.874   5.449  1.00  0.00     0.074 A 
ATOM     41  C   UNL     1      -3.384  13.947   6.423  1.00  0.00     0.031 C 
ATOM     42  C   UNL     1      -0.664  13.380   0.110  1.00  0.00     0.029 A 
ATOM     43  C   UNL     1      -1.710  14.386   0.260  1.00  0.00     0.049 A 
ATOM     44  H   UNL     1      -2.717  14.918   2.003  1.00  0.00     0.167 HD
ATOM     45  C   UNL     1      -4.879  15.792   5.712  1.00  0.00     0.037 A 
ATOM     46  C   UNL     1      -2.205  15.150  -0.732  1.00  0.00     0.037 A 
ATOM     47  C   UNL     1      -5.395  16.723   4.742  1.00  0.00     0.049 A 
ATOM     48  C   UNL     1      -3.285  16.149  -0.416  1.00  0.00     0.074 A 
ATOM     49  C   UNL     1      -6.320  17.736   4.925  1.00  0.00     0.029 A 
ATOM     50  N   UNL     1      -5.035  16.749   3.402  1.00  0.00    -0.354 N 
ATOM     51  N   UNL     1      -3.858  16.413   0.732  1.00  0.00    -0.248 NA
ATOM     52  C   UNL     1      -3.784  16.958  -1.537  1.00  0.00     0.031 C 
ATOM     53  C   UNL     1      -6.561  18.338   3.685  1.00  0.00     0.029 A 
ATOM     54  C   UNL     1      -5.744  17.739   2.740  1.00  0.00     0.049 A 
ATOM     55  H   UNL     1      -4.374  16.151   2.983  1.00  0.00     0.167 HD
ATOM     56  C   UNL     1      -4.767  17.431   0.480  1.00  0.00     0.074 A 
ATOM     57  C   UNL     1      -4.654  17.752  -0.928  1.00  0.00     0.031 C 
ATOM     58  C   UNL     1      -5.622  18.043   1.336  1.00  0.00     0.037 A 
BRANCH  45  59
ATOM     59  C   UNL     1      -5.437  15.835   7.106  1.00  0.00     0.064 A 
ATOM     60  C   UNL     1      -4.668  16.276   8.194  1.00  0.00     0.173 A 
ATOM     61  C   UNL     1      -6.769  15.468   7.352  1.00  0.00     0.173 A 
ATOM     62  F   UNL     1      -3.385  16.629   8.016  1.00  0.00    -0.203 F 
ATOM     63  C   UNL     1      -5.200  16.316   9.480  1.00  0.00     0.198 A 
ATOM     64  C   UNL     1      -7.308  15.541   8.634  1.00  0.00     0.198 A 
ATOM     65  F   UNL     1      -7.551  15.046   6.348  1.00  0.00    -0.203 F 
ATOM     66  F   UNL     1      -4.430  16.691  10.511  1.00  0.00    -0.200 F 
ATOM     67  C   UNL     1      -6.521  15.956   9.698  1.00  0.00     0.200 A 
ATOM     68  F   UNL     1      -8.589  15.207   8.840  1.00  0.00    -0.200 F 
ATOM     69  F   UNL     1      -7.035  16.004  10.935  1.00  0.00    -0.200 F 
ENDBRANCH  45  59
BRANCH  46  70
ATOM     70  C   UNL     1      -1.671  15.012  -2.112  1.00  0.00     0.064 A 
ATOM     71  C   UNL     1      -0.914  16.038  -2.697  1.00  0.00     0.173 A 
ATOM     72  C   UNL     1      -1.903  13.858  -2.874  1.00  0.00     0.173 A 
ATOM     73  F   UNL     1      -0.682  17.169  -2.015  1.00  0.00    -0.203 F 
ATOM     74  C   UNL     1      -0.428  15.922  -3.997  1.00  0.00     0.198 A 
ATOM     75  C   UNL     1      -1.390  13.731  -4.163  1.00  0.00     0.198 A 
ATOM     76  F   UNL     1      -2.615  12.845  -2.359  1.00  0.00    -0.203 F 
ATOM     77  F   UNL     1       0.253  16.936  -4.548  1.00  0.00    -0.200 F 
ATOM     78  C   UNL     1      -0.661  14.766  -4.727  1.00  0.00     0.200 A 
ATOM     79  F   UNL     1      -1.603  12.605  -4.859  1.00  0.00    -0.200 F 
ATOM     80  F   UNL     1      -0.188  14.653  -5.975  1.00  0.00    -0.200 F 
ENDBRANCH  46  70
BRANCH  58  81
ATOM     81  C   UNL     1      -6.487  19.137   0.778  1.00  0.00     0.064 A 
ATOM     82  C   UNL     1      -7.550  18.860  -0.094  1.00  0.00     0.173 A 
ATOM     83  C   UNL     1      -6.272  20.473   1.149  1.00  0.00     0.173 A 
ATOM     84  F   UNL     1      -7.786  17.600  -0.492  1.00  0.00    -0.203 F 
ATOM     85  C   UNL     1      -8.349  19.884  -0.596  1.00  0.00     0.198 A 
ATOM     86  C   UNL     1      -7.094  21.490   0.671  1.00  0.00     0.198 A 
ATOM     87  F   UNL     1      -5.273  20.791   1.985  1.00  0.00    -0.203 F 
ATOM     88  F   UNL     1      -9.326  19.601  -1.469  1.00  0.00    -0.200 F 
ATOM     89  C   UNL     1      -8.126  21.196  -0.207  1.00  0.00     0.200 A 
ATOM     90  F   UNL     1      -6.886  22.756   1.059  1.00  0.00    -0.200 F 
ATOM     91  F   UNL     1      -8.901  22.179  -0.685  1.00  0.00    -0.200 F 
ENDBRANCH  58  81
ENDBRANCH  32  33
ENDBRANCH  24  27
ENDBRANCH  22  23
ENDBRANCH  21  22
ENDBRANCH   1  21
TORSDOF 16
