REMARK SMILES C[C@H]1C(=O)OC[C@@H]2C(C(=O)NCCCNC(=O)c3ccc(-c4c5nc(c(-c6c(F)c(F)c(F)c(F)c6F)c6ccc([nH]6)c(-c6c(F)c(F)c(F)c(F)c6F)c6nc(c(-c7c(F)c(F)c(F)c(F)c7F)c7ccc4[nH]7)C=C6)C=C5)cc3)=C[C@@H]3CC(C)(C)C[C@]321
REMARK SMILES IDX 14 1 13 2 12 3 11 4 9 5 10 6 8 8 1 9 2 10 3 11 88 12 5 13
REMARK SMILES IDX 4 14 7 15 82 16 87 17 6 18 81 19 83 20 84 21 85 22 86 23
REMARK SMILES IDX 15 24 16 25 17 27 18 28 19 29 80 30 20 31 79 32 21 33 22 34
REMARK SMILES IDX 23 35 73 36 24 37 78 38 72 39 74 40 25 41 77 42 71 43 70 44
REMARK SMILES IDX 26 46 58 47 38 48 57 49 39 50 42 51 56 52 75 53 40 54 41 55
REMARK SMILES IDX 55 57 76 58 43 59 27 60 28 61 36 62 29 63 30 64 34 65 37 66
REMARK SMILES IDX 31 67 32 68 35 69 33 70 59 71 60 72 68 73 61 74 62 75 66 76
REMARK SMILES IDX 69 77 63 78 64 79 67 80 65 81 44 82 45 83 53 84 46 85 47 86
REMARK SMILES IDX 51 87 54 88 48 89 49 90 52 91 50 92
REMARK H PARENT 11 7 15 26 74 45 42 56
REMARK Flexibility Score: inf
ROOT
ATOM      1  C   UNL     1       3.858   3.491  -0.050  1.00  0.00     0.118 C 
ENDROOT
BRANCH   1   2
ATOM      2  C   UNL     1       3.383   2.041   0.100  1.00  0.00     0.042 C 
BRANCH   2   3
ATOM      3  C   UNL     1       2.763   1.674   1.452  1.00  0.00     0.118 C 
BRANCH   3   4
ATOM      4  N   UNL     1       1.567   2.442   1.748  1.00  0.00    -0.352 N 
ATOM      5  C   UNL     1       0.258   2.084   1.773  1.00  0.00     0.247 C 
ATOM      6  O   UNL     1      -0.610   2.945   1.898  1.00  0.00    -0.270 OA
ATOM      7  H   UNL     1       1.734   3.387   1.969  1.00  0.00     0.163 HD
BRANCH   5   8
ATOM      8  C   UNL     1      -0.145   0.681   1.589  1.00  0.00     0.020 C 
ATOM      9  C   UNL     1       1.147  -2.682  -0.527  1.00  0.00     0.020 C 
ATOM     10  C   UNL     1       0.435  -1.340  -0.400  1.00  0.00     0.103 C 
ATOM     11  C   UNL     1       0.163  -0.776  -1.782  1.00  0.00     0.309 C 
ATOM     12  C   UNL     1      -0.873  -1.220   0.469  1.00  0.00     0.000 C 
ATOM     13  O   UNL     1      -0.211   0.525  -1.775  1.00  0.00    -0.465 OA
ATOM     14  O   UNL     1       0.388  -1.370  -2.825  1.00  0.00    -0.252 OA
ATOM     15  C   UNL     1      -1.195   0.288   0.539  1.00  0.00     0.070 C 
ATOM     16  C   UNL     1      -0.759  -1.478   1.986  1.00  0.00     0.020 C 
ATOM     17  C   UNL     1      -1.962  -2.227   0.066  1.00  0.00     0.015 C 
ATOM     18  C   UNL     1      -1.160   0.996  -0.809  1.00  0.00     0.242 C 
ATOM     19  C   UNL     1       0.153  -0.369   2.391  1.00  0.00    -0.013 C 
ATOM     20  C   UNL     1      -0.747  -2.986   2.118  1.00  0.00     0.014 C 
ATOM     21  C   UNL     1      -1.897  -3.385   1.131  1.00  0.00    -0.034 C 
ATOM     22  C   UNL     1      -3.249  -3.469   1.874  1.00  0.00     0.011 C 
ATOM     23  C   UNL     1      -1.657  -4.759   0.494  1.00  0.00     0.011 C 
ENDBRANCH   5   8
ENDBRANCH   3   4
ENDBRANCH   2   3
ENDBRANCH   1   2
BRANCH   1  24
ATOM     24  N   UNL     1       4.922   3.855   0.875  1.00  0.00    -0.352 N 
ATOM     25  C   UNL     1       6.158   4.420   0.670  1.00  0.00     0.251 C 
ATOM     26  H   UNL     1       4.719   3.662   1.819  1.00  0.00     0.163 HD
ATOM     27  O   UNL     1       6.916   4.535   1.631  1.00  0.00    -0.269 OA
BRANCH  25  28
ATOM     28  C   UNL     1       6.623   4.868  -0.668  1.00  0.00     0.039 A 
ATOM     29  C   UNL     1       7.971   4.667  -0.994  1.00  0.00     0.014 A 
ATOM     30  C   UNL     1       5.797   5.538  -1.573  1.00  0.00     0.014 A 
ATOM     31  C   UNL     1       8.469   5.067  -2.239  1.00  0.00     0.010 A 
ATOM     32  C   UNL     1       6.281   5.891  -2.840  1.00  0.00     0.010 A 
ATOM     33  C   UNL     1       7.619   5.650  -3.191  1.00  0.00    -0.014 A 
BRANCH  33  34
ATOM     34  C   UNL     1       8.110   5.967  -4.562  1.00  0.00     0.031 A 
ATOM     35  C   UNL     1       8.204   7.388  -5.046  1.00  0.00     0.074 A 
ATOM     36  C   UNL     1       8.425   4.961  -5.401  1.00  0.00     0.049 A 
ATOM     37  N   UNL     1       8.555   7.839  -6.226  1.00  0.00    -0.248 NA
ATOM     38  C   UNL     1       7.841   8.440  -4.086  1.00  0.00     0.031 C 
ATOM     39  C   UNL     1       8.346   3.536  -5.077  1.00  0.00     0.029 A 
ATOM     40  N   UNL     1       8.863   4.981  -6.704  1.00  0.00    -0.354 N 
ATOM     41  C   UNL     1       8.441   9.221  -6.156  1.00  0.00     0.074 A 
ATOM     42  C   UNL     1       7.956   9.534  -4.827  1.00  0.00     0.031 C 
ATOM     43  C   UNL     1       8.735   2.820  -6.143  1.00  0.00     0.029 A 
ATOM     44  C   UNL     1       9.057   3.730  -7.238  1.00  0.00     0.049 A 
ATOM     45  H   UNL     1       9.023   5.812  -7.206  1.00  0.00     0.167 HD
ATOM     46  C   UNL     1       8.729  10.146  -7.105  1.00  0.00     0.037 A 
ATOM     47  C   UNL     1       9.442   3.355  -8.473  1.00  0.00     0.037 A 
ATOM     48  C   UNL     1       9.235   9.844  -8.419  1.00  0.00     0.049 A 
ATOM     49  C   UNL     1       9.750   4.400  -9.508  1.00  0.00     0.074 A 
ATOM     50  C   UNL     1       9.613  10.722  -9.422  1.00  0.00     0.029 A 
ATOM     51  N   UNL     1       9.432   8.565  -8.918  1.00  0.00    -0.354 N 
ATOM     52  N   UNL     1       9.698   5.705  -9.407  1.00  0.00    -0.248 NA
ATOM     53  C   UNL     1      10.176   3.918 -10.831  1.00  0.00     0.031 C 
ATOM     54  C   UNL     1      10.001   9.976 -10.540  1.00  0.00     0.029 A 
ATOM     55  C   UNL     1       9.905   8.632 -10.220  1.00  0.00     0.049 A 
ATOM     56  H   UNL     1       9.260   7.732  -8.421  1.00  0.00     0.167 HD
ATOM     57  C   UNL     1      10.108   6.200 -10.637  1.00  0.00     0.074 A 
ATOM     58  C   UNL     1      10.417   5.055 -11.468  1.00  0.00     0.031 C 
ATOM     59  C   UNL     1      10.218   7.489 -11.039  1.00  0.00     0.037 A 
BRANCH  46  60
ATOM     60  C   UNL     1       8.504  11.589  -6.758  1.00  0.00     0.064 A 
ATOM     61  C   UNL     1       9.346  12.270  -5.867  1.00  0.00     0.173 A 
ATOM     62  C   UNL     1       7.467  12.314  -7.365  1.00  0.00     0.173 A 
ATOM     63  F   UNL     1      10.348  11.620  -5.256  1.00  0.00    -0.203 F 
ATOM     64  C   UNL     1       9.143  13.616  -5.576  1.00  0.00     0.198 A 
ATOM     65  C   UNL     1       7.283  13.667  -7.092  1.00  0.00     0.198 A 
ATOM     66  F   UNL     1       6.639  11.713  -8.233  1.00  0.00    -0.203 F 
ATOM     67  F   UNL     1       9.936  14.236  -4.691  1.00  0.00    -0.200 F 
ATOM     68  C   UNL     1       8.117  14.315  -6.194  1.00  0.00     0.200 A 
ATOM     69  F   UNL     1       6.299  14.344  -7.700  1.00  0.00    -0.200 F 
ATOM     70  F   UNL     1       7.928  15.613  -5.919  1.00  0.00    -0.200 F 
ENDBRANCH  46  60
BRANCH  47  71
ATOM     71  C   UNL     1       9.579   1.911  -8.794  1.00  0.00     0.064 A 
ATOM     72  C   UNL     1      10.842   1.333  -8.973  1.00  0.00     0.173 A 
ATOM     73  C   UNL     1       8.454   1.084  -8.929  1.00  0.00     0.173 A 
ATOM     74  F   UNL     1      11.945   2.091  -8.878  1.00  0.00    -0.203 F 
ATOM     75  C   UNL     1      10.976  -0.017  -9.290  1.00  0.00     0.198 A 
ATOM     76  C   UNL     1       8.591  -0.271  -9.221  1.00  0.00     0.198 A 
ATOM     77  F   UNL     1       7.224   1.592  -8.766  1.00  0.00    -0.203 F 
ATOM     78  F   UNL     1      12.194  -0.537  -9.496  1.00  0.00    -0.200 F 
ATOM     79  C   UNL     1       9.851  -0.819  -9.408  1.00  0.00     0.200 A 
ATOM     80  F   UNL     1       7.502  -1.045  -9.324  1.00  0.00    -0.200 F 
ATOM     81  F   UNL     1       9.981  -2.118  -9.708  1.00  0.00    -0.200 F 
ENDBRANCH  47  71
BRANCH  59  82
ATOM     82  C   UNL     1      10.724   7.737 -12.430  1.00  0.00     0.064 A 
ATOM     83  C   UNL     1       9.926   7.492 -13.557  1.00  0.00     0.173 A 
ATOM     84  C   UNL     1      12.011   8.256 -12.635  1.00  0.00     0.173 A 
ATOM     85  F   UNL     1       8.695   6.980 -13.414  1.00  0.00    -0.203 F 
ATOM     86  C   UNL     1      10.407   7.739 -14.841  1.00  0.00     0.198 A 
ATOM     87  C   UNL     1      12.479   8.526 -13.919  1.00  0.00     0.198 A 
ATOM     88  F   UNL     1      12.812   8.511 -11.590  1.00  0.00    -0.203 F 
ATOM     89  F   UNL     1       9.643   7.459 -15.906  1.00  0.00    -0.200 F 
ATOM     90  C   UNL     1      11.679   8.262 -15.020  1.00  0.00     0.200 A 
ATOM     91  F   UNL     1      13.705   9.039 -14.090  1.00  0.00    -0.200 F 
ATOM     92  F   UNL     1      12.138   8.504 -16.256  1.00  0.00    -0.200 F 
ENDBRANCH  59  82
ENDBRANCH  33  34
ENDBRANCH  25  28
ENDBRANCH   1  24
TORSDOF 10
