REMARK SMILES C[NH2+][C@]1(C(=O)NCCCNC(=O)c2ccc(-c3c4nc(c(-c5c(F)c(F)c(F)c(F)c5F)c5ccc([nH]5)c(-c5c(F)c(F)c(F)c(F)c5F)c5nc(c(-c6c(F)c(F)c(F)c(F)c6F)c6ccc3[nH]6)C=C5)C=C4)cc2)CCC[C@H](Sc2n[nH]c(=O)n2C)C1
REMARK SMILES IDX 8 1 7 2 6 3 4 4 5 5 3 7 76 8 88 9 77 10 79 11 78 12 2 13
REMARK SMILES IDX 1 14 80 17 81 18 82 19 86 20 83 21 84 22 87 23 85 25 9 26
REMARK SMILES IDX 10 27 11 28 12 30 13 31 14 32 75 33 15 34 74 35 16 36 17 37
REMARK SMILES IDX 18 38 68 39 19 40 73 41 67 42 69 43 20 44 72 45 66 46 65 47
REMARK SMILES IDX 21 49 53 50 33 51 52 52 34 53 37 54 51 55 70 56 35 57 36 58
REMARK SMILES IDX 50 60 71 61 38 62 22 63 23 64 31 65 24 66 25 67 29 68 32 69
REMARK SMILES IDX 26 70 27 71 30 72 28 73 54 74 55 75 63 76 56 77 57 78 61 79
REMARK SMILES IDX 64 80 58 81 59 82 62 83 60 84 39 85 40 86 48 87 41 88 42 89
REMARK SMILES IDX 46 90 49 91 43 92 44 93 47 94 45 95
REMARK H PARENT 6 6 2 15 2 16 83 24 10 29 69 48 37 59
REMARK Flexibility Score: inf
ROOT
ATOM      1  C   UNL     1       0.973   0.429   5.141  1.00  0.00     0.042 C 
ENDROOT
BRANCH   1   2
ATOM      2  C   UNL     1       0.419   1.223   3.974  1.00  0.00     0.118 C 
BRANCH   2   3
ATOM      3  N   UNL     1       1.036   0.845   2.715  1.00  0.00    -0.351 N 
ATOM      4  C   UNL     1       0.531   0.393   1.534  1.00  0.00     0.281 C 
ATOM      5  O   UNL     1       1.391   0.021   0.730  1.00  0.00    -0.268 OA
ATOM      6  H   UNL     1       2.016   0.934   2.716  1.00  0.00     0.163 HD
BRANCH   4   7
ATOM      7  C   UNL     1      -1.012   0.324   1.263  1.00  0.00     0.176 C 
ATOM      8  C   UNL     1      -1.550  -0.873   2.091  1.00  0.00     0.079 C 
ATOM      9  C   UNL     1      -1.725   1.673   1.604  1.00  0.00     0.094 C 
ATOM     10  C   UNL     1      -3.069  -0.926   2.196  1.00  0.00     0.008 C 
ATOM     11  C   UNL     1      -3.250   1.597   1.841  1.00  0.00     0.061 C 
ATOM     12  C   UNL     1      -3.611   0.393   2.721  1.00  0.00     0.015 C 
BRANCH   7  13
ATOM     13  N   UNL     1      -1.318  -0.040  -0.159  1.00  0.00    -0.336 N 
ATOM     14  C   UNL     1      -0.540   0.655  -1.178  1.00  0.00     0.331 C 
ATOM     15  H   UNL     1      -1.152  -1.041  -0.268  1.00  0.00     0.346 HD
ATOM     16  H   UNL     1      -2.287   0.241  -0.313  1.00  0.00     0.346 HD
ENDBRANCH   7  13
BRANCH  11  17
ATOM     17  S   UNL     1      -4.036   1.627   0.200  1.00  0.00    -0.082 SA
BRANCH  17  18
ATOM     18  C   UNL     1      -5.722   1.677   0.521  1.00  0.00     0.191 A 
ATOM     19  N   UNL     1      -6.278   1.788   1.691  1.00  0.00    -0.146 NA
ATOM     20  N   UNL     1      -6.583   1.581  -0.517  1.00  0.00    -0.273 N 
ATOM     21  N   UNL     1      -7.617   1.734   1.415  1.00  0.00    -0.226 N 
ATOM     22  C   UNL     1      -7.829   1.603   0.048  1.00  0.00     0.343 A 
ATOM     23  C   UNL     1      -6.352   1.486  -1.942  1.00  0.00     0.157 C 
ATOM     24  H   UNL     1      -8.331   1.782   2.091  1.00  0.00     0.195 HD
ATOM     25  O   UNL     1      -8.907   1.522  -0.511  1.00  0.00    -0.246 OA
ENDBRANCH  17  18
ENDBRANCH  11  17
ENDBRANCH   4   7
ENDBRANCH   2   3
ENDBRANCH   1   2
BRANCH   1  26
ATOM     26  C   UNL     1       2.479   0.532   5.296  1.00  0.00     0.118 C 
BRANCH  26  27
ATOM     27  N   UNL     1       2.933   1.891   5.564  1.00  0.00    -0.352 N 
ATOM     28  C   UNL     1       3.514   2.418   6.692  1.00  0.00     0.251 C 
ATOM     29  H   UNL     1       2.805   2.527   4.824  1.00  0.00     0.163 HD
ATOM     30  O   UNL     1       3.666   3.631   6.797  1.00  0.00    -0.269 OA
BRANCH  28  31
ATOM     31  C   UNL     1       3.917   1.523   7.795  1.00  0.00     0.039 A 
ATOM     32  C   UNL     1       3.631   1.893   9.111  1.00  0.00     0.014 A 
ATOM     33  C   UNL     1       4.546   0.305   7.530  1.00  0.00     0.014 A 
ATOM     34  C   UNL     1       3.896   0.999  10.150  1.00  0.00     0.010 A 
ATOM     35  C   UNL     1       4.693  -0.629   8.547  1.00  0.00     0.010 A 
ATOM     36  C   UNL     1       4.380  -0.290   9.870  1.00  0.00    -0.014 A 
BRANCH  36  37
ATOM     37  C   UNL     1       4.579  -1.296  10.945  1.00  0.00     0.031 A 
ATOM     38  C   UNL     1       5.946  -1.875  11.189  1.00  0.00     0.074 A 
ATOM     39  C   UNL     1       3.520  -1.738  11.653  1.00  0.00     0.049 A 
ATOM     40  N   UNL     1       6.311  -2.816  12.023  1.00  0.00    -0.248 NA
ATOM     41  C   UNL     1       7.046  -1.351  10.362  1.00  0.00     0.031 C 
ATOM     42  C   UNL     1       2.136  -1.296  11.473  1.00  0.00     0.029 A 
ATOM     43  N   UNL     1       3.441  -2.667  12.661  1.00  0.00    -0.354 N 
ATOM     44  C   UNL     1       7.670  -3.003  11.808  1.00  0.00     0.074 A 
ATOM     45  C   UNL     1       8.054  -2.131  10.721  1.00  0.00     0.031 C 
ATOM     46  C   UNL     1       1.352  -1.928  12.361  1.00  0.00     0.029 A 
ATOM     47  C   UNL     1       2.167  -2.854  13.140  1.00  0.00     0.049 A 
ATOM     48  H   UNL     1       4.224  -3.152  13.008  1.00  0.00     0.167 HD
ATOM     49  C   UNL     1       8.529  -3.809  12.477  1.00  0.00     0.037 A 
ATOM     50  C   UNL     1       1.707  -3.688  14.093  1.00  0.00     0.037 A 
ATOM     51  C   UNL     1       8.147  -4.656  13.576  1.00  0.00     0.049 A 
ATOM     52  C   UNL     1       2.682  -4.584  14.811  1.00  0.00     0.074 A 
ATOM     53  C   UNL     1       8.951  -5.464  14.360  1.00  0.00     0.029 A 
ATOM     54  N   UNL     1       6.849  -4.806  14.043  1.00  0.00    -0.354 N 
ATOM     55  N   UNL     1       3.978  -4.696  14.651  1.00  0.00    -0.248 NA
ATOM     56  C   UNL     1       2.129  -5.465  15.850  1.00  0.00     0.031 C 
ATOM     57  C   UNL     1       8.132  -6.149  15.262  1.00  0.00     0.029 A 
ATOM     58  C   UNL     1       6.827  -5.716  15.087  1.00  0.00     0.049 A 
ATOM     59  H   UNL     1       6.062  -4.336  13.685  1.00  0.00     0.167 HD
ATOM     60  C   UNL     1       4.400  -5.630  15.588  1.00  0.00     0.074 A 
ATOM     61  C   UNL     1       3.223  -6.042  16.324  1.00  0.00     0.031 C 
ATOM     62  C   UNL     1       5.649  -6.104  15.819  1.00  0.00     0.037 A 
BRANCH  49  63
ATOM     63  C   UNL     1       9.967  -3.810  12.044  1.00  0.00     0.064 A 
ATOM     64  C   UNL     1      10.796  -2.693  12.233  1.00  0.00     0.173 A 
ATOM     65  C   UNL     1      10.537  -4.958  11.473  1.00  0.00     0.173 A 
ATOM     66  F   UNL     1      10.299  -1.565  12.763  1.00  0.00    -0.203 F 
ATOM     67  C   UNL     1      12.132  -2.716  11.841  1.00  0.00     0.198 A 
ATOM     68  C   UNL     1      11.882  -4.990  11.115  1.00  0.00     0.198 A 
ATOM     69  F   UNL     1       9.792  -6.056  11.273  1.00  0.00    -0.203 F 
ATOM     70  F   UNL     1      12.889  -1.620  11.985  1.00  0.00    -0.200 F 
ATOM     71  C   UNL     1      12.677  -3.867  11.292  1.00  0.00     0.200 A 
ATOM     72  F   UNL     1      12.411  -6.108  10.599  1.00  0.00    -0.200 F 
ATOM     73  F   UNL     1      13.966  -3.892  10.928  1.00  0.00    -0.200 F 
ENDBRANCH  49  63
BRANCH  50  74
ATOM     74  C   UNL     1       0.260  -3.707  14.438  1.00  0.00     0.064 A 
ATOM     75  C   UNL     1      -0.188  -3.270  15.693  1.00  0.00     0.173 A 
ATOM     76  C   UNL     1      -0.702  -4.179  13.533  1.00  0.00     0.173 A 
ATOM     77  F   UNL     1       0.693  -2.826  16.601  1.00  0.00    -0.203 F 
ATOM     78  C   UNL     1      -1.536  -3.335  16.040  1.00  0.00     0.198 A 
ATOM     79  C   UNL     1      -2.054  -4.212  13.869  1.00  0.00     0.198 A 
ATOM     80  F   UNL     1      -0.329  -4.602  12.316  1.00  0.00    -0.203 F 
ATOM     81  F   UNL     1      -1.928  -2.967  17.268  1.00  0.00    -0.200 F 
ATOM     82  C   UNL     1      -2.469  -3.801  15.126  1.00  0.00     0.200 A 
ATOM     83  F   UNL     1      -2.953  -4.646  12.975  1.00  0.00    -0.200 F 
ATOM     84  F   UNL     1      -3.765  -3.864  15.460  1.00  0.00    -0.200 F 
ENDBRANCH  50  74
BRANCH  62  85
ATOM     85  C   UNL     1       5.819  -7.085  16.945  1.00  0.00     0.064 A 
ATOM     86  C   UNL     1       5.321  -8.394  16.870  1.00  0.00     0.173 A 
ATOM     87  C   UNL     1       6.530  -6.718  18.098  1.00  0.00     0.173 A 
ATOM     88  F   UNL     1       4.623  -8.790  15.795  1.00  0.00    -0.203 F 
ATOM     89  C   UNL     1       5.503  -9.290  17.920  1.00  0.00     0.198 A 
ATOM     90  C   UNL     1       6.742  -7.627  19.130  1.00  0.00     0.198 A 
ATOM     91  F   UNL     1       7.035  -5.481  18.218  1.00  0.00    -0.203 F 
ATOM     92  F   UNL     1       4.972 -10.518  17.850  1.00  0.00    -0.200 F 
ATOM     93  C   UNL     1       6.221  -8.909  19.045  1.00  0.00     0.200 A 
ATOM     94  F   UNL     1       7.451  -7.263  20.207  1.00  0.00    -0.200 F 
ATOM     95  F   UNL     1       6.403  -9.776  20.050  1.00  0.00    -0.200 F 
ENDBRANCH  62  85
ENDBRANCH  36  37
ENDBRANCH  28  31
ENDBRANCH  26  27
ENDBRANCH   1  26
TORSDOF 13
