REMARK SMILES NNS(=O)(=O)c1ccc(O)c(C(=O)NCCCNC(=O)c2ccc(-c3c4nc(c(-c5c(F)c(F)c(F)c(F)c5F)c5ccc([nH]5)c(-c5c(F)c(F)c(F)c(F)c5F)c5nc(c(-c6c(F)c(F)c(F)c(F)c6F)c6ccc3[nH]6)C=C5)C=C4)cc2)c1
REMARK SMILES IDX 15 1 14 2 12 3 13 4 11 6 6 7 7 8 84 9 8 10 9 11 3 12 4 13
REMARK SMILES IDX 5 14 2 15 1 17 10 20 16 22 17 23 18 24 19 25 20 27 21 28
REMARK SMILES IDX 22 29 83 30 23 31 82 32 24 33 25 34 26 35 76 36 27 37 81 38
REMARK SMILES IDX 75 39 77 40 28 41 80 42 74 43 73 44 29 46 61 47 41 48 60 49
REMARK SMILES IDX 42 50 45 51 59 52 78 53 43 54 44 55 58 57 79 58 46 59 30 60
REMARK SMILES IDX 31 61 39 62 32 63 33 64 37 65 40 66 34 67 35 68 38 69 36 70
REMARK SMILES IDX 62 71 63 72 71 73 64 74 65 75 69 76 72 77 66 78 67 79 70 80
REMARK SMILES IDX 68 81 47 82 48 83 56 84 49 85 50 86 54 87 57 88 51 89 52 90
REMARK SMILES IDX 55 91 53 92
REMARK H PARENT 14 5 2 16 1 18 1 19 10 21 18 26 77 45 45 56
REMARK Flexibility Score: inf
ROOT
ATOM      1  C   UNL     1      -1.861  -5.745   3.344  1.00  0.00     0.118 C 
ENDROOT
BRANCH   1   2
ATOM      2  N   UNL     1      -1.640  -5.843   1.917  1.00  0.00    -0.352 N 
ATOM      3  C   UNL     1      -1.778  -4.950   0.890  1.00  0.00     0.255 C 
ATOM      4  O   UNL     1      -1.544  -5.398  -0.237  1.00  0.00    -0.269 OA
ATOM      5  H   UNL     1      -1.329  -6.731   1.628  1.00  0.00     0.163 HD
BRANCH   3   6
ATOM      6  C   UNL     1      -2.089  -3.491   1.024  1.00  0.00     0.082 A 
ATOM      7  C   UNL     1      -1.790  -1.317  -0.056  1.00  0.00     0.084 A 
ATOM      8  C   UNL     1      -2.488  -0.682   0.966  1.00  0.00     0.025 A 
ATOM      9  C   UNL     1      -1.580  -2.699  -0.027  1.00  0.00     0.039 A 
ATOM     10  C   UNL     1      -3.019  -1.448   1.997  1.00  0.00     0.048 A 
ATOM     11  C   UNL     1      -2.849  -2.842   2.010  1.00  0.00     0.128 A 
BRANCH   7  12
ATOM     12  S   UNL     1      -1.196  -0.366  -1.432  1.00  0.00     0.253 S 
ATOM     13  O   UNL     1      -1.550   1.019  -1.224  1.00  0.00    -0.206 OA
ATOM     14  O   UNL     1      -1.580  -1.067  -2.641  1.00  0.00    -0.206 OA
BRANCH  12  15
ATOM     15  N   UNL     1       0.524  -0.534  -1.280  1.00  0.00    -0.150 NA
ATOM     16  H   UNL     1       0.755  -1.525  -1.211  1.00  0.00     0.160 HD
BRANCH  15  17
ATOM     17  N   UNL     1       1.017   0.132  -0.132  1.00  0.00    -0.257 NA
ATOM     18  H   UNL     1       2.028   0.011  -0.077  1.00  0.00     0.138 HD
ATOM     19  H   UNL     1       0.581  -0.262   0.702  1.00  0.00     0.138 HD
ENDBRANCH  15  17
ENDBRANCH  12  15
ENDBRANCH   7  12
BRANCH  11  20
ATOM     20  O   UNL     1      -3.517  -3.521   2.985  1.00  0.00    -0.507 OA
ATOM     21  H   UNL     1      -4.014  -3.051   3.626  1.00  0.00     0.293 HD
ENDBRANCH  11  20
ENDBRANCH   3   6
ENDBRANCH   1   2
BRANCH   1  22
ATOM     22  C   UNL     1      -3.259  -6.249   3.706  1.00  0.00     0.042 C 
BRANCH  22  23
ATOM     23  C   UNL     1      -3.353  -7.768   3.771  1.00  0.00     0.118 C 
BRANCH  23  24
ATOM     24  N   UNL     1      -2.631  -8.303   4.917  1.00  0.00    -0.352 N 
ATOM     25  C   UNL     1      -3.086  -9.027   5.987  1.00  0.00     0.251 C 
ATOM     26  H   UNL     1      -1.664  -8.115   4.923  1.00  0.00     0.163 HD
ATOM     27  O   UNL     1      -2.373  -9.158   6.978  1.00  0.00    -0.269 OA
BRANCH  25  28
ATOM     28  C   UNL     1      -4.429  -9.647   5.963  1.00  0.00     0.039 A 
ATOM     29  C   UNL     1      -5.179  -9.671   7.142  1.00  0.00     0.014 A 
ATOM     30  C   UNL     1      -4.930 -10.248   4.804  1.00  0.00     0.014 A 
ATOM     31  C   UNL     1      -6.447 -10.254   7.146  1.00  0.00     0.010 A 
ATOM     32  C   UNL     1      -6.226 -10.754   4.788  1.00  0.00     0.010 A 
ATOM     33  C   UNL     1      -6.994 -10.773   5.961  1.00  0.00    -0.014 A 
BRANCH  33  34
ATOM     34  C   UNL     1      -8.363 -11.346   5.934  1.00  0.00     0.031 A 
ATOM     35  C   UNL     1      -8.569 -12.800   5.611  1.00  0.00     0.074 A 
ATOM     36  C   UNL     1      -9.422 -10.542   6.150  1.00  0.00     0.049 A 
ATOM     37  N   UNL     1      -9.686 -13.470   5.480  1.00  0.00    -0.248 NA
ATOM     38  C   UNL     1      -7.358 -13.604   5.380  1.00  0.00     0.031 C 
ATOM     39  C   UNL     1      -9.350  -9.108   6.434  1.00  0.00     0.029 A 
ATOM     40  N   UNL     1     -10.767 -10.814   6.156  1.00  0.00    -0.354 N 
ATOM     41  C   UNL     1      -9.313 -14.765   5.145  1.00  0.00     0.074 A 
ATOM     42  C   UNL     1      -7.871 -14.774   5.031  1.00  0.00     0.031 C 
ATOM     43  C   UNL     1     -10.591  -8.632   6.613  1.00  0.00     0.029 A 
ATOM     44  C   UNL     1     -11.549  -9.713   6.411  1.00  0.00     0.049 A 
ATOM     45  H   UNL     1     -11.136 -11.711   5.992  1.00  0.00     0.167 HD
ATOM     46  C   UNL     1     -10.100 -15.854   4.975  1.00  0.00     0.037 A 
ATOM     47  C   UNL     1     -12.889  -9.591   6.464  1.00  0.00     0.037 A 
ATOM     48  C   UNL     1     -11.535 -15.839   5.100  1.00  0.00     0.049 A 
ATOM     49  C   UNL     1     -13.742 -10.811   6.233  1.00  0.00     0.074 A 
ATOM     50  C   UNL     1     -12.422 -16.895   4.987  1.00  0.00     0.029 A 
ATOM     51  N   UNL     1     -12.292 -14.706   5.360  1.00  0.00    -0.354 N 
ATOM     52  N   UNL     1     -13.375 -12.044   5.984  1.00  0.00    -0.248 NA
ATOM     53  C   UNL     1     -15.197 -10.620   6.298  1.00  0.00     0.031 C 
ATOM     54  C   UNL     1     -13.720 -16.391   5.123  1.00  0.00     0.029 A 
ATOM     55  C   UNL     1     -13.639 -15.033   5.386  1.00  0.00     0.049 A 
ATOM     56  H   UNL     1     -11.927 -13.803   5.505  1.00  0.00     0.167 HD
ATOM     57  C   UNL     1     -14.549 -12.782   5.897  1.00  0.00     0.074 A 
ATOM     58  C   UNL     1     -15.638 -11.859   6.138  1.00  0.00     0.031 C 
ATOM     59  C   UNL     1     -14.710 -14.103   5.640  1.00  0.00     0.037 A 
BRANCH  46  60
ATOM     60  C   UNL     1      -9.427 -17.155   4.637  1.00  0.00     0.064 A 
ATOM     61  C   UNL     1      -8.611 -17.825   5.563  1.00  0.00     0.173 A 
ATOM     62  C   UNL     1      -9.626 -17.759   3.386  1.00  0.00     0.173 A 
ATOM     63  F   UNL     1      -8.378 -17.288   6.771  1.00  0.00    -0.203 F 
ATOM     64  C   UNL     1      -7.995 -19.031   5.238  1.00  0.00     0.198 A 
ATOM     65  C   UNL     1      -9.037 -18.983   3.078  1.00  0.00     0.198 A 
ATOM     66  F   UNL     1     -10.401 -17.168   2.465  1.00  0.00    -0.203 F 
ATOM     67  F   UNL     1      -7.178 -19.622   6.120  1.00  0.00    -0.200 F 
ATOM     68  C   UNL     1      -8.215 -19.613   4.000  1.00  0.00     0.200 A 
ATOM     69  F   UNL     1      -9.264 -19.552   1.886  1.00  0.00    -0.200 F 
ATOM     70  F   UNL     1      -7.630 -20.778   3.692  1.00  0.00    -0.200 F 
ENDBRANCH  46  60
BRANCH  47  71
ATOM     71  C   UNL     1     -13.510  -8.273   6.763  1.00  0.00     0.064 A 
ATOM     72  C   UNL     1     -14.219  -8.066   7.955  1.00  0.00     0.173 A 
ATOM     73  C   UNL     1     -13.426  -7.202   5.862  1.00  0.00     0.173 A 
ATOM     74  F   UNL     1     -14.343  -9.064   8.842  1.00  0.00    -0.203 F 
ATOM     75  C   UNL     1     -14.846  -6.850   8.219  1.00  0.00     0.198 A 
ATOM     76  C   UNL     1     -14.024  -5.975   6.142  1.00  0.00     0.198 A 
ATOM     77  F   UNL     1     -12.753  -7.343   4.710  1.00  0.00    -0.203 F 
ATOM     78  F   UNL     1     -15.566  -6.699   9.338  1.00  0.00    -0.200 F 
ATOM     79  C   UNL     1     -14.744  -5.804   7.314  1.00  0.00     0.200 A 
ATOM     80  F   UNL     1     -13.907  -4.962   5.274  1.00  0.00    -0.200 F 
ATOM     81  F   UNL     1     -15.347  -4.635   7.568  1.00  0.00    -0.200 F 
ENDBRANCH  47  71
BRANCH  59  82
ATOM     82  C   UNL     1     -16.113 -14.640   5.654  1.00  0.00     0.064 A 
ATOM     83  C   UNL     1     -17.042 -14.314   4.654  1.00  0.00     0.173 A 
ATOM     84  C   UNL     1     -16.522 -15.524   6.665  1.00  0.00     0.173 A 
ATOM     85  F   UNL     1     -16.706 -13.462   3.674  1.00  0.00    -0.203 F 
ATOM     86  C   UNL     1     -18.336 -14.827   4.684  1.00  0.00     0.198 A 
ATOM     87  C   UNL     1     -17.805 -16.064   6.672  1.00  0.00     0.198 A 
ATOM     88  F   UNL     1     -15.672 -15.876   7.642  1.00  0.00    -0.203 F 
ATOM     89  F   UNL     1     -19.223 -14.456   3.751  1.00  0.00    -0.200 F 
ATOM     90  C   UNL     1     -18.714 -15.707   5.687  1.00  0.00     0.200 A 
ATOM     91  F   UNL     1     -18.162 -16.927   7.632  1.00  0.00    -0.200 F 
ATOM     92  F   UNL     1     -19.957 -16.206   5.709  1.00  0.00    -0.200 F 
ENDBRANCH  59  82
ENDBRANCH  33  34
ENDBRANCH  25  28
ENDBRANCH  23  24
ENDBRANCH  22  23
ENDBRANCH   1  22
TORSDOF 14
